# generated using pymatgen
data_Li3Pt2(PbO4)3
_symmetry_space_group_name_H-M   'P 1'
_cell_length_a   10.65625225
_cell_length_b   10.65625285
_cell_length_c   10.65625300
_cell_angle_alpha   109.47121902
_cell_angle_beta   109.47122016
_cell_angle_gamma   109.47122266
_symmetry_Int_Tables_number   1
_chemical_formula_structural   Li3Pt2(PbO4)3
_chemical_formula_sum   'Li12 Pt8 Pb12 O48'
_cell_volume   931.51883749
_cell_formula_units_Z   4
loop_
 _symmetry_equiv_pos_site_id
 _symmetry_equiv_pos_as_xyz
  1  'x, y, z'
loop_
 _atom_site_type_symbol
 _atom_site_label
 _atom_site_symmetry_multiplicity
 _atom_site_fract_x
 _atom_site_fract_y
 _atom_site_fract_z
 _atom_site_occupancy
  Li  Li0  1  0.875000  0.750000  0.125000  1
  Li  Li1  1  0.750000  0.375000  0.125001  1
  Li  Li2  1  0.125000  0.375000  0.250000  1
  Li  Li3  1  0.625000  0.875000  0.250000  1
  Li  Li4  1  0.250000  0.125000  0.375000  1
  Li  Li5  1  0.625000  0.250000  0.375000  1
  Li  Li6  1  0.375000  0.750000  0.625000  1
  Li  Li7  1  0.750000  0.875000  0.625000  1
  Li  Li8  1  0.375000  0.125001  0.750000  1
  Li  Li9  1  0.875000  0.625000  0.750000  1
  Li  Li10  1  0.125000  0.250000  0.875000  1
  Li  Li11  1  0.250000  0.625000  0.875000  1
  Pt  Pt12  1  0.000000  0.000000  0.000000  1
  Pt  Pt13  1  0.500001  0.000000  0.000000  1
  Pt  Pt14  1  0.500000  0.500000  0.000000  1
  Pt  Pt15  1  0.000000  0.500001  0.000000  1
  Pt  Pt16  1  0.500000  0.000000  0.500000  1
  Pt  Pt17  1  0.000000  0.500000  0.500000  1
  Pt  Pt18  1  0.000000  0.000000  0.500001  1
  Pt  Pt19  1  0.500001  0.500001  0.500001  1
  Pb  Pb20  1  0.375000  0.250000  0.125000  1
  Pb  Pb21  1  0.250000  0.875000  0.125000  1
  Pb  Pb22  1  0.875000  0.125000  0.250000  1
  Pb  Pb23  1  0.375000  0.625000  0.250000  1
  Pb  Pb24  1  0.125001  0.750000  0.375000  1
  Pb  Pb25  1  0.750000  0.625000  0.375000  1
  Pb  Pb26  1  0.875000  0.250000  0.625000  1
  Pb  Pb27  1  0.250000  0.375000  0.625000  1
  Pb  Pb28  1  0.625000  0.375000  0.750000  1
  Pb  Pb29  1  0.125000  0.875000  0.750000  1
  Pb  Pb30  1  0.750000  0.125000  0.875000  1
  Pb  Pb31  1  0.625000  0.750000  0.875000  1
  O  O32  1  0.205499  0.621900  0.030724  1
  O  O33  1  0.325225  0.408824  0.030724  1
  O  O34  1  0.878100  0.908824  0.083599  1
  O  O35  1  0.705499  0.174776  0.083599  1
  O  O36  1  0.969276  0.174776  0.091176  1
  O  O37  1  0.621899  0.916401  0.091176  1
  O  O38  1  0.591176  0.416401  0.121900  1
  O  O39  1  0.030724  0.705499  0.121900  1
  O  O40  1  0.469276  0.091176  0.174775  1
  O  O41  1  0.205499  0.083599  0.174775  1
  O  O42  1  0.121899  0.530723  0.205498  1
  O  O43  1  0.583600  0.674775  0.205499  1
  O  O44  1  0.469276  0.878100  0.294501  1
  O  O45  1  0.325225  0.416401  0.294502  1
  O  O46  1  0.908824  0.530724  0.325225  1
  O  O47  1  0.916401  0.794501  0.325225  1
  O  O48  1  0.583599  0.408824  0.378101  1
  O  O49  1  0.294501  0.969276  0.378101  1
  O  O50  1  0.825225  0.030724  0.408824  1
  O  O51  1  0.083599  0.378100  0.408824  1
  O  O52  1  0.091176  0.121899  0.416401  1
  O  O53  1  0.825225  0.294501  0.416401  1
  O  O54  1  0.378100  0.794501  0.469275  1
  O  O55  1  0.591176  0.674775  0.469276  1
  O  O56  1  0.408824  0.325225  0.530723  1
  O  O57  1  0.621900  0.205499  0.530724  1
  O  O58  1  0.174775  0.705499  0.583599  1
  O  O59  1  0.908824  0.878100  0.583599  1
  O  O60  1  0.916401  0.621900  0.591176  1
  O  O61  1  0.174775  0.969276  0.591176  1
  O  O62  1  0.705499  0.030724  0.621900  1
  O  O63  1  0.416401  0.591176  0.621900  1
  O  O64  1  0.083599  0.205499  0.674775  1
  O  O65  1  0.091176  0.469276  0.674775  1
  O  O66  1  0.530724  0.121900  0.705499  1
  O  O67  1  0.674775  0.583599  0.705499  1
  O  O68  1  0.416401  0.325225  0.794501  1
  O  O69  1  0.878100  0.469276  0.794501  1
  O  O70  1  0.530723  0.908824  0.825225  1
  O  O71  1  0.794501  0.916401  0.825225  1
  O  O72  1  0.969276  0.294502  0.878100  1
  O  O73  1  0.408824  0.583600  0.878100  1
  O  O74  1  0.378101  0.083599  0.908824  1
  O  O75  1  0.030724  0.825225  0.908824  1
  O  O76  1  0.294502  0.825225  0.916401  1
  O  O77  1  0.121900  0.091176  0.916401  1
  O  O78  1  0.794501  0.378101  0.969276  1
  O  O79  1  0.674775  0.591176  0.969276  1
