# generated using pymatgen
data_Hf8Zr2Ga2SnSb5
_symmetry_space_group_name_H-M   'P 1'
_cell_length_a   8.65766923
_cell_length_b   8.63413430
_cell_length_c   5.81446200
_cell_angle_alpha   90.00000000
_cell_angle_beta   90.00000000
_cell_angle_gamma   119.91012113
_symmetry_Int_Tables_number   1
_chemical_formula_structural   Hf8Zr2Ga2SnSb5
_chemical_formula_sum   'Hf8 Zr2 Ga2 Sn1 Sb5'
_cell_volume   376.74940639
_cell_formula_units_Z   1
loop_
 _symmetry_equiv_pos_site_id
 _symmetry_equiv_pos_as_xyz
  1  'x, y, z'
loop_
 _atom_site_type_symbol
 _atom_site_label
 _atom_site_symmetry_multiplicity
 _atom_site_fract_x
 _atom_site_fract_y
 _atom_site_fract_z
 _atom_site_occupancy
  Hf  Hf0  1  0.000000  0.263958  0.750000  1
  Hf  Hf1  1  0.271864  0.272946  0.250000  1
  Hf  Hf2  1  0.728136  0.001082  0.250000  1
  Hf  Hf3  1  0.000000  0.730104  0.250000  1
  Hf  Hf4  1  0.667015  0.333223  0.001167  1
  Hf  Hf5  1  0.332985  0.666210  0.001167  1
  Hf  Hf6  1  0.332985  0.666210  0.498833  1
  Hf  Hf7  1  0.667015  0.333223  0.498833  1
  Zr  Zr8  1  0.736408  0.734963  0.750000  1
  Zr  Zr9  1  0.263592  0.998555  0.750000  1
  Ga  Ga10  1  0.000000  0.001516  0.007876  1
  Ga  Ga11  1  0.000000  0.001516  0.492124  1
  Sn  Sn12  1  0.000000  0.387225  0.250000  1
  Sb  Sb13  1  0.390849  0.391844  0.750000  1
  Sb  Sb14  1  0.609151  0.000995  0.750000  1
  Sb  Sb15  1  0.000000  0.604676  0.750000  1
  Sb  Sb16  1  0.612418  0.612085  0.250000  1
  Sb  Sb17  1  0.387582  0.999667  0.250000  1
