# generated using pymatgen
data_TlS8Br3
_symmetry_space_group_name_H-M   'P 1'
_cell_length_a   8.52590698
_cell_length_b   10.66770029
_cell_length_c   12.45787459
_cell_angle_alpha   97.44043961
_cell_angle_beta   113.08561158
_cell_angle_gamma   103.94018714
_symmetry_Int_Tables_number   1
_chemical_formula_structural   TlS8Br3
_chemical_formula_sum   'Tl2 S16 Br6'
_cell_volume   979.28789056
_cell_formula_units_Z   2
loop_
 _symmetry_equiv_pos_site_id
 _symmetry_equiv_pos_as_xyz
  1  'x, y, z'
loop_
 _atom_site_type_symbol
 _atom_site_label
 _atom_site_symmetry_multiplicity
 _atom_site_fract_x
 _atom_site_fract_y
 _atom_site_fract_z
 _atom_site_occupancy
  Tl  Tl0  1  0.799428  0.978080  0.842967  1
  Tl  Tl1  1  0.200572  0.021920  0.157033  1
  S  S2  1  0.850673  0.491905  0.799442  1
  S  S3  1  0.149327  0.508095  0.200558  1
  S  S4  1  0.708569  0.409920  0.616345  1
  S  S5  1  0.291431  0.590080  0.383655  1
  S  S6  1  0.741050  0.227040  0.575097  1
  S  S7  1  0.258950  0.772960  0.424903  1
  S  S8  1  0.942575  0.249987  0.520269  1
  S  S9  1  0.057425  0.750013  0.479731  1
  S  S10  1  0.904027  0.375754  0.163894  1
  S  S11  1  0.095973  0.624246  0.836106  1
  S  S12  1  0.710975  0.469448  0.111443  1
  S  S13  1  0.289025  0.530552  0.888557  1
  S  S14  1  0.668716  0.536452  0.257564  1
  S  S15  1  0.331284  0.463548  0.742436  1
  S  S16  1  0.819826  0.734662  0.336246  1
  S  S17  1  0.180174  0.265338  0.663754  1
  Br  Br18  1  0.571881  0.095566  0.838268  1
  Br  Br19  1  0.428119  0.904434  0.161732  1
  Br  Br20  1  0.850270  0.846912  0.025501  1
  Br  Br21  1  0.149730  0.153088  0.974499  1
  Br  Br22  1  0.795323  0.829076  0.664629  1
  Br  Br23  1  0.204677  0.170924  0.335371  1
