# generated using pymatgen
data_Ta11NbGa8(CuC)4
_symmetry_space_group_name_H-M   'P 1'
_cell_length_a   8.28044917
_cell_length_b   8.28692011
_cell_length_c   8.28078888
_cell_angle_alpha   59.97544524
_cell_angle_beta   59.96408507
_cell_angle_gamma   59.97405229
_symmetry_Int_Tables_number   1
_chemical_formula_structural   Ta11NbGa8(CuC)4
_chemical_formula_sum   'Ta11 Nb1 Ga8 Cu4 C4'
_cell_volume   401.53182271
_cell_formula_units_Z   1
loop_
 _symmetry_equiv_pos_site_id
 _symmetry_equiv_pos_as_xyz
  1  'x, y, z'
loop_
 _atom_site_type_symbol
 _atom_site_label
 _atom_site_symmetry_multiplicity
 _atom_site_fract_x
 _atom_site_fract_y
 _atom_site_fract_z
 _atom_site_occupancy
  Ta  Ta0  1  0.316901  0.682995  0.683221  1
  Ta  Ta1  1  0.683222  0.316882  0.316902  1
  Ta  Ta2  1  0.316780  0.683222  0.316775  1
  Ta  Ta3  1  0.683222  0.682994  0.316901  1
  Ta  Ta4  1  0.316901  0.316883  0.683221  1
  Ta  Ta5  1  0.566912  0.566543  0.933217  1
  Ta  Ta6  1  0.933220  0.566536  0.566915  1
  Ta  Ta7  1  0.566912  0.933329  0.933216  1
  Ta  Ta8  1  0.933220  0.933329  0.566915  1
  Ta  Ta9  1  0.683349  0.316650  0.683351  1
  Ta  Ta10  1  0.933066  0.566935  0.933065  1
  Nb  Nb11  1  0.565917  0.934076  0.565930  1
  Ga  Ga12  1  0.915200  0.915106  0.915195  1
  Ga  Ga13  1  0.995491  0.334863  0.334782  1
  Ga  Ga14  1  0.334881  0.995473  0.334889  1
  Ga  Ga15  1  0.334776  0.334866  0.995490  1
  Ga  Ga16  1  0.915200  0.254500  0.915195  1
  Ga  Ga17  1  0.915147  0.915134  0.254587  1
  Ga  Ga18  1  0.254597  0.915131  0.915141  1
  Ga  Ga19  1  0.334881  0.334757  0.334889  1
  Cu  Cu20  1  0.125007  0.125070  0.125009  1
  Cu  Cu21  1  0.625049  0.125287  0.124376  1
  Cu  Cu22  1  0.125007  0.624914  0.125009  1
  Cu  Cu23  1  0.124373  0.125290  0.625047  1
  C  C24  1  0.625275  0.623679  0.625268  1
  C  C25  1  0.125129  0.624889  0.625093  1
  C  C26  1  0.625275  0.125778  0.625268  1
  C  C27  1  0.625093  0.624889  0.125130  1
