# generated using pymatgen
data_Zr14TaNb(Ir2N)4
_symmetry_space_group_name_H-M   'P 1'
_cell_length_a   8.78424778
_cell_length_b   8.78424673
_cell_length_c   8.83420564
_cell_angle_alpha   59.91763668
_cell_angle_beta   59.91764032
_cell_angle_gamma   59.65485612
_symmetry_Int_Tables_number   1
_chemical_formula_structural   Zr14TaNb(Ir2N)4
_chemical_formula_sum   'Zr14 Ta1 Nb1 Ir8 N4'
_cell_volume   480.15007853
_cell_formula_units_Z   1
loop_
 _symmetry_equiv_pos_site_id
 _symmetry_equiv_pos_as_xyz
  1  'x, y, z'
loop_
 _atom_site_type_symbol
 _atom_site_label
 _atom_site_symmetry_multiplicity
 _atom_site_fract_x
 _atom_site_fract_y
 _atom_site_fract_z
 _atom_site_occupancy
  Zr  Zr0  1  0.125000  0.625000  0.625000  1
  Zr  Zr1  1  0.625000  0.125000  0.625000  1
  Zr  Zr2  1  0.813393  0.813393  0.186559  1
  Zr  Zr3  1  0.183167  0.183167  0.816630  1
  Zr  Zr4  1  0.814690  0.185971  0.815253  1
  Zr  Zr5  1  0.185848  0.814467  0.184294  1
  Zr  Zr6  1  0.185971  0.814690  0.815253  1
  Zr  Zr7  1  0.814467  0.185848  0.184294  1
  Zr  Zr8  1  0.436607  0.436607  0.063441  1
  Zr  Zr9  1  0.066833  0.066833  0.433370  1
  Zr  Zr10  1  0.435310  0.064029  0.434747  1
  Zr  Zr11  1  0.064152  0.435533  0.065706  1
  Zr  Zr12  1  0.064029  0.435310  0.434747  1
  Zr  Zr13  1  0.435533  0.064152  0.065706  1
  Ta  Ta14  1  0.625000  0.625000  0.625000  1
  Nb  Nb15  1  0.625000  0.625000  0.125000  1
  Ir  Ir16  1  0.760067  0.421290  0.410580  1
  Ir  Ir17  1  0.421290  0.760067  0.410580  1
  Ir  Ir18  1  0.415099  0.415099  0.770172  1
  Ir  Ir19  1  0.414625  0.414625  0.400724  1
  Ir  Ir20  1  0.489933  0.828710  0.839420  1
  Ir  Ir21  1  0.828710  0.489933  0.839420  1
  Ir  Ir22  1  0.834901  0.834901  0.479828  1
  Ir  Ir23  1  0.835375  0.835375  0.849276  1
  N  N24  1  0.625000  0.125000  0.125000  1
  N  N25  1  0.125000  0.625000  0.125000  1
  N  N26  1  0.125000  0.125000  0.625000  1
  N  N27  1  0.125000  0.125000  0.125000  1
