# generated using pymatgen
data_YEr3(CO5)2
_symmetry_space_group_name_H-M   'P 1'
_cell_length_a   3.90101694
_cell_length_b   3.90101692
_cell_length_c   15.06437504
_cell_angle_alpha   90.03028733
_cell_angle_beta   89.96971214
_cell_angle_gamma   122.26904177
_symmetry_Int_Tables_number   1
_chemical_formula_structural   YEr3(CO5)2
_chemical_formula_sum   'Y1 Er3 C2 O10'
_cell_volume   193.84126124
_cell_formula_units_Z   1
loop_
 _symmetry_equiv_pos_site_id
 _symmetry_equiv_pos_as_xyz
  1  'x, y, z'
loop_
 _atom_site_type_symbol
 _atom_site_label
 _atom_site_symmetry_multiplicity
 _atom_site_fract_x
 _atom_site_fract_y
 _atom_site_fract_z
 _atom_site_occupancy
  Y  Y0  1  0.335007  0.664993  0.592837  1
  Er  Er1  1  0.335659  0.664341  0.908435  1
  Er  Er2  1  0.664539  0.335461  0.092641  1
  Er  Er3  1  0.664584  0.335416  0.405739  1
  C  C4  1  0.074269  0.925731  0.751793  1
  C  C5  1  0.926093  0.073907  0.249308  1
  O  O6  1  0.984815  0.015185  0.827975  1
  O  O7  1  0.014421  0.985579  0.172720  1
  O  O8  1  0.014523  0.985477  0.325710  1
  O  O9  1  0.986612  0.013388  0.674919  1
  O  O10  1  0.335645  0.664355  0.440122  1
  O  O11  1  0.663808  0.336192  0.555593  1
  O  O12  1  0.664207  0.335793  0.943148  1
  O  O13  1  0.335663  0.664337  0.057645  1
  O  O14  1  0.261559  0.738441  0.752107  1
  O  O15  1  0.738597  0.261403  0.249312  1
