# generated using pymatgen
data_Zr4CoBi2
_symmetry_space_group_name_H-M   'P 1'
_cell_length_a   8.34109932
_cell_length_b   8.34109942
_cell_length_c   8.34110039
_cell_angle_alpha   95.67800821
_cell_angle_beta   95.67800588
_cell_angle_gamma   143.33344748
_symmetry_Int_Tables_number   1
_chemical_formula_structural   Zr4CoBi2
_chemical_formula_sum   'Zr8 Co2 Bi4'
_cell_volume   328.95451661
_cell_formula_units_Z   2
loop_
 _symmetry_equiv_pos_site_id
 _symmetry_equiv_pos_as_xyz
  1  'x, y, z'
loop_
 _atom_site_type_symbol
 _atom_site_label
 _atom_site_symmetry_multiplicity
 _atom_site_fract_x
 _atom_site_fract_y
 _atom_site_fract_z
 _atom_site_occupancy
  Zr  Zr0  1  0.696047  0.581908  0.277955  1
  Zr  Zr1  1  0.581908  0.303953  0.885863  1
  Zr  Zr2  1  0.081908  0.196047  0.277955  1
  Zr  Zr3  1  0.918092  0.803953  0.722045  1
  Zr  Zr4  1  0.196047  0.918092  0.114137  1
  Zr  Zr5  1  0.803953  0.081908  0.885863  1
  Zr  Zr6  1  0.303953  0.418092  0.722045  1
  Zr  Zr7  1  0.418092  0.696047  0.114137  1
  Co  Co8  1  0.250000  0.250000  0.000000  1
  Co  Co9  1  0.750000  0.750000  0.000000  1
  Bi  Bi10  1  0.139535  0.639535  0.779071  1
  Bi  Bi11  1  0.360465  0.139535  0.500000  1
  Bi  Bi12  1  0.639535  0.860465  0.500000  1
  Bi  Bi13  1  0.860465  0.360465  0.220929  1
