# generated using pymatgen
data_Lu10TlIn5O2
_symmetry_space_group_name_H-M   'P 1'
_cell_length_a   8.99164024
_cell_length_b   8.99164018
_cell_length_c   8.99164000
_cell_angle_alpha   127.67044065
_cell_angle_beta   127.67043230
_cell_angle_gamma   77.15951833
_symmetry_Int_Tables_number   1
_chemical_formula_structural   Lu10TlIn5O2
_chemical_formula_sum   'Lu10 Tl1 In5 O2'
_cell_volume   442.00440302
_cell_formula_units_Z   1
loop_
 _symmetry_equiv_pos_site_id
 _symmetry_equiv_pos_as_xyz
  1  'x, y, z'
loop_
 _atom_site_type_symbol
 _atom_site_label
 _atom_site_symmetry_multiplicity
 _atom_site_fract_x
 _atom_site_fract_y
 _atom_site_fract_z
 _atom_site_occupancy
  Lu  Lu0  1  0.503415  0.309396  0.501830  1
  Lu  Lu1  1  0.807566  0.001583  0.498170  1
  Lu  Lu2  1  0.001583  0.503415  0.194018  1
  Lu  Lu3  1  0.309396  0.807566  0.805982  1
  Lu  Lu4  1  0.500886  0.694774  0.501520  1
  Lu  Lu5  1  0.193254  0.999364  0.498480  1
  Lu  Lu6  1  0.999364  0.500886  0.806111  1
  Lu  Lu7  1  0.694774  0.193254  0.193889  1
  Lu  Lu8  1  0.503167  0.503167  0.000000  1
  Lu  Lu9  1  0.999386  0.999386  0.000000  1
  Tl  Tl10  1  0.250835  0.250835  0.000000  1
  In  In11  1  0.137284  0.365198  0.500014  1
  In  In12  1  0.865184  0.637270  0.499986  1
  In  In13  1  0.637270  0.137284  0.772084  1
  In  In14  1  0.365198  0.865184  0.227916  1
  In  In15  1  0.751568  0.751568  0.000000  1
  O  O16  1  0.751354  0.251354  0.500000  1
  O  O17  1  0.251354  0.751354  0.500000  1
