# generated using pymatgen
data_Tb16MgHg3Pt4
_symmetry_space_group_name_H-M   'P 1'
_cell_length_a   9.73116023
_cell_length_b   9.71989089
_cell_length_c   9.71989100
_cell_angle_alpha   60.00000302
_cell_angle_beta   60.03830419
_cell_angle_gamma   60.03830538
_symmetry_Int_Tables_number   1
_chemical_formula_structural   Tb16MgHg3Pt4
_chemical_formula_sum   'Tb16 Mg1 Hg3 Pt4'
_cell_volume   650.46453646
_cell_formula_units_Z   1
loop_
 _symmetry_equiv_pos_site_id
 _symmetry_equiv_pos_as_xyz
  1  'x, y, z'
loop_
 _atom_site_type_symbol
 _atom_site_label
 _atom_site_symmetry_multiplicity
 _atom_site_fract_x
 _atom_site_fract_y
 _atom_site_fract_z
 _atom_site_occupancy
  Tb  Tb0  1  0.352823  0.350753  0.350753  1
  Tb  Tb1  1  0.352823  0.350753  0.945672  1
  Tb  Tb2  1  0.352823  0.945672  0.350753  1
  Tb  Tb3  1  0.937397  0.354201  0.354201  1
  Tb  Tb4  1  0.807338  0.191548  0.191548  1
  Tb  Tb5  1  0.187730  0.811230  0.811230  1
  Tb  Tb6  1  0.187730  0.811230  0.189808  1
  Tb  Tb7  1  0.807338  0.191548  0.809568  1
  Tb  Tb8  1  0.187730  0.189808  0.811230  1
  Tb  Tb9  1  0.807338  0.809568  0.191548  1
  Tb  Tb10  1  0.933595  0.564856  0.564856  1
  Tb  Tb11  1  0.563609  0.936011  0.936011  1
  Tb  Tb12  1  0.563609  0.936011  0.564369  1
  Tb  Tb13  1  0.933595  0.564856  0.936693  1
  Tb  Tb14  1  0.563609  0.564369  0.936011  1
  Tb  Tb15  1  0.933595  0.936693  0.564856  1
  Mg  Mg16  1  0.282777  0.572408  0.572408  1
  Hg  Hg17  1  0.582866  0.587958  0.587958  1
  Hg  Hg18  1  0.582866  0.587958  0.241219  1
  Hg  Hg19  1  0.582866  0.241219  0.587958  1
  Pt  Pt20  1  0.141564  0.144285  0.144285  1
  Pt  Pt21  1  0.141564  0.144285  0.569864  1
  Pt  Pt22  1  0.141564  0.569864  0.144285  1
  Pt  Pt23  1  0.571251  0.142916  0.142916  1
