# generated using pymatgen
data_Lu6Zn21Ni2C
_symmetry_space_group_name_H-M   'P 1'
_cell_length_a   8.86307499
_cell_length_b   8.87783895
_cell_length_c   8.86307400
_cell_angle_alpha   59.94403660
_cell_angle_beta   59.70363254
_cell_angle_gamma   59.94407284
_symmetry_Int_Tables_number   1
_chemical_formula_structural   Lu6Zn21Ni2C
_chemical_formula_sum   'Lu6 Zn21 Ni2 C1'
_cell_volume   491.60100141
_cell_formula_units_Z   1
loop_
 _symmetry_equiv_pos_site_id
 _symmetry_equiv_pos_as_xyz
  1  'x, y, z'
loop_
 _atom_site_type_symbol
 _atom_site_label
 _atom_site_symmetry_multiplicity
 _atom_site_fract_x
 _atom_site_fract_y
 _atom_site_fract_z
 _atom_site_occupancy
  Lu  Lu0  1  0.691636  0.305224  0.308366  1
  Lu  Lu1  1  0.308364  0.694776  0.691634  1
  Lu  Lu2  1  0.306538  0.693464  0.306538  1
  Lu  Lu3  1  0.693462  0.306536  0.693462  1
  Lu  Lu4  1  0.308366  0.305224  0.691636  1
  Lu  Lu5  1  0.691634  0.694776  0.308364  1
  Zn  Zn6  1  0.117525  0.114126  0.117525  1
  Zn  Zn7  1  0.882475  0.885874  0.882475  1
  Zn  Zn8  1  0.127661  0.112362  0.647611  1
  Zn  Zn9  1  0.117526  0.650829  0.117526  1
  Zn  Zn10  1  0.872339  0.887638  0.352389  1
  Zn  Zn11  1  0.882474  0.349171  0.882474  1
  Zn  Zn12  1  0.647611  0.112362  0.127661  1
  Zn  Zn13  1  0.352389  0.887638  0.872339  1
  Zn  Zn14  1  0.500000  0.000000  0.000000  1
  Zn  Zn15  1  0.000000  0.500000  0.500000  1
  Zn  Zn16  1  0.000000  0.500000  0.000000  1
  Zn  Zn17  1  0.000000  0.000000  0.500000  1
  Zn  Zn18  1  0.500000  0.500000  0.000000  1
  Zn  Zn19  1  0.332692  0.320409  0.332693  1
  Zn  Zn20  1  0.667308  0.679591  0.667307  1
  Zn  Zn21  1  0.328138  0.329030  0.013804  1
  Zn  Zn22  1  0.332696  0.014206  0.332696  1
  Zn  Zn23  1  0.671862  0.670970  0.986196  1
  Zn  Zn24  1  0.667304  0.985794  0.667304  1
  Zn  Zn25  1  0.013804  0.329030  0.328138  1
  Zn  Zn26  1  0.986196  0.670970  0.671862  1
  Ni  Ni27  1  0.500000  0.000000  0.500000  1
  Ni  Ni28  1  0.000000  0.000000  0.000000  1
  C  C29  1  0.500000  0.500000  0.500000  1
