# generated using pymatgen
data_Pr6Ga8SCl
_symmetry_space_group_name_H-M   'P 1'
_cell_length_a   8.05072131
_cell_length_b   8.05072065
_cell_length_c   8.05072092
_cell_angle_alpha   119.39454381
_cell_angle_beta   119.39455129
_cell_angle_gamma   91.05191133
_symmetry_Int_Tables_number   1
_chemical_formula_structural   Pr6Ga8SCl
_chemical_formula_sum   'Pr6 Ga8 S1 Cl1'
_cell_volume   372.27720081
_cell_formula_units_Z   1
loop_
 _symmetry_equiv_pos_site_id
 _symmetry_equiv_pos_as_xyz
  1  'x, y, z'
loop_
 _atom_site_type_symbol
 _atom_site_label
 _atom_site_symmetry_multiplicity
 _atom_site_fract_x
 _atom_site_fract_y
 _atom_site_fract_z
 _atom_site_occupancy
  Pr  Pr0  1  0.843653  0.668045  0.511697  1
  Pr  Pr1  1  0.668045  0.156347  0.824392  1
  Pr  Pr2  1  0.331955  0.843653  0.175608  1
  Pr  Pr3  1  0.156347  0.331955  0.488303  1
  Pr  Pr4  1  0.246764  0.246764  0.000000  1
  Pr  Pr5  1  0.753236  0.753236  0.000000  1
  Ga  Ga6  1  0.161406  0.947066  0.501531  1
  Ga  Ga7  1  0.445533  0.659875  0.498469  1
  Ga  Ga8  1  0.554467  0.340125  0.501531  1
  Ga  Ga9  1  0.659875  0.161406  0.214340  1
  Ga  Ga10  1  0.838594  0.052934  0.498469  1
  Ga  Ga11  1  0.052934  0.554467  0.214340  1
  Ga  Ga12  1  0.340125  0.838594  0.785660  1
  Ga  Ga13  1  0.947066  0.445533  0.785660  1
  S  S14  1  0.000000  0.000000  0.000000  1
  Cl  Cl15  1  0.500000  0.500000  0.000000  1
