# generated using pymatgen
data_Ba3Ta2FeO9
_symmetry_space_group_name_H-M   'P 1'
_cell_length_a   5.87950400
_cell_length_b   5.87950415
_cell_length_c   7.17470600
_cell_angle_alpha   90.00000000
_cell_angle_beta   90.00000000
_cell_angle_gamma   119.99999915
_symmetry_Int_Tables_number   1
_chemical_formula_structural   Ba3Ta2FeO9
_chemical_formula_sum   'Ba3 Ta2 Fe1 O9'
_cell_volume   214.79102795
_cell_formula_units_Z   1
loop_
 _symmetry_equiv_pos_site_id
 _symmetry_equiv_pos_as_xyz
  1  'x, y, z'
loop_
 _atom_site_type_symbol
 _atom_site_label
 _atom_site_symmetry_multiplicity
 _atom_site_fract_x
 _atom_site_fract_y
 _atom_site_fract_z
 _atom_site_occupancy
  Ba  Ba0  1  0.333333  0.666667  0.662956  1
  Ba  Ba1  1  0.666667  0.333333  0.337044  1
  Ba  Ba2  1  0.000000  0.000000  0.000000  1
  Ta  Ta3  1  0.333333  0.666667  0.174660  1
  Ta  Ta4  1  0.666667  0.333333  0.825340  1
  Fe  Fe5  1  0.000000  0.000000  0.500000  1
  O  O6  1  0.173815  0.826185  0.323435  1
  O  O7  1  0.826185  0.173815  0.676565  1
  O  O8  1  0.173815  0.347629  0.323435  1
  O  O9  1  0.826185  0.652371  0.676565  1
  O  O10  1  0.652371  0.826185  0.323435  1
  O  O11  1  0.347629  0.173815  0.676565  1
  O  O12  1  0.500000  0.000000  0.000000  1
  O  O13  1  0.000000  0.500000  0.000000  1
  O  O14  1  0.500000  0.500000  0.000000  1
