# generated using pymatgen
data_ErTm3Th6(Ge5Rh2)4
_symmetry_space_group_name_H-M   'P 1'
_cell_length_a   13.11237501
_cell_length_b   13.11237501
_cell_length_c   4.37547000
_cell_angle_alpha   90.00000000
_cell_angle_beta   90.00000000
_cell_angle_gamma   90.00526973
_symmetry_Int_Tables_number   1
_chemical_formula_structural   ErTm3Th6(Ge5Rh2)4
_chemical_formula_sum   'Er1 Tm3 Th6 Ge20 Rh8'
_cell_volume   752.29371193
_cell_formula_units_Z   1
loop_
 _symmetry_equiv_pos_site_id
 _symmetry_equiv_pos_as_xyz
  1  'x, y, z'
loop_
 _atom_site_type_symbol
 _atom_site_label
 _atom_site_symmetry_multiplicity
 _atom_site_fract_x
 _atom_site_fract_y
 _atom_site_fract_z
 _atom_site_occupancy
  Er  Er0  1  0.325495  0.825495  0.500000  1
  Tm  Tm1  1  0.825552  0.674437  0.500000  1
  Tm  Tm2  1  0.174437  0.325552  0.500000  1
  Tm  Tm3  1  0.674447  0.174447  0.500000  1
  Th  Th4  1  0.112626  0.612626  0.500000  1
  Th  Th5  1  0.612726  0.887352  0.500000  1
  Th  Th6  1  0.387352  0.112726  0.500000  1
  Th  Th7  1  0.887321  0.387321  0.500000  1
  Th  Th8  1  0.500008  0.499999  0.000000  1
  Th  Th9  1  0.999999  0.000008  0.000000  1
  Ge  Ge10  1  0.337665  0.495695  0.500000  1
  Ge  Ge11  1  0.662331  0.504320  0.500000  1
  Ge  Ge12  1  0.504325  0.337662  0.500000  1
  Ge  Ge13  1  0.495773  0.662270  0.500000  1
  Ge  Ge14  1  0.995695  0.837665  0.500000  1
  Ge  Ge15  1  0.837662  0.004325  0.500000  1
  Ge  Ge16  1  0.162270  0.995773  0.500000  1
  Ge  Ge17  1  0.004320  0.162331  0.500000  1
  Ge  Ge18  1  0.337042  0.300818  0.000000  1
  Ge  Ge19  1  0.662977  0.699174  0.000000  1
  Ge  Ge20  1  0.699186  0.337034  0.000000  1
  Ge  Ge21  1  0.300760  0.662825  0.000000  1
  Ge  Ge22  1  0.800818  0.837042  0.000000  1
  Ge  Ge23  1  0.837034  0.199186  0.000000  1
  Ge  Ge24  1  0.162825  0.800760  0.000000  1
  Ge  Ge25  1  0.199174  0.162977  0.000000  1
  Ge  Ge26  1  0.433161  0.933161  0.000000  1
  Ge  Ge27  1  0.933029  0.566966  0.000000  1
  Ge  Ge28  1  0.566993  0.066993  0.000000  1
  Ge  Ge29  1  0.066966  0.433029  0.000000  1
  Rh  Rh30  1  0.244504  0.977598  0.000000  1
  Rh  Rh31  1  0.755411  0.022554  0.000000  1
  Rh  Rh32  1  0.022560  0.244593  0.000000  1
  Rh  Rh33  1  0.977415  0.755398  0.000000  1
  Rh  Rh34  1  0.477598  0.744504  0.000000  1
  Rh  Rh35  1  0.744593  0.522560  0.000000  1
  Rh  Rh36  1  0.255398  0.477415  0.000000  1
  Rh  Rh37  1  0.522554  0.255411  0.000000  1
