# generated using pymatgen
data_Y4Al18HgOs4Pd
_symmetry_space_group_name_H-M   'P 1'
_cell_length_a   7.63834615
_cell_length_b   7.63834548
_cell_length_c   9.58175127
_cell_angle_alpha   89.87239799
_cell_angle_beta   89.87239920
_cell_angle_gamma   119.29679090
_symmetry_Int_Tables_number   1
_chemical_formula_structural   Y4Al18HgOs4Pd
_chemical_formula_sum   'Y4 Al18 Hg1 Os4 Pd1'
_cell_volume   487.53291497
_cell_formula_units_Z   1
loop_
 _symmetry_equiv_pos_site_id
 _symmetry_equiv_pos_as_xyz
  1  'x, y, z'
loop_
 _atom_site_type_symbol
 _atom_site_label
 _atom_site_symmetry_multiplicity
 _atom_site_fract_x
 _atom_site_fract_y
 _atom_site_fract_z
 _atom_site_occupancy
  Y  Y0  1  0.997792  0.676396  0.250689  1
  Y  Y1  1  0.002208  0.323604  0.749311  1
  Y  Y2  1  0.676396  0.997792  0.250689  1
  Y  Y3  1  0.323604  0.002208  0.749311  1
  Al  Al4  1  0.142979  0.142979  0.260030  1
  Al  Al5  1  0.857021  0.857021  0.739970  1
  Al  Al6  1  0.003890  0.352555  0.079199  1
  Al  Al7  1  0.996110  0.647445  0.920801  1
  Al  Al8  1  0.998204  0.656758  0.572584  1
  Al  Al9  1  0.343242  0.001796  0.427416  1
  Al  Al10  1  0.001796  0.343242  0.427416  1
  Al  Al11  1  0.656758  0.998204  0.572584  1
  Al  Al12  1  0.647445  0.996110  0.920801  1
  Al  Al13  1  0.352555  0.003890  0.079199  1
  Al  Al14  1  0.339664  0.339664  0.549660  1
  Al  Al15  1  0.660336  0.660336  0.450340  1
  Al  Al16  1  0.650207  0.650207  0.057106  1
  Al  Al17  1  0.349793  0.349793  0.942894  1
  Al  Al18  1  0.337380  0.553643  0.251255  1
  Al  Al19  1  0.662620  0.446357  0.748745  1
  Al  Al20  1  0.553643  0.337380  0.251255  1
  Al  Al21  1  0.446357  0.662620  0.748745  1
  Hg  Hg22  1  0.000000  0.000000  0.000000  1
  Os  Os23  1  0.672341  0.327659  0.000000  1
  Os  Os24  1  0.327659  0.672341  0.000000  1
  Os  Os25  1  0.327796  0.672204  0.500000  1
  Os  Os26  1  0.672204  0.327796  0.500000  1
  Pd  Pd27  1  0.000000  0.000000  0.500000  1
