# generated using pymatgen
data_Ac3ZnGa3Cl
_symmetry_space_group_name_H-M   'P 1'
_cell_length_a   8.42025733
_cell_length_b   8.42025459
_cell_length_c   8.40675389
_cell_angle_alpha   119.31636669
_cell_angle_beta   119.31635510
_cell_angle_gamma   91.27822597
_symmetry_Int_Tables_number   1
_chemical_formula_structural   Ac3ZnGa3Cl
_chemical_formula_sum   'Ac6 Zn2 Ga6 Cl2'
_cell_volume   425.38084845
_cell_formula_units_Z   2
loop_
 _symmetry_equiv_pos_site_id
 _symmetry_equiv_pos_as_xyz
  1  'x, y, z'
loop_
 _atom_site_type_symbol
 _atom_site_label
 _atom_site_symmetry_multiplicity
 _atom_site_fract_x
 _atom_site_fract_y
 _atom_site_fract_z
 _atom_site_occupancy
  Ac  Ac0  1  0.838951  0.660232  0.500000  1
  Ac  Ac1  1  0.662323  0.162323  0.822412  1
  Ac  Ac2  1  0.339912  0.839912  0.177588  1
  Ac  Ac3  1  0.160232  0.338951  0.500000  1
  Ac  Ac4  1  0.250026  0.250026  0.000000  1
  Ac  Ac5  1  0.750026  0.750026  0.000000  1
  Zn  Zn6  1  0.157097  0.937710  0.500000  1
  Zn  Zn7  1  0.437710  0.657097  0.500000  1
  Ga  Ga8  1  0.558107  0.342703  0.500000  1
  Ga  Ga9  1  0.658373  0.158373  0.218947  1
  Ga  Ga10  1  0.842703  0.058107  0.500000  1
  Ga  Ga11  1  0.062104  0.562104  0.218471  1
  Ga  Ga12  1  0.343634  0.843634  0.781529  1
  Ga  Ga13  1  0.939428  0.439428  0.781053  1
  Cl  Cl14  1  0.999686  0.999686  0.000000  1
  Cl  Cl15  1  0.499686  0.499686  0.000000  1
