# generated using pymatgen
data_NdSm6FeI12
_symmetry_space_group_name_H-M   'P 1'
_cell_length_a   9.88885294
_cell_length_b   9.95735950
_cell_length_c   9.96077537
_cell_angle_alpha   106.85826800
_cell_angle_beta   107.04856079
_cell_angle_gamma   106.70845842
_symmetry_Int_Tables_number   1
_chemical_formula_structural   NdSm6FeI12
_chemical_formula_sum   'Nd1 Sm6 Fe1 I12'
_cell_volume   819.65987071
_cell_formula_units_Z   1
loop_
 _symmetry_equiv_pos_site_id
 _symmetry_equiv_pos_as_xyz
  1  'x, y, z'
loop_
 _atom_site_type_symbol
 _atom_site_label
 _atom_site_symmetry_multiplicity
 _atom_site_fract_x
 _atom_site_fract_y
 _atom_site_fract_z
 _atom_site_occupancy
  Nd  Nd0  1  0.714431  0.978706  0.908898  1
  Sm  Sm1  1  0.977047  0.905329  0.703976  1
  Sm  Sm2  1  0.500763  0.499315  0.499932  1
  Sm  Sm3  1  0.095098  0.295760  0.022446  1
  Sm  Sm4  1  0.280031  0.021390  0.089984  1
  Sm  Sm5  1  0.906299  0.704949  0.977944  1
  Sm  Sm6  1  0.021722  0.094892  0.296064  1
  Fe  Fe7  1  0.998031  0.000295  0.999682  1
  I  I8  1  0.072160  0.225465  0.679828  1
  I  I9  1  0.385130  0.159317  0.460398  1
  I  I10  1  0.614022  0.837111  0.533657  1
  I  I11  1  0.227839  0.682407  0.072503  1
  I  I12  1  0.776949  0.324249  0.929234  1
  I  I13  1  0.681765  0.073167  0.229372  1
  I  I14  1  0.537219  0.611565  0.838745  1
  I  I15  1  0.842241  0.537988  0.615559  1
  I  I16  1  0.929157  0.774793  0.320522  1
  I  I17  1  0.317912  0.928506  0.776486  1
  I  I18  1  0.462520  0.382413  0.160124  1
  I  I19  1  0.159665  0.462383  0.384646  1
