# generated using pymatgen
data_Ti2AlSbRu4
_symmetry_space_group_name_H-M   'P 1'
_cell_length_a   4.38714200
_cell_length_b   6.19438500
_cell_length_c   13.13390400
_cell_angle_alpha   90.00004031
_cell_angle_beta   90.00012637
_cell_angle_gamma   90.00003156
_symmetry_Int_Tables_number   1
_chemical_formula_structural   Ti2AlSbRu4
_chemical_formula_sum   'Ti6 Al3 Sb3 Ru12'
_cell_volume   356.92233355
_cell_formula_units_Z   3
loop_
 _symmetry_equiv_pos_site_id
 _symmetry_equiv_pos_as_xyz
  1  'x, y, z'
loop_
 _atom_site_type_symbol
 _atom_site_label
 _atom_site_symmetry_multiplicity
 _atom_site_fract_x
 _atom_site_fract_y
 _atom_site_fract_z
 _atom_site_occupancy
  Ti  Ti0  1  0.000009  0.999999  0.988954  1
  Ti  Ti1  1  0.499837  0.499999  0.166663  1
  Ti  Ti2  1  0.999874  0.999999  0.344376  1
  Ti  Ti3  1  0.500013  0.499999  0.510507  1
  Ti  Ti4  1  0.000137  0.999999  0.666666  1
  Ti  Ti5  1  0.500137  0.499999  0.822815  1
  Al  Al6  1  0.499997  0.000000  0.504718  1
  Al  Al7  1  0.000158  0.499999  0.666653  1
  Al  Al8  1  0.500165  0.999999  0.828590  1
  Sb  Sb9  1  0.999991  0.500000  0.994338  1
  Sb  Sb10  1  0.499803  0.999999  0.166660  1
  Sb  Sb11  1  0.999851  0.500000  0.339005  1
  Ru  Ru12  1  0.499993  0.246404  0.998056  1
  Ru  Ru13  1  0.499993  0.753596  0.998056  1
  Ru  Ru14  1  0.999834  0.252919  0.166669  1
  Ru  Ru15  1  0.999834  0.747079  0.166669  1
  Ru  Ru16  1  0.499884  0.246395  0.335272  1
  Ru  Ru17  1  0.499885  0.753608  0.335273  1
  Ru  Ru18  1  0.000008  0.246371  0.502927  1
  Ru  Ru19  1  0.000008  0.753628  0.502927  1
  Ru  Ru20  1  0.500151  0.249999  0.666673  1
  Ru  Ru21  1  0.500151  0.749999  0.666673  1
  Ru  Ru22  1  0.000142  0.246331  0.830430  1
  Ru  Ru23  1  0.000142  0.753667  0.830430  1
