# generated using pymatgen
data_La4Y6Os3Rh
_symmetry_space_group_name_H-M   'P 1'
_cell_length_a   6.57122050
_cell_length_b   7.34561874
_cell_length_c   8.80799900
_cell_angle_alpha   96.63963482
_cell_angle_beta   111.89314046
_cell_angle_gamma   89.98363490
_symmetry_Int_Tables_number   1
_chemical_formula_structural   La4Y6Os3Rh
_chemical_formula_sum   'La4 Y6 Os3 Rh1'
_cell_volume   391.42801299
_cell_formula_units_Z   1
loop_
 _symmetry_equiv_pos_site_id
 _symmetry_equiv_pos_as_xyz
  1  'x, y, z'
loop_
 _atom_site_type_symbol
 _atom_site_label
 _atom_site_symmetry_multiplicity
 _atom_site_fract_x
 _atom_site_fract_y
 _atom_site_fract_z
 _atom_site_occupancy
  La  La0  1  0.980727  0.909214  0.190383  1
  La  La1  1  0.788062  0.589977  0.805713  1
  La  La2  1  0.013701  0.089075  0.806027  1
  La  La3  1  0.207093  0.412516  0.192136  1
  Y  Y4  1  0.638071  0.814109  0.432707  1
  Y  Y5  1  0.206399  0.683485  0.568090  1
  Y  Y6  1  0.362541  0.185603  0.572888  1
  Y  Y7  1  0.797928  0.319013  0.433183  1
  Y  Y8  1  0.428741  0.745859  0.996581  1
  Y  Y9  1  0.570701  0.251349  0.999242  1
  Os  Os10  1  0.826350  0.579652  0.224598  1
  Os  Os11  1  0.601055  0.922962  0.777164  1
  Os  Os12  1  0.173664  0.419309  0.777133  1
  Rh  Rh13  1  0.404967  0.077877  0.224159  1
