# generated using pymatgen
data_Nd2Dy5FeI12
_symmetry_space_group_name_H-M   'P 1'
_cell_length_a   9.83696217
_cell_length_b   9.81207947
_cell_length_c   9.86566144
_cell_angle_alpha   106.83754689
_cell_angle_beta   106.69263909
_cell_angle_gamma   107.45625572
_symmetry_Int_Tables_number   1
_chemical_formula_structural   Nd2Dy5FeI12
_chemical_formula_sum   'Nd2 Dy5 Fe1 I12'
_cell_volume   793.10490067
_cell_formula_units_Z   1
loop_
 _symmetry_equiv_pos_site_id
 _symmetry_equiv_pos_as_xyz
  1  'x, y, z'
loop_
 _atom_site_type_symbol
 _atom_site_label
 _atom_site_symmetry_multiplicity
 _atom_site_fract_x
 _atom_site_fract_y
 _atom_site_fract_z
 _atom_site_occupancy
  Nd  Nd0  1  0.591205  0.785048  0.521429  1
  Nd  Nd1  1  0.408795  0.214952  0.478571  1
  Dy  Dy2  1  0.792690  0.524838  0.593603  1
  Dy  Dy3  1  0.522083  0.593373  0.790992  1
  Dy  Dy4  1  0.207310  0.475162  0.406397  1
  Dy  Dy5  1  0.477917  0.406627  0.209008  1
  Dy  Dy6  1  0.000000  0.000000  0.000000  1
  Fe  Fe7  1  0.500000  0.500000  0.500000  1
  I  I8  1  0.735899  0.190527  0.578436  1
  I  I9  1  0.969747  0.886776  0.666653  1
  I  I10  1  0.570550  0.719684  0.173444  1
  I  I11  1  0.115147  0.338794  0.039838  1
  I  I12  1  0.662976  0.962002  0.891018  1
  I  I13  1  0.884853  0.661206  0.960162  1
  I  I14  1  0.030253  0.113224  0.333347  1
  I  I15  1  0.818883  0.428330  0.277207  1
  I  I16  1  0.337024  0.037998  0.108982  1
  I  I17  1  0.264101  0.809473  0.421564  1
  I  I18  1  0.181117  0.571670  0.722793  1
  I  I19  1  0.429450  0.280316  0.826556  1
