# generated using pymatgen
data_Yb2TlPd5
_symmetry_space_group_name_H-M   'P 1'
_cell_length_a   4.23944600
_cell_length_b   5.85130500
_cell_length_c   11.59195400
_cell_angle_alpha   90.00000000
_cell_angle_beta   90.00000000
_cell_angle_gamma   90.00000000
_symmetry_Int_Tables_number   1
_chemical_formula_structural   Yb2TlPd5
_chemical_formula_sum   'Yb4 Tl2 Pd10'
_cell_volume   287.55339087
_cell_formula_units_Z   2
loop_
 _symmetry_equiv_pos_site_id
 _symmetry_equiv_pos_as_xyz
  1  'x, y, z'
loop_
 _atom_site_type_symbol
 _atom_site_label
 _atom_site_symmetry_multiplicity
 _atom_site_fract_x
 _atom_site_fract_y
 _atom_site_fract_z
 _atom_site_occupancy
  Yb  Yb0  1  0.500000  0.299406  0.863170  1
  Yb  Yb1  1  0.500000  0.799406  0.636830  1
  Yb  Yb2  1  0.500000  0.700594  0.136830  1
  Yb  Yb3  1  0.500000  0.200594  0.363170  1
  Tl  Tl4  1  0.000000  0.500000  0.500000  1
  Tl  Tl5  1  0.000000  0.000000  0.000000  1
  Pd  Pd6  1  0.500000  0.716767  0.380254  1
  Pd  Pd7  1  0.500000  0.283233  0.619746  1
  Pd  Pd8  1  0.000000  0.046017  0.750087  1
  Pd  Pd9  1  0.500000  0.783233  0.880254  1
  Pd  Pd10  1  0.000000  0.453983  0.250087  1
  Pd  Pd11  1  0.000000  0.953983  0.249913  1
  Pd  Pd12  1  0.000000  0.546017  0.749913  1
  Pd  Pd13  1  0.000000  0.500000  0.000000  1
  Pd  Pd14  1  0.000000  0.000000  0.500000  1
  Pd  Pd15  1  0.500000  0.216767  0.119746  1
