# generated using pymatgen
data_Cu3AsPO8
_symmetry_space_group_name_H-M   'P 1'
_cell_length_a   5.04307436
_cell_length_b   5.60636948
_cell_length_c   6.34342510
_cell_angle_alpha   107.41515245
_cell_angle_beta   87.36626072
_cell_angle_gamma   112.27321990
_symmetry_Int_Tables_number   1
_chemical_formula_structural   Cu3AsPO8
_chemical_formula_sum   'Cu3 As1 P1 O8'
_cell_volume   157.89695257
_cell_formula_units_Z   1
loop_
 _symmetry_equiv_pos_site_id
 _symmetry_equiv_pos_as_xyz
  1  'x, y, z'
loop_
 _atom_site_type_symbol
 _atom_site_label
 _atom_site_symmetry_multiplicity
 _atom_site_fract_x
 _atom_site_fract_y
 _atom_site_fract_z
 _atom_site_occupancy
  Cu  Cu0  1  0.010124  0.008974  0.999879  1
  Cu  Cu1  1  0.730949  0.214661  0.681503  1
  Cu  Cu2  1  0.256423  0.802264  0.326988  1
  As  As3  1  0.362246  0.658968  0.781751  1
  P  P4  1  0.642937  0.333724  0.215392  1
  O  O5  1  0.373390  0.886256  0.636871  1
  O  O6  1  0.611359  0.139426  0.361871  1
  O  O7  1  0.208189  0.782647  0.022609  1
  O  O8  1  0.773824  0.213810  0.995458  1
  O  O9  1  0.695384  0.665895  0.835582  1
  O  O10  1  0.847785  0.619364  0.343384  1
  O  O11  1  0.138047  0.339369  0.642017  1
  O  O12  1  0.349342  0.334642  0.156694  1
