# generated using pymatgen
data_Yb3BI3N2
_symmetry_space_group_name_H-M   'P 1'
_cell_length_a   10.49294497
_cell_length_b   10.49294482
_cell_length_c   10.49294548
_cell_angle_alpha   105.41117894
_cell_angle_beta   105.41118043
_cell_angle_gamma   105.41116451
_symmetry_Int_Tables_number   1
_chemical_formula_structural   Yb3BI3N2
_chemical_formula_sum   'Yb12 B4 I12 N8'
_cell_volume   1000.91766397
_cell_formula_units_Z   4
loop_
 _symmetry_equiv_pos_site_id
 _symmetry_equiv_pos_as_xyz
  1  'x, y, z'
loop_
 _atom_site_type_symbol
 _atom_site_label
 _atom_site_symmetry_multiplicity
 _atom_site_fract_x
 _atom_site_fract_y
 _atom_site_fract_z
 _atom_site_occupancy
  Yb  Yb0  1  0.976548  0.760962  0.735020  1
  Yb  Yb1  1  0.760962  0.735020  0.976548  1
  Yb  Yb2  1  0.735020  0.976548  0.760962  1
  Yb  Yb3  1  0.023452  0.264980  0.239038  1
  Yb  Yb4  1  0.239038  0.023452  0.264979  1
  Yb  Yb5  1  0.264980  0.239038  0.023452  1
  Yb  Yb6  1  0.500000  0.220790  0.779210  1
  Yb  Yb7  1  0.220790  0.779210  0.500000  1
  Yb  Yb8  1  0.779210  0.500000  0.220790  1
  Yb  Yb9  1  0.500000  0.014805  0.985195  1
  Yb  Yb10  1  0.014805  0.985195  0.500000  1
  Yb  Yb11  1  0.985195  0.500000  0.014805  1
  B  B12  1  0.000000  0.763699  0.236301  1
  B  B13  1  0.763699  0.236301  0.000000  1
  B  B14  1  0.236301  0.000000  0.763699  1
  B  B15  1  0.000000  0.000000  0.000000  1
  I  I16  1  0.746676  0.471635  0.736190  1
  I  I17  1  0.471635  0.736190  0.746676  1
  I  I18  1  0.736190  0.746676  0.471635  1
  I  I19  1  0.253324  0.263810  0.528365  1
  I  I20  1  0.528365  0.253324  0.263810  1
  I  I21  1  0.263810  0.528365  0.253324  1
  I  I22  1  0.000000  0.503080  0.496920  1
  I  I23  1  0.503080  0.496920  0.000000  1
  I  I24  1  0.496920  0.000000  0.503080  1
  I  I25  1  0.000000  0.226931  0.773069  1
  I  I26  1  0.226931  0.773069  0.000000  1
  I  I27  1  0.773069  0.000000  0.226931  1
  N  N28  1  0.894751  0.653663  0.128552  1
  N  N29  1  0.653663  0.128552  0.894751  1
  N  N30  1  0.128552  0.894751  0.653663  1
  N  N31  1  0.105249  0.871448  0.346337  1
  N  N32  1  0.346337  0.105249  0.871448  1
  N  N33  1  0.871448  0.346337  0.105249  1
  N  N34  1  0.891312  0.891312  0.891312  1
  N  N35  1  0.108688  0.108688  0.108688  1
