# generated using pymatgen
data_Ce6Er4Ir5Os
_symmetry_space_group_name_H-M   'P 1'
_cell_length_a   10.98134500
_cell_length_b   11.01832200
_cell_length_c   6.26994600
_cell_angle_alpha   90.00000000
_cell_angle_beta   90.00000000
_cell_angle_gamma   90.00000000
_symmetry_Int_Tables_number   1
_chemical_formula_structural   Ce6Er4Ir5Os
_chemical_formula_sum   'Ce12 Er8 Ir10 Os2'
_cell_volume   758.63835614
_cell_formula_units_Z   2
loop_
 _symmetry_equiv_pos_site_id
 _symmetry_equiv_pos_as_xyz
  1  'x, y, z'
loop_
 _atom_site_type_symbol
 _atom_site_label
 _atom_site_symmetry_multiplicity
 _atom_site_fract_x
 _atom_site_fract_y
 _atom_site_fract_z
 _atom_site_occupancy
  Ce  Ce0  1  0.292189  0.089824  0.378815  1
  Ce  Ce1  1  0.292189  0.910176  0.878815  1
  Ce  Ce2  1  0.707811  0.089824  0.878815  1
  Ce  Ce3  1  0.707811  0.910176  0.378815  1
  Ce  Ce4  1  0.591368  0.788999  0.882676  1
  Ce  Ce5  1  0.591368  0.211001  0.382676  1
  Ce  Ce6  1  0.408632  0.788999  0.382676  1
  Ce  Ce7  1  0.408632  0.211001  0.882676  1
  Ce  Ce8  1  0.206124  0.410616  0.618955  1
  Ce  Ce9  1  0.206124  0.589384  0.118955  1
  Ce  Ce10  1  0.793876  0.410616  0.118955  1
  Ce  Ce11  1  0.793876  0.589384  0.618955  1
  Er  Er12  1  0.914615  0.712672  0.119207  1
  Er  Er13  1  0.914615  0.287328  0.619207  1
  Er  Er14  1  0.085385  0.712672  0.619207  1
  Er  Er15  1  0.085385  0.287328  0.119207  1
  Er  Er16  1  0.000000  0.000000  0.494114  1
  Er  Er17  1  0.000000  0.000000  0.994114  1
  Er  Er18  1  0.500000  0.500000  0.007670  1
  Er  Er19  1  0.500000  0.500000  0.507670  1
  Ir  Ir20  1  0.846149  0.152820  0.242039  1
  Ir  Ir21  1  0.846149  0.847180  0.742039  1
  Ir  Ir22  1  0.153851  0.152820  0.742039  1
  Ir  Ir23  1  0.153851  0.847180  0.242039  1
  Ir  Ir24  1  0.656084  0.345092  0.754403  1
  Ir  Ir25  1  0.656084  0.654908  0.254403  1
  Ir  Ir26  1  0.343916  0.345092  0.254403  1
  Ir  Ir27  1  0.343916  0.654908  0.754403  1
  Ir  Ir28  1  0.000000  0.500000  0.880845  1
  Ir  Ir29  1  0.000000  0.500000  0.380845  1
  Os  Os30  1  0.500000  0.000000  0.125180  1
  Os  Os31  1  0.500000  0.000000  0.625180  1
