# generated using pymatgen
data_Ho2Lu8SiSb5
_symmetry_space_group_name_H-M   'P 1'
_cell_length_a   7.80698300
_cell_length_b   9.04324900
_cell_length_c   11.48423200
_cell_angle_alpha   90.00000000
_cell_angle_beta   90.00000000
_cell_angle_gamma   90.00000000
_symmetry_Int_Tables_number   1
_chemical_formula_structural   Ho2Lu8SiSb5
_chemical_formula_sum   'Ho4 Lu16 Si2 Sb10'
_cell_volume   810.79242034
_cell_formula_units_Z   2
loop_
 _symmetry_equiv_pos_site_id
 _symmetry_equiv_pos_as_xyz
  1  'x, y, z'
loop_
 _atom_site_type_symbol
 _atom_site_label
 _atom_site_symmetry_multiplicity
 _atom_site_fract_x
 _atom_site_fract_y
 _atom_site_fract_z
 _atom_site_occupancy
  Ho  Ho0  1  0.314915  0.250000  0.220185  1
  Ho  Ho1  1  0.814915  0.250000  0.279815  1
  Ho  Ho2  1  0.674073  0.750000  0.786067  1
  Ho  Ho3  1  0.174073  0.750000  0.713933  1
  Lu  Lu4  1  0.351143  0.750000  0.207414  1
  Lu  Lu5  1  0.851143  0.750000  0.292586  1
  Lu  Lu6  1  0.651252  0.250000  0.782867  1
  Lu  Lu7  1  0.151252  0.250000  0.717133  1
  Lu  Lu8  1  0.686370  0.568185  0.058094  1
  Lu  Lu9  1  0.186370  0.931815  0.441906  1
  Lu  Lu10  1  0.310339  0.048750  0.939242  1
  Lu  Lu11  1  0.810339  0.451250  0.560758  1
  Lu  Lu12  1  0.310339  0.451250  0.939242  1
  Lu  Lu13  1  0.810339  0.048750  0.560758  1
  Lu  Lu14  1  0.686370  0.931815  0.058094  1
  Lu  Lu15  1  0.186370  0.568185  0.441906  1
  Lu  Lu16  1  0.478141  0.250000  0.491108  1
  Lu  Lu17  1  0.978141  0.250000  0.008892  1
  Lu  Lu18  1  0.537663  0.750000  0.511022  1
  Lu  Lu19  1  0.037663  0.750000  0.988978  1
  Si  Si20  1  0.411753  0.750000  0.965116  1
  Si  Si21  1  0.911753  0.750000  0.534884  1
  Sb  Sb22  1  0.591726  0.250000  0.038488  1
  Sb  Sb23  1  0.091726  0.250000  0.461512  1
  Sb  Sb24  1  0.562079  0.995035  0.325648  1
  Sb  Sb25  1  0.062079  0.504965  0.174352  1
  Sb  Sb26  1  0.435879  0.496583  0.674070  1
  Sb  Sb27  1  0.935879  0.003417  0.825930  1
  Sb  Sb28  1  0.435879  0.003417  0.674070  1
  Sb  Sb29  1  0.935879  0.496583  0.825930  1
  Sb  Sb30  1  0.562079  0.504965  0.325648  1
  Sb  Sb31  1  0.062079  0.995035  0.174352  1
