# generated using pymatgen
data_La2CuNi(TeO6)2
_symmetry_space_group_name_H-M   'P 1'
_cell_length_a   5.21514499
_cell_length_b   5.20442051
_cell_length_c   10.49454789
_cell_angle_alpha   90.14778349
_cell_angle_beta   90.27410462
_cell_angle_gamma   120.65465535
_symmetry_Int_Tables_number   1
_chemical_formula_structural   La2CuNi(TeO6)2
_chemical_formula_sum   'La2 Cu1 Ni1 Te2 O12'
_cell_volume   245.02921984
_cell_formula_units_Z   1
loop_
 _symmetry_equiv_pos_site_id
 _symmetry_equiv_pos_as_xyz
  1  'x, y, z'
loop_
 _atom_site_type_symbol
 _atom_site_label
 _atom_site_symmetry_multiplicity
 _atom_site_fract_x
 _atom_site_fract_y
 _atom_site_fract_z
 _atom_site_occupancy
  La  La0  1  0.998775  0.999857  0.000871  1
  La  La1  1  0.000252  0.000919  0.499117  1
  Cu  Cu2  1  0.665999  0.334308  0.749977  1
  Ni  Ni3  1  0.331034  0.670182  0.250130  1
  Te  Te4  1  0.664420  0.337626  0.249996  1
  Te  Te5  1  0.333334  0.666372  0.749979  1
  O  O6  1  0.640188  0.626295  0.143273  1
  O  O7  1  0.380330  0.010225  0.141953  1
  O  O8  1  0.002717  0.374439  0.149915  1
  O  O9  1  0.986985  0.619357  0.359233  1
  O  O10  1  0.372506  0.361565  0.355192  1
  O  O11  1  0.624940  0.997587  0.350480  1
  O  O12  1  0.005709  0.372466  0.644666  1
  O  O13  1  0.363981  0.988129  0.643719  1
  O  O14  1  0.622235  0.633677  0.644259  1
  O  O15  1  0.627453  0.993978  0.855415  1
  O  O16  1  0.366578  0.376983  0.855606  1
  O  O17  1  0.012570  0.636034  0.856221  1
