# generated using pymatgen
data_Ca4CdSi6Pd
_symmetry_space_group_name_H-M   'P 1'
_cell_length_a   8.42835978
_cell_length_b   8.32253633
_cell_length_c   6.02904191
_cell_angle_alpha   69.84578377
_cell_angle_beta   67.96914404
_cell_angle_gamma   42.18508146
_symmetry_Int_Tables_number   1
_chemical_formula_structural   Ca4CdSi6Pd
_chemical_formula_sum   'Ca4 Cd1 Si6 Pd1'
_cell_volume   261.74726560
_cell_formula_units_Z   1
loop_
 _symmetry_equiv_pos_site_id
 _symmetry_equiv_pos_as_xyz
  1  'x, y, z'
loop_
 _atom_site_type_symbol
 _atom_site_label
 _atom_site_symmetry_multiplicity
 _atom_site_fract_x
 _atom_site_fract_y
 _atom_site_fract_z
 _atom_site_occupancy
  Ca  Ca0  1  0.745231  0.745231  0.754769  1
  Ca  Ca1  1  0.756508  0.252296  0.747704  1
  Ca  Ca2  1  0.245231  0.245231  0.254769  1
  Ca  Ca3  1  0.252296  0.756508  0.243492  1
  Cd  Cd4  1  0.334258  0.334258  0.665742  1
  Si  Si5  1  0.830864  0.336864  0.169136  1
  Si  Si6  1  0.686857  0.156399  0.313143  1
  Si  Si7  1  0.156399  0.686857  0.843601  1
  Si  Si8  1  0.336864  0.830864  0.663136  1
  Si  Si9  1  0.156941  0.156941  0.843059  1
  Si  Si10  1  0.831782  0.831782  0.168218  1
  Pd  Pd11  1  0.666772  0.666772  0.333228  1
