# generated using pymatgen
data_Tb5YEr4(In2Pd)4
_symmetry_space_group_name_H-M   'P 1'
_cell_length_a   3.62636900
_cell_length_b   8.16518028
_cell_length_c   18.25293001
_cell_angle_alpha   89.98334637
_cell_angle_beta   90.00000000
_cell_angle_gamma   90.00000000
_symmetry_Int_Tables_number   1
_chemical_formula_structural   Tb5YEr4(In2Pd)4
_chemical_formula_sum   'Tb5 Y1 Er4 In8 Pd4'
_cell_volume   540.46844311
_cell_formula_units_Z   1
loop_
 _symmetry_equiv_pos_site_id
 _symmetry_equiv_pos_as_xyz
  1  'x, y, z'
loop_
 _atom_site_type_symbol
 _atom_site_label
 _atom_site_symmetry_multiplicity
 _atom_site_fract_x
 _atom_site_fract_y
 _atom_site_fract_z
 _atom_site_occupancy
  Tb  Tb0  1  0.000000  0.000000  0.000000  1
  Tb  Tb1  1  0.000000  0.738765  0.280637  1
  Tb  Tb2  1  0.000000  0.261235  0.719363  1
  Tb  Tb3  1  0.000000  0.761387  0.781164  1
  Tb  Tb4  1  0.000000  0.238613  0.218836  1
  Y  Y5  1  0.000000  0.500000  0.500000  1
  Er  Er6  1  0.000000  0.616733  0.083441  1
  Er  Er7  1  0.000000  0.383267  0.916559  1
  Er  Er8  1  0.000000  0.883418  0.583815  1
  Er  Er9  1  0.000000  0.116582  0.416185  1
  In  In10  1  0.500000  0.707066  0.933055  1
  In  In11  1  0.500000  0.292934  0.066945  1
  In  In12  1  0.500000  0.793064  0.433026  1
  In  In13  1  0.500000  0.206936  0.566974  1
  In  In14  1  0.500000  0.582243  0.650125  1
  In  In15  1  0.500000  0.417757  0.349875  1
  In  In16  1  0.500000  0.917705  0.149826  1
  In  In17  1  0.500000  0.082295  0.850174  1
  Pd  Pd18  1  0.500000  0.523121  0.194967  1
  Pd  Pd19  1  0.500000  0.476879  0.805033  1
  Pd  Pd20  1  0.500000  0.976935  0.695275  1
  Pd  Pd21  1  0.500000  0.023065  0.304725  1
