# generated using pymatgen
data_Y5HoTcSb2
_symmetry_space_group_name_H-M   'P 1'
_cell_length_a   8.19318704
_cell_length_b   8.19186991
_cell_length_c   4.26444900
_cell_angle_alpha   90.00000000
_cell_angle_beta   90.00000000
_cell_angle_gamma   119.99467752
_symmetry_Int_Tables_number   1
_chemical_formula_structural   Y5HoTcSb2
_chemical_formula_sum   'Y5 Ho1 Tc1 Sb2'
_cell_volume   247.88643556
_cell_formula_units_Z   1
loop_
 _symmetry_equiv_pos_site_id
 _symmetry_equiv_pos_as_xyz
  1  'x, y, z'
loop_
 _atom_site_type_symbol
 _atom_site_label
 _atom_site_symmetry_multiplicity
 _atom_site_fract_x
 _atom_site_fract_y
 _atom_site_fract_z
 _atom_site_occupancy
  Y  Y0  1  0.236436  0.999943  0.000000  1
  Y  Y1  1  0.763564  0.763507  0.000000  1
  Y  Y2  1  0.602136  0.000696  0.500000  1
  Y  Y3  1  0.397864  0.398560  0.500000  1
  Y  Y4  1  0.000000  0.600012  0.500000  1
  Ho  Ho5  1  0.000000  0.234839  0.000000  1
  Tc  Tc6  1  0.000000  0.002746  0.500000  1
  Sb  Sb7  1  0.333066  0.666382  0.000000  1
  Sb  Sb8  1  0.666934  0.333315  0.000000  1
