# generated using pymatgen
data_TbPr3Sb10
_symmetry_space_group_name_H-M   'P 1'
_cell_length_a   4.30717600
_cell_length_b   13.54417620
_cell_length_c   15.18818150
_cell_angle_alpha   77.89437060
_cell_angle_beta   90.00000000
_cell_angle_gamma   90.00000000
_symmetry_Int_Tables_number   1
_chemical_formula_structural   TbPr3Sb10
_chemical_formula_sum   'Tb2 Pr6 Sb20'
_cell_volume   866.33214568
_cell_formula_units_Z   2
loop_
 _symmetry_equiv_pos_site_id
 _symmetry_equiv_pos_as_xyz
  1  'x, y, z'
loop_
 _atom_site_type_symbol
 _atom_site_label
 _atom_site_symmetry_multiplicity
 _atom_site_fract_x
 _atom_site_fract_y
 _atom_site_fract_z
 _atom_site_occupancy
  Tb  Tb0  1  0.250000  0.397644  0.772392  1
  Tb  Tb1  1  0.750000  0.602356  0.227608  1
  Pr  Pr2  1  0.750000  0.334075  0.143330  1
  Pr  Pr3  1  0.250000  0.947889  0.361999  1
  Pr  Pr4  1  0.250000  0.665925  0.856670  1
  Pr  Pr5  1  0.250000  0.667884  0.576431  1
  Pr  Pr6  1  0.750000  0.052111  0.638001  1
  Pr  Pr7  1  0.750000  0.332116  0.423569  1
  Sb  Sb8  1  0.750000  0.852980  0.817894  1
  Sb  Sb9  1  0.250000  0.863131  0.674488  1
  Sb  Sb10  1  0.250000  0.143510  0.477046  1
  Sb  Sb11  1  0.750000  0.285800  0.934845  1
  Sb  Sb12  1  0.250000  0.147664  0.781439  1
  Sb  Sb13  1  0.750000  0.575280  0.441246  1
  Sb  Sb14  1  0.750000  0.136869  0.325512  1
  Sb  Sb15  1  0.250000  0.704122  0.350967  1
  Sb  Sb16  1  0.750000  0.295878  0.649033  1
  Sb  Sb17  1  0.750000  0.852336  0.218561  1
  Sb  Sb18  1  0.250000  0.419974  0.973011  1
  Sb  Sb19  1  0.250000  0.424720  0.558754  1
  Sb  Sb20  1  0.750000  0.572939  0.736924  1
  Sb  Sb21  1  0.250000  0.427061  0.263076  1
  Sb  Sb22  1  0.750000  0.856490  0.522954  1
  Sb  Sb23  1  0.750000  0.033530  0.889165  1
  Sb  Sb24  1  0.250000  0.714200  0.065155  1
  Sb  Sb25  1  0.250000  0.966470  0.110835  1
  Sb  Sb26  1  0.250000  0.147020  0.182106  1
  Sb  Sb27  1  0.750000  0.580026  0.026989  1
