# generated using pymatgen
data_Sr3Th(Bi2O7)2
_symmetry_space_group_name_H-M   'P 1'
_cell_length_a   7.95981662
_cell_length_b   7.93225716
_cell_length_c   7.95981600
_cell_angle_alpha   59.88499686
_cell_angle_beta   59.99999425
_cell_angle_gamma   59.88499879
_symmetry_Int_Tables_number   1
_chemical_formula_structural   Sr3Th(Bi2O7)2
_chemical_formula_sum   'Sr3 Th1 Bi4 O14'
_cell_volume   354.75681971
_cell_formula_units_Z   1
loop_
 _symmetry_equiv_pos_site_id
 _symmetry_equiv_pos_as_xyz
  1  'x, y, z'
loop_
 _atom_site_type_symbol
 _atom_site_label
 _atom_site_symmetry_multiplicity
 _atom_site_fract_x
 _atom_site_fract_y
 _atom_site_fract_z
 _atom_site_occupancy
  Sr  Sr0  1  0.625000  0.125000  0.125000  1
  Sr  Sr1  1  0.125000  0.125000  0.125000  1
  Sr  Sr2  1  0.125000  0.125000  0.625000  1
  Th  Th3  1  0.125000  0.625000  0.125000  1
  Bi  Bi4  1  0.625000  0.625000  0.125000  1
  Bi  Bi5  1  0.625000  0.625000  0.625000  1
  Bi  Bi6  1  0.625000  0.125000  0.625000  1
  Bi  Bi7  1  0.125000  0.625000  0.625000  1
  O  O8  1  0.710918  0.301247  0.276916  1
  O  O9  1  0.722492  0.684299  0.296605  1
  O  O10  1  0.296605  0.684299  0.296605  1
  O  O11  1  0.013035  0.960895  0.013035  1
  O  O12  1  0.710918  0.301247  0.710918  1
  O  O13  1  0.953395  0.565701  0.527508  1
  O  O14  1  0.296605  0.684299  0.722492  1
  O  O15  1  0.539082  0.948753  0.539082  1
  O  O16  1  0.236965  0.289105  0.236965  1
  O  O17  1  0.953395  0.565701  0.953395  1
  O  O18  1  0.527508  0.565701  0.953395  1
  O  O19  1  0.973084  0.948753  0.539082  1
  O  O20  1  0.539082  0.948753  0.973084  1
  O  O21  1  0.276916  0.301247  0.710918  1
