# generated using pymatgen
data_ErTm3TcRu7
_symmetry_space_group_name_H-M   'P 1'
_cell_length_a   5.19069123
_cell_length_b   5.35780527
_cell_length_c   8.93151502
_cell_angle_alpha   89.99999679
_cell_angle_beta   90.00717569
_cell_angle_gamma   121.07083715
_symmetry_Int_Tables_number   1
_chemical_formula_structural   ErTm3TcRu7
_chemical_formula_sum   'Er1 Tm3 Tc1 Ru7'
_cell_volume   212.75499622
_cell_formula_units_Z   1
loop_
 _symmetry_equiv_pos_site_id
 _symmetry_equiv_pos_as_xyz
  1  'x, y, z'
loop_
 _atom_site_type_symbol
 _atom_site_label
 _atom_site_symmetry_multiplicity
 _atom_site_fract_x
 _atom_site_fract_y
 _atom_site_fract_z
 _atom_site_occupancy
  Er  Er0  1  0.328583  0.664292  0.433018  1
  Tm  Tm1  1  0.656308  0.328153  0.566389  1
  Tm  Tm2  1  0.656555  0.328277  0.933925  1
  Tm  Tm3  1  0.329025  0.664512  0.066989  1
  Tc  Tc4  1  0.681531  0.840766  0.750209  1
  Ru  Ru5  1  0.983345  0.991673  0.499724  1
  Ru  Ru6  1  0.983185  0.991593  0.000297  1
  Ru  Ru7  1  0.833930  0.167914  0.249618  1
  Ru  Ru8  1  0.833930  0.666016  0.249618  1
  Ru  Ru9  1  0.353949  0.176974  0.249713  1
  Ru  Ru10  1  0.179829  0.826812  0.750250  1
  Ru  Ru11  1  0.179829  0.353017  0.750250  1
