# generated using pymatgen
data_LaPr2(DyRh6)3
_symmetry_space_group_name_H-M   'P 1'
_cell_length_a   5.32290300
_cell_length_b   5.32290206
_cell_length_c   17.62791200
_cell_angle_alpha   90.00000000
_cell_angle_beta   90.00000000
_cell_angle_gamma   119.99998720
_symmetry_Int_Tables_number   1
_chemical_formula_structural   LaPr2(DyRh6)3
_chemical_formula_sum   'La1 Pr2 Dy3 Rh18'
_cell_volume   432.54230362
_cell_formula_units_Z   1
loop_
 _symmetry_equiv_pos_site_id
 _symmetry_equiv_pos_as_xyz
  1  'x, y, z'
loop_
 _atom_site_type_symbol
 _atom_site_label
 _atom_site_symmetry_multiplicity
 _atom_site_fract_x
 _atom_site_fract_y
 _atom_site_fract_z
 _atom_site_occupancy
  La  La0  1  0.666667  0.333333  0.250012  1
  Pr  Pr1  1  0.333333  0.666667  0.542222  1
  Pr  Pr2  1  0.333333  0.666667  0.750086  1
  Dy  Dy3  1  0.666667  0.333333  0.041482  1
  Dy  Dy4  1  0.666667  0.333333  0.458363  1
  Dy  Dy5  1  0.333333  0.666667  0.957596  1
  Rh  Rh6  1  0.167336  0.334671  0.124496  1
  Rh  Rh7  1  0.832720  0.665440  0.626017  1
  Rh  Rh8  1  0.665329  0.832664  0.124496  1
  Rh  Rh9  1  0.167336  0.832664  0.124496  1
  Rh  Rh10  1  0.832720  0.167280  0.626017  1
  Rh  Rh11  1  0.334560  0.167280  0.626017  1
  Rh  Rh12  1  0.832686  0.665371  0.874263  1
  Rh  Rh13  1  0.832686  0.167314  0.874263  1
  Rh  Rh14  1  0.334629  0.167314  0.874263  1
  Rh  Rh15  1  0.665596  0.832797  0.375370  1
  Rh  Rh16  1  0.167203  0.832797  0.375370  1
  Rh  Rh17  1  0.167203  0.334404  0.375370  1
  Rh  Rh18  1  0.000000  0.000000  0.249932  1
  Rh  Rh19  1  0.000000  0.000000  0.750049  1
  Rh  Rh20  1  0.333333  0.666667  0.250002  1
  Rh  Rh21  1  0.666667  0.333333  0.750041  1
  Rh  Rh22  1  0.000000  0.000000  0.999534  1
  Rh  Rh23  1  0.000000  0.000000  0.500245  1
