# generated using pymatgen
data_Ho12InCo4Cu
_symmetry_space_group_name_H-M   'P 1'
_cell_length_a   8.26560574
_cell_length_b   8.26560547
_cell_length_c   8.26560624
_cell_angle_alpha   111.09966428
_cell_angle_beta   110.78261379
_cell_angle_gamma   106.56992353
_symmetry_Int_Tables_number   1
_chemical_formula_structural   Ho12InCo4Cu
_chemical_formula_sum   'Ho12 In1 Co4 Cu1'
_cell_volume   433.87845404
_cell_formula_units_Z   1
loop_
 _symmetry_equiv_pos_site_id
 _symmetry_equiv_pos_as_xyz
  1  'x, y, z'
loop_
 _atom_site_type_symbol
 _atom_site_label
 _atom_site_symmetry_multiplicity
 _atom_site_fract_x
 _atom_site_fract_y
 _atom_site_fract_z
 _atom_site_occupancy
  Ho  Ho0  1  0.316093  0.621141  0.305048  1
  Ho  Ho1  1  0.683907  0.378859  0.694952  1
  Ho  Ho2  1  0.316093  0.011043  0.694952  1
  Ho  Ho3  1  0.683907  0.988957  0.305048  1
  Ho  Ho4  1  0.185662  0.289959  0.475621  1
  Ho  Ho5  1  0.814338  0.710041  0.524379  1
  Ho  Ho6  1  0.185662  0.710041  0.895702  1
  Ho  Ho7  1  0.814338  0.289959  0.104298  1
  Ho  Ho8  1  0.417409  0.218365  0.199044  1
  Ho  Ho9  1  0.582591  0.781635  0.800956  1
  Ho  Ho10  1  0.019321  0.218365  0.800956  1
  Ho  Ho11  1  0.980679  0.781635  0.199044  1
  In  In12  1  0.500000  0.500000  0.000000  1
  Co  Co13  1  0.112714  0.612714  0.500000  1
  Co  Co14  1  0.887286  0.387286  0.500000  1
  Co  Co15  1  0.375737  0.000000  0.375737  1
  Co  Co16  1  0.624263  0.000000  0.624263  1
  Cu  Cu17  1  0.000000  0.000000  0.000000  1
