# generated using pymatgen
data_LaNd3Ge4F28
_symmetry_space_group_name_H-M   'P 1'
_cell_length_a   5.60185106
_cell_length_b   9.05615453
_cell_length_c   12.09584200
_cell_angle_alpha   61.85496668
_cell_angle_beta   90.00871426
_cell_angle_gamma   90.01218346
_symmetry_Int_Tables_number   1
_chemical_formula_structural   LaNd3Ge4F28
_chemical_formula_sum   'La1 Nd3 Ge4 F28'
_cell_volume   541.07826869
_cell_formula_units_Z   1
loop_
 _symmetry_equiv_pos_site_id
 _symmetry_equiv_pos_as_xyz
  1  'x, y, z'
loop_
 _atom_site_type_symbol
 _atom_site_label
 _atom_site_symmetry_multiplicity
 _atom_site_fract_x
 _atom_site_fract_y
 _atom_site_fract_z
 _atom_site_occupancy
  La  La0  1  0.740327  0.809112  0.764594  1
  Nd  Nd1  1  0.759832  0.808457  0.264532  1
  Nd  Nd2  1  0.260017  0.192379  0.235604  1
  Nd  Nd3  1  0.240041  0.194356  0.735312  1
  Ge  Ge4  1  0.244145  0.725337  0.540895  1
  Ge  Ge5  1  0.743697  0.272581  0.958188  1
  Ge  Ge6  1  0.756872  0.276240  0.456053  1
  Ge  Ge7  1  0.256703  0.725007  0.044880  1
  F  F8  1  0.971122  0.713998  0.460316  1
  F  F9  1  0.471763  0.284437  0.039706  1
  F  F10  1  0.028194  0.286378  0.538645  1
  F  F11  1  0.528886  0.712547  0.964978  1
  F  F12  1  0.070189  0.707002  0.928094  1
  F  F13  1  0.566673  0.291895  0.573109  1
  F  F14  1  0.933725  0.290441  0.074308  1
  F  F15  1  0.432396  0.708235  0.424174  1
  F  F16  1  0.735471  0.500251  0.865219  1
  F  F17  1  0.235945  0.496219  0.634050  1
  F  F18  1  0.263375  0.495954  0.137652  1
  F  F19  1  0.764518  0.504526  0.363834  1
  F  F20  1  0.738894  0.044893  0.046885  1
  F  F21  1  0.238953  0.953558  0.452654  1
  F  F22  1  0.261201  0.952979  0.954300  1
  F  F23  1  0.761227  0.048725  0.543813  1
  F  F24  1  0.059155  0.738032  0.661820  1
  F  F25  1  0.554932  0.258740  0.837983  1
  F  F26  1  0.945979  0.262123  0.336282  1
  F  F27  1  0.443494  0.739649  0.164854  1
  F  F28  1  0.009098  0.268559  0.870547  1
  F  F29  1  0.509990  0.729311  0.627236  1
  F  F30  1  0.990450  0.730391  0.131047  1
  F  F31  1  0.491947  0.270947  0.368687  1
  F  F32  1  0.096547  0.968256  0.227696  1
  F  F33  1  0.596926  0.032361  0.272466  1
  F  F34  1  0.901045  0.036913  0.772807  1
  F  F35  1  0.396274  0.969212  0.726776  1
