# generated using pymatgen
data_YbCeTiIr3
_symmetry_space_group_name_H-M   'P 1'
_cell_length_a   5.65777895
_cell_length_b   5.16465188
_cell_length_c   5.65777800
_cell_angle_alpha   56.78784729
_cell_angle_beta   59.99999388
_cell_angle_gamma   56.78784960
_symmetry_Int_Tables_number   1
_chemical_formula_structural   YbCeTiIr3
_chemical_formula_sum   'Yb1 Ce1 Ti1 Ir3'
_cell_volume   110.89950125
_cell_formula_units_Z   1
loop_
 _symmetry_equiv_pos_site_id
 _symmetry_equiv_pos_as_xyz
  1  'x, y, z'
loop_
 _atom_site_type_symbol
 _atom_site_label
 _atom_site_symmetry_multiplicity
 _atom_site_fract_x
 _atom_site_fract_y
 _atom_site_fract_z
 _atom_site_occupancy
  Yb  Yb0  1  0.750470  0.748590  0.750470  1
  Ce  Ce1  1  0.499380  0.501862  0.499380  1
  Ti  Ti2  1  0.126053  0.621840  0.126053  1
  Ir  Ir3  1  0.626999  0.125903  0.123549  1
  Ir  Ir4  1  0.123549  0.125903  0.123549  1
  Ir  Ir5  1  0.123549  0.125903  0.626999  1
