# generated using pymatgen
data_TbDyP7(RuRh)6
_symmetry_space_group_name_H-M   'P 1'
_cell_length_a   3.87404112
_cell_length_b   9.55026515
_cell_length_c   9.55957009
_cell_angle_alpha   120.05880433
_cell_angle_beta   90.00554144
_cell_angle_gamma   89.98352977
_symmetry_Int_Tables_number   1
_chemical_formula_structural   TbDyP7(RuRh)6
_chemical_formula_sum   'Tb1 Dy1 P7 Ru6 Rh6'
_cell_volume   306.11949125
_cell_formula_units_Z   1
loop_
 _symmetry_equiv_pos_site_id
 _symmetry_equiv_pos_as_xyz
  1  'x, y, z'
loop_
 _atom_site_type_symbol
 _atom_site_label
 _atom_site_symmetry_multiplicity
 _atom_site_fract_x
 _atom_site_fract_y
 _atom_site_fract_z
 _atom_site_occupancy
  Tb  Tb0  1  0.746518  0.333199  0.666534  1
  Dy  Dy1  1  0.253479  0.666796  0.333461  1
  P  P2  1  0.499706  0.000003  0.000000  1
  P  P3  1  0.753689  0.882630  0.597583  1
  P  P4  1  0.753789  0.402646  0.285219  1
  P  P5  1  0.753985  0.714873  0.117293  1
  P  P6  1  0.246330  0.117135  0.402045  1
  P  P7  1  0.246228  0.597730  0.714924  1
  P  P8  1  0.246031  0.284986  0.882938  1
  Ru  Ru9  1  0.742663  0.114866  0.851613  1
  Ru  Ru10  1  0.742976  0.148159  0.262744  1
  Ru  Ru11  1  0.742679  0.737163  0.885206  1
  Ru  Ru12  1  0.257366  0.885033  0.148396  1
  Ru  Ru13  1  0.257055  0.851822  0.737143  1
  Ru  Ru14  1  0.257346  0.262950  0.114883  1
  Rh  Rh15  1  0.752889  0.616918  0.552913  1
  Rh  Rh16  1  0.752796  0.447373  0.064312  1
  Rh  Rh17  1  0.752806  0.936181  0.383236  1
  Rh  Rh18  1  0.247165  0.383273  0.446707  1
  Rh  Rh19  1  0.247260  0.553013  0.936264  1
  Rh  Rh20  1  0.247243  0.063251  0.616586  1
