# generated using pymatgen
data_Tm2Pa2Ge6Os7
_symmetry_space_group_name_H-M   'P 1'
_cell_length_a   7.23922349
_cell_length_b   7.24905662
_cell_length_c   7.24905603
_cell_angle_alpha   109.53223879
_cell_angle_beta   109.46819780
_cell_angle_gamma   109.46819038
_symmetry_Int_Tables_number   1
_chemical_formula_structural   Tm2Pa2Ge6Os7
_chemical_formula_sum   'Tm2 Pa2 Ge6 Os7'
_cell_volume   292.64287548
_cell_formula_units_Z   1
loop_
 _symmetry_equiv_pos_site_id
 _symmetry_equiv_pos_as_xyz
  1  'x, y, z'
loop_
 _atom_site_type_symbol
 _atom_site_label
 _atom_site_symmetry_multiplicity
 _atom_site_fract_x
 _atom_site_fract_y
 _atom_site_fract_z
 _atom_site_occupancy
  Tm  Tm0  1  0.000000  0.000000  0.500000  1
  Tm  Tm1  1  0.000000  0.500000  0.000000  1
  Pa  Pa2  1  0.500000  0.000000  0.000000  1
  Pa  Pa3  1  0.500000  0.500000  0.500000  1
  Ge  Ge4  1  0.695125  0.689814  0.005312  1
  Ge  Ge5  1  0.304875  0.994688  0.310186  1
  Ge  Ge6  1  0.000000  0.310676  0.310676  1
  Ge  Ge7  1  0.304875  0.310186  0.994688  1
  Ge  Ge8  1  0.695125  0.005312  0.689814  1
  Ge  Ge9  1  0.000000  0.689324  0.689324  1
  Os  Os10  1  0.745978  0.249714  0.496263  1
  Os  Os11  1  0.745978  0.496263  0.249714  1
  Os  Os12  1  0.500000  0.250000  0.750000  1
  Os  Os13  1  0.254022  0.503737  0.750286  1
  Os  Os14  1  0.254022  0.750286  0.503737  1
  Os  Os15  1  0.500000  0.750000  0.250000  1
  Os  Os16  1  0.000000  0.000000  0.000000  1
