# generated using pymatgen
data_DyTmCo6Ge2BC
_symmetry_space_group_name_H-M   'P 1'
_cell_length_a   5.16665707
_cell_length_b   5.16598411
_cell_length_c   6.53236600
_cell_angle_alpha   90.00000000
_cell_angle_beta   90.00000000
_cell_angle_gamma   119.98965271
_symmetry_Int_Tables_number   1
_chemical_formula_structural   DyTmCo6Ge2BC
_chemical_formula_sum   'Dy1 Tm1 Co6 Ge2 B1 C1'
_cell_volume   151.01118536
_cell_formula_units_Z   1
loop_
 _symmetry_equiv_pos_site_id
 _symmetry_equiv_pos_as_xyz
  1  'x, y, z'
loop_
 _atom_site_type_symbol
 _atom_site_label
 _atom_site_symmetry_multiplicity
 _atom_site_fract_x
 _atom_site_fract_y
 _atom_site_fract_z
 _atom_site_occupancy
  Dy  Dy0  1  0.999957  0.999996  0.000000  1
  Tm  Tm1  1  0.000017  0.999984  0.500000  1
  Co  Co2  1  0.497591  0.995193  0.296752  1
  Co  Co3  1  0.497581  0.502406  0.296766  1
  Co  Co4  1  0.004799  0.502410  0.296793  1
  Co  Co5  1  0.497591  0.995193  0.703248  1
  Co  Co6  1  0.497581  0.502406  0.703234  1
  Co  Co7  1  0.004799  0.502410  0.703207  1
  Ge  Ge8  1  0.333304  0.666628  0.000000  1
  Ge  Ge9  1  0.666619  0.333371  0.000000  1
  B  B10  1  0.666566  0.333263  0.500000  1
  C  C11  1  0.333392  0.666738  0.500000  1
