# generated using pymatgen
data_Hf7Zr3GaCuSb6
_symmetry_space_group_name_H-M   'P 1'
_cell_length_a   8.61168800
_cell_length_b   8.61169010
_cell_length_c   5.81347000
_cell_angle_alpha   90.00000000
_cell_angle_beta   90.00000000
_cell_angle_gamma   119.99999194
_symmetry_Int_Tables_number   1
_chemical_formula_structural   Hf7Zr3GaCuSb6
_chemical_formula_sum   'Hf7 Zr3 Ga1 Cu1 Sb6'
_cell_volume   373.37289097
_cell_formula_units_Z   1
loop_
 _symmetry_equiv_pos_site_id
 _symmetry_equiv_pos_as_xyz
  1  'x, y, z'
loop_
 _atom_site_type_symbol
 _atom_site_label
 _atom_site_symmetry_multiplicity
 _atom_site_fract_x
 _atom_site_fract_y
 _atom_site_fract_z
 _atom_site_occupancy
  Hf  Hf0  1  0.666667  0.333333  0.999441  1
  Hf  Hf1  1  0.333333  0.666667  0.999441  1
  Hf  Hf2  1  0.333333  0.666667  0.500299  1
  Hf  Hf3  1  0.666667  0.333333  0.500299  1
  Hf  Hf4  1  0.731047  0.731047  0.753368  1
  Hf  Hf5  1  0.268953  0.000000  0.753368  1
  Hf  Hf6  1  0.000000  0.268953  0.753368  1
  Zr  Zr7  1  0.266028  0.266028  0.247532  1
  Zr  Zr8  1  0.733972  0.000000  0.247532  1
  Zr  Zr9  1  0.000000  0.733972  0.247532  1
  Ga  Ga10  1  0.000000  0.000000  0.505519  1
  Cu  Cu11  1  0.000000  0.000000  0.993372  1
  Sb  Sb12  1  0.386351  0.386351  0.749611  1
  Sb  Sb13  1  0.613649  0.000000  0.749611  1
  Sb  Sb14  1  0.000000  0.613649  0.749611  1
  Sb  Sb15  1  0.612520  0.612520  0.250031  1
  Sb  Sb16  1  0.387480  0.000000  0.250031  1
  Sb  Sb17  1  0.000000  0.387480  0.250031  1
