# generated using pymatgen
data_Ir3Ru4
_symmetry_space_group_name_H-M   'P 1'
_cell_length_a   7.27138000
_cell_length_b   7.27201650
_cell_length_c   4.34515100
_cell_angle_alpha   90.00000000
_cell_angle_beta   90.00000000
_cell_angle_gamma   60.00212693
_symmetry_Int_Tables_number   1
_chemical_formula_structural   Ir3Ru4
_chemical_formula_sum   'Ir6 Ru8'
_cell_volume   198.98324535
_cell_formula_units_Z   2
loop_
 _symmetry_equiv_pos_site_id
 _symmetry_equiv_pos_as_xyz
  1  'x, y, z'
loop_
 _atom_site_type_symbol
 _atom_site_label
 _atom_site_symmetry_multiplicity
 _atom_site_fract_x
 _atom_site_fract_y
 _atom_site_fract_z
 _atom_site_occupancy
  Ir  Ir0  1  0.142050  0.284650  0.000000  1
  Ir  Ir1  1  0.287589  0.570620  0.000000  1
  Ir  Ir2  1  0.856050  0.716168  0.000000  1
  Ir  Ir3  1  0.381756  0.096324  0.500000  1
  Ir  Ir4  1  0.667735  0.664799  0.500000  1
  Ir  Ir5  1  0.236252  0.810303  0.500000  1
  Ru  Ru6  1  0.573890  0.141782  0.000000  1
  Ru  Ru7  1  0.713191  0.427288  0.000000  1
  Ru  Ru8  1  0.428544  0.857048  0.000000  1
  Ru  Ru9  1  0.998695  0.002427  0.000000  1
  Ru  Ru10  1  0.949829  0.239296  0.500000  1
  Ru  Ru11  1  0.525107  0.378508  0.500000  1
  Ru  Ru12  1  0.095178  0.523730  0.500000  1
  Ru  Ru13  1  0.810702  0.953622  0.500000  1
