# generated using pymatgen
data_Tb2VOsF14
_symmetry_space_group_name_H-M   'P 1'
_cell_length_a   5.60800602
_cell_length_b   8.99297883
_cell_length_c   12.03320681
_cell_angle_alpha   63.39855540
_cell_angle_beta   89.15675155
_cell_angle_gamma   90.32646973
_symmetry_Int_Tables_number   1
_chemical_formula_structural   Tb2VOsF14
_chemical_formula_sum   'Tb4 V2 Os2 F28'
_cell_volume   542.51570968
_cell_formula_units_Z   2
loop_
 _symmetry_equiv_pos_site_id
 _symmetry_equiv_pos_as_xyz
  1  'x, y, z'
loop_
 _atom_site_type_symbol
 _atom_site_label
 _atom_site_symmetry_multiplicity
 _atom_site_fract_x
 _atom_site_fract_y
 _atom_site_fract_z
 _atom_site_occupancy
  Tb  Tb0  1  0.260540  0.792960  0.288790  1
  Tb  Tb1  1  0.739460  0.207040  0.711210  1
  Tb  Tb2  1  0.760579  0.167896  0.254165  1
  Tb  Tb3  1  0.239421  0.832104  0.745835  1
  V  V4  1  0.254398  0.276989  0.451250  1
  V  V5  1  0.745602  0.723011  0.548750  1
  Os  Os6  1  0.758999  0.726363  0.044437  1
  Os  Os7  1  0.241001  0.273637  0.955563  1
  F  F8  1  0.951620  0.705279  0.423265  1
  F  F9  1  0.048380  0.294721  0.576735  1
  F  F10  1  0.445568  0.294159  0.074842  1
  F  F11  1  0.554432  0.705841  0.925158  1
  F  F12  1  0.479740  0.731978  0.138560  1
  F  F13  1  0.520260  0.268022  0.861440  1
  F  F14  1  0.981735  0.268805  0.354984  1
  F  F15  1  0.018265  0.731195  0.645016  1
  F  F16  1  0.961923  0.745086  0.167044  1
  F  F17  1  0.038077  0.254914  0.832956  1
  F  F18  1  0.457364  0.252096  0.326695  1
  F  F19  1  0.542636  0.747904  0.673305  1
  F  F20  1  0.764784  0.488327  0.136093  1
  F  F21  1  0.235216  0.511673  0.863907  1
  F  F22  1  0.268055  0.515283  0.353790  1
  F  F23  1  0.731945  0.484717  0.646210  1
  F  F24  1  0.958382  0.281467  0.048148  1
  F  F25  1  0.041618  0.718533  0.951852  1
  F  F26  1  0.460671  0.712448  0.458803  1
  F  F27  1  0.539329  0.287552  0.541197  1
  F  F28  1  0.742819  0.962199  0.450110  1
  F  F29  1  0.257181  0.037801  0.549890  1
  F  F30  1  0.241165  0.037378  0.042797  1
  F  F31  1  0.758835  0.962622  0.957203  1
  F  F32  1  0.571263  0.969488  0.230335  1
  F  F33  1  0.428737  0.030512  0.769665  1
  F  F34  1  0.081584  0.021943  0.263525  1
  F  F35  1  0.918416  0.978057  0.736475  1
