# generated using pymatgen
data_SrOsO5
_symmetry_space_group_name_H-M   'P 1'
_cell_length_a   5.07459438
_cell_length_b   5.52428068
_cell_length_c   13.57932800
_cell_angle_alpha   90.07886588
_cell_angle_beta   89.90231272
_cell_angle_gamma   89.64112914
_symmetry_Int_Tables_number   1
_chemical_formula_structural   SrOsO5
_chemical_formula_sum   'Sr4 Os4 O20'
_cell_volume   380.66748279
_cell_formula_units_Z   4
loop_
 _symmetry_equiv_pos_site_id
 _symmetry_equiv_pos_as_xyz
  1  'x, y, z'
loop_
 _atom_site_type_symbol
 _atom_site_label
 _atom_site_symmetry_multiplicity
 _atom_site_fract_x
 _atom_site_fract_y
 _atom_site_fract_z
 _atom_site_occupancy
  Sr  Sr0  1  0.778450  0.373638  0.144119  1
  Sr  Sr1  1  0.720782  0.626627  0.644412  1
  Sr  Sr2  1  0.218176  0.882510  0.355596  1
  Sr  Sr3  1  0.281191  0.117450  0.856189  1
  Os  Os4  1  0.272805  0.132661  0.600227  1
  Os  Os5  1  0.771595  0.374549  0.399976  1
  Os  Os6  1  0.729540  0.626260  0.899394  1
  Os  Os7  1  0.226761  0.866493  0.100473  1
  O  O8  1  0.932398  0.621952  0.464490  1
  O  O9  1  0.433710  0.884765  0.534755  1
  O  O10  1  0.066121  0.113715  0.034850  1
  O  O11  1  0.569339  0.378304  0.963658  1
  O  O12  1  0.555802  0.539975  0.322824  1
  O  O13  1  0.057071  0.969121  0.677675  1
  O  O14  1  0.437736  0.031971  0.179005  1
  O  O15  1  0.942504  0.461242  0.820361  1
  O  O16  1  0.179075  0.439724  0.632097  1
  O  O17  1  0.676305  0.068956  0.367726  1
  O  O18  1  0.825325  0.931958  0.868014  1
  O  O19  1  0.322044  0.560119  0.132477  1
  O  O20  1  0.543776  0.147753  0.688693  1
  O  O21  1  0.043433  0.353215  0.311481  1
  O  O22  1  0.455383  0.650490  0.812403  1
  O  O23  1  0.952010  0.848385  0.187524  1
  O  O24  1  0.558980  0.350704  0.511481  1
  O  O25  1  0.057642  0.156977  0.489494  1
  O  O26  1  0.446330  0.843995  0.990737  1
  O  O27  1  0.945716  0.646492  0.009868  1
