# generated using pymatgen
data_Tb8NiHg2Os
_symmetry_space_group_name_H-M   'P 1'
_cell_length_a   9.59288456
_cell_length_b   9.59054861
_cell_length_c   9.67090706
_cell_angle_alpha   59.71198370
_cell_angle_beta   59.72030947
_cell_angle_gamma   59.79108113
_symmetry_Int_Tables_number   1
_chemical_formula_structural   Tb8NiHg2Os
_chemical_formula_sum   'Tb16 Ni2 Hg4 Os2'
_cell_volume   625.43718456
_cell_formula_units_Z   2
loop_
 _symmetry_equiv_pos_site_id
 _symmetry_equiv_pos_as_xyz
  1  'x, y, z'
loop_
 _atom_site_type_symbol
 _atom_site_label
 _atom_site_symmetry_multiplicity
 _atom_site_fract_x
 _atom_site_fract_y
 _atom_site_fract_z
 _atom_site_occupancy
  Tb  Tb0  1  0.351018  0.351099  0.345397  1
  Tb  Tb1  1  0.352238  0.352308  0.951139  1
  Tb  Tb2  1  0.352618  0.951091  0.348120  1
  Tb  Tb3  1  0.951130  0.352652  0.348088  1
  Tb  Tb4  1  0.810172  0.187722  0.190070  1
  Tb  Tb5  1  0.186135  0.810559  0.811362  1
  Tb  Tb6  1  0.187713  0.810147  0.190065  1
  Tb  Tb7  1  0.810588  0.186134  0.811330  1
  Tb  Tb8  1  0.189506  0.189507  0.810290  1
  Tb  Tb9  1  0.808690  0.808624  0.190958  1
  Tb  Tb10  1  0.939576  0.555295  0.566553  1
  Tb  Tb11  1  0.555726  0.939204  0.939292  1
  Tb  Tb12  1  0.555299  0.939575  0.566544  1
  Tb  Tb13  1  0.939199  0.555728  0.939285  1
  Tb  Tb14  1  0.564977  0.564957  0.936338  1
  Tb  Tb15  1  0.941204  0.941202  0.558684  1
  Ni  Ni16  1  0.143077  0.575819  0.141266  1
  Ni  Ni17  1  0.575850  0.143085  0.141239  1
  Hg  Hg18  1  0.583409  0.583401  0.585498  1
  Hg  Hg19  1  0.583798  0.583796  0.245866  1
  Hg  Hg20  1  0.584361  0.245876  0.584532  1
  Hg  Hg21  1  0.245867  0.584359  0.584533  1
  Os  Os22  1  0.143393  0.143399  0.139211  1
  Os  Os23  1  0.144458  0.144460  0.574340  1
