# generated using pymatgen
data_Li4Ca8Si11Ge
_symmetry_space_group_name_H-M   'P 1'
_cell_length_a   4.37144800
_cell_length_b   10.56441126
_cell_length_c   11.23800455
_cell_angle_alpha   89.89703464
_cell_angle_beta   90.00000000
_cell_angle_gamma   90.00000000
_symmetry_Int_Tables_number   1
_chemical_formula_structural   Li4Ca8Si11Ge
_chemical_formula_sum   'Li4 Ca8 Si11 Ge1'
_cell_volume   518.99015324
_cell_formula_units_Z   1
loop_
 _symmetry_equiv_pos_site_id
 _symmetry_equiv_pos_as_xyz
  1  'x, y, z'
loop_
 _atom_site_type_symbol
 _atom_site_label
 _atom_site_symmetry_multiplicity
 _atom_site_fract_x
 _atom_site_fract_y
 _atom_site_fract_z
 _atom_site_occupancy
  Li  Li0  1  0.500000  0.861049  0.283438  1
  Li  Li1  1  0.500000  0.139049  0.717966  1
  Li  Li2  1  0.000000  0.361227  0.218113  1
  Li  Li3  1  0.000000  0.638688  0.781684  1
  Ca  Ca4  1  0.500000  0.551048  0.349353  1
  Ca  Ca5  1  0.500000  0.448983  0.650774  1
  Ca  Ca6  1  0.000000  0.052562  0.150831  1
  Ca  Ca7  1  0.000000  0.949174  0.849090  1
  Ca  Ca8  1  0.500000  0.821695  0.574001  1
  Ca  Ca9  1  0.500000  0.178256  0.426003  1
  Ca  Ca10  1  0.000000  0.322125  0.925890  1
  Ca  Ca11  1  0.000000  0.676541  0.073799  1
  Si  Si12  1  0.500000  0.111827  0.958691  1
  Si  Si13  1  0.000000  0.391667  0.459891  1
  Si  Si14  1  0.000000  0.608155  0.539921  1
  Si  Si15  1  0.000000  0.965425  0.400944  1
  Si  Si16  1  0.000000  0.034753  0.598828  1
  Si  Si17  1  0.500000  0.465780  0.099303  1
  Si  Si18  1  0.500000  0.533686  0.900756  1
  Si  Si19  1  0.000000  0.255081  0.632564  1
  Si  Si20  1  0.000000  0.744859  0.367120  1
  Si  Si21  1  0.500000  0.753365  0.864070  1
  Si  Si22  1  0.500000  0.245450  0.132434  1
  Ge  Ge23  1  0.500000  0.889558  0.044540  1
