# generated using pymatgen
data_SrAcCd2Au3
_symmetry_space_group_name_H-M   'P 1'
_cell_length_a   4.67625800
_cell_length_b   8.47734600
_cell_length_c   9.60982500
_cell_angle_alpha   90.00000000
_cell_angle_beta   90.00000000
_cell_angle_gamma   90.00000000
_symmetry_Int_Tables_number   1
_chemical_formula_structural   SrAcCd2Au3
_chemical_formula_sum   'Sr2 Ac2 Cd4 Au6'
_cell_volume   380.95515287
_cell_formula_units_Z   2
loop_
 _symmetry_equiv_pos_site_id
 _symmetry_equiv_pos_as_xyz
  1  'x, y, z'
loop_
 _atom_site_type_symbol
 _atom_site_label
 _atom_site_symmetry_multiplicity
 _atom_site_fract_x
 _atom_site_fract_y
 _atom_site_fract_z
 _atom_site_occupancy
  Sr  Sr0  1  0.500000  0.000000  0.735031  1
  Sr  Sr1  1  0.000000  0.500000  0.264969  1
  Ac  Ac2  1  0.000000  0.000000  0.335716  1
  Ac  Ac3  1  0.500000  0.500000  0.664284  1
  Cd  Cd4  1  0.000000  0.311187  0.899385  1
  Cd  Cd5  1  0.500000  0.188813  0.100615  1
  Cd  Cd6  1  0.000000  0.688813  0.899385  1
  Cd  Cd7  1  0.500000  0.811187  0.100615  1
  Au  Au8  1  0.000000  0.748472  0.593192  1
  Au  Au9  1  0.500000  0.751528  0.406808  1
  Au  Au10  1  0.500000  0.500000  0.996107  1
  Au  Au11  1  0.000000  0.000000  0.003893  1
  Au  Au12  1  0.500000  0.248472  0.406808  1
  Au  Au13  1  0.000000  0.251528  0.593192  1
