# generated using pymatgen
data_Gd4ScSn3
_symmetry_space_group_name_H-M   'P 1'
_cell_length_a   8.93243400
_cell_length_b   8.93243421
_cell_length_c   6.45109000
_cell_angle_alpha   90.00000000
_cell_angle_beta   90.00000000
_cell_angle_gamma   119.99999924
_symmetry_Int_Tables_number   1
_chemical_formula_structural   Gd4ScSn3
_chemical_formula_sum   'Gd8 Sc2 Sn6'
_cell_volume   445.76234339
_cell_formula_units_Z   2
loop_
 _symmetry_equiv_pos_site_id
 _symmetry_equiv_pos_as_xyz
  1  'x, y, z'
loop_
 _atom_site_type_symbol
 _atom_site_label
 _atom_site_symmetry_multiplicity
 _atom_site_fract_x
 _atom_site_fract_y
 _atom_site_fract_z
 _atom_site_occupancy
  Gd  Gd0  1  0.333333  0.666667  0.500000  1
  Gd  Gd1  1  0.666667  0.333333  0.500000  1
  Gd  Gd2  1  0.759543  0.759543  0.752998  1
  Gd  Gd3  1  0.240457  0.000000  0.752998  1
  Gd  Gd4  1  0.000000  0.240457  0.752998  1
  Gd  Gd5  1  0.240457  0.240457  0.247002  1
  Gd  Gd6  1  0.759543  0.000000  0.247002  1
  Gd  Gd7  1  0.000000  0.759543  0.247002  1
  Sc  Sc8  1  0.666667  0.333333  0.000000  1
  Sc  Sc9  1  0.333333  0.666667  0.000000  1
  Sn  Sn10  1  0.398629  0.398629  0.763979  1
  Sn  Sn11  1  0.601371  0.000000  0.763979  1
  Sn  Sn12  1  0.000000  0.601371  0.763979  1
  Sn  Sn13  1  0.601371  0.601371  0.236021  1
  Sn  Sn14  1  0.398629  0.000000  0.236021  1
  Sn  Sn15  1  0.000000  0.398629  0.236021  1
