# generated using pymatgen
data_LiCe2Sb4Pt
_symmetry_space_group_name_H-M   'P 1'
_cell_length_a   4.40143200
_cell_length_b   4.40143200
_cell_length_c   9.97511200
_cell_angle_alpha   90.00000000
_cell_angle_beta   90.00000000
_cell_angle_gamma   90.00000000
_symmetry_Int_Tables_number   1
_chemical_formula_structural   LiCe2Sb4Pt
_chemical_formula_sum   'Li1 Ce2 Sb4 Pt1'
_cell_volume   193.24389115
_cell_formula_units_Z   1
loop_
 _symmetry_equiv_pos_site_id
 _symmetry_equiv_pos_as_xyz
  1  'x, y, z'
loop_
 _atom_site_type_symbol
 _atom_site_label
 _atom_site_symmetry_multiplicity
 _atom_site_fract_x
 _atom_site_fract_y
 _atom_site_fract_z
 _atom_site_occupancy
  Li  Li0  1  0.500000  0.500000  0.500000  1
  Ce  Ce1  1  0.000000  0.500000  0.749765  1
  Ce  Ce2  1  0.500000  0.000000  0.250235  1
  Sb  Sb3  1  0.500000  0.500000  0.000000  1
  Sb  Sb4  1  0.000000  0.000000  0.000000  1
  Sb  Sb5  1  0.000000  0.500000  0.334912  1
  Sb  Sb6  1  0.500000  0.000000  0.665088  1
  Pt  Pt7  1  0.000000  0.000000  0.500000  1
