# generated using pymatgen
data_Pr4GaCoSi6
_symmetry_space_group_name_H-M   'P 1'
_cell_length_a   8.14596400
_cell_length_b   8.14596334
_cell_length_c   4.32168100
_cell_angle_alpha   90.00000000
_cell_angle_beta   90.00000000
_cell_angle_gamma   120.00000268
_symmetry_Int_Tables_number   1
_chemical_formula_structural   Pr4GaCoSi6
_chemical_formula_sum   'Pr4 Ga1 Co1 Si6'
_cell_volume   248.35234464
_cell_formula_units_Z   1
loop_
 _symmetry_equiv_pos_site_id
 _symmetry_equiv_pos_as_xyz
  1  'x, y, z'
loop_
 _atom_site_type_symbol
 _atom_site_label
 _atom_site_symmetry_multiplicity
 _atom_site_fract_x
 _atom_site_fract_y
 _atom_site_fract_z
 _atom_site_occupancy
  Pr  Pr0  1  0.502932  0.497068  0.000000  1
  Pr  Pr1  1  0.994134  0.497068  0.000000  1
  Pr  Pr2  1  0.502932  0.005866  0.000000  1
  Pr  Pr3  1  0.000000  0.000000  0.000000  1
  Ga  Ga4  1  0.333333  0.666667  0.500000  1
  Co  Co5  1  0.666667  0.333333  0.500000  1
  Si  Si6  1  0.823531  0.647063  0.500000  1
  Si  Si7  1  0.160329  0.839671  0.500000  1
  Si  Si8  1  0.679344  0.839671  0.500000  1
  Si  Si9  1  0.160329  0.320656  0.500000  1
  Si  Si10  1  0.823531  0.176469  0.500000  1
  Si  Si11  1  0.352937  0.176469  0.500000  1
