# generated using pymatgen
data_Gd3YTm(SiB4)2
_symmetry_space_group_name_H-M   'P 1'
_cell_length_a   7.25396210
_cell_length_b   7.25396210
_cell_length_c   8.14831600
_cell_angle_alpha   90.00000000
_cell_angle_beta   90.00000000
_cell_angle_gamma   89.98110667
_symmetry_Int_Tables_number   1
_chemical_formula_structural   Gd3YTm(SiB4)2
_chemical_formula_sum   'Gd6 Y2 Tm2 Si4 B16'
_cell_volume   428.76408861
_cell_formula_units_Z   2
loop_
 _symmetry_equiv_pos_site_id
 _symmetry_equiv_pos_as_xyz
  1  'x, y, z'
loop_
 _atom_site_type_symbol
 _atom_site_label
 _atom_site_symmetry_multiplicity
 _atom_site_fract_x
 _atom_site_fract_y
 _atom_site_fract_z
 _atom_site_occupancy
  Gd  Gd0  1  0.680389  0.180452  0.226791  1
  Gd  Gd1  1  0.319548  0.819611  0.773209  1
  Gd  Gd2  1  0.319548  0.819611  0.226791  1
  Gd  Gd3  1  0.819432  0.680568  0.226273  1
  Gd  Gd4  1  0.819432  0.680568  0.773727  1
  Gd  Gd5  1  0.680389  0.180452  0.773209  1
  Y  Y6  1  0.180321  0.319679  0.776360  1
  Y  Y7  1  0.180321  0.319679  0.223640  1
  Tm  Tm8  1  0.000316  0.000286  0.500000  1
  Tm  Tm9  1  0.499714  0.499684  0.500000  1
  Si  Si10  1  0.116194  0.614259  0.500000  1
  Si  Si11  1  0.885741  0.383806  0.500000  1
  Si  Si12  1  0.383447  0.116553  0.500000  1
  Si  Si13  1  0.614681  0.885319  0.500000  1
  B  B14  1  0.172621  0.039396  0.000000  1
  B  B15  1  0.827847  0.961062  0.000000  1
  B  B16  1  0.960904  0.172493  0.000000  1
  B  B17  1  0.327507  0.539096  0.000000  1
  B  B18  1  0.039296  0.827853  0.000000  1
  B  B19  1  0.672147  0.460704  0.000000  1
  B  B20  1  0.538938  0.672153  0.000000  1
  B  B21  1  0.460604  0.327379  0.000000  1
  B  B22  1  0.090011  0.589754  0.000000  1
  B  B23  1  0.910246  0.409989  0.000000  1
  B  B24  1  0.410003  0.089997  0.000000  1
  B  B25  1  0.590151  0.909849  0.000000  1
  B  B26  1  0.000310  0.000184  0.160777  1
  B  B27  1  0.000310  0.000184  0.839223  1
  B  B28  1  0.499816  0.499690  0.839223  1
  B  B29  1  0.499816  0.499690  0.160777  1
