# generated using pymatgen
data_Ta6TlSnS12
_symmetry_space_group_name_H-M   'P 1'
_cell_length_a   5.82227500
_cell_length_b   5.82227433
_cell_length_c   14.88166400
_cell_angle_alpha   90.00000000
_cell_angle_beta   90.00000000
_cell_angle_gamma   120.00000947
_symmetry_Int_Tables_number   1
_chemical_formula_structural   Ta6TlSnS12
_chemical_formula_sum   'Ta6 Tl1 Sn1 S12'
_cell_volume   436.88533212
_cell_formula_units_Z   1
loop_
 _symmetry_equiv_pos_site_id
 _symmetry_equiv_pos_as_xyz
  1  'x, y, z'
loop_
 _atom_site_type_symbol
 _atom_site_label
 _atom_site_symmetry_multiplicity
 _atom_site_fract_x
 _atom_site_fract_y
 _atom_site_fract_z
 _atom_site_occupancy
  Ta  Ta0  1  0.333333  0.666667  0.240475  1
  Ta  Ta1  1  0.666667  0.333333  0.759525  1
  Ta  Ta2  1  0.666667  0.333333  0.240475  1
  Ta  Ta3  1  0.333333  0.666667  0.759525  1
  Ta  Ta4  1  0.000000  0.000000  0.240744  1
  Ta  Ta5  1  0.000000  0.000000  0.759256  1
  Tl  Tl6  1  0.000000  0.000000  0.500000  1
  Sn  Sn7  1  0.000000  0.000000  0.000000  1
  S  S8  1  0.337421  0.000000  0.135998  1
  S  S9  1  0.000000  0.337421  0.135998  1
  S  S10  1  0.662579  0.662579  0.135998  1
  S  S11  1  0.336533  0.336533  0.655932  1
  S  S12  1  0.663467  0.663467  0.344068  1
  S  S13  1  0.663467  0.000000  0.655932  1
  S  S14  1  0.000000  0.663467  0.655932  1
  S  S15  1  0.000000  0.662579  0.864002  1
  S  S16  1  0.337421  0.337421  0.864002  1
  S  S17  1  0.000000  0.336533  0.344068  1
  S  S18  1  0.336533  0.000000  0.344068  1
  S  S19  1  0.662579  0.000000  0.864002  1
