# generated using pymatgen
data_HfZr5Ti4Al12Ir7
_symmetry_space_group_name_H-M   'P 1'
_cell_length_a   8.77719826
_cell_length_b   8.77719923
_cell_length_c   8.76428200
_cell_angle_alpha   60.04867086
_cell_angle_beta   60.04866720
_cell_angle_gamma   59.86188568
_symmetry_Int_Tables_number   1
_chemical_formula_structural   HfZr5Ti4Al12Ir7
_chemical_formula_sum   'Hf1 Zr5 Ti4 Al12 Ir7'
_cell_volume   477.28333240
_cell_formula_units_Z   1
loop_
 _symmetry_equiv_pos_site_id
 _symmetry_equiv_pos_as_xyz
  1  'x, y, z'
loop_
 _atom_site_type_symbol
 _atom_site_label
 _atom_site_symmetry_multiplicity
 _atom_site_fract_x
 _atom_site_fract_y
 _atom_site_fract_z
 _atom_site_occupancy
  Hf  Hf0  1  0.690853  0.690853  0.309147  1
  Zr  Zr1  1  0.311202  0.689741  0.309793  1
  Zr  Zr2  1  0.689741  0.311202  0.309793  1
  Zr  Zr3  1  0.307169  0.307169  0.692831  1
  Zr  Zr4  1  0.689741  0.311202  0.689265  1
  Zr  Zr5  1  0.311202  0.689741  0.689265  1
  Ti  Ti6  1  0.879918  0.879918  0.360076  1
  Ti  Ti7  1  0.879630  0.360589  0.879891  1
  Ti  Ti8  1  0.360589  0.879630  0.879891  1
  Ti  Ti9  1  0.879918  0.879918  0.880089  1
  Al  Al10  1  0.120006  0.120006  0.639918  1
  Al  Al11  1  0.119606  0.640235  0.120079  1
  Al  Al12  1  0.640235  0.119606  0.120079  1
  Al  Al13  1  0.120006  0.120006  0.120070  1
  Al  Al14  1  0.662470  0.662470  0.012891  1
  Al  Al15  1  0.662435  0.011952  0.662806  1
  Al  Al16  1  0.011952  0.662435  0.662806  1
  Al  Al17  1  0.662470  0.662470  0.662168  1
  Al  Al18  1  0.336312  0.336312  0.991169  1
  Al  Al19  1  0.336496  0.990615  0.336445  1
  Al  Al20  1  0.990615  0.336496  0.336445  1
  Al  Al21  1  0.336312  0.336312  0.336208  1
  Ir  Ir22  1  0.000375  0.000375  0.999625  1
  Ir  Ir23  1  0.998234  0.998234  0.501766  1
  Ir  Ir24  1  0.502812  0.997443  0.500673  1
  Ir  Ir25  1  0.997443  0.502812  0.500673  1
  Ir  Ir26  1  0.502003  0.502003  0.997997  1
  Ir  Ir27  1  0.997443  0.502812  0.999071  1
  Ir  Ir28  1  0.502812  0.997443  0.999071  1
