# generated using pymatgen
data_YEr3Ga18Ir5Rh
_symmetry_space_group_name_H-M   'P 1'
_cell_length_a   7.58118226
_cell_length_b   7.58262951
_cell_length_c   9.48778236
_cell_angle_alpha   89.96790203
_cell_angle_beta   89.97068518
_cell_angle_gamma   119.85998960
_symmetry_Int_Tables_number   1
_chemical_formula_structural   YEr3Ga18Ir5Rh
_chemical_formula_sum   'Y1 Er3 Ga18 Ir5 Rh1'
_cell_volume   473.00187637
_cell_formula_units_Z   1
loop_
 _symmetry_equiv_pos_site_id
 _symmetry_equiv_pos_as_xyz
  1  'x, y, z'
loop_
 _atom_site_type_symbol
 _atom_site_label
 _atom_site_symmetry_multiplicity
 _atom_site_fract_x
 _atom_site_fract_y
 _atom_site_fract_z
 _atom_site_occupancy
  Y  Y0  1  0.997250  0.668056  0.249255  1
  Er  Er1  1  0.002609  0.331629  0.750778  1
  Er  Er2  1  0.668193  0.997417  0.249208  1
  Er  Er3  1  0.331637  0.002632  0.750771  1
  Ga  Ga4  1  0.125172  0.125614  0.250594  1
  Ga  Ga5  1  0.874808  0.874929  0.749369  1
  Ga  Ga6  1  0.999507  0.333667  0.080057  1
  Ga  Ga7  1  0.000585  0.665744  0.918729  1
  Ga  Ga8  1  0.000506  0.666301  0.581271  1
  Ga  Ga9  1  0.334324  0.000159  0.419985  1
  Ga  Ga10  1  0.999593  0.333051  0.419983  1
  Ga  Ga11  1  0.666368  0.000567  0.580706  1
  Ga  Ga12  1  0.665808  0.000621  0.919281  1
  Ga  Ga13  1  0.334869  0.000073  0.080058  1
  Ga  Ga14  1  0.331768  0.331731  0.565205  1
  Ga  Ga15  1  0.667738  0.668369  0.435829  1
  Ga  Ga16  1  0.667280  0.667912  0.064264  1
  Ga  Ga17  1  0.332291  0.332227  0.934721  1
  Ga  Ga18  1  0.339406  0.547365  0.249877  1
  Ga  Ga19  1  0.660685  0.452417  0.750113  1
  Ga  Ga20  1  0.546604  0.338167  0.249880  1
  Ga  Ga21  1  0.452573  0.660921  0.750105  1
  Ir  Ir22  1  0.671820  0.328221  0.999793  1
  Ir  Ir23  1  0.328187  0.671719  0.999757  1
  Ir  Ir24  1  0.328147  0.671820  0.500231  1
  Ir  Ir25  1  0.671906  0.328176  0.500199  1
  Ir  Ir26  1  0.000177  0.000224  0.999554  1
  Rh  Rh27  1  0.000191  0.000270  0.500430  1
