# generated using pymatgen
data_Yb2AlPd2Pt
_symmetry_space_group_name_H-M   'P 1'
_cell_length_a   5.68006559
_cell_length_b   5.68006770
_cell_length_c   5.18419067
_cell_angle_alpha   56.81792426
_cell_angle_beta   56.81792795
_cell_angle_gamma   59.56160433
_symmetry_Int_Tables_number   1
_chemical_formula_structural   Yb2AlPd2Pt
_chemical_formula_sum   'Yb2 Al1 Pd2 Pt1'
_cell_volume   111.92155309
_cell_formula_units_Z   1
loop_
 _symmetry_equiv_pos_site_id
 _symmetry_equiv_pos_as_xyz
  1  'x, y, z'
loop_
 _atom_site_type_symbol
 _atom_site_label
 _atom_site_symmetry_multiplicity
 _atom_site_fract_x
 _atom_site_fract_y
 _atom_site_fract_z
 _atom_site_occupancy
  Yb  Yb0  1  0.754669  0.754669  0.742873  1
  Yb  Yb1  1  0.495331  0.495331  0.507127  1
  Al  Al2  1  0.125000  0.125000  0.625000  1
  Pd  Pd3  1  0.125000  0.625000  0.125000  1
  Pd  Pd4  1  0.625000  0.125000  0.125000  1
  Pt  Pt5  1  0.125000  0.125000  0.125000  1
