# generated using pymatgen
data_Sc8ZnIr3Ru4
_symmetry_space_group_name_H-M   'P 1'
_cell_length_a   6.41341600
_cell_length_b   4.59285200
_cell_length_c   9.18186700
_cell_angle_alpha   90.00000000
_cell_angle_beta   89.99874169
_cell_angle_gamma   90.00000000
_symmetry_Int_Tables_number   1
_chemical_formula_structural   Sc8ZnIr3Ru4
_chemical_formula_sum   'Sc8 Zn1 Ir3 Ru4'
_cell_volume   270.45988529
_cell_formula_units_Z   1
loop_
 _symmetry_equiv_pos_site_id
 _symmetry_equiv_pos_as_xyz
  1  'x, y, z'
loop_
 _atom_site_type_symbol
 _atom_site_label
 _atom_site_symmetry_multiplicity
 _atom_site_fract_x
 _atom_site_fract_y
 _atom_site_fract_z
 _atom_site_occupancy
  Sc  Sc0  1  0.006739  0.750000  0.125001  1
  Sc  Sc1  1  0.493016  0.750000  0.125013  1
  Sc  Sc2  1  0.003464  0.250000  0.378573  1
  Sc  Sc3  1  0.496295  0.250000  0.378579  1
  Sc  Sc4  1  0.499941  0.750000  0.624991  1
  Sc  Sc5  1  0.000301  0.750000  0.625007  1
  Sc  Sc6  1  0.496550  0.250000  0.871418  1
  Sc  Sc7  1  0.003684  0.250000  0.871456  1
  Zn  Zn8  1  0.749893  0.250000  0.125000  1
  Ir  Ir9  1  0.249919  0.750000  0.374791  1
  Ir  Ir10  1  0.750088  0.250000  0.624991  1
  Ir  Ir11  1  0.250087  0.750000  0.875252  1
  Ru  Ru12  1  0.249937  0.250000  0.124948  1
  Ru  Ru13  1  0.749936  0.750000  0.372870  1
  Ru  Ru14  1  0.250066  0.250000  0.624949  1
  Ru  Ru15  1  0.750085  0.750000  0.877157  1
