# generated using pymatgen
data_Ca(AcSn)4
_symmetry_space_group_name_H-M   'P 1'
_cell_length_a   8.65168800
_cell_length_b   8.81977500
_cell_length_c   16.97013100
_cell_angle_alpha   90.00000000
_cell_angle_beta   90.00000000
_cell_angle_gamma   90.00000000
_symmetry_Int_Tables_number   1
_chemical_formula_structural   Ca(AcSn)4
_chemical_formula_sum   'Ca4 Ac16 Sn16'
_cell_volume   1294.92182385
_cell_formula_units_Z   4
loop_
 _symmetry_equiv_pos_site_id
 _symmetry_equiv_pos_as_xyz
  1  'x, y, z'
loop_
 _atom_site_type_symbol
 _atom_site_label
 _atom_site_symmetry_multiplicity
 _atom_site_fract_x
 _atom_site_fract_y
 _atom_site_fract_z
 _atom_site_occupancy
  Ca  Ca0  1  0.202891  0.499373  0.250000  1
  Ca  Ca1  1  0.702891  0.000627  0.250000  1
  Ca  Ca2  1  0.297109  0.999373  0.750000  1
  Ca  Ca3  1  0.797109  0.500627  0.750000  1
  Ac  Ac4  1  0.016841  0.184665  0.402586  1
  Ac  Ac5  1  0.370586  0.837500  0.119989  1
  Ac  Ac6  1  0.129414  0.337500  0.619989  1
  Ac  Ac7  1  0.483159  0.684665  0.902586  1
  Ac  Ac8  1  0.870586  0.662500  0.119989  1
  Ac  Ac9  1  0.129414  0.337500  0.880011  1
  Ac  Ac10  1  0.483159  0.684665  0.597414  1
  Ac  Ac11  1  0.629414  0.162500  0.619989  1
  Ac  Ac12  1  0.870586  0.662500  0.380011  1
  Ac  Ac13  1  0.016841  0.184665  0.097414  1
  Ac  Ac14  1  0.983159  0.815335  0.902586  1
  Ac  Ac15  1  0.629414  0.162500  0.880011  1
  Ac  Ac16  1  0.516841  0.315335  0.097414  1
  Ac  Ac17  1  0.370586  0.837500  0.380011  1
  Ac  Ac18  1  0.983159  0.815335  0.597414  1
  Ac  Ac19  1  0.516841  0.315335  0.402586  1
  Sn  Sn20  1  0.790518  0.465851  0.542909  1
  Sn  Sn21  1  0.709482  0.965851  0.457091  1
  Sn  Sn22  1  0.683494  0.859081  0.750000  1
  Sn  Sn23  1  0.209482  0.534149  0.457091  1
  Sn  Sn24  1  0.290518  0.034149  0.957091  1
  Sn  Sn25  1  0.816506  0.359081  0.250000  1
  Sn  Sn26  1  0.790518  0.465851  0.957091  1
  Sn  Sn27  1  0.568045  0.602557  0.250000  1
  Sn  Sn28  1  0.209482  0.534149  0.042909  1
  Sn  Sn29  1  0.431955  0.397443  0.750000  1
  Sn  Sn30  1  0.183494  0.640919  0.750000  1
  Sn  Sn31  1  0.931955  0.102557  0.750000  1
  Sn  Sn32  1  0.290518  0.034149  0.542909  1
  Sn  Sn33  1  0.709482  0.965851  0.042909  1
  Sn  Sn34  1  0.316506  0.140919  0.250000  1
  Sn  Sn35  1  0.068045  0.897443  0.250000  1
