# generated using pymatgen
data_YbHfB6Os
_symmetry_space_group_name_H-M   'P 1'
_cell_length_a   3.54761500
_cell_length_b   8.97709200
_cell_length_c   11.35008900
_cell_angle_alpha   90.00000000
_cell_angle_beta   90.00000000
_cell_angle_gamma   90.00000000
_symmetry_Int_Tables_number   1
_chemical_formula_structural   YbHfB6Os
_chemical_formula_sum   'Yb4 Hf4 B24 Os4'
_cell_volume   361.46930618
_cell_formula_units_Z   4
loop_
 _symmetry_equiv_pos_site_id
 _symmetry_equiv_pos_as_xyz
  1  'x, y, z'
loop_
 _atom_site_type_symbol
 _atom_site_label
 _atom_site_symmetry_multiplicity
 _atom_site_fract_x
 _atom_site_fract_y
 _atom_site_fract_z
 _atom_site_occupancy
  Yb  Yb0  1  0.000000  0.322633  0.414143  1
  Yb  Yb1  1  0.000000  0.677367  0.585857  1
  Yb  Yb2  1  0.000000  0.822633  0.085857  1
  Yb  Yb3  1  0.000000  0.177367  0.914143  1
  Hf  Hf4  1  0.000000  0.945197  0.373659  1
  Hf  Hf5  1  0.000000  0.054803  0.626342  1
  Hf  Hf6  1  0.000000  0.445197  0.126341  1
  Hf  Hf7  1  0.000000  0.554803  0.873658  1
  B  B8  1  0.500000  0.554092  0.433176  1
  B  B9  1  0.500000  0.445908  0.566824  1
  B  B10  1  0.500000  0.054092  0.066824  1
  B  B11  1  0.500000  0.945908  0.933176  1
  B  B12  1  0.500000  0.751471  0.417953  1
  B  B13  1  0.500000  0.248529  0.582047  1
  B  B14  1  0.500000  0.251471  0.082047  1
  B  B15  1  0.500000  0.748529  0.917953  1
  B  B16  1  0.500000  0.794311  0.263920  1
  B  B17  1  0.500000  0.205689  0.736080  1
  B  B18  1  0.500000  0.294310  0.236080  1
  B  B19  1  0.500000  0.705689  0.763920  1
  B  B20  1  0.500000  0.630835  0.182261  1
  B  B21  1  0.500000  0.369165  0.817739  1
  B  B22  1  0.500000  0.130835  0.317739  1
  B  B23  1  0.500000  0.869165  0.682261  1
  B  B24  1  0.500000  0.982394  0.213333  1
  B  B25  1  0.500000  0.017606  0.786667  1
  B  B26  1  0.500000  0.482394  0.286667  1
  B  B27  1  0.500000  0.517606  0.713333  1
  B  B28  1  0.500000  0.601051  0.026807  1
  B  B29  1  0.500000  0.398949  0.973193  1
  B  B30  1  0.500000  0.101051  0.473193  1
  B  B31  1  0.500000  0.898949  0.526807  1
  Os  Os32  1  0.000000  0.641049  0.317692  1
  Os  Os33  1  0.000000  0.358951  0.682308  1
  Os  Os34  1  0.000000  0.141049  0.182308  1
  Os  Os35  1  0.000000  0.858951  0.817692  1
