# generated using pymatgen
data_GdUCl6
_symmetry_space_group_name_H-M   'P 1'
_cell_length_a   7.51184800
_cell_length_b   7.53920993
_cell_length_c   4.26445200
_cell_angle_alpha   90.00000000
_cell_angle_beta   90.00000000
_cell_angle_gamma   120.08984829
_symmetry_Int_Tables_number   1
_chemical_formula_structural   GdUCl6
_chemical_formula_sum   'Gd1 U1 Cl6'
_cell_volume   208.96453276
_cell_formula_units_Z   1
loop_
 _symmetry_equiv_pos_site_id
 _symmetry_equiv_pos_as_xyz
  1  'x, y, z'
loop_
 _atom_site_type_symbol
 _atom_site_label
 _atom_site_symmetry_multiplicity
 _atom_site_fract_x
 _atom_site_fract_y
 _atom_site_fract_z
 _atom_site_occupancy
  Gd  Gd0  1  0.664377  0.331744  0.750000  1
  U  U1  1  0.331229  0.666376  0.250000  1
  Cl  Cl2  1  0.608873  0.695430  0.750000  1
  Cl  Cl3  1  0.912607  0.603644  0.250000  1
  Cl  Cl4  1  0.396358  0.307719  0.250000  1
  Cl  Cl5  1  0.088615  0.392433  0.750000  1
  Cl  Cl6  1  0.305026  0.914240  0.750000  1
  Cl  Cl7  1  0.692917  0.088414  0.250000  1
