# generated using pymatgen
data_LiNd3Cd(HgPd)2
_symmetry_space_group_name_H-M   'P 1'
_cell_length_a   7.94364940
_cell_length_b   7.94364837
_cell_length_c   3.85321600
_cell_angle_alpha   90.00000000
_cell_angle_beta   90.00000000
_cell_angle_gamma   120.15637140
_symmetry_Int_Tables_number   1
_chemical_formula_structural   LiNd3Cd(HgPd)2
_chemical_formula_sum   'Li1 Nd3 Cd1 Hg2 Pd2'
_cell_volume   210.23624380
_cell_formula_units_Z   1
loop_
 _symmetry_equiv_pos_site_id
 _symmetry_equiv_pos_as_xyz
  1  'x, y, z'
loop_
 _atom_site_type_symbol
 _atom_site_label
 _atom_site_symmetry_multiplicity
 _atom_site_fract_x
 _atom_site_fract_y
 _atom_site_fract_z
 _atom_site_occupancy
  Li  Li0  1  0.003506  0.003506  0.000000  1
  Nd  Nd1  1  0.580926  0.002666  0.000000  1
  Nd  Nd2  1  0.002666  0.580926  0.000000  1
  Nd  Nd3  1  0.414444  0.414444  0.000000  1
  Cd  Cd4  1  0.749493  0.749493  0.500000  1
  Hg  Hg5  1  0.247631  0.996770  0.500000  1
  Hg  Hg6  1  0.996770  0.247631  0.500000  1
  Pd  Pd7  1  0.337525  0.667038  0.500000  1
  Pd  Pd8  1  0.667038  0.337525  0.500000  1
