# generated using pymatgen
data_Sm10C4I15
_symmetry_space_group_name_H-M   'P 1'
_cell_length_a   9.71846217
_cell_length_b   10.50814331
_cell_length_c   11.69077644
_cell_angle_alpha   93.67017393
_cell_angle_beta   114.41825855
_cell_angle_gamma   109.45842494
_symmetry_Int_Tables_number   1
_chemical_formula_structural   Sm10C4I15
_chemical_formula_sum   'Sm10 C4 I15'
_cell_volume   996.31831685
_cell_formula_units_Z   1
loop_
 _symmetry_equiv_pos_site_id
 _symmetry_equiv_pos_as_xyz
  1  'x, y, z'
loop_
 _atom_site_type_symbol
 _atom_site_label
 _atom_site_symmetry_multiplicity
 _atom_site_fract_x
 _atom_site_fract_y
 _atom_site_fract_z
 _atom_site_occupancy
  Sm  Sm0  1  0.772097  0.880284  0.254765  1
  Sm  Sm1  1  0.227903  0.119715  0.745235  1
  Sm  Sm2  1  0.528579  0.186333  0.102407  1
  Sm  Sm3  1  0.471422  0.813668  0.897594  1
  Sm  Sm4  1  0.700597  0.567279  0.044108  1
  Sm  Sm5  1  0.299405  0.432721  0.955893  1
  Sm  Sm6  1  0.653767  0.258210  0.838119  1
  Sm  Sm7  1  0.346234  0.741790  0.161881  1
  Sm  Sm8  1  0.595290  0.540274  0.339752  1
  Sm  Sm9  1  0.404708  0.459725  0.660248  1
  C  C10  1  0.546185  0.634984  0.164992  1
  C  C11  1  0.453812  0.365015  0.835007  1
  C  C12  1  0.483129  0.300682  0.939970  1
  C  C13  1  0.516870  0.699317  0.060031  1
  I  I14  1  0.893855  0.810909  0.529870  1
  I  I15  1  0.106145  0.189090  0.470130  1
  I  I16  1  0.790889  0.094045  0.062015  1
  I  I17  1  0.209111  0.905955  0.937984  1
  I  I18  1  0.712594  0.735151  0.822532  1
  I  I19  1  0.287407  0.264849  0.177468  1
  I  I20  1  0.845696  0.445069  0.296369  1
  I  I21  1  0.154303  0.554935  0.703633  1
  I  I22  1  0.407952  0.971934  0.651801  1
  I  I23  1  0.592048  0.028066  0.348200  1
  I  I24  1  0.047578  0.831828  0.218907  1
  I  I25  1  0.952425  0.168171  0.781092  1
  I  I26  1  0.000001  0.500000  0.000001  1
  I  I27  1  0.638635  0.368444  0.587794  1
  I  I28  1  0.361366  0.631557  0.412205  1
