# generated using pymatgen
data_Tb3DyHo4(ReC2)4
_symmetry_space_group_name_H-M   'P 1'
_cell_length_a   5.11211300
_cell_length_b   6.59246272
_cell_length_c   9.86704008
_cell_angle_alpha   89.94644470
_cell_angle_beta   90.00000000
_cell_angle_gamma   90.00000000
_symmetry_Int_Tables_number   1
_chemical_formula_structural   Tb3DyHo4(ReC2)4
_chemical_formula_sum   'Tb3 Dy1 Ho4 Re4 C8'
_cell_volume   332.53306102
_cell_formula_units_Z   1
loop_
 _symmetry_equiv_pos_site_id
 _symmetry_equiv_pos_as_xyz
  1  'x, y, z'
loop_
 _atom_site_type_symbol
 _atom_site_label
 _atom_site_symmetry_multiplicity
 _atom_site_fract_x
 _atom_site_fract_y
 _atom_site_fract_z
 _atom_site_occupancy
  Tb  Tb0  1  0.250000  0.466989  0.784856  1
  Tb  Tb1  1  0.750000  0.033301  0.284987  1
  Tb  Tb2  1  0.250000  0.966840  0.714906  1
  Dy  Dy3  1  0.750000  0.533312  0.215345  1
  Ho  Ho4  1  0.250000  0.821920  0.056821  1
  Ho  Ho5  1  0.750000  0.677984  0.556659  1
  Ho  Ho6  1  0.250000  0.322217  0.443253  1
  Ho  Ho7  1  0.750000  0.177714  0.943453  1
  Re  Re8  1  0.250000  0.279304  0.134189  1
  Re  Re9  1  0.750000  0.221191  0.634110  1
  Re  Re10  1  0.250000  0.778918  0.365662  1
  Re  Re11  1  0.750000  0.720831  0.865899  1
  C  C12  1  0.250000  0.175387  0.951485  1
  C  C13  1  0.750000  0.823614  0.048808  1
  C  C14  1  0.250000  0.675324  0.548465  1
  C  C15  1  0.750000  0.325127  0.451234  1
  C  C16  1  0.250000  0.046353  0.259309  1
  C  C17  1  0.750000  0.453638  0.759302  1
  C  C18  1  0.250000  0.546279  0.240509  1
  C  C19  1  0.750000  0.953756  0.740748  1
