# generated using pymatgen
data_Er8TcOs3C8
_symmetry_space_group_name_H-M   'P 1'
_cell_length_a   5.06026600
_cell_length_b   6.45956448
_cell_length_c   9.71925344
_cell_angle_alpha   89.84987318
_cell_angle_beta   90.00000000
_cell_angle_gamma   90.00000000
_symmetry_Int_Tables_number   1
_chemical_formula_structural   Er8TcOs3C8
_chemical_formula_sum   'Er8 Tc1 Os3 C8'
_cell_volume   317.69325951
_cell_formula_units_Z   1
loop_
 _symmetry_equiv_pos_site_id
 _symmetry_equiv_pos_as_xyz
  1  'x, y, z'
loop_
 _atom_site_type_symbol
 _atom_site_label
 _atom_site_symmetry_multiplicity
 _atom_site_fract_x
 _atom_site_fract_y
 _atom_site_fract_z
 _atom_site_occupancy
  Er  Er0  1  0.250000  0.679046  0.555287  1
  Er  Er1  1  0.750000  0.322157  0.445246  1
  Er  Er2  1  0.750000  0.823356  0.055196  1
  Er  Er3  1  0.250000  0.178959  0.944823  1
  Er  Er4  1  0.250000  0.529235  0.215140  1
  Er  Er5  1  0.750000  0.470243  0.782335  1
  Er  Er6  1  0.750000  0.971949  0.716404  1
  Er  Er7  1  0.250000  0.029319  0.285409  1
  Tc  Tc8  1  0.250000  0.720784  0.867223  1
  Os  Os9  1  0.750000  0.279673  0.133997  1
  Os  Os10  1  0.750000  0.778758  0.365970  1
  Os  Os11  1  0.250000  0.221121  0.632788  1
  C  C12  1  0.250000  0.454228  0.758795  1
  C  C13  1  0.750000  0.544027  0.241788  1
  C  C14  1  0.750000  0.044251  0.258459  1
  C  C15  1  0.250000  0.955658  0.740926  1
  C  C16  1  0.250000  0.824954  0.054862  1
  C  C17  1  0.750000  0.173848  0.946046  1
  C  C18  1  0.750000  0.672929  0.554280  1
  C  C19  1  0.250000  0.325504  0.445025  1
