# generated using pymatgen
data_CaDy3(Mo2O7)2
_symmetry_space_group_name_H-M   'P 1'
_cell_length_a   7.33540692
_cell_length_b   7.42424728
_cell_length_c   7.33540700
_cell_angle_alpha   60.39506107
_cell_angle_beta   60.00000413
_cell_angle_gamma   60.39505715
_symmetry_Int_Tables_number   1
_chemical_formula_structural   CaDy3(Mo2O7)2
_chemical_formula_sum   'Ca1 Dy3 Mo4 O14'
_cell_volume   284.15384265
_cell_formula_units_Z   1
loop_
 _symmetry_equiv_pos_site_id
 _symmetry_equiv_pos_as_xyz
  1  'x, y, z'
loop_
 _atom_site_type_symbol
 _atom_site_label
 _atom_site_symmetry_multiplicity
 _atom_site_fract_x
 _atom_site_fract_y
 _atom_site_fract_z
 _atom_site_occupancy
  Ca  Ca0  1  0.125000  0.625000  0.125000  1
  Dy  Dy1  1  0.625000  0.125000  0.125000  1
  Dy  Dy2  1  0.125000  0.125000  0.625000  1
  Dy  Dy3  1  0.125000  0.125000  0.125000  1
  Mo  Mo4  1  0.125000  0.625000  0.625000  1
  Mo  Mo5  1  0.625000  0.125000  0.625000  1
  Mo  Mo6  1  0.625000  0.625000  0.125000  1
  Mo  Mo7  1  0.625000  0.625000  0.625000  1
  O  O8  1  0.695643  0.724661  0.289848  1
  O  O9  1  0.297272  0.285315  0.708706  1
  O  O10  1  0.708706  0.285315  0.708706  1
  O  O11  1  0.289848  0.724661  0.289848  1
  O  O12  1  0.289848  0.724661  0.695643  1
  O  O13  1  0.708706  0.285315  0.297272  1
  O  O14  1  0.554357  0.525339  0.960152  1
  O  O15  1  0.952728  0.964685  0.541294  1
  O  O16  1  0.541294  0.964685  0.541294  1
  O  O17  1  0.960152  0.525339  0.960152  1
  O  O18  1  0.960152  0.525339  0.554357  1
  O  O19  1  0.541294  0.964685  0.952728  1
  O  O20  1  0.253070  0.240791  0.253070  1
  O  O21  1  0.996930  0.009209  0.996930  1
