# generated using pymatgen
data_Y3HoS4
_symmetry_space_group_name_H-M   'P 1'
_cell_length_a   12.69948590
_cell_length_b   12.69948607
_cell_length_c   12.69948423
_cell_angle_alpha   17.89730416
_cell_angle_beta   17.89730342
_cell_angle_gamma   17.89730211
_symmetry_Int_Tables_number   1
_chemical_formula_structural   Y3HoS4
_chemical_formula_sum   'Y3 Ho1 S4'
_cell_volume   168.87444828
_cell_formula_units_Z   1
loop_
 _symmetry_equiv_pos_site_id
 _symmetry_equiv_pos_as_xyz
  1  'x, y, z'
loop_
 _atom_site_type_symbol
 _atom_site_label
 _atom_site_symmetry_multiplicity
 _atom_site_fract_x
 _atom_site_fract_y
 _atom_site_fract_z
 _atom_site_occupancy
  Y  Y0  1  0.250704  0.250704  0.250704  1
  Y  Y1  1  0.500000  0.500000  0.500000  1
  Y  Y2  1  0.749296  0.749296  0.749296  1
  Ho  Ho3  1  0.000000  0.000000  0.000000  1
  S  S4  1  0.374150  0.374150  0.374150  1
  S  S5  1  0.124660  0.124660  0.124660  1
  S  S6  1  0.625850  0.625850  0.625850  1
  S  S7  1  0.875340  0.875340  0.875340  1
