# generated using pymatgen
data_SrMn6Cr2O16
_symmetry_space_group_name_H-M   'P 1'
_cell_length_a   5.88089403
_cell_length_b   7.11088734
_cell_length_c   7.20365603
_cell_angle_alpha   88.07758125
_cell_angle_beta   78.21651694
_cell_angle_gamma   78.08770005
_symmetry_Int_Tables_number   1
_chemical_formula_structural   SrMn6Cr2O16
_chemical_formula_sum   'Sr1 Mn6 Cr2 O16'
_cell_volume   288.53449668
_cell_formula_units_Z   1
loop_
 _symmetry_equiv_pos_site_id
 _symmetry_equiv_pos_as_xyz
  1  'x, y, z'
loop_
 _atom_site_type_symbol
 _atom_site_label
 _atom_site_symmetry_multiplicity
 _atom_site_fract_x
 _atom_site_fract_y
 _atom_site_fract_z
 _atom_site_occupancy
  Sr  Sr0  1  0.016854  0.973262  0.992268  1
  Mn  Mn1  1  0.170055  0.819912  0.517011  1
  Mn  Mn2  1  0.667235  0.820232  0.525689  1
  Mn  Mn3  1  0.337752  0.186288  0.480032  1
  Mn  Mn4  1  0.835955  0.186522  0.484978  1
  Mn  Mn5  1  0.427542  0.484575  0.820539  1
  Mn  Mn6  1  0.926971  0.489662  0.820134  1
  Cr  Cr7  1  0.579475  0.518437  0.183466  1
  Cr  Cr8  1  0.080116  0.509013  0.184997  1
  O  O9  1  0.836520  0.651938  0.042109  1
  O  O10  1  0.325905  0.649502  0.041871  1
  O  O11  1  0.977616  0.716544  0.380102  1
  O  O12  1  0.481395  0.714040  0.386194  1
  O  O13  1  0.857712  0.956166  0.652700  1
  O  O14  1  0.346366  0.957732  0.650584  1
  O  O15  1  0.342621  0.366566  0.289299  1
  O  O16  1  0.841154  0.358768  0.283506  1
  O  O17  1  0.168174  0.632967  0.716101  1
  O  O18  1  0.669735  0.623026  0.709694  1
  O  O19  1  0.150042  0.044962  0.356081  1
  O  O20  1  0.656383  0.043466  0.360995  1
  O  O21  1  0.026947  0.296167  0.618382  1
  O  O22  1  0.524141  0.296313  0.617296  1
  O  O23  1  0.176895  0.350099  0.942173  1
  O  O24  1  0.683536  0.353839  0.943795  1
