# generated using pymatgen
data_Y2Al9OsPtRh
_symmetry_space_group_name_H-M   'P 1'
_cell_length_a   7.55809705
_cell_length_b   7.55809703
_cell_length_c   9.49708698
_cell_angle_alpha   90.02649168
_cell_angle_beta   90.02648917
_cell_angle_gamma   118.94639295
_symmetry_Int_Tables_number   1
_chemical_formula_structural   Y2Al9OsPtRh
_chemical_formula_sum   'Y4 Al18 Os2 Pt2 Rh2'
_cell_volume   474.74391647
_cell_formula_units_Z   2
loop_
 _symmetry_equiv_pos_site_id
 _symmetry_equiv_pos_as_xyz
  1  'x, y, z'
loop_
 _atom_site_type_symbol
 _atom_site_label
 _atom_site_symmetry_multiplicity
 _atom_site_fract_x
 _atom_site_fract_y
 _atom_site_fract_z
 _atom_site_occupancy
  Y  Y0  1  0.993674  0.677864  0.250233  1
  Y  Y1  1  0.006326  0.322136  0.749767  1
  Y  Y2  1  0.677864  0.993674  0.250233  1
  Y  Y3  1  0.322136  0.006326  0.749767  1
  Al  Al4  1  0.131809  0.131809  0.250130  1
  Al  Al5  1  0.868191  0.868191  0.749870  1
  Al  Al6  1  0.001408  0.332972  0.076133  1
  Al  Al7  1  0.998592  0.667028  0.923867  1
  Al  Al8  1  0.998588  0.663233  0.574069  1
  Al  Al9  1  0.336767  0.001412  0.425931  1
  Al  Al10  1  0.001412  0.336767  0.425931  1
  Al  Al11  1  0.663233  0.998588  0.574069  1
  Al  Al12  1  0.667028  0.998592  0.923867  1
  Al  Al13  1  0.332972  0.001408  0.076133  1
  Al  Al14  1  0.331552  0.331552  0.546796  1
  Al  Al15  1  0.668448  0.668448  0.453204  1
  Al  Al16  1  0.670778  0.670778  0.049699  1
  Al  Al17  1  0.329222  0.329222  0.950301  1
  Al  Al18  1  0.342048  0.551187  0.253045  1
  Al  Al19  1  0.657952  0.448813  0.746955  1
  Al  Al20  1  0.551187  0.342048  0.253045  1
  Al  Al21  1  0.448813  0.657952  0.746955  1
  Os  Os22  1  0.000000  0.000000  0.000000  1
  Os  Os23  1  0.000000  0.000000  0.500000  1
  Pt  Pt24  1  0.671791  0.328209  0.000000  1
  Pt  Pt25  1  0.328209  0.671791  0.000000  1
  Rh  Rh26  1  0.328551  0.671449  0.500000  1
  Rh  Rh27  1  0.671449  0.328551  0.500000  1
