# generated using pymatgen
data_UMn3O6
_symmetry_space_group_name_H-M   'P 1'
_cell_length_a   5.47500966
_cell_length_b   5.52296803
_cell_length_c   10.29282413
_cell_angle_alpha   75.14289454
_cell_angle_beta   74.77617441
_cell_angle_gamma   59.94931721
_symmetry_Int_Tables_number   1
_chemical_formula_structural   UMn3O6
_chemical_formula_sum   'U2 Mn6 O12'
_cell_volume   257.02414379
_cell_formula_units_Z   2
loop_
 _symmetry_equiv_pos_site_id
 _symmetry_equiv_pos_as_xyz
  1  'x, y, z'
loop_
 _atom_site_type_symbol
 _atom_site_label
 _atom_site_symmetry_multiplicity
 _atom_site_fract_x
 _atom_site_fract_y
 _atom_site_fract_z
 _atom_site_occupancy
  U  U0  1  0.424185  0.421287  0.727734  1
  U  U1  1  0.922802  0.926762  0.230083  1
  Mn  Mn2  1  0.318349  0.316596  0.045863  1
  Mn  Mn3  1  0.072576  0.068812  0.787607  1
  Mn  Mn4  1  0.573015  0.571810  0.289970  1
  Mn  Mn5  1  0.176107  0.176041  0.473400  1
  Mn  Mn6  1  0.675678  0.678174  0.970694  1
  Mn  Mn7  1  0.816752  0.815562  0.544773  1
  O  O8  1  0.646184  0.306373  0.123798  1
  O  O9  1  0.144905  0.800350  0.624464  1
  O  O10  1  0.307919  0.925565  0.122101  1
  O  O11  1  0.811927  0.418401  0.617803  1
  O  O12  1  0.924005  0.646730  0.123165  1
  O  O13  1  0.419086  0.145149  0.618786  1
  O  O14  1  0.568891  0.897737  0.368971  1
  O  O15  1  0.077774  0.386641  0.866754  1
  O  O16  1  0.165390  0.582420  0.366359  1
  O  O17  1  0.667619  0.078142  0.864817  1
  O  O18  1  0.896499  0.170317  0.367576  1
  O  O19  1  0.390339  0.667134  0.865270  1
