# generated using pymatgen
data_Zr6Ta(Be7Ni4)2
_symmetry_space_group_name_H-M   'P 1'
_cell_length_a   7.89366079
_cell_length_b   7.89366067
_cell_length_c   7.89366100
_cell_angle_alpha   60.00000282
_cell_angle_beta   60.00000331
_cell_angle_gamma   59.99999930
_symmetry_Int_Tables_number   1
_chemical_formula_structural   Zr6Ta(Be7Ni4)2
_chemical_formula_sum   'Zr6 Ta1 Be14 Ni8'
_cell_volume   347.79265370
_cell_formula_units_Z   1
loop_
 _symmetry_equiv_pos_site_id
 _symmetry_equiv_pos_as_xyz
  1  'x, y, z'
loop_
 _atom_site_type_symbol
 _atom_site_label
 _atom_site_symmetry_multiplicity
 _atom_site_fract_x
 _atom_site_fract_y
 _atom_site_fract_z
 _atom_site_occupancy
  Zr  Zr0  1  0.705684  0.294316  0.294316  1
  Zr  Zr1  1  0.294316  0.705684  0.705684  1
  Zr  Zr2  1  0.294316  0.705684  0.294316  1
  Zr  Zr3  1  0.705684  0.294316  0.705684  1
  Zr  Zr4  1  0.294316  0.294316  0.705684  1
  Zr  Zr5  1  0.705684  0.705684  0.294316  1
  Ta  Ta6  1  0.000000  0.000000  0.000000  1
  Be  Be7  1  0.322953  0.322953  0.322953  1
  Be  Be8  1  0.677047  0.677047  0.677047  1
  Be  Be9  1  0.322953  0.322953  0.031140  1
  Be  Be10  1  0.322953  0.031140  0.322953  1
  Be  Be11  1  0.677047  0.677047  0.968860  1
  Be  Be12  1  0.677047  0.968860  0.677047  1
  Be  Be13  1  0.031140  0.322953  0.322953  1
  Be  Be14  1  0.968860  0.677047  0.677047  1
  Be  Be15  1  0.500000  0.000000  0.000000  1
  Be  Be16  1  0.000000  0.500000  0.500000  1
  Be  Be17  1  0.000000  0.500000  0.000000  1
  Be  Be18  1  0.500000  0.000000  0.500000  1
  Be  Be19  1  0.000000  0.000000  0.500000  1
  Be  Be20  1  0.500000  0.500000  0.000000  1
  Ni  Ni21  1  0.127445  0.127445  0.127445  1
  Ni  Ni22  1  0.872555  0.872555  0.872555  1
  Ni  Ni23  1  0.127445  0.127445  0.617665  1
  Ni  Ni24  1  0.127445  0.617665  0.127445  1
  Ni  Ni25  1  0.872555  0.872555  0.382335  1
  Ni  Ni26  1  0.872555  0.382335  0.872555  1
  Ni  Ni27  1  0.617665  0.127445  0.127445  1
  Ni  Ni28  1  0.382335  0.872555  0.872555  1
