# generated using pymatgen
data_Y3Lu3Th2(CdIr)2
_symmetry_space_group_name_H-M   'P 1'
_cell_length_a   9.67776359
_cell_length_b   9.67776387
_cell_length_c   9.67776300
_cell_angle_alpha   59.99999957
_cell_angle_beta   59.99999859
_cell_angle_gamma   59.99999806
_symmetry_Int_Tables_number   1
_chemical_formula_structural   Y3Lu3Th2(CdIr)2
_chemical_formula_sum   'Y6 Lu6 Th4 Cd4 Ir4'
_cell_volume   640.92911819
_cell_formula_units_Z   2
loop_
 _symmetry_equiv_pos_site_id
 _symmetry_equiv_pos_as_xyz
  1  'x, y, z'
loop_
 _atom_site_type_symbol
 _atom_site_label
 _atom_site_symmetry_multiplicity
 _atom_site_fract_x
 _atom_site_fract_y
 _atom_site_fract_z
 _atom_site_occupancy
  Y  Y0  1  0.936382  0.563618  0.563618  1
  Y  Y1  1  0.563618  0.936382  0.936382  1
  Y  Y2  1  0.563618  0.936382  0.563618  1
  Y  Y3  1  0.936382  0.563618  0.936382  1
  Y  Y4  1  0.563618  0.563618  0.936382  1
  Y  Y5  1  0.936382  0.936382  0.563618  1
  Lu  Lu6  1  0.814409  0.185591  0.185591  1
  Lu  Lu7  1  0.185591  0.814409  0.814409  1
  Lu  Lu8  1  0.185591  0.814409  0.185591  1
  Lu  Lu9  1  0.814409  0.185591  0.814409  1
  Lu  Lu10  1  0.185591  0.185591  0.814409  1
  Lu  Lu11  1  0.814409  0.814409  0.185591  1
  Th  Th12  1  0.350458  0.350458  0.350458  1
  Th  Th13  1  0.350458  0.350458  0.948625  1
  Th  Th14  1  0.350458  0.948625  0.350458  1
  Th  Th15  1  0.948625  0.350458  0.350458  1
  Cd  Cd16  1  0.582782  0.582782  0.582782  1
  Cd  Cd17  1  0.582782  0.582782  0.251653  1
  Cd  Cd18  1  0.582782  0.251653  0.582782  1
  Cd  Cd19  1  0.251653  0.582782  0.582782  1
  Ir  Ir20  1  0.142109  0.142109  0.142109  1
  Ir  Ir21  1  0.142109  0.142109  0.573672  1
  Ir  Ir22  1  0.142109  0.573672  0.142109  1
  Ir  Ir23  1  0.573672  0.142109  0.142109  1
