# generated using pymatgen
data_TbPa2O6
_symmetry_space_group_name_H-M   'P 1'
_cell_length_a   6.62846507
_cell_length_b   6.62839362
_cell_length_c   3.86186780
_cell_angle_alpha   106.92111648
_cell_angle_beta   106.92122305
_cell_angle_gamma   119.64297102
_symmetry_Int_Tables_number   1
_chemical_formula_structural   TbPa2O6
_chemical_formula_sum   'Tb1 Pa2 O6'
_cell_volume   120.23655793
_cell_formula_units_Z   1
loop_
 _symmetry_equiv_pos_site_id
 _symmetry_equiv_pos_as_xyz
  1  'x, y, z'
loop_
 _atom_site_type_symbol
 _atom_site_label
 _atom_site_symmetry_multiplicity
 _atom_site_fract_x
 _atom_site_fract_y
 _atom_site_fract_z
 _atom_site_occupancy
  Tb  Tb0  1  0.500003  0.499995  0.999999  1
  Pa  Pa1  1  0.835686  0.164321  0.999999  1
  Pa  Pa2  1  0.164313  0.835682  0.999997  1
  O  O3  1  0.241583  0.241574  0.242495  1
  O  O4  1  0.924018  0.583507  0.253423  1
  O  O5  1  0.583487  0.924012  0.253418  1
  O  O6  1  0.416490  0.075976  0.746572  1
  O  O7  1  0.076000  0.416520  0.746596  1
  O  O8  1  0.758424  0.758416  0.757500  1
