# generated using pymatgen
data_HoEr5Co16(TcP6)2
_symmetry_space_group_name_H-M   'P 1'
_cell_length_a   3.70466700
_cell_length_b   10.50859200
_cell_length_c   12.19707700
_cell_angle_alpha   90.00000000
_cell_angle_beta   90.00000000
_cell_angle_gamma   90.00000000
_symmetry_Int_Tables_number   1
_chemical_formula_structural   HoEr5Co16(TcP6)2
_chemical_formula_sum   'Ho1 Er5 Co16 Tc2 P12'
_cell_volume   474.84237996
_cell_formula_units_Z   1
loop_
 _symmetry_equiv_pos_site_id
 _symmetry_equiv_pos_as_xyz
  1  'x, y, z'
loop_
 _atom_site_type_symbol
 _atom_site_label
 _atom_site_symmetry_multiplicity
 _atom_site_fract_x
 _atom_site_fract_y
 _atom_site_fract_z
 _atom_site_occupancy
  Ho  Ho0  1  0.500000  0.000000  0.475599  1
  Er  Er1  1  0.000000  0.500000  0.524367  1
  Er  Er2  1  0.500000  0.818057  0.206014  1
  Er  Er3  1  0.500000  0.181943  0.206014  1
  Er  Er4  1  0.000000  0.681943  0.793995  1
  Er  Er5  1  0.000000  0.318057  0.793995  1
  Co  Co6  1  0.000000  0.500000  0.987270  1
  Co  Co7  1  0.500000  0.000000  0.012735  1
  Co  Co8  1  0.500000  0.296665  0.431176  1
  Co  Co9  1  0.500000  0.703335  0.431176  1
  Co  Co10  1  0.000000  0.203411  0.568836  1
  Co  Co11  1  0.000000  0.796589  0.568836  1
  Co  Co12  1  0.500000  0.878691  0.707657  1
  Co  Co13  1  0.500000  0.121309  0.707657  1
  Co  Co14  1  0.000000  0.621297  0.292362  1
  Co  Co15  1  0.000000  0.378703  0.292362  1
  Co  Co16  1  0.500000  0.332300  0.989653  1
  Co  Co17  1  0.500000  0.667700  0.989653  1
  Co  Co18  1  0.000000  0.167700  0.010354  1
  Co  Co19  1  0.000000  0.832300  0.010354  1
  Co  Co20  1  0.500000  0.500000  0.702626  1
  Co  Co21  1  0.000000  0.000000  0.297287  1
  Tc  Tc22  1  0.500000  0.500000  0.156900  1
  Tc  Tc23  1  0.000000  0.000000  0.843115  1
  P  P24  1  0.500000  0.312077  0.616327  1
  P  P25  1  0.500000  0.687923  0.616327  1
  P  P26  1  0.000000  0.187983  0.383641  1
  P  P27  1  0.000000  0.812017  0.383641  1
  P  P28  1  0.500000  0.500000  0.880662  1
  P  P29  1  0.000000  0.000000  0.119338  1
  P  P30  1  0.500000  0.845863  0.892435  1
  P  P31  1  0.500000  0.154137  0.892435  1
  P  P32  1  0.000000  0.654135  0.107562  1
  P  P33  1  0.000000  0.345865  0.107562  1
  P  P34  1  0.500000  0.500000  0.349224  1
  P  P35  1  0.000000  0.000000  0.650853  1
