# generated using pymatgen
data_Tb13Y7GaCo4Sb7
_symmetry_space_group_name_H-M   'P 1'
_cell_length_a   7.92302345
_cell_length_b   8.75805669
_cell_length_c   12.19154203
_cell_angle_alpha   90.03618845
_cell_angle_beta   89.99584423
_cell_angle_gamma   89.98640190
_symmetry_Int_Tables_number   1
_chemical_formula_structural   Tb13Y7GaCo4Sb7
_chemical_formula_sum   'Tb13 Y7 Ga1 Co4 Sb7'
_cell_volume   845.97442415
_cell_formula_units_Z   1
loop_
 _symmetry_equiv_pos_site_id
 _symmetry_equiv_pos_as_xyz
  1  'x, y, z'
loop_
 _atom_site_type_symbol
 _atom_site_label
 _atom_site_symmetry_multiplicity
 _atom_site_fract_x
 _atom_site_fract_y
 _atom_site_fract_z
 _atom_site_occupancy
  Tb  Tb0  1  0.038531  0.759039  0.492445  1
  Tb  Tb1  1  0.632170  0.755016  0.306352  1
  Tb  Tb2  1  0.116486  0.243772  0.198136  1
  Tb  Tb3  1  0.377762  0.249804  0.693954  1
  Tb  Tb4  1  0.878005  0.749757  0.805632  1
  Tb  Tb5  1  0.823202  0.967028  0.071112  1
  Tb  Tb6  1  0.317702  0.034505  0.432659  1
  Tb  Tb7  1  0.178766  0.464164  0.935432  1
  Tb  Tb8  1  0.682253  0.532234  0.565373  1
  Tb  Tb9  1  0.178555  0.033087  0.934963  1
  Tb  Tb10  1  0.678765  0.963225  0.565079  1
  Tb  Tb11  1  0.819992  0.535446  0.065460  1
  Tb  Tb12  1  0.321335  0.468138  0.434039  1
  Y  Y13  1  0.150351  0.755138  0.207381  1
  Y  Y14  1  0.660458  0.244729  0.293172  1
  Y  Y15  1  0.846923  0.251243  0.795793  1
  Y  Y16  1  0.345409  0.750479  0.702581  1
  Y  Y17  1  0.453915  0.749073  0.997869  1
  Y  Y18  1  0.953251  0.241582  0.497319  1
  Y  Y19  1  0.542664  0.251240  0.002579  1
  Ga  Ga20  1  0.928349  0.994867  0.329667  1
  Co  Co21  1  0.436881  0.749123  0.488997  1
  Co  Co22  1  0.932949  0.249548  0.011312  1
  Co  Co23  1  0.565796  0.249893  0.509839  1
  Co  Co24  1  0.066353  0.749211  0.989812  1
  Sb  Sb25  1  0.426629  0.007160  0.171783  1
  Sb  Sb26  1  0.073429  0.491925  0.669389  1
  Sb  Sb27  1  0.572053  0.508394  0.827068  1
  Sb  Sb28  1  0.073275  0.008811  0.673785  1
  Sb  Sb29  1  0.572909  0.992396  0.828675  1
  Sb  Sb30  1  0.927301  0.506864  0.327986  1
  Sb  Sb31  1  0.427582  0.493110  0.174359  1
