# generated using pymatgen
data_La12Co5NiBi
_symmetry_space_group_name_H-M   'P 1'
_cell_length_a   8.79540633
_cell_length_b   8.82533134
_cell_length_c   8.79540600
_cell_angle_alpha   110.00736439
_cell_angle_beta   109.30854939
_cell_angle_gamma   108.96159792
_symmetry_Int_Tables_number   1
_chemical_formula_structural   La12Co5NiBi
_chemical_formula_sum   'La12 Co5 Ni1 Bi1'
_cell_volume   526.40537598
_cell_formula_units_Z   1
loop_
 _symmetry_equiv_pos_site_id
 _symmetry_equiv_pos_as_xyz
  1  'x, y, z'
loop_
 _atom_site_type_symbol
 _atom_site_label
 _atom_site_symmetry_multiplicity
 _atom_site_fract_x
 _atom_site_fract_y
 _atom_site_fract_z
 _atom_site_occupancy
  La  La0  1  0.815921  0.688124  0.501036  1
  La  La1  1  0.187702  0.315657  0.499529  1
  La  La2  1  0.187086  0.688124  0.872204  1
  La  La3  1  0.816129  0.315657  0.127954  1
  La  La4  1  0.680423  0.495871  0.815450  1
  La  La5  1  0.316550  0.498651  0.182099  1
  La  La6  1  0.680792  0.865886  0.185093  1
  La  La7  1  0.316069  0.132580  0.816512  1
  La  La8  1  0.497340  0.813980  0.682907  1
  La  La9  1  0.494048  0.182375  0.311675  1
  La  La10  1  0.131072  0.813980  0.316638  1
  La  La11  1  0.870701  0.182375  0.688329  1
  Co  Co12  1  0.133673  0.635251  0.501578  1
  Co  Co13  1  0.355645  0.489365  0.865526  1
  Co  Co14  1  0.623838  0.489365  0.133719  1
  Co  Co15  1  0.507130  0.880306  0.373176  1
  Co  Co16  1  0.506837  0.132837  0.626000  1
  Ni  Ni17  1  0.880281  0.380658  0.500378  1
  Bi  Bi18  1  0.998764  0.998959  0.000194  1
