# generated using pymatgen
data_Pr2MnGeF14
_symmetry_space_group_name_H-M   'P 1'
_cell_length_a   5.57379600
_cell_length_b   9.05918461
_cell_length_c   12.09406736
_cell_angle_alpha   61.82925390
_cell_angle_beta   90.00000000
_cell_angle_gamma   90.00000000
_symmetry_Int_Tables_number   1
_chemical_formula_structural   Pr2MnGeF14
_chemical_formula_sum   'Pr4 Mn2 Ge2 F28'
_cell_volume   538.34025681
_cell_formula_units_Z   2
loop_
 _symmetry_equiv_pos_site_id
 _symmetry_equiv_pos_as_xyz
  1  'x, y, z'
loop_
 _atom_site_type_symbol
 _atom_site_label
 _atom_site_symmetry_multiplicity
 _atom_site_fract_x
 _atom_site_fract_y
 _atom_site_fract_z
 _atom_site_occupancy
  Pr  Pr0  1  0.759878  0.807406  0.763945  1
  Pr  Pr1  1  0.259878  0.192594  0.736055  1
  Pr  Pr2  1  0.240233  0.192221  0.235590  1
  Pr  Pr3  1  0.740233  0.807779  0.264410  1
  Mn  Mn4  1  0.243289  0.725919  0.042289  1
  Mn  Mn5  1  0.743289  0.274081  0.457711  1
  Ge  Ge6  1  0.756098  0.273709  0.957999  1
  Ge  Ge7  1  0.256098  0.726291  0.542001  1
  F  F8  1  0.425467  0.708977  0.922077  1
  F  F9  1  0.925467  0.291023  0.577923  1
  F  F10  1  0.574302  0.290878  0.077124  1
  F  F11  1  0.074302  0.709122  0.422876  1
  F  F12  1  0.463153  0.282259  0.536872  1
  F  F13  1  0.963153  0.717741  0.963128  1
  F  F14  1  0.534987  0.717647  0.463550  1
  F  F15  1  0.034987  0.282353  0.036450  1
  F  F16  1  0.766751  0.502176  0.866500  1
  F  F17  1  0.266751  0.497824  0.633500  1
  F  F18  1  0.233549  0.495421  0.134557  1
  F  F19  1  0.733549  0.504579  0.365443  1
  F  F20  1  0.759900  0.045521  0.045813  1
  F  F21  1  0.259900  0.954479  0.454187  1
  F  F22  1  0.240584  0.955744  0.954124  1
  F  F23  1  0.740584  0.044256  0.545876  1
  F  F24  1  0.984126  0.728366  0.626365  1
  F  F25  1  0.484126  0.271634  0.873635  1
  F  F26  1  0.018622  0.271706  0.373844  1
  F  F27  1  0.518622  0.728294  0.126156  1
  F  F28  1  0.063732  0.738998  0.166378  1
  F  F29  1  0.563732  0.261002  0.333622  1
  F  F30  1  0.935727  0.261375  0.834840  1
  F  F31  1  0.435727  0.738625  0.665160  1
  F  F32  1  0.395854  0.965037  0.226249  1
  F  F33  1  0.895854  0.034963  0.273751  1
  F  F34  1  0.603749  0.034592  0.773515  1
  F  F35  1  0.103749  0.965408  0.726485  1
