# generated using pymatgen
data_Sr3Ac17Si15Sn
_symmetry_space_group_name_H-M   'P 1'
_cell_length_a   8.27878038
_cell_length_b   8.25375347
_cell_length_c   16.40850700
_cell_angle_alpha   90.15931416
_cell_angle_beta   90.07112508
_cell_angle_gamma   90.02089136
_symmetry_Int_Tables_number   1
_chemical_formula_structural   Sr3Ac17Si15Sn
_chemical_formula_sum   'Sr3 Ac17 Si15 Sn1'
_cell_volume   1121.20461860
_cell_formula_units_Z   1
loop_
 _symmetry_equiv_pos_site_id
 _symmetry_equiv_pos_as_xyz
  1  'x, y, z'
loop_
 _atom_site_type_symbol
 _atom_site_label
 _atom_site_symmetry_multiplicity
 _atom_site_fract_x
 _atom_site_fract_y
 _atom_site_fract_z
 _atom_site_occupancy
  Sr  Sr0  1  0.808499  0.192072  0.752624  1
  Sr  Sr1  1  0.193726  0.808664  0.244441  1
  Sr  Sr2  1  0.308227  0.308211  0.999855  1
  Ac  Ac3  1  0.384245  0.470122  0.370511  1
  Ac  Ac4  1  0.869867  0.036990  0.372386  1
  Ac  Ac5  1  0.975445  0.121982  0.121557  1
  Ac  Ac6  1  0.026152  0.878238  0.627068  1
  Ac  Ac7  1  0.622800  0.524657  0.873654  1
  Ac  Ac8  1  0.475549  0.374413  0.630334  1
  Ac  Ac9  1  0.524486  0.622089  0.125648  1
  Ac  Ac10  1  0.122193  0.975357  0.877972  1
  Ac  Ac11  1  0.985266  0.619167  0.052259  1
  Ac  Ac12  1  0.012912  0.375358  0.557871  1
  Ac  Ac13  1  0.618961  0.985446  0.946233  1
  Ac  Ac14  1  0.119024  0.516083  0.805295  1
  Ac  Ac15  1  0.873966  0.480531  0.296337  1
  Ac  Ac16  1  0.515101  0.117455  0.193347  1
  Ac  Ac17  1  0.486356  0.881964  0.699315  1
  Ac  Ac18  1  0.385607  0.016642  0.444948  1
  Ac  Ac19  1  0.684099  0.692795  0.501987  1
  Si  Si20  1  0.915385  0.288860  0.940283  1
  Si  Si21  1  0.712098  0.081295  0.560728  1
  Si  Si22  1  0.212884  0.414843  0.188265  1
  Si  Si23  1  0.789807  0.585080  0.690832  1
  Si  Si24  1  0.414682  0.212221  0.812467  1
  Si  Si25  1  0.584938  0.789070  0.309021  1
  Si  Si26  1  0.288873  0.915123  0.058373  1
  Si  Si27  1  0.828219  0.801254  0.791881  1
  Si  Si28  1  0.173513  0.197988  0.287822  1
  Si  Si29  1  0.801253  0.828229  0.208269  1
  Si  Si30  1  0.311217  0.670738  0.547126  1
  Si  Si31  1  0.699212  0.329038  0.039474  1
  Si  Si32  1  0.672033  0.305955  0.463771  1
  Si  Si33  1  0.328678  0.697602  0.959821  1
  Si  Si34  1  0.197788  0.172511  0.712826  1
  Sn  Sn35  1  0.076944  0.711960  0.435398  1
