# generated using pymatgen
data_Cd3Ga2Si(SnO6)2
_symmetry_space_group_name_H-M   'P 1'
_cell_length_a   10.91918627
_cell_length_b   10.91917922
_cell_length_c   10.91918600
_cell_angle_alpha   109.02743410
_cell_angle_beta   109.02749083
_cell_angle_gamma   110.36246126
_symmetry_Int_Tables_number   1
_chemical_formula_structural   Cd3Ga2Si(SnO6)2
_chemical_formula_sum   'Cd12 Ga8 Si4 Sn8 O48'
_cell_volume   1002.00413910
_cell_formula_units_Z   4
loop_
 _symmetry_equiv_pos_site_id
 _symmetry_equiv_pos_as_xyz
  1  'x, y, z'
loop_
 _atom_site_type_symbol
 _atom_site_label
 _atom_site_symmetry_multiplicity
 _atom_site_fract_x
 _atom_site_fract_y
 _atom_site_fract_z
 _atom_site_occupancy
  Cd  Cd0  1  0.750000  0.750000  0.000000  1
  Cd  Cd1  1  0.875000  0.249583  0.874583  1
  Cd  Cd2  1  0.499583  0.125000  0.874583  1
  Cd  Cd3  1  0.250000  0.250000  0.000000  1
  Cd  Cd4  1  0.875000  0.749583  0.374583  1
  Cd  Cd5  1  0.250417  0.625000  0.125417  1
  Cd  Cd6  1  0.999583  0.125000  0.374583  1
  Cd  Cd7  1  0.000000  0.500000  0.500000  1
  Cd  Cd8  1  0.375000  0.000417  0.125417  1
  Cd  Cd9  1  0.750417  0.625000  0.625417  1
  Cd  Cd10  1  0.375000  0.500417  0.625417  1
  Cd  Cd11  1  0.500000  0.000000  0.500000  1
  Ga  Ga12  1  0.000378  0.625000  0.875378  1
  Ga  Ga13  1  0.375000  0.750378  0.875378  1
  Ga  Ga14  1  0.875000  0.499622  0.124622  1
  Ga  Ga15  1  0.749622  0.125000  0.124622  1
  Ga  Ga16  1  0.500378  0.625000  0.375378  1
  Ga  Ga17  1  0.375000  0.250378  0.375378  1
  Ga  Ga18  1  0.875000  0.999622  0.624622  1
  Ga  Ga19  1  0.249622  0.125000  0.624622  1
  Si  Si20  1  0.999999  0.999998  0.999999  1
  Si  Si21  1  0.499999  0.499998  0.999999  1
  Si  Si22  1  0.250001  0.750002  0.500001  1
  Si  Si23  1  0.750001  0.250002  0.500001  1
  Sn  Sn24  1  0.125000  0.375000  0.750000  1
  Sn  Sn25  1  0.625000  0.875000  0.250000  1
  Sn  Sn26  1  0.125000  0.875000  0.750000  1
  Sn  Sn27  1  0.625000  0.375000  0.250000  1
  Sn  Sn28  1  0.125000  0.375000  0.250000  1
  Sn  Sn29  1  0.125000  0.875000  0.250000  1
  Sn  Sn30  1  0.625000  0.875000  0.750000  1
  Sn  Sn31  1  0.625000  0.375000  0.750000  1
  O  O32  1  0.825040  0.875073  0.862712  1
  O  O33  1  0.029305  0.194372  0.780474  1
  O  O34  1  0.049623  0.477475  0.877359  1
  O  O35  1  0.805628  0.586102  0.834933  1
  O  O36  1  0.529305  0.748831  0.834933  1
  O  O37  1  0.537673  0.487639  0.862712  1
  O  O38  1  0.727475  0.350116  0.927853  1
  O  O39  1  0.913899  0.694372  0.165067  1
  O  O40  1  0.022525  0.450377  0.122641  1
  O  O41  1  0.037673  0.174962  0.050034  1
  O  O42  1  0.422263  0.799623  0.072147  1
  O  O43  1  0.251169  0.086102  0.780474  1
  O  O44  1  0.700377  0.077737  0.927853  1
  O  O45  1  0.325040  0.462327  0.949967  1
  O  O46  1  0.624927  0.674962  0.137288  1
  O  O47  1  0.512361  0.375073  0.050033  1
  O  O48  1  0.149885  0.772525  0.072147  1
  O  O49  1  0.327737  0.899884  0.877359  1
  O  O50  1  0.012361  0.962327  0.137288  1
  O  O51  1  0.836102  0.501169  0.280474  1
  O  O52  1  0.944372  0.279305  0.280474  1
  O  O53  1  0.600116  0.172263  0.122641  1
  O  O54  1  0.498831  0.779305  0.334933  1
  O  O55  1  0.124927  0.987639  0.949967  1
  O  O56  1  0.125073  0.762361  0.550033  1
  O  O57  1  0.751169  0.970695  0.165067  1
  O  O58  1  0.649884  0.577737  0.377359  1
  O  O59  1  0.305628  0.470695  0.219526  1
  O  O60  1  0.413898  0.248831  0.219526  1
  O  O61  1  0.237639  0.787673  0.362712  1
  O  O62  1  0.922263  0.850116  0.622641  1
  O  O63  1  0.100115  0.977475  0.427853  1
  O  O64  1  0.737639  0.374927  0.449967  1
  O  O65  1  0.625073  0.075038  0.362712  1
  O  O66  1  0.924960  0.287673  0.550033  1
  O  O67  1  0.549623  0.672263  0.572147  1
  O  O68  1  0.998831  0.663898  0.719526  1
  O  O69  1  0.827737  0.950377  0.427853  1
  O  O70  1  0.227475  0.299623  0.377359  1
  O  O71  1  0.212327  0.575038  0.449966  1
  O  O72  1  0.336101  0.055628  0.334933  1
  O  O73  1  0.522525  0.399884  0.572147  1
  O  O74  1  0.712327  0.262361  0.637288  1
  O  O75  1  0.720695  0.001169  0.665067  1
  O  O76  1  0.444372  0.163898  0.665067  1
  O  O77  1  0.200377  0.272525  0.622641  1
  O  O78  1  0.220695  0.555628  0.719526  1
  O  O79  1  0.424960  0.874927  0.637288  1
