# generated using pymatgen
data_Yb3Ho5(Ge4Mo3)4
_symmetry_space_group_name_H-M   'P 1'
_cell_length_a   6.90846804
_cell_length_b   7.07516133
_cell_length_c   13.19332900
_cell_angle_alpha   89.94466527
_cell_angle_beta   89.99383789
_cell_angle_gamma   90.04335969
_symmetry_Int_Tables_number   1
_chemical_formula_structural   Yb3Ho5(Ge4Mo3)4
_chemical_formula_sum   'Yb3 Ho5 Ge16 Mo12'
_cell_volume   644.86998404
_cell_formula_units_Z   1
loop_
 _symmetry_equiv_pos_site_id
 _symmetry_equiv_pos_as_xyz
  1  'x, y, z'
loop_
 _atom_site_type_symbol
 _atom_site_label
 _atom_site_symmetry_multiplicity
 _atom_site_fract_x
 _atom_site_fract_y
 _atom_site_fract_z
 _atom_site_occupancy
  Yb  Yb0  1  0.009015  0.171266  0.409371  1
  Yb  Yb1  1  0.509357  0.329058  0.091618  1
  Yb  Yb2  1  0.490363  0.669658  0.589657  1
  Ho  Ho3  1  0.989684  0.828575  0.907239  1
  Ho  Ho4  1  0.990345  0.828949  0.591291  1
  Ho  Ho5  1  0.490128  0.671254  0.908744  1
  Ho  Ho6  1  0.508417  0.328284  0.408744  1
  Ho  Ho7  1  0.008838  0.172335  0.092662  1
  Ge  Ge8  1  0.330341  0.044652  0.546997  1
  Ge  Ge9  1  0.828956  0.452231  0.953996  1
  Ge  Ge10  1  0.669971  0.955007  0.047265  1
  Ge  Ge11  1  0.169582  0.545113  0.453289  1
  Ge  Ge12  1  0.172381  0.546020  0.046667  1
  Ge  Ge13  1  0.670641  0.953406  0.453096  1
  Ge  Ge14  1  0.829356  0.453450  0.547477  1
  Ge  Ge15  1  0.329767  0.048376  0.953454  1
  Ge  Ge16  1  0.810244  0.355194  0.250700  1
  Ge  Ge17  1  0.311018  0.145662  0.250148  1
  Ge  Ge18  1  0.685632  0.853041  0.747971  1
  Ge  Ge19  1  0.191581  0.644122  0.748079  1
  Ge  Ge20  1  0.030364  0.873695  0.251706  1
  Ge  Ge21  1  0.530663  0.627930  0.249287  1
  Ge  Ge22  1  0.470539  0.370845  0.749529  1
  Ge  Ge23  1  0.969347  0.130299  0.749413  1
  Mo  Mo24  1  0.331938  0.843195  0.127713  1
  Mo  Mo25  1  0.833312  0.657192  0.372265  1
  Mo  Mo26  1  0.667235  0.156283  0.627477  1
  Mo  Mo27  1  0.167962  0.344812  0.872809  1
  Mo  Mo28  1  0.167684  0.342252  0.627796  1
  Mo  Mo29  1  0.669435  0.154599  0.872579  1
  Mo  Mo30  1  0.334727  0.009432  0.750938  1
  Mo  Mo31  1  0.835498  0.659323  0.127412  1
  Mo  Mo32  1  0.663356  0.989173  0.250389  1
  Mo  Mo33  1  0.162630  0.511852  0.249508  1
  Mo  Mo34  1  0.836336  0.491851  0.750758  1
  Mo  Mo35  1  0.333353  0.841613  0.371958  1
