# generated using pymatgen
data_Pr6Ir11Rh7
_symmetry_space_group_name_H-M   'P 1'
_cell_length_a   5.37928200
_cell_length_b   5.38553744
_cell_length_c   17.73411947
_cell_angle_alpha   90.04973885
_cell_angle_beta   90.00000000
_cell_angle_gamma   119.96158446
_symmetry_Int_Tables_number   1
_chemical_formula_structural   Pr6Ir11Rh7
_chemical_formula_sum   'Pr6 Ir11 Rh7'
_cell_volume   445.10389087
_cell_formula_units_Z   1
loop_
 _symmetry_equiv_pos_site_id
 _symmetry_equiv_pos_as_xyz
  1  'x, y, z'
loop_
 _atom_site_type_symbol
 _atom_site_label
 _atom_site_symmetry_multiplicity
 _atom_site_fract_x
 _atom_site_fract_y
 _atom_site_fract_z
 _atom_site_occupancy
  Pr  Pr0  1  0.333107  0.666217  0.541435  1
  Pr  Pr1  1  0.666666  0.333332  0.041284  1
  Pr  Pr2  1  0.666197  0.332392  0.458309  1
  Pr  Pr3  1  0.333459  0.666918  0.958634  1
  Pr  Pr4  1  0.333428  0.666856  0.749923  1
  Pr  Pr5  1  0.666698  0.333394  0.249580  1
  Ir  Ir6  1  0.166485  0.332969  0.128543  1
  Ir  Ir7  1  0.833087  0.666175  0.627788  1
  Ir  Ir8  1  0.665864  0.832976  0.128023  1
  Ir  Ir9  1  0.167113  0.832976  0.128023  1
  Ir  Ir10  1  0.833296  0.167235  0.627918  1
  Ir  Ir11  1  0.333939  0.167235  0.627918  1
  Ir  Ir12  1  0.833156  0.666314  0.871928  1
  Ir  Ir13  1  0.832772  0.166747  0.871992  1
  Ir  Ir14  1  0.333973  0.166747  0.871992  1
  Ir  Ir15  1  0.667314  0.835391  0.371992  1
  Ir  Ir16  1  0.168078  0.835391  0.371992  1
  Rh  Rh17  1  0.167765  0.335529  0.372791  1
  Rh  Rh18  1  0.999342  0.998685  0.250028  1
  Rh  Rh19  1  0.000043  0.000087  0.749920  1
  Rh  Rh20  1  0.333363  0.666726  0.250155  1
  Rh  Rh21  1  0.666693  0.333385  0.749907  1
  Rh  Rh22  1  0.000409  0.000817  0.999933  1
  Rh  Rh23  1  0.997751  0.995502  0.499989  1
