# generated using pymatgen
data_La4P7Ir3Rh5
_symmetry_space_group_name_H-M   'P 1'
_cell_length_a   4.02113700
_cell_length_b   12.92864829
_cell_length_c   13.33342031
_cell_angle_alpha   80.86500325
_cell_angle_beta   90.00000000
_cell_angle_gamma   90.00000000
_symmetry_Int_Tables_number   1
_chemical_formula_structural   La4P7Ir3Rh5
_chemical_formula_sum   'La8 P14 Ir6 Rh10'
_cell_volume   684.38452889
_cell_formula_units_Z   2
loop_
 _symmetry_equiv_pos_site_id
 _symmetry_equiv_pos_as_xyz
  1  'x, y, z'
loop_
 _atom_site_type_symbol
 _atom_site_label
 _atom_site_symmetry_multiplicity
 _atom_site_fract_x
 _atom_site_fract_y
 _atom_site_fract_z
 _atom_site_occupancy
  La  La0  1  0.750000  0.790766  0.562768  1
  La  La1  1  0.250000  0.209234  0.437232  1
  La  La2  1  0.750000  0.483230  0.707963  1
  La  La3  1  0.250000  0.516770  0.292037  1
  La  La4  1  0.750000  0.719981  0.895709  1
  La  La5  1  0.250000  0.103229  0.789246  1
  La  La6  1  0.750000  0.896771  0.210754  1
  La  La7  1  0.250000  0.280019  0.104291  1
  P  P8  1  0.250000  0.909628  0.409320  1
  P  P9  1  0.750000  0.475114  0.126362  1
  P  P10  1  0.250000  0.524886  0.873638  1
  P  P11  1  0.750000  0.090372  0.590680  1
  P  P12  1  0.250000  0.742363  0.080720  1
  P  P13  1  0.750000  0.257637  0.919280  1
  P  P14  1  0.750000  0.154378  0.280878  1
  P  P15  1  0.250000  0.845622  0.719122  1
  P  P16  1  0.250000  0.053119  0.097064  1
  P  P17  1  0.750000  0.946881  0.902936  1
  P  P18  1  0.250000  0.313403  0.688017  1
  P  P19  1  0.750000  0.686597  0.311983  1
  P  P20  1  0.250000  0.607409  0.559688  1
  P  P21  1  0.750000  0.392591  0.440312  1
  Ir  Ir22  1  0.250000  0.916865  0.997469  1
  Ir  Ir23  1  0.750000  0.083135  0.002531  1
  Ir  Ir24  1  0.250000  0.727822  0.395625  1
  Ir  Ir25  1  0.750000  0.272178  0.604375  1
  Ir  Ir26  1  0.250000  0.341265  0.860067  1
  Ir  Ir27  1  0.750000  0.658735  0.139933  1
  Rh  Rh28  1  0.250000  0.987796  0.576091  1
  Rh  Rh29  1  0.750000  0.012204  0.423909  1
  Rh  Rh30  1  0.250000  0.662925  0.730332  1
  Rh  Rh31  1  0.750000  0.337075  0.269668  1
  Rh  Rh32  1  0.250000  0.551722  0.046628  1
  Rh  Rh33  1  0.750000  0.448278  0.953372  1
  Rh  Rh34  1  0.250000  0.059759  0.273234  1
  Rh  Rh35  1  0.750000  0.940241  0.726766  1
  Rh  Rh36  1  0.250000  0.424757  0.528640  1
  Rh  Rh37  1  0.750000  0.575243  0.471360  1
