# generated using pymatgen
data_HoFe2GeP
_symmetry_space_group_name_H-M   'P 1'
_cell_length_a   5.57846219
_cell_length_b   5.57846256
_cell_length_c   5.57846266
_cell_angle_alpha   138.92178170
_cell_angle_beta   138.92178608
_cell_angle_gamma   59.49414208
_symmetry_Int_Tables_number   1
_chemical_formula_structural   HoFe2GeP
_chemical_formula_sum   'Ho1 Fe2 Ge1 P1'
_cell_volume   74.21130261
_cell_formula_units_Z   1
loop_
 _symmetry_equiv_pos_site_id
 _symmetry_equiv_pos_as_xyz
  1  'x, y, z'
loop_
 _atom_site_type_symbol
 _atom_site_label
 _atom_site_symmetry_multiplicity
 _atom_site_fract_x
 _atom_site_fract_y
 _atom_site_fract_z
 _atom_site_occupancy
  Ho  Ho0  1  0.003438  0.003438  0.000000  1
  Fe  Fe1  1  0.741876  0.241876  0.500000  1
  Fe  Fe2  1  0.241876  0.741876  0.500000  1
  Ge  Ge3  1  0.373641  0.373641  0.000000  1
  P  P4  1  0.639167  0.639167  0.000000  1
