# generated using pymatgen
data_Ho2Lu3Sc3(Co4P3)4
_symmetry_space_group_name_H-M   'P 1'
_cell_length_a   12.18911300
_cell_length_b   12.18911331
_cell_length_c   3.69841100
_cell_angle_alpha   90.00000000
_cell_angle_beta   90.00000000
_cell_angle_gamma   120.00000730
_symmetry_Int_Tables_number   1
_chemical_formula_structural   Ho2Lu3Sc3(Co4P3)4
_chemical_formula_sum   'Ho2 Lu3 Sc3 Co16 P12'
_cell_volume   475.87182188
_cell_formula_units_Z   1
loop_
 _symmetry_equiv_pos_site_id
 _symmetry_equiv_pos_as_xyz
  1  'x, y, z'
loop_
 _atom_site_type_symbol
 _atom_site_label
 _atom_site_symmetry_multiplicity
 _atom_site_fract_x
 _atom_site_fract_y
 _atom_site_fract_z
 _atom_site_occupancy
  Ho  Ho0  1  0.666667  0.333333  0.000000  1
  Ho  Ho1  1  0.333333  0.666667  0.000000  1
  Lu  Lu2  1  0.815892  0.815892  0.500000  1
  Lu  Lu3  1  0.184108  0.000000  0.500000  1
  Lu  Lu4  1  0.000000  0.184108  0.500000  1
  Sc  Sc5  1  0.440392  0.440392  0.000000  1
  Sc  Sc6  1  0.559608  0.000000  0.000000  1
  Sc  Sc7  1  0.000000  0.559608  0.000000  1
  Co  Co8  1  0.875681  0.355168  0.500000  1
  Co  Co9  1  0.644832  0.520513  0.500000  1
  Co  Co10  1  0.479487  0.124319  0.500000  1
  Co  Co11  1  0.355168  0.875681  0.500000  1
  Co  Co12  1  0.520513  0.644832  0.500000  1
  Co  Co13  1  0.124319  0.479487  0.500000  1
  Co  Co14  1  0.806043  0.178841  0.000000  1
  Co  Co15  1  0.821159  0.627202  0.000000  1
  Co  Co16  1  0.372798  0.193957  0.000000  1
  Co  Co17  1  0.178841  0.806043  0.000000  1
  Co  Co18  1  0.627202  0.821159  0.000000  1
  Co  Co19  1  0.193957  0.372798  0.000000  1
  Co  Co20  1  0.277177  0.277177  0.500000  1
  Co  Co21  1  0.722823  0.000000  0.500000  1
  Co  Co22  1  0.000000  0.722823  0.500000  1
  Co  Co23  1  0.000000  0.000000  0.000000  1
  P  P24  1  0.691989  0.171017  0.500000  1
  P  P25  1  0.828983  0.520972  0.500000  1
  P  P26  1  0.479028  0.308011  0.500000  1
  P  P27  1  0.171017  0.691989  0.500000  1
  P  P28  1  0.520972  0.828983  0.500000  1
  P  P29  1  0.308011  0.479028  0.500000  1
  P  P30  1  0.177620  0.177620  0.000000  1
  P  P31  1  0.822380  0.000000  0.000000  1
  P  P32  1  0.000000  0.822380  0.000000  1
  P  P33  1  0.646744  0.646744  0.000000  1
  P  P34  1  0.353256  0.000000  0.000000  1
  P  P35  1  0.000000  0.353256  0.000000  1
