# generated using pymatgen
data_TaNb5(SiW)6
_symmetry_space_group_name_H-M   'P 1'
_cell_length_a   7.73196748
_cell_length_b   7.73207479
_cell_length_c   7.73196877
_cell_angle_alpha   126.50856254
_cell_angle_beta   128.59999116
_cell_angle_gamma   77.35981981
_symmetry_Int_Tables_number   1
_chemical_formula_structural   TaNb5(SiW)6
_chemical_formula_sum   'Ta1 Nb5 Si6 W6'
_cell_volume   281.69810402
_cell_formula_units_Z   1
loop_
 _symmetry_equiv_pos_site_id
 _symmetry_equiv_pos_as_xyz
  1  'x, y, z'
loop_
 _atom_site_type_symbol
 _atom_site_label
 _atom_site_symmetry_multiplicity
 _atom_site_fract_x
 _atom_site_fract_y
 _atom_site_fract_z
 _atom_site_occupancy
  Ta  Ta0  1  0.249670  0.898236  0.148565  1
  Nb  Nb1  1  0.549673  0.094385  0.044712  1
  Nb  Nb2  1  0.451121  0.496471  0.545350  1
  Nb  Nb3  1  0.950352  0.494562  0.044209  1
  Nb  Nb4  1  0.048814  0.093821  0.545008  1
  Nb  Nb5  1  0.750327  0.900242  0.649914  1
  Si  Si6  1  0.749954  0.497755  0.247800  1
  Si  Si7  1  0.250090  0.497637  0.747547  1
  Si  Si8  1  0.333219  0.829730  0.496495  1
  Si  Si9  1  0.665947  0.163204  0.495666  1
  Si  Si10  1  0.833235  0.829730  0.996511  1
  Si  Si11  1  0.167538  0.163204  0.997257  1
  W  W12  1  0.499488  0.238669  0.738179  1
  W  W13  1  0.000490  0.238669  0.239181  1
  W  W14  1  0.129578  0.755674  0.626849  1
  W  W15  1  0.871061  0.497267  0.626650  1
  W  W16  1  0.628824  0.755674  0.126096  1
  W  W17  1  0.370616  0.497267  0.126206  1
