# generated using pymatgen
data_Nd3Ho5Cd2OsPd
_symmetry_space_group_name_H-M   'P 1'
_cell_length_a   9.74725675
_cell_length_b   9.74725699
_cell_length_c   9.80322200
_cell_angle_alpha   59.80988642
_cell_angle_beta   59.80988559
_cell_angle_gamma   59.78408182
_symmetry_Int_Tables_number   1
_chemical_formula_structural   Nd3Ho5Cd2OsPd
_chemical_formula_sum   'Nd6 Ho10 Cd4 Os2 Pd2'
_cell_volume   655.62435792
_cell_formula_units_Z   2
loop_
 _symmetry_equiv_pos_site_id
 _symmetry_equiv_pos_as_xyz
  1  'x, y, z'
loop_
 _atom_site_type_symbol
 _atom_site_label
 _atom_site_symmetry_multiplicity
 _atom_site_fract_x
 _atom_site_fract_y
 _atom_site_fract_z
 _atom_site_occupancy
  Nd  Nd0  1  0.939634  0.553917  0.564329  1
  Nd  Nd1  1  0.553917  0.939634  0.942118  1
  Nd  Nd2  1  0.553917  0.939634  0.564329  1
  Nd  Nd3  1  0.939634  0.553917  0.942118  1
  Nd  Nd4  1  0.561785  0.561785  0.938215  1
  Nd  Nd5  1  0.941956  0.941956  0.558044  1
  Ho  Ho6  1  0.348477  0.348477  0.354245  1
  Ho  Ho7  1  0.348477  0.348477  0.948802  1
  Ho  Ho8  1  0.343410  0.958646  0.348972  1
  Ho  Ho9  1  0.958646  0.343410  0.348972  1
  Ho  Ho10  1  0.818785  0.184708  0.188722  1
  Ho  Ho11  1  0.184708  0.818785  0.807786  1
  Ho  Ho12  1  0.184708  0.818785  0.188722  1
  Ho  Ho13  1  0.818785  0.184708  0.807786  1
  Ho  Ho14  1  0.185514  0.185514  0.814486  1
  Ho  Ho15  1  0.811293  0.811293  0.188707  1
  Cd  Cd16  1  0.579085  0.579085  0.579775  1
  Cd  Cd17  1  0.579085  0.579085  0.262056  1
  Cd  Cd18  1  0.579794  0.259243  0.580482  1
  Cd  Cd19  1  0.259243  0.579794  0.580482  1
  Os  Os20  1  0.144871  0.144871  0.136931  1
  Os  Os21  1  0.144871  0.144871  0.573326  1
  Pd  Pd22  1  0.146097  0.573307  0.140297  1
  Pd  Pd23  1  0.573307  0.146097  0.140297  1
