# generated using pymatgen
data_Tb16TlCd2HgPd3Pt
_symmetry_space_group_name_H-M   'P 1'
_cell_length_a   9.72030425
_cell_length_b   9.70743694
_cell_length_c   9.70814100
_cell_angle_alpha   59.99760417
_cell_angle_beta   60.04138824
_cell_angle_gamma   60.09847114
_symmetry_Int_Tables_number   1
_chemical_formula_structural   Tb16TlCd2HgPd3Pt
_chemical_formula_sum   'Tb16 Tl1 Cd2 Hg1 Pd3 Pt1'
_cell_volume   648.41888299
_cell_formula_units_Z   1
loop_
 _symmetry_equiv_pos_site_id
 _symmetry_equiv_pos_as_xyz
  1  'x, y, z'
loop_
 _atom_site_type_symbol
 _atom_site_label
 _atom_site_symmetry_multiplicity
 _atom_site_fract_x
 _atom_site_fract_y
 _atom_site_fract_z
 _atom_site_occupancy
  Tb  Tb0  1  0.354910  0.352984  0.351125  1
  Tb  Tb1  1  0.354257  0.352248  0.942497  1
  Tb  Tb2  1  0.357815  0.934856  0.353145  1
  Tb  Tb3  1  0.932780  0.357244  0.354406  1
  Tb  Tb4  1  0.810348  0.188554  0.189732  1
  Tb  Tb5  1  0.189030  0.810834  0.809980  1
  Tb  Tb6  1  0.188876  0.811200  0.189771  1
  Tb  Tb7  1  0.809949  0.188707  0.811253  1
  Tb  Tb8  1  0.189468  0.188929  0.810743  1
  Tb  Tb9  1  0.809160  0.810944  0.189743  1
  Tb  Tb10  1  0.937898  0.564785  0.565832  1
  Tb  Tb11  1  0.565391  0.935496  0.935342  1
  Tb  Tb12  1  0.565155  0.938204  0.564409  1
  Tb  Tb13  1  0.935169  0.565103  0.934592  1
  Tb  Tb14  1  0.565993  0.564418  0.938213  1
  Tb  Tb15  1  0.935282  0.935301  0.565104  1
  Tl  Tl16  1  0.583293  0.583694  0.586778  1
  Cd  Cd17  1  0.579313  0.253900  0.582600  1
  Cd  Cd18  1  0.254347  0.579489  0.582312  1
  Hg  Hg19  1  0.584667  0.584919  0.240364  1
  Pd  Pd20  1  0.143376  0.144480  0.147567  1
  Pd  Pd21  1  0.143349  0.144448  0.564408  1
  Pd  Pd22  1  0.141800  0.567024  0.145438  1
  Pt  Pt23  1  0.568370  0.142237  0.144647  1
