# generated using pymatgen
data_TmPaInRh2
_symmetry_space_group_name_H-M   'P 1'
_cell_length_a   7.65998235
_cell_length_b   7.65998235
_cell_length_c   3.60948500
_cell_angle_alpha   90.00000000
_cell_angle_beta   90.00000000
_cell_angle_gamma   85.22426750
_symmetry_Int_Tables_number   1
_chemical_formula_structural   TmPaInRh2
_chemical_formula_sum   'Tm2 Pa2 In2 Rh4'
_cell_volume   211.05243974
_cell_formula_units_Z   2
loop_
 _symmetry_equiv_pos_site_id
 _symmetry_equiv_pos_as_xyz
  1  'x, y, z'
loop_
 _atom_site_type_symbol
 _atom_site_label
 _atom_site_symmetry_multiplicity
 _atom_site_fract_x
 _atom_site_fract_y
 _atom_site_fract_z
 _atom_site_occupancy
  Tm  Tm0  1  0.669489  0.169489  0.500000  1
  Tm  Tm1  1  0.330511  0.830511  0.500000  1
  Pa  Pa2  1  0.170472  0.329528  0.500000  1
  Pa  Pa3  1  0.829528  0.670472  0.500000  1
  In  In4  1  0.000000  0.000000  0.000000  1
  In  In5  1  0.500000  0.500000  0.000000  1
  Rh  Rh6  1  0.124750  0.624750  0.000000  1
  Rh  Rh7  1  0.875250  0.375250  0.000000  1
  Rh  Rh8  1  0.642210  0.857790  0.000000  1
  Rh  Rh9  1  0.357790  0.142210  0.000000  1
