# generated using pymatgen
data_RbCePrSe6
_symmetry_space_group_name_H-M   'P 1'
_cell_length_a   11.86107188
_cell_length_b   11.86107166
_cell_length_c   11.86107102
_cell_angle_alpha   159.08576659
_cell_angle_beta   152.01932323
_cell_angle_gamma   35.19236632
_symmetry_Int_Tables_number   1
_chemical_formula_structural   RbCePrSe6
_chemical_formula_sum   'Rb1 Ce1 Pr1 Se6'
_cell_volume   279.17570973
_cell_formula_units_Z   1
loop_
 _symmetry_equiv_pos_site_id
 _symmetry_equiv_pos_as_xyz
  1  'x, y, z'
loop_
 _atom_site_type_symbol
 _atom_site_label
 _atom_site_symmetry_multiplicity
 _atom_site_fract_x
 _atom_site_fract_y
 _atom_site_fract_z
 _atom_site_occupancy
  Rb  Rb0  1  0.998065  0.998065  0.000000  1
  Ce  Ce1  1  0.687012  0.187012  0.500000  1
  Pr  Pr2  1  0.315468  0.815468  0.500000  1
  Se  Se3  1  0.184238  0.395418  0.788820  1
  Se  Se4  1  0.219716  0.219716  0.000000  1
  Se  Se5  1  0.400993  0.608753  0.792240  1
  Se  Se6  1  0.606599  0.395418  0.211180  1
  Se  Se7  1  0.816513  0.608753  0.207760  1
  Se  Se8  1  0.771393  0.771393  0.000000  1
