# generated using pymatgen
data_Yb3Co(BrO3)8
_symmetry_space_group_name_H-M   'P 1'
_cell_length_a   5.81249737
_cell_length_b   11.09414685
_cell_length_c   11.17062100
_cell_angle_alpha   119.38874148
_cell_angle_beta   90.27790916
_cell_angle_gamma   90.05887363
_symmetry_Int_Tables_number   1
_chemical_formula_structural   Yb3Co(BrO3)8
_chemical_formula_sum   'Yb3 Co1 Br8 O24'
_cell_volume   627.62233856
_cell_formula_units_Z   1
loop_
 _symmetry_equiv_pos_site_id
 _symmetry_equiv_pos_as_xyz
  1  'x, y, z'
loop_
 _atom_site_type_symbol
 _atom_site_label
 _atom_site_symmetry_multiplicity
 _atom_site_fract_x
 _atom_site_fract_y
 _atom_site_fract_z
 _atom_site_occupancy
  Yb  Yb0  1  0.640215  0.237294  0.491861  1
  Yb  Yb1  1  0.139653  0.266959  0.008096  1
  Yb  Yb2  1  0.632066  0.732695  0.993631  1
  Co  Co3  1  0.151001  0.762096  0.508912  1
  Br  Br4  1  0.264841  0.428913  0.357586  1
  Br  Br5  1  0.779299  0.592017  0.647138  1
  Br  Br6  1  0.264054  0.912893  0.838111  1
  Br  Br7  1  0.762451  0.083046  0.144083  1
  Br  Br8  1  0.793442  0.068704  0.677631  1
  Br  Br9  1  0.275097  0.906002  0.319111  1
  Br  Br10  1  0.279857  0.412865  0.801793  1
  Br  Br11  1  0.791136  0.593994  0.210365  1
  O  O12  1  0.423669  0.873606  0.939761  1
  O  O13  1  0.927229  0.111073  0.037312  1
  O  O14  1  0.368138  0.806830  0.677909  1
  O  O15  1  0.860396  0.195505  0.302501  1
  O  O16  1  0.371206  0.322776  0.199793  1
  O  O17  1  0.874564  0.697512  0.808489  1
  O  O18  1  0.919819  0.203895  0.812894  1
  O  O19  1  0.412385  0.778470  0.183971  1
  O  O20  1  0.943535  0.927124  0.653086  1
  O  O21  1  0.413127  0.051193  0.348291  1
  O  O22  1  0.362435  0.071473  0.878129  1
  O  O23  1  0.852997  0.928546  0.119883  1
  O  O24  1  0.417740  0.276763  0.676518  1
  O  O25  1  0.940818  0.726705  0.338214  1
  O  O26  1  0.341198  0.404676  0.944984  1
  O  O27  1  0.848043  0.610022  0.071177  1
  O  O28  1  0.425920  0.552988  0.822851  1
  O  O29  1  0.925923  0.446842  0.178065  1
  O  O30  1  0.358415  0.587618  0.389737  1
  O  O31  1  0.866525  0.433705  0.614931  1
  O  O32  1  0.425597  0.394632  0.462594  1
  O  O33  1  0.947547  0.621809  0.540720  1
  O  O34  1  0.857667  0.093145  0.544250  1
  O  O35  1  0.351588  0.885620  0.455622  1
