# generated using pymatgen
data_Tb3NdAl4(SiNi)6
_symmetry_space_group_name_H-M   'P 1'
_cell_length_a   8.08759284
_cell_length_b   8.08822430
_cell_length_c   8.08874856
_cell_angle_alpha   138.83666644
_cell_angle_beta   103.85383557
_cell_angle_gamma   90.43313668
_symmetry_Int_Tables_number   1
_chemical_formula_structural   Tb3NdAl4(SiNi)6
_chemical_formula_sum   'Tb3 Nd1 Al4 Si6 Ni6'
_cell_volume   323.20527190
_cell_formula_units_Z   1
loop_
 _symmetry_equiv_pos_site_id
 _symmetry_equiv_pos_as_xyz
  1  'x, y, z'
loop_
 _atom_site_type_symbol
 _atom_site_label
 _atom_site_symmetry_multiplicity
 _atom_site_fract_x
 _atom_site_fract_y
 _atom_site_fract_z
 _atom_site_occupancy
  Tb  Tb0  1  0.633427  0.871490  0.761889  1
  Tb  Tb1  1  0.366426  0.128524  0.237950  1
  Tb  Tb2  1  0.110466  0.372242  0.738389  1
  Nd  Nd3  1  0.890646  0.628834  0.261686  1
  Al  Al4  1  0.261477  0.010879  0.750775  1
  Al  Al5  1  0.739569  0.990823  0.249784  1
  Al  Al6  1  0.739598  0.489808  0.748783  1
  Al  Al7  1  0.261453  0.510700  0.250583  1
  Si  Si8  1  0.457679  0.607414  0.850357  1
  Si  Si9  1  0.540573  0.391099  0.149404  1
  Si  Si10  1  0.755564  0.107073  0.648509  1
  Si  Si11  1  0.244752  0.893998  0.350761  1
  Si  Si12  1  0.999841  0.749190  0.750893  1
  Si  Si13  1  0.999896  0.248980  0.250678  1
  Ni  Ni14  1  0.244883  0.623629  0.621247  1
  Ni  Ni15  1  0.753982  0.375247  0.378730  1
  Ni  Ni16  1  0.003260  0.123634  0.879573  1
  Ni  Ni17  1  0.998319  0.876892  0.121415  1
  Ni  Ni18  1  0.499142  0.749190  0.248722  1
  Ni  Ni19  1  0.499047  0.250353  0.749870  1
