# generated using pymatgen
data_Tb4MgCuNiBi
_symmetry_space_group_name_H-M   'P 1'
_cell_length_a   8.67524017
_cell_length_b   8.67524073
_cell_length_c   8.81074736
_cell_angle_alpha   128.39540515
_cell_angle_beta   128.39541094
_cell_angle_gamma   74.83660084
_symmetry_Int_Tables_number   1
_chemical_formula_structural   Tb4MgCuNiBi
_chemical_formula_sum   'Tb8 Mg2 Cu2 Ni2 Bi2'
_cell_volume   398.89902955
_cell_formula_units_Z   2
loop_
 _symmetry_equiv_pos_site_id
 _symmetry_equiv_pos_as_xyz
  1  'x, y, z'
loop_
 _atom_site_type_symbol
 _atom_site_label
 _atom_site_symmetry_multiplicity
 _atom_site_fract_x
 _atom_site_fract_y
 _atom_site_fract_z
 _atom_site_occupancy
  Tb  Tb0  1  0.786545  0.286545  0.814398  1
  Tb  Tb1  1  0.213455  0.713455  0.185602  1
  Tb  Tb2  1  0.472147  0.972147  0.185602  1
  Tb  Tb3  1  0.303381  0.458123  0.500000  1
  Tb  Tb4  1  0.041877  0.196619  0.500000  1
  Tb  Tb5  1  0.527853  0.027853  0.814398  1
  Tb  Tb6  1  0.696619  0.541877  0.500000  1
  Tb  Tb7  1  0.958123  0.803381  0.500000  1
  Mg  Mg8  1  0.000000  0.000000  0.000000  1
  Mg  Mg9  1  0.500000  0.500000  0.000000  1
  Cu  Cu10  1  0.124482  0.624482  0.748964  1
  Cu  Cu11  1  0.875518  0.375518  0.251036  1
  Ni  Ni12  1  0.626988  0.873012  0.500000  1
  Ni  Ni13  1  0.373012  0.126988  0.500000  1
  Bi  Bi14  1  0.250000  0.250000  0.000000  1
  Bi  Bi15  1  0.750000  0.750000  0.000000  1
