# generated using pymatgen
data_Gd3Y2Al2Ru3
_symmetry_space_group_name_H-M   'P 1'
_cell_length_a   8.37171966
_cell_length_b   8.37172122
_cell_length_c   8.37172100
_cell_angle_alpha   109.53035162
_cell_angle_beta   109.53034814
_cell_angle_gamma   109.53035570
_symmetry_Int_Tables_number   1
_chemical_formula_structural   Gd3Y2Al2Ru3
_chemical_formula_sum   'Gd6 Y4 Al4 Ru6'
_cell_volume   450.67954254
_cell_formula_units_Z   2
loop_
 _symmetry_equiv_pos_site_id
 _symmetry_equiv_pos_as_xyz
  1  'x, y, z'
loop_
 _atom_site_type_symbol
 _atom_site_label
 _atom_site_symmetry_multiplicity
 _atom_site_fract_x
 _atom_site_fract_y
 _atom_site_fract_z
 _atom_site_occupancy
  Gd  Gd0  1  0.713882  0.501352  0.999803  1
  Gd  Gd1  1  0.999803  0.713882  0.501352  1
  Gd  Gd2  1  0.501352  0.999803  0.713882  1
  Gd  Gd3  1  0.249954  0.183696  0.932797  1
  Gd  Gd4  1  0.932797  0.249954  0.183696  1
  Gd  Gd5  1  0.183696  0.932797  0.249954  1
  Y  Y6  1  0.783654  0.783654  0.783654  1
  Y  Y7  1  0.318874  0.569150  0.750141  1
  Y  Y8  1  0.750141  0.318874  0.569150  1
  Y  Y9  1  0.569150  0.750141  0.318874  1
  Al  Al10  1  0.411695  0.411695  0.411695  1
  Al  Al11  1  0.090522  0.500370  0.999726  1
  Al  Al12  1  0.999726  0.090522  0.500370  1
  Al  Al13  1  0.500370  0.999726  0.090522  1
  Ru  Ru14  1  0.879221  0.126744  0.749330  1
  Ru  Ru15  1  0.749330  0.879221  0.126744  1
  Ru  Ru16  1  0.126744  0.749330  0.879221  1
  Ru  Ru17  1  0.247498  0.620070  0.371525  1
  Ru  Ru18  1  0.371525  0.247498  0.620070  1
  Ru  Ru19  1  0.620070  0.371525  0.247498  1
