# generated using pymatgen
data_Li4Tb(ThSn2)2
_symmetry_space_group_name_H-M   'P 1'
_cell_length_a   4.70829414
_cell_length_b   7.11182584
_cell_length_c   8.71355072
_cell_angle_alpha   114.08490170
_cell_angle_beta   105.67443115
_cell_angle_gamma   90.00000421
_symmetry_Int_Tables_number   1
_chemical_formula_structural   Li4Tb(ThSn2)2
_chemical_formula_sum   'Li4 Tb1 Th2 Sn4'
_cell_volume   254.43743352
_cell_formula_units_Z   1
loop_
 _symmetry_equiv_pos_site_id
 _symmetry_equiv_pos_as_xyz
  1  'x, y, z'
loop_
 _atom_site_type_symbol
 _atom_site_label
 _atom_site_symmetry_multiplicity
 _atom_site_fract_x
 _atom_site_fract_y
 _atom_site_fract_z
 _atom_site_occupancy
  Li  Li0  1  0.327694  0.014008  0.655386  1
  Li  Li1  1  0.672306  0.985992  0.344614  1
  Li  Li2  1  0.327694  0.641379  0.655386  1
  Li  Li3  1  0.672306  0.358621  0.344614  1
  Tb  Tb4  1  0.000000  0.000000  0.000000  1
  Th  Th5  1  0.873574  0.373574  0.747148  1
  Th  Th6  1  0.126426  0.626426  0.252852  1
  Sn  Sn7  1  0.213983  0.213983  0.427965  1
  Sn  Sn8  1  0.786017  0.786017  0.572035  1
  Sn  Sn9  1  0.500000  0.292591  0.000000  1
  Sn  Sn10  1  0.500000  0.707409  0.000000  1
