# generated using pymatgen
data_Ag3GeF8
_symmetry_space_group_name_H-M   'P 1'
_cell_length_a   5.72280646
_cell_length_b   5.65836274
_cell_length_c   5.52014230
_cell_angle_alpha   94.39481010
_cell_angle_beta   94.08685587
_cell_angle_gamma   82.52951409
_symmetry_Int_Tables_number   1
_chemical_formula_structural   Ag3GeF8
_chemical_formula_sum   'Ag3 Ge1 F8'
_cell_volume   176.37318978
_cell_formula_units_Z   1
loop_
 _symmetry_equiv_pos_site_id
 _symmetry_equiv_pos_as_xyz
  1  'x, y, z'
loop_
 _atom_site_type_symbol
 _atom_site_label
 _atom_site_symmetry_multiplicity
 _atom_site_fract_x
 _atom_site_fract_y
 _atom_site_fract_z
 _atom_site_occupancy
  Ag  Ag0  1  0.500000  0.500000  0.000000  1
  Ag  Ag1  1  0.500000  0.000000  0.500001  1
  Ag  Ag2  1  0.000000  0.500000  0.500001  1
  Ge  Ge3  1  0.000000  0.000000  0.000000  1
  F  F4  1  0.252888  0.147226  0.133410  1
  F  F5  1  0.123638  0.726156  0.150468  1
  F  F6  1  0.836017  0.114880  0.267682  1
  F  F7  1  0.641402  0.642360  0.353417  1
  F  F8  1  0.358598  0.357640  0.646582  1
  F  F9  1  0.163983  0.885120  0.732317  1
  F  F10  1  0.876362  0.273844  0.849534  1
  F  F11  1  0.747112  0.852774  0.866592  1
