# generated using pymatgen
data_La6Si3Sn7Au12
_symmetry_space_group_name_H-M   'P 1'
_cell_length_a   4.57062500
_cell_length_b   10.25557224
_cell_length_c   13.77164178
_cell_angle_alpha   89.95149820
_cell_angle_beta   90.00000000
_cell_angle_gamma   90.00000000
_symmetry_Int_Tables_number   1
_chemical_formula_structural   La6Si3Sn7Au12
_chemical_formula_sum   'La6 Si3 Sn7 Au12'
_cell_volume   645.53686787
_cell_formula_units_Z   1
loop_
 _symmetry_equiv_pos_site_id
 _symmetry_equiv_pos_as_xyz
  1  'x, y, z'
loop_
 _atom_site_type_symbol
 _atom_site_label
 _atom_site_symmetry_multiplicity
 _atom_site_fract_x
 _atom_site_fract_y
 _atom_site_fract_z
 _atom_site_occupancy
  La  La0  1  0.000000  0.736401  0.813619  1
  La  La1  1  0.000000  0.740079  0.182252  1
  La  La2  1  0.500000  0.262544  0.690253  1
  La  La3  1  0.500000  0.258398  0.309859  1
  La  La4  1  0.000000  0.736810  0.505700  1
  La  La5  1  0.500000  0.264598  0.997644  1
  Si  Si6  1  0.000000  0.382181  0.841141  1
  Si  Si7  1  0.000000  0.381383  0.158220  1
  Si  Si8  1  0.500000  0.618418  0.662917  1
  Sn  Sn9  1  0.500000  0.622583  0.342676  1
  Sn  Sn10  1  0.000000  0.028555  0.359471  1
  Sn  Sn11  1  0.000000  0.021916  0.643980  1
  Sn  Sn12  1  0.500000  0.979392  0.136635  1
  Sn  Sn13  1  0.500000  0.978380  0.857679  1
  Sn  Sn14  1  0.000000  0.288124  0.502105  1
  Sn  Sn15  1  0.500000  0.708140  0.998650  1
  Au  Au16  1  0.000000  0.142858  0.837682  1
  Au  Au17  1  0.000000  0.142391  0.157106  1
  Au  Au18  1  0.500000  0.857633  0.662291  1
  Au  Au19  1  0.500000  0.882330  0.334617  1
  Au  Au20  1  0.000000  0.507719  0.998842  1
  Au  Au21  1  0.500000  0.478960  0.512343  1
  Au  Au22  1  0.000000  0.470296  0.336760  1
  Au  Au23  1  0.000000  0.494597  0.665572  1
  Au  Au24  1  0.500000  0.501827  0.152298  1
  Au  Au25  1  0.500000  0.508547  0.838017  1
  Au  Au26  1  0.000000  0.946540  0.997191  1
  Au  Au27  1  0.500000  0.058397  0.504483  1
