# generated using pymatgen
data_Ac17La3Si15Pb
_symmetry_space_group_name_H-M   'P 1'
_cell_length_a   8.27878038
_cell_length_b   8.25375347
_cell_length_c   16.40850700
_cell_angle_alpha   90.15931416
_cell_angle_beta   90.07112508
_cell_angle_gamma   90.02089136
_symmetry_Int_Tables_number   1
_chemical_formula_structural   Ac17La3Si15Pb
_chemical_formula_sum   'Ac17 La3 Si15 Pb1'
_cell_volume   1121.20461860
_cell_formula_units_Z   1
loop_
 _symmetry_equiv_pos_site_id
 _symmetry_equiv_pos_as_xyz
  1  'x, y, z'
loop_
 _atom_site_type_symbol
 _atom_site_label
 _atom_site_symmetry_multiplicity
 _atom_site_fract_x
 _atom_site_fract_y
 _atom_site_fract_z
 _atom_site_occupancy
  Ac  Ac0  1  0.383925  0.470457  0.369745  1
  Ac  Ac1  1  0.866063  0.039547  0.372231  1
  Ac  Ac2  1  0.974292  0.125030  0.121273  1
  Ac  Ac3  1  0.025791  0.877522  0.626855  1
  Ac  Ac4  1  0.623897  0.524713  0.872598  1
  Ac  Ac5  1  0.476705  0.371519  0.631522  1
  Ac  Ac6  1  0.524907  0.622609  0.127068  1
  Ac  Ac7  1  0.124362  0.974801  0.879069  1
  Ac  Ac8  1  0.985999  0.617815  0.053080  1
  Ac  Ac9  1  0.012768  0.372359  0.558950  1
  Ac  Ac10  1  0.619247  0.986908  0.945087  1
  Ac  Ac11  1  0.118929  0.515380  0.805557  1
  Ac  Ac12  1  0.874480  0.478095  0.294927  1
  Ac  Ac13  1  0.514945  0.117975  0.193252  1
  Ac  Ac14  1  0.486827  0.885250  0.697980  1
  Ac  Ac15  1  0.385264  0.016921  0.444472  1
  Ac  Ac16  1  0.681852  0.693189  0.502778  1
  La  La17  1  0.810495  0.190221  0.751661  1
  La  La18  1  0.193161  0.810644  0.241209  1
  La  La19  1  0.309646  0.309119  0.999849  1
  Si  Si20  1  0.918100  0.288962  0.938881  1
  Si  Si21  1  0.715304  0.083661  0.562619  1
  Si  Si22  1  0.212661  0.417986  0.188219  1
  Si  Si23  1  0.791242  0.580024  0.692294  1
  Si  Si24  1  0.416505  0.213084  0.813737  1
  Si  Si25  1  0.581281  0.789784  0.308276  1
  Si  Si26  1  0.287485  0.917933  0.059315  1
  Si  Si27  1  0.826173  0.809690  0.790327  1
  Si  Si28  1  0.175987  0.190339  0.286675  1
  Si  Si29  1  0.809510  0.826006  0.209941  1
  Si  Si30  1  0.314266  0.668236  0.549656  1
  Si  Si31  1  0.692457  0.328020  0.038207  1
  Si  Si32  1  0.671222  0.306611  0.464179  1
  Si  Si33  1  0.327954  0.691246  0.961338  1
  Si  Si34  1  0.190324  0.174077  0.714334  1
  Pb  Pb35  1  0.075977  0.714267  0.432836  1
