# generated using pymatgen
data_Pr7Nd9AlCd3Ir4
_symmetry_space_group_name_H-M   'P 1'
_cell_length_a   9.96344111
_cell_length_b   9.96386156
_cell_length_c   9.96053654
_cell_angle_alpha   60.03409367
_cell_angle_beta   60.03133323
_cell_angle_gamma   60.03994212
_symmetry_Int_Tables_number   1
_chemical_formula_structural   Pr7Nd9AlCd3Ir4
_chemical_formula_sum   'Pr7 Nd9 Al1 Cd3 Ir4'
_cell_volume   699.76207087
_cell_formula_units_Z   1
loop_
 _symmetry_equiv_pos_site_id
 _symmetry_equiv_pos_as_xyz
  1  'x, y, z'
loop_
 _atom_site_type_symbol
 _atom_site_label
 _atom_site_symmetry_multiplicity
 _atom_site_fract_x
 _atom_site_fract_y
 _atom_site_fract_z
 _atom_site_occupancy
  Pr  Pr0  1  0.806624  0.806762  0.191431  1
  Pr  Pr1  1  0.938268  0.561563  0.561733  1
  Pr  Pr2  1  0.560061  0.939316  0.939165  1
  Pr  Pr3  1  0.561600  0.938395  0.561772  1
  Pr  Pr4  1  0.939251  0.560039  0.939209  1
  Pr  Pr5  1  0.561759  0.561569  0.938276  1
  Pr  Pr6  1  0.939181  0.939250  0.560185  1
  Nd  Nd7  1  0.347563  0.347457  0.347481  1
  Nd  Nd8  1  0.349846  0.349992  0.953786  1
  Nd  Nd9  1  0.349732  0.953782  0.350066  1
  Nd  Nd10  1  0.953919  0.349635  0.349981  1
  Nd  Nd11  1  0.810172  0.189602  0.189353  1
  Nd  Nd12  1  0.191487  0.806763  0.806602  1
  Nd  Nd13  1  0.189592  0.810060  0.189501  1
  Nd  Nd14  1  0.806804  0.191598  0.806560  1
  Nd  Nd15  1  0.189401  0.189510  0.810065  1
  Al  Al16  1  0.579644  0.579669  0.579860  1
  Cd  Cd17  1  0.579446  0.579466  0.263928  1
  Cd  Cd18  1  0.579510  0.263898  0.579542  1
  Cd  Cd19  1  0.263932  0.579522  0.579497  1
  Ir  Ir20  1  0.141817  0.141753  0.141788  1
  Ir  Ir21  1  0.142082  0.142123  0.576115  1
  Ir  Ir22  1  0.142555  0.575773  0.142073  1
  Ir  Ir23  1  0.575749  0.142503  0.142031  1
