# generated using pymatgen
data_La2Y4CoI10
_symmetry_space_group_name_H-M   'P 1'
_cell_length_a   7.82696329
_cell_length_b   9.86235970
_cell_length_c   9.76871505
_cell_angle_alpha   106.83820441
_cell_angle_beta   95.93684746
_cell_angle_gamma   105.59466660
_symmetry_Int_Tables_number   1
_chemical_formula_structural   La2Y4CoI10
_chemical_formula_sum   'La2 Y4 Co1 I10'
_cell_volume   681.59506272
_cell_formula_units_Z   1
loop_
 _symmetry_equiv_pos_site_id
 _symmetry_equiv_pos_as_xyz
  1  'x, y, z'
loop_
 _atom_site_type_symbol
 _atom_site_label
 _atom_site_symmetry_multiplicity
 _atom_site_fract_x
 _atom_site_fract_y
 _atom_site_fract_z
 _atom_site_occupancy
  La  La0  1  0.887099  0.958246  0.229748  1
  La  La1  1  0.112901  0.041754  0.770252  1
  Y  Y2  1  0.028478  0.716236  0.914061  1
  Y  Y3  1  0.971522  0.283764  0.085939  1
  Y  Y4  1  0.653573  0.874801  0.836302  1
  Y  Y5  1  0.346427  0.125199  0.163698  1
  Co  Co6  1  0.000000  0.000000  0.000000  1
  I  I7  1  0.650492  0.552283  0.729894  1
  I  I8  1  0.349508  0.447717  0.270106  1
  I  I9  1  0.728815  0.908614  0.539406  1
  I  I10  1  0.271185  0.091386  0.460594  1
  I  I11  1  0.083195  0.379002  0.823064  1
  I  I12  1  0.916805  0.620998  0.176936  1
  I  I13  1  0.445090  0.815652  0.088900  1
  I  I14  1  0.554910  0.184348  0.911100  1
  I  I15  1  0.224330  0.736086  0.655531  1
  I  I16  1  0.775670  0.263914  0.344469  1
