# generated using pymatgen
data_Tb20Si15Hg
_symmetry_space_group_name_H-M   'P 1'
_cell_length_a   7.49507463
_cell_length_b   7.74730997
_cell_length_c   14.76028743
_cell_angle_alpha   90.03020942
_cell_angle_beta   90.74171523
_cell_angle_gamma   90.15046700
_symmetry_Int_Tables_number   1
_chemical_formula_structural   Tb20Si15Hg
_chemical_formula_sum   'Tb20 Si15 Hg1'
_cell_volume   857.00578202
_cell_formula_units_Z   1
loop_
 _symmetry_equiv_pos_site_id
 _symmetry_equiv_pos_as_xyz
  1  'x, y, z'
loop_
 _atom_site_type_symbol
 _atom_site_label
 _atom_site_symmetry_multiplicity
 _atom_site_fract_x
 _atom_site_fract_y
 _atom_site_fract_z
 _atom_site_occupancy
  Tb  Tb0  1  0.676970  0.180151  0.626361  1
  Tb  Tb1  1  0.182291  0.320866  0.877968  1
  Tb  Tb2  1  0.317066  0.819864  0.120997  1
  Tb  Tb3  1  0.827327  0.669209  0.373552  1
  Tb  Tb4  1  0.317841  0.824468  0.377722  1
  Tb  Tb5  1  0.817263  0.678135  0.121328  1
  Tb  Tb6  1  0.681525  0.179488  0.877782  1
  Tb  Tb7  1  0.176142  0.322887  0.624562  1
  Tb  Tb8  1  0.523613  0.677013  0.602736  1
  Tb  Tb9  1  0.029908  0.814800  0.900635  1
  Tb  Tb10  1  0.468835  0.316840  0.098246  1
  Tb  Tb11  1  0.981915  0.188267  0.398359  1
  Tb  Tb12  1  0.470486  0.323690  0.399251  1
  Tb  Tb13  1  0.969612  0.184595  0.098223  1
  Tb  Tb14  1  0.531412  0.684426  0.899825  1
  Tb  Tb15  1  0.024975  0.816957  0.601972  1
  Tb  Tb16  1  0.851454  0.510026  0.750659  1
  Tb  Tb17  1  0.349056  0.988108  0.748877  1
  Tb  Tb18  1  0.151074  0.487832  0.248970  1
  Tb  Tb19  1  0.650982  0.010840  0.247535  1
  Si  Si20  1  0.143704  0.528350  0.039862  1
  Si  Si21  1  0.355118  0.029358  0.960058  1
  Si  Si22  1  0.849029  0.471031  0.541339  1
  Si  Si23  1  0.338670  0.030539  0.542652  1
  Si  Si24  1  0.856176  0.471428  0.958997  1
  Si  Si25  1  0.642980  0.969966  0.038796  1
  Si  Si26  1  0.149668  0.531851  0.462138  1
  Si  Si27  1  0.476569  0.396375  0.752186  1
  Si  Si28  1  0.975885  0.104031  0.752736  1
  Si  Si29  1  0.523265  0.608114  0.247901  1
  Si  Si30  1  0.024141  0.896582  0.247195  1
  Si  Si31  1  0.733549  0.872064  0.752291  1
  Si  Si32  1  0.233525  0.626209  0.752310  1
  Si  Si33  1  0.268377  0.125712  0.247172  1
  Si  Si34  1  0.764135  0.373745  0.247643  1
  Hg  Hg35  1  0.665462  0.966182  0.461167  1
