# generated using pymatgen
data_Li3Sm6ZnPd12Rh
_symmetry_space_group_name_H-M   'P 1'
_cell_length_a   8.32855602
_cell_length_b   8.32855628
_cell_length_c   8.30521700
_cell_angle_alpha   109.41446608
_cell_angle_beta   109.41446669
_cell_angle_gamma   109.52791428
_symmetry_Int_Tables_number   1
_chemical_formula_structural   Li3Sm6ZnPd12Rh
_chemical_formula_sum   'Li3 Sm6 Zn1 Pd12 Rh1'
_cell_volume   443.78461813
_cell_formula_units_Z   1
loop_
 _symmetry_equiv_pos_site_id
 _symmetry_equiv_pos_as_xyz
  1  'x, y, z'
loop_
 _atom_site_type_symbol
 _atom_site_label
 _atom_site_symmetry_multiplicity
 _atom_site_fract_x
 _atom_site_fract_y
 _atom_site_fract_z
 _atom_site_occupancy
  Li  Li0  1  0.000000  0.500000  0.000000  1
  Li  Li1  1  0.500000  0.000000  0.000000  1
  Li  Li2  1  0.500000  0.500000  0.500000  1
  Sm  Sm3  1  0.700890  0.700890  0.001410  1
  Sm  Sm4  1  0.299110  0.000000  0.300520  1
  Sm  Sm5  1  0.000000  0.299110  0.300520  1
  Sm  Sm6  1  0.299110  0.299110  0.998590  1
  Sm  Sm7  1  0.700890  0.000000  0.699480  1
  Sm  Sm8  1  0.000000  0.700890  0.699480  1
  Zn  Zn9  1  0.000000  0.000000  0.500000  1
  Pd  Pd10  1  0.332981  0.332981  0.664992  1
  Pd  Pd11  1  0.667019  0.000000  0.332011  1
  Pd  Pd12  1  0.000000  0.667019  0.332011  1
  Pd  Pd13  1  0.666334  0.333666  0.000000  1
  Pd  Pd14  1  0.333666  0.667331  0.333666  1
  Pd  Pd15  1  0.000000  0.332981  0.667989  1
  Pd  Pd16  1  0.333666  0.666334  0.000000  1
  Pd  Pd17  1  0.332981  0.000000  0.667989  1
  Pd  Pd18  1  0.667331  0.333666  0.333666  1
  Pd  Pd19  1  0.667019  0.667019  0.335008  1
  Pd  Pd20  1  0.666334  0.332669  0.666334  1
  Pd  Pd21  1  0.332669  0.666334  0.666334  1
  Rh  Rh22  1  0.000000  0.000000  0.000000  1
