# generated using pymatgen
data_Cs2Mn3(VTe2)3
_symmetry_space_group_name_H-M   'P 1'
_cell_length_a   4.36148000
_cell_length_b   10.49154062
_cell_length_c   10.29925891
_cell_angle_alpha   120.74245176
_cell_angle_beta   90.00000000
_cell_angle_gamma   90.00000000
_symmetry_Int_Tables_number   1
_chemical_formula_structural   Cs2Mn3(VTe2)3
_chemical_formula_sum   'Cs2 Mn3 V3 Te6'
_cell_volume   405.05290476
_cell_formula_units_Z   1
loop_
 _symmetry_equiv_pos_site_id
 _symmetry_equiv_pos_as_xyz
  1  'x, y, z'
loop_
 _atom_site_type_symbol
 _atom_site_label
 _atom_site_symmetry_multiplicity
 _atom_site_fract_x
 _atom_site_fract_y
 _atom_site_fract_z
 _atom_site_occupancy
  Cs  Cs0  1  0.750000  0.662119  0.325933  1
  Cs  Cs1  1  0.250000  0.336105  0.674007  1
  Mn  Mn2  1  0.750000  0.977555  0.850018  1
  Mn  Mn3  1  0.750000  0.147655  0.129412  1
  Mn  Mn4  1  0.750000  0.874978  0.020380  1
  V  V5  1  0.250000  0.022702  0.150685  1
  V  V6  1  0.250000  0.851641  0.869001  1
  V  V7  1  0.250000  0.125901  0.980244  1
  Te  Te8  1  0.750000  0.684845  0.724039  1
  Te  Te9  1  0.750000  0.266888  0.956104  1
  Te  Te10  1  0.750000  0.046836  0.319089  1
  Te  Te11  1  0.250000  0.325772  0.286699  1
  Te  Te12  1  0.250000  0.723383  0.044103  1
  Te  Te13  1  0.250000  0.953620  0.670285  1
