# generated using pymatgen
data_Sr4W(BrN2)2
_symmetry_space_group_name_H-M   'P 1'
_cell_length_a   6.09801400
_cell_length_b   8.05864454
_cell_length_c   10.74255273
_cell_angle_alpha   81.73118103
_cell_angle_beta   90.00000000
_cell_angle_gamma   90.00000000
_symmetry_Int_Tables_number   1
_chemical_formula_structural   Sr4W(BrN2)2
_chemical_formula_sum   'Sr8 W2 Br4 N8'
_cell_volume   522.41957574
_cell_formula_units_Z   2
loop_
 _symmetry_equiv_pos_site_id
 _symmetry_equiv_pos_as_xyz
  1  'x, y, z'
loop_
 _atom_site_type_symbol
 _atom_site_label
 _atom_site_symmetry_multiplicity
 _atom_site_fract_x
 _atom_site_fract_y
 _atom_site_fract_z
 _atom_site_occupancy
  Sr  Sr0  1  0.750000  0.283744  0.306213  1
  Sr  Sr1  1  0.750000  0.002728  0.619159  1
  Sr  Sr2  1  0.750000  0.448211  0.613114  1
  Sr  Sr3  1  0.750000  0.814300  0.096984  1
  Sr  Sr4  1  0.250000  0.997272  0.380841  1
  Sr  Sr5  1  0.250000  0.551789  0.386886  1
  Sr  Sr6  1  0.250000  0.185700  0.903016  1
  Sr  Sr7  1  0.250000  0.716256  0.693787  1
  W  W8  1  0.750000  0.771926  0.394410  1
  W  W9  1  0.250000  0.228074  0.605590  1
  Br  Br10  1  0.250000  0.325848  0.165527  1
  Br  Br11  1  0.750000  0.674152  0.834473  1
  Br  Br12  1  0.250000  0.838672  0.099585  1
  Br  Br13  1  0.750000  0.161328  0.900415  1
  N  N14  1  0.250000  0.026086  0.715718  1
  N  N15  1  0.999417  0.245531  0.499801  1
  N  N16  1  0.499417  0.754469  0.500199  1
  N  N17  1  0.000583  0.754469  0.500199  1
  N  N18  1  0.750000  0.601837  0.292101  1
  N  N19  1  0.750000  0.973914  0.284282  1
  N  N20  1  0.500583  0.245531  0.499801  1
  N  N21  1  0.250000  0.398163  0.707899  1
