# generated using pymatgen
data_Tb7HoSc11Si16W
_symmetry_space_group_name_H-M   'P 1'
_cell_length_a   7.04629755
_cell_length_b   7.36007767
_cell_length_c   13.91162910
_cell_angle_alpha   89.96810830
_cell_angle_beta   90.01634137
_cell_angle_gamma   90.22204984
_symmetry_Int_Tables_number   1
_chemical_formula_structural   Tb7HoSc11Si16W
_chemical_formula_sum   'Tb7 Ho1 Sc11 Si16 W1'
_cell_volume   721.46957303
_cell_formula_units_Z   1
loop_
 _symmetry_equiv_pos_site_id
 _symmetry_equiv_pos_as_xyz
  1  'x, y, z'
loop_
 _atom_site_type_symbol
 _atom_site_label
 _atom_site_symmetry_multiplicity
 _atom_site_fract_x
 _atom_site_fract_y
 _atom_site_fract_z
 _atom_site_occupancy
  Tb  Tb0  1  0.012710  0.176551  0.094071  1
  Tb  Tb1  1  0.992105  0.820219  0.900273  1
  Tb  Tb2  1  0.486318  0.672640  0.901379  1
  Tb  Tb3  1  0.992087  0.820135  0.599309  1
  Tb  Tb4  1  0.511775  0.323887  0.095628  1
  Tb  Tb5  1  0.012850  0.176295  0.406221  1
  Tb  Tb6  1  0.511695  0.323744  0.404807  1
  Ho  Ho7  1  0.486006  0.672966  0.599196  1
  Sc  Sc8  1  0.841728  0.496859  0.250090  1
  Sc  Sc9  1  0.341969  0.003080  0.250093  1
  Sc  Sc10  1  0.657249  0.996093  0.749808  1
  Sc  Sc11  1  0.327201  0.178221  0.627699  1
  Sc  Sc12  1  0.671650  0.823781  0.374786  1
  Sc  Sc13  1  0.172683  0.673584  0.376889  1
  Sc  Sc14  1  0.671795  0.824249  0.125342  1
  Sc  Sc15  1  0.827496  0.330552  0.628111  1
  Sc  Sc16  1  0.326938  0.178262  0.871962  1
  Sc  Sc17  1  0.827829  0.330432  0.871482  1
  Sc  Sc18  1  0.172528  0.673811  0.123247  1
  Si  Si19  1  0.030468  0.125594  0.749754  1
  Si  Si20  1  0.971637  0.883801  0.250122  1
  Si  Si21  1  0.468391  0.616749  0.250138  1
  Si  Si22  1  0.520495  0.393356  0.749563  1
  Si  Si23  1  0.284081  0.861409  0.749619  1
  Si  Si24  1  0.717164  0.127412  0.250164  1
  Si  Si25  1  0.214488  0.372698  0.250139  1
  Si  Si26  1  0.793952  0.627119  0.749627  1
  Si  Si27  1  0.155152  0.466837  0.548977  1
  Si  Si28  1  0.844021  0.535614  0.462868  1
  Si  Si29  1  0.346635  0.963532  0.463149  1
  Si  Si30  1  0.844060  0.535757  0.037157  1
  Si  Si31  1  0.656390  0.033656  0.540187  1
  Si  Si32  1  0.153863  0.466170  0.951207  1
  Si  Si33  1  0.656665  0.034870  0.960005  1
  Si  Si34  1  0.346624  0.964594  0.037200  1
  W  W35  1  0.151298  0.495466  0.749734  1
