# generated using pymatgen
data_Pr9Y(IrPt2)2
_symmetry_space_group_name_H-M   'P 1'
_cell_length_a   11.49239200
_cell_length_b   11.49239200
_cell_length_c   6.55257900
_cell_angle_alpha   90.00000000
_cell_angle_beta   90.00000000
_cell_angle_gamma   90.00000000
_symmetry_Int_Tables_number   1
_chemical_formula_structural   Pr9Y(IrPt2)2
_chemical_formula_sum   'Pr18 Y2 Ir4 Pt8'
_cell_volume   865.43235554
_cell_formula_units_Z   2
loop_
 _symmetry_equiv_pos_site_id
 _symmetry_equiv_pos_as_xyz
  1  'x, y, z'
loop_
 _atom_site_type_symbol
 _atom_site_label
 _atom_site_symmetry_multiplicity
 _atom_site_fract_x
 _atom_site_fract_y
 _atom_site_fract_z
 _atom_site_occupancy
  Pr  Pr0  1  0.295390  0.088724  0.373639  1
  Pr  Pr1  1  0.295390  0.911276  0.873639  1
  Pr  Pr2  1  0.704610  0.088724  0.873639  1
  Pr  Pr3  1  0.704610  0.911276  0.373639  1
  Pr  Pr4  1  0.588301  0.792173  0.875839  1
  Pr  Pr5  1  0.588301  0.207827  0.375839  1
  Pr  Pr6  1  0.411699  0.792173  0.375839  1
  Pr  Pr7  1  0.411699  0.207827  0.875839  1
  Pr  Pr8  1  0.207827  0.411699  0.624161  1
  Pr  Pr9  1  0.207827  0.588301  0.124161  1
  Pr  Pr10  1  0.792173  0.411699  0.124161  1
  Pr  Pr11  1  0.792173  0.588301  0.624161  1
  Pr  Pr12  1  0.911276  0.704610  0.126361  1
  Pr  Pr13  1  0.911276  0.295390  0.626361  1
  Pr  Pr14  1  0.088724  0.704610  0.626361  1
  Pr  Pr15  1  0.088724  0.295390  0.126361  1
  Pr  Pr16  1  0.000000  0.000000  0.500000  1
  Pr  Pr17  1  0.000000  0.000000  0.000000  1
  Y  Y18  1  0.500000  0.500000  0.000000  1
  Y  Y19  1  0.500000  0.500000  0.500000  1
  Ir  Ir20  1  0.500000  0.000000  0.115127  1
  Ir  Ir21  1  0.500000  0.000000  0.615127  1
  Ir  Ir22  1  0.000000  0.500000  0.884873  1
  Ir  Ir23  1  0.000000  0.500000  0.384873  1
  Pt  Pt24  1  0.845801  0.154199  0.250000  1
  Pt  Pt25  1  0.845801  0.845801  0.750000  1
  Pt  Pt26  1  0.154199  0.154199  0.750000  1
  Pt  Pt27  1  0.154199  0.845801  0.250000  1
  Pt  Pt28  1  0.647158  0.352842  0.750000  1
  Pt  Pt29  1  0.647158  0.647158  0.250000  1
  Pt  Pt30  1  0.352842  0.352842  0.250000  1
  Pt  Pt31  1  0.352842  0.647158  0.750000  1
