# generated using pymatgen
data_Dy(YHg2)5
_symmetry_space_group_name_H-M   'P 1'
_cell_length_a   6.39995904
_cell_length_b   6.39995844
_cell_length_c   10.17707300
_cell_angle_alpha   90.00000000
_cell_angle_beta   90.00000000
_cell_angle_gamma   105.09411612
_symmetry_Int_Tables_number   1
_chemical_formula_structural   Dy(YHg2)5
_chemical_formula_sum   'Dy1 Y5 Hg10'
_cell_volume   402.46603582
_cell_formula_units_Z   1
loop_
 _symmetry_equiv_pos_site_id
 _symmetry_equiv_pos_as_xyz
  1  'x, y, z'
loop_
 _atom_site_type_symbol
 _atom_site_label
 _atom_site_symmetry_multiplicity
 _atom_site_fract_x
 _atom_site_fract_y
 _atom_site_fract_z
 _atom_site_occupancy
  Dy  Dy0  1  0.430671  0.430671  0.750000  1
  Y  Y1  1  0.787153  0.212587  0.000062  1
  Y  Y2  1  0.212587  0.787153  0.000062  1
  Y  Y3  1  0.212587  0.787153  0.499938  1
  Y  Y4  1  0.787153  0.212587  0.499938  1
  Y  Y5  1  0.569657  0.569657  0.250000  1
  Hg  Hg6  1  0.037220  0.477074  0.250000  1
  Hg  Hg7  1  0.962904  0.522645  0.750000  1
  Hg  Hg8  1  0.477074  0.037220  0.250000  1
  Hg  Hg9  1  0.522645  0.962904  0.750000  1
  Hg  Hg10  1  0.971459  0.971459  0.250000  1
  Hg  Hg11  1  0.029267  0.029267  0.750000  1
  Hg  Hg12  1  0.293511  0.293511  0.029051  1
  Hg  Hg13  1  0.706301  0.706301  0.970244  1
  Hg  Hg14  1  0.706301  0.706301  0.529756  1
  Hg  Hg15  1  0.293511  0.293511  0.470949  1
