# generated using pymatgen
data_Dy8Y2Ru3Rh
_symmetry_space_group_name_H-M   'P 1'
_cell_length_a   8.50266142
_cell_length_b   8.51138139
_cell_length_c   7.28825848
_cell_angle_alpha   83.35638809
_cell_angle_beta   83.32855864
_cell_angle_gamma   43.87934006
_symmetry_Int_Tables_number   1
_chemical_formula_structural   Dy8Y2Ru3Rh
_chemical_formula_sum   'Dy8 Y2 Ru3 Rh1'
_cell_volume   362.72864263
_cell_formula_units_Z   1
loop_
 _symmetry_equiv_pos_site_id
 _symmetry_equiv_pos_as_xyz
  1  'x, y, z'
loop_
 _atom_site_type_symbol
 _atom_site_label
 _atom_site_symmetry_multiplicity
 _atom_site_fract_x
 _atom_site_fract_y
 _atom_site_fract_z
 _atom_site_occupancy
  Dy  Dy0  1  0.207606  0.355740  0.313363  1
  Dy  Dy1  1  0.643542  0.791781  0.185320  1
  Dy  Dy2  1  0.789324  0.643308  0.685368  1
  Dy  Dy3  1  0.358527  0.205034  0.816705  1
  Dy  Dy4  1  0.979163  0.206817  0.085142  1
  Dy  Dy5  1  0.791343  0.023426  0.413413  1
  Dy  Dy6  1  0.578764  0.421582  0.750734  1
  Dy  Dy7  1  0.424098  0.577481  0.247662  1
  Y  Y8  1  0.208084  0.980431  0.584173  1
  Y  Y9  1  0.021433  0.793649  0.918281  1
  Ru  Ru10  1  0.396696  0.824647  0.925155  1
  Ru  Ru11  1  0.824224  0.398171  0.424701  1
  Ru  Ru12  1  0.600360  0.177785  0.075954  1
  Rh  Rh13  1  0.176836  0.600149  0.574031  1
