# generated using pymatgen
data_HoLu19(SiBi2)4
_symmetry_space_group_name_H-M   'P 1'
_cell_length_a   7.90772457
_cell_length_b   9.03740300
_cell_length_c   11.79398586
_cell_angle_alpha   90.00000000
_cell_angle_beta   89.95633709
_cell_angle_gamma   90.00000000
_symmetry_Int_Tables_number   1
_chemical_formula_structural   HoLu19(SiBi2)4
_chemical_formula_sum   'Ho1 Lu19 Si4 Bi8'
_cell_volume   842.86041941
_cell_formula_units_Z   1
loop_
 _symmetry_equiv_pos_site_id
 _symmetry_equiv_pos_as_xyz
  1  'x, y, z'
loop_
 _atom_site_type_symbol
 _atom_site_label
 _atom_site_symmetry_multiplicity
 _atom_site_fract_x
 _atom_site_fract_y
 _atom_site_fract_z
 _atom_site_occupancy
  Ho  Ho0  1  0.137660  0.250000  0.205162  1
  Lu  Lu1  1  0.820559  0.554673  0.062485  1
  Lu  Lu2  1  0.679464  0.945260  0.562485  1
  Lu  Lu3  1  0.179428  0.054503  0.937245  1
  Lu  Lu4  1  0.320744  0.445698  0.437812  1
  Lu  Lu5  1  0.179428  0.445497  0.937245  1
  Lu  Lu6  1  0.320744  0.054302  0.437812  1
  Lu  Lu7  1  0.820559  0.945327  0.062485  1
  Lu  Lu8  1  0.679464  0.554740  0.562485  1
  Lu  Lu9  1  0.166279  0.750000  0.211610  1
  Lu  Lu10  1  0.333651  0.750000  0.711666  1
  Lu  Lu11  1  0.833439  0.250000  0.788152  1
  Lu  Lu12  1  0.666199  0.250000  0.288347  1
  Lu  Lu13  1  0.461192  0.750000  0.001639  1
  Lu  Lu14  1  0.038693  0.750000  0.501796  1
  Lu  Lu15  1  0.538936  0.250000  0.998198  1
  Lu  Lu16  1  0.960816  0.250000  0.498659  1
  Lu  Lu17  1  0.637696  0.750000  0.295061  1
  Lu  Lu18  1  0.862522  0.750000  0.794991  1
  Lu  Lu19  1  0.362678  0.250000  0.704922  1
  Si  Si20  1  0.410868  0.750000  0.478403  1
  Si  Si21  1  0.089067  0.750000  0.978388  1
  Si  Si22  1  0.589203  0.250000  0.521710  1
  Si  Si23  1  0.909875  0.250000  0.020481  1
  Bi  Bi24  1  0.932032  0.511746  0.325799  1
  Bi  Bi25  1  0.567413  0.988763  0.825348  1
  Bi  Bi26  1  0.067525  0.011066  0.674628  1
  Bi  Bi27  1  0.433448  0.489426  0.174606  1
  Bi  Bi28  1  0.067525  0.488934  0.674628  1
  Bi  Bi29  1  0.433448  0.010574  0.174606  1
  Bi  Bi30  1  0.932032  0.988254  0.325799  1
  Bi  Bi31  1  0.567413  0.511237  0.825348  1
