# generated using pymatgen
data_Li4Dy4SnBi3
_symmetry_space_group_name_H-M   'P 1'
_cell_length_a   9.69586300
_cell_length_b   9.69586334
_cell_length_c   7.06759500
_cell_angle_alpha   90.00001293
_cell_angle_beta   90.00000000
_cell_angle_gamma   120.00014140
_symmetry_Int_Tables_number   1
_chemical_formula_structural   Li4Dy4SnBi3
_chemical_formula_sum   'Li8 Dy8 Sn2 Bi6'
_cell_volume   575.40631481
_cell_formula_units_Z   2
loop_
 _symmetry_equiv_pos_site_id
 _symmetry_equiv_pos_as_xyz
  1  'x, y, z'
loop_
 _atom_site_type_symbol
 _atom_site_label
 _atom_site_symmetry_multiplicity
 _atom_site_fract_x
 _atom_site_fract_y
 _atom_site_fract_z
 _atom_site_occupancy
  Li  Li0  1  0.170406  0.340810  0.282173  1
  Li  Li1  1  0.170405  0.829594  0.282172  1
  Li  Li2  1  0.659187  0.829593  0.282170  1
  Li  Li3  1  0.829594  0.659190  0.782172  1
  Li  Li4  1  0.829595  0.170405  0.782171  1
  Li  Li5  1  0.340811  0.170407  0.782171  1
  Li  Li6  1  0.333334  0.666666  0.675560  1
  Li  Li7  1  0.666666  0.333334  0.175563  1
  Dy  Dy8  1  0.510146  0.020291  0.493479  1
  Dy  Dy9  1  0.510145  0.489855  0.493480  1
  Dy  Dy10  1  0.979709  0.489854  0.493479  1
  Dy  Dy11  1  0.489854  0.979709  0.993478  1
  Dy  Dy12  1  0.489855  0.510145  0.993480  1
  Dy  Dy13  1  0.020291  0.510146  0.993479  1
  Dy  Dy14  1  0.999999  0.999999  0.503950  1
  Dy  Dy15  1  0.000000  0.000000  0.003951  1
  Sn  Sn16  1  0.333333  0.666666  0.254383  1
  Sn  Sn17  1  0.666666  0.333334  0.754382  1
  Bi  Bi18  1  0.166123  0.332245  0.736717  1
  Bi  Bi19  1  0.166122  0.833879  0.736717  1
  Bi  Bi20  1  0.667755  0.833878  0.736717  1
  Bi  Bi21  1  0.833878  0.667756  0.236718  1
  Bi  Bi22  1  0.833878  0.166121  0.236718  1
  Bi  Bi23  1  0.332245  0.166122  0.236718  1
