# generated using pymatgen
data_UP3SeO12
_symmetry_space_group_name_H-M   'P 1'
_cell_length_a   8.92063995
_cell_length_b   8.89934632
_cell_length_c   9.31272330
_cell_angle_alpha   90.13850472
_cell_angle_beta   118.29390242
_cell_angle_gamma   120.09712288
_symmetry_Int_Tables_number   1
_chemical_formula_structural   UP3SeO12
_chemical_formula_sum   'U2 P6 Se2 O24'
_cell_volume   534.51394336
_cell_formula_units_Z   2
loop_
 _symmetry_equiv_pos_site_id
 _symmetry_equiv_pos_as_xyz
  1  'x, y, z'
loop_
 _atom_site_type_symbol
 _atom_site_label
 _atom_site_symmetry_multiplicity
 _atom_site_fract_x
 _atom_site_fract_y
 _atom_site_fract_z
 _atom_site_occupancy
  U  U0  1  0.203237  0.349529  0.557144  1
  U  U1  1  0.787639  0.145552  0.932096  1
  P  P2  1  0.995482  0.946542  0.242234  1
  P  P3  1  0.297788  0.551288  0.252378  1
  P  P4  1  0.269530  0.750298  0.744209  1
  P  P5  1  0.697387  0.246230  0.254991  1
  P  P6  1  0.735260  0.486235  0.748701  1
  P  P7  1  0.006583  0.021573  0.760078  1
  Se  Se8  1  0.213220  0.867900  0.074991  1
  Se  Se9  1  0.805389  0.640996  0.452754  1
  O  O10  1  0.324538  0.731972  0.231845  1
  O  O11  1  0.870807  0.981684  0.076499  1
  O  O12  1  0.853267  0.833683  0.621397  1
  O  O13  1  0.848177  0.791252  0.274213  1
  O  O14  1  0.143855  0.911579  0.226767  1
  O  O15  1  0.477080  0.541056  0.290702  1
  O  O16  1  0.095817  0.745538  0.575665  1
  O  O17  1  0.904768  0.649753  0.912147  1
  O  O18  1  0.267145  0.779373  0.902474  1
  O  O19  1  0.473569  0.908113  0.765470  1
  O  O20  1  0.770724  0.491116  0.597789  1
  O  O21  1  0.734273  0.435763  0.286418  1
  O  O22  1  0.251702  0.569016  0.711154  1
  O  O23  1  0.251412  0.511618  0.397866  1
  O  O24  1  0.495691  0.094399  0.238038  1
  O  O25  1  0.695944  0.206926  0.090882  1
  O  O26  1  0.092662  0.385119  0.086663  1
  O  O27  1  0.879923  0.248423  0.407007  1
  O  O28  1  0.529091  0.463635  0.688756  1
  O  O29  1  0.874073  0.078217  0.774866  1
  O  O30  1  0.145927  0.170476  0.709991  1
  O  O31  1  0.142153  0.130963  0.391632  1
  O  O32  1  0.156198  0.027651  0.940902  1
  O  O33  1  0.709693  0.306530  0.781280  1
