# generated using pymatgen
data_Ta2Be15(NbCu2)4
_symmetry_space_group_name_H-M   'P 1'
_cell_length_a   7.69407303
_cell_length_b   7.64497050
_cell_length_c   7.64497105
_cell_angle_alpha   60.42896984
_cell_angle_beta   59.78730796
_cell_angle_gamma   59.78730529
_symmetry_Int_Tables_number   1
_chemical_formula_structural   Ta2Be15(NbCu2)4
_chemical_formula_sum   'Ta2 Be15 Nb4 Cu8'
_cell_volume   317.95690082
_cell_formula_units_Z   1
loop_
 _symmetry_equiv_pos_site_id
 _symmetry_equiv_pos_as_xyz
  1  'x, y, z'
loop_
 _atom_site_type_symbol
 _atom_site_label
 _atom_site_symmetry_multiplicity
 _atom_site_fract_x
 _atom_site_fract_y
 _atom_site_fract_z
 _atom_site_occupancy
  Ta  Ta0  1  0.801103  0.197783  0.802217  1
  Ta  Ta1  1  0.801103  0.802217  0.197783  1
  Be  Be2  1  0.499866  0.500000  0.500000  1
  Be  Be3  1  0.500317  0.499935  0.999617  1
  Be  Be4  1  0.999872  0.500000  0.500000  1
  Be  Be5  1  0.499994  0.000000  0.000000  1
  Be  Be6  1  0.999869  0.000383  0.500065  1
  Be  Be7  1  0.999869  0.500065  0.000383  1
  Be  Be8  1  0.500317  0.999617  0.499935  1
  Be  Be9  1  0.827264  0.520713  0.824445  1
  Be  Be10  1  0.172421  0.175555  0.479287  1
  Be  Be11  1  0.479957  0.172359  0.172359  1
  Be  Be12  1  0.175646  0.172954  0.172954  1
  Be  Be13  1  0.521555  0.827046  0.827046  1
  Be  Be14  1  0.824675  0.827641  0.827641  1
  Be  Be15  1  0.827264  0.824445  0.520713  1
  Be  Be16  1  0.172421  0.479287  0.175555  1
  Nb  Nb17  1  0.197692  0.198806  0.801194  1
  Nb  Nb18  1  0.178637  0.821214  0.821214  1
  Nb  Nb19  1  0.821065  0.178786  0.178786  1
  Nb  Nb20  1  0.197692  0.801194  0.198806  1
  Cu  Cu21  1  0.624631  0.131058  0.619669  1
  Cu  Cu22  1  0.375360  0.380331  0.868942  1
  Cu  Cu23  1  0.868947  0.375192  0.375192  1
  Cu  Cu24  1  0.381681  0.374890  0.374890  1
  Cu  Cu25  1  0.131460  0.625110  0.625110  1
  Cu  Cu26  1  0.619331  0.624808  0.624808  1
  Cu  Cu27  1  0.624631  0.619669  0.131058  1
  Cu  Cu28  1  0.375360  0.868942  0.380331  1
