# generated using pymatgen
data_Nd2Tm2Al15(GaIr2)3
_symmetry_space_group_name_H-M   'P 1'
_cell_length_a   7.55101350
_cell_length_b   7.55154330
_cell_length_c   9.57567300
_cell_angle_alpha   90.00000000
_cell_angle_beta   90.00000000
_cell_angle_gamma   119.34444434
_symmetry_Int_Tables_number   1
_chemical_formula_structural   Nd2Tm2Al15(GaIr2)3
_chemical_formula_sum   'Nd2 Tm2 Al15 Ga3 Ir6'
_cell_volume   475.96172905
_cell_formula_units_Z   1
loop_
 _symmetry_equiv_pos_site_id
 _symmetry_equiv_pos_as_xyz
  1  'x, y, z'
loop_
 _atom_site_type_symbol
 _atom_site_label
 _atom_site_symmetry_multiplicity
 _atom_site_fract_x
 _atom_site_fract_y
 _atom_site_fract_z
 _atom_site_occupancy
  Nd  Nd0  1  0.998132  0.675015  0.250000  1
  Nd  Nd1  1  0.670231  0.990872  0.250000  1
  Tm  Tm2  1  0.004945  0.323423  0.750000  1
  Tm  Tm3  1  0.322719  0.003139  0.750000  1
  Al  Al4  1  0.003817  0.335555  0.067902  1
  Al  Al5  1  0.999503  0.663130  0.921882  1
  Al  Al6  1  0.999503  0.663130  0.578118  1
  Al  Al7  1  0.336568  0.005964  0.431644  1
  Al  Al8  1  0.003817  0.335555  0.432098  1
  Al  Al9  1  0.663298  0.000220  0.578069  1
  Al  Al10  1  0.663298  0.000220  0.921931  1
  Al  Al11  1  0.336568  0.005964  0.068356  1
  Al  Al12  1  0.333517  0.333708  0.562165  1
  Al  Al13  1  0.665639  0.665145  0.457630  1
  Al  Al14  1  0.665639  0.665145  0.042370  1
  Al  Al15  1  0.333517  0.333708  0.937835  1
  Al  Al16  1  0.661855  0.447339  0.750000  1
  Al  Al17  1  0.547803  0.339192  0.250000  1
  Al  Al18  1  0.447940  0.661792  0.750000  1
  Ga  Ga19  1  0.134549  0.135185  0.250000  1
  Ga  Ga20  1  0.865570  0.865426  0.750000  1
  Ga  Ga21  1  0.338030  0.543013  0.250000  1
  Ir  Ir22  1  0.671083  0.329212  0.998133  1
  Ir  Ir23  1  0.328576  0.672435  0.995848  1
  Ir  Ir24  1  0.328576  0.672435  0.504152  1
  Ir  Ir25  1  0.671083  0.329212  0.501867  1
  Ir  Ir26  1  0.002112  0.002434  0.996501  1
  Ir  Ir27  1  0.002112  0.002434  0.503499  1
