# generated using pymatgen
data_DyY4Nb2P12Ir17
_symmetry_space_group_name_H-M   'P 1'
_cell_length_a   12.59156300
_cell_length_b   12.79942682
_cell_length_c   4.00728000
_cell_angle_alpha   90.00000000
_cell_angle_beta   90.00000000
_cell_angle_gamma   119.46421812
_symmetry_Int_Tables_number   1
_chemical_formula_structural   DyY4Nb2P12Ir17
_chemical_formula_sum   'Dy1 Y4 Nb2 P12 Ir17'
_cell_volume   562.30243915
_cell_formula_units_Z   1
loop_
 _symmetry_equiv_pos_site_id
 _symmetry_equiv_pos_as_xyz
  1  'x, y, z'
loop_
 _atom_site_type_symbol
 _atom_site_label
 _atom_site_symmetry_multiplicity
 _atom_site_fract_x
 _atom_site_fract_y
 _atom_site_fract_z
 _atom_site_occupancy
  Dy  Dy0  1  0.815105  0.000000  0.000000  1
  Y  Y1  1  0.330207  0.661445  0.500000  1
  Y  Y2  1  0.668764  0.338555  0.500000  1
  Y  Y3  1  0.999322  0.813456  0.000000  1
  Y  Y4  1  0.185866  0.186544  0.000000  1
  Nb  Nb5  1  0.997342  0.450706  0.500000  1
  Nb  Nb6  1  0.546636  0.549294  0.500000  1
  P  P7  1  0.002787  0.641920  0.500000  1
  P  P8  1  0.360867  0.358080  0.500000  1
  P  P9  1  0.645634  0.000000  0.500000  1
  P  P10  1  0.514501  0.683123  0.000000  1
  P  P11  1  0.308878  0.823874  0.000000  1
  P  P12  1  0.163154  0.480554  0.000000  1
  P  P13  1  0.485004  0.176126  0.000000  1
  P  P14  1  0.682599  0.519446  0.000000  1
  P  P15  1  0.831379  0.316877  0.000000  1
  P  P16  1  0.999933  0.175547  0.500000  1
  P  P17  1  0.824385  0.824453  0.500000  1
  P  P18  1  0.181023  0.000000  0.500000  1
  Ir  Ir19  1  0.505692  0.864064  0.000000  1
  Ir  Ir20  1  0.127620  0.641003  0.000000  1
  Ir  Ir21  1  0.354506  0.493281  0.000000  1
  Ir  Ir22  1  0.486618  0.358997  0.000000  1
  Ir  Ir23  1  0.861227  0.506719  0.000000  1
  Ir  Ir24  1  0.641629  0.135936  0.000000  1
  Ir  Ir25  1  0.464612  0.000000  0.500000  1
  Ir  Ir26  1  0.997230  0.282231  0.000000  1
  Ir  Ir27  1  0.714998  0.717769  0.000000  1
  Ir  Ir28  1  0.292104  0.000000  0.000000  1
  Ir  Ir29  1  0.624653  0.807346  0.500000  1
  Ir  Ir30  1  0.201708  0.823911  0.500000  1
  Ir  Ir31  1  0.177363  0.368402  0.500000  1
  Ir  Ir32  1  0.377797  0.176089  0.500000  1
  Ir  Ir33  1  0.808960  0.631598  0.500000  1
  Ir  Ir34  1  0.817307  0.192654  0.500000  1
  Ir  Ir35  1  0.002586  0.000000  0.500000  1
