# generated using pymatgen
data_Zr2Sc7Re4As
_symmetry_space_group_name_H-M   'P 1'
_cell_length_a   8.69993051
_cell_length_b   8.71310547
_cell_length_c   8.63518873
_cell_angle_alpha   90.00000139
_cell_angle_beta   90.12447934
_cell_angle_gamma   120.05010029
_symmetry_Int_Tables_number   1
_chemical_formula_structural   Zr2Sc7Re4As
_chemical_formula_sum   'Zr4 Sc14 Re8 As2'
_cell_volume   566.59192414
_cell_formula_units_Z   2
loop_
 _symmetry_equiv_pos_site_id
 _symmetry_equiv_pos_as_xyz
  1  'x, y, z'
loop_
 _atom_site_type_symbol
 _atom_site_label
 _atom_site_symmetry_multiplicity
 _atom_site_fract_x
 _atom_site_fract_y
 _atom_site_fract_z
 _atom_site_occupancy
  Zr  Zr0  1  0.388013  0.194006  0.955758  1
  Zr  Zr1  1  0.192410  0.802575  0.045314  1
  Zr  Zr2  1  0.192410  0.389835  0.045314  1
  Zr  Zr3  1  0.610641  0.805320  0.045002  1
  Sc  Sc4  1  0.196009  0.805314  0.454352  1
  Sc  Sc5  1  0.196009  0.390696  0.454352  1
  Sc  Sc6  1  0.612198  0.806098  0.454367  1
  Sc  Sc7  1  0.805666  0.194791  0.546690  1
  Sc  Sc8  1  0.805666  0.610875  0.546690  1
  Sc  Sc9  1  0.389443  0.194721  0.546794  1
  Sc  Sc10  1  0.804031  0.195798  0.952621  1
  Sc  Sc11  1  0.804031  0.608233  0.952621  1
  Sc  Sc12  1  0.539477  0.462168  0.249725  1
  Sc  Sc13  1  0.539477  0.077309  0.249725  1
  Sc  Sc14  1  0.922236  0.461117  0.250602  1
  Sc  Sc15  1  0.460338  0.538637  0.751380  1
  Sc  Sc16  1  0.460338  0.921702  0.751380  1
  Sc  Sc17  1  0.078737  0.539369  0.750264  1
  Re  Re18  1  0.893317  0.108059  0.248987  1
  Re  Re19  1  0.893317  0.785257  0.248987  1
  Re  Re20  1  0.215127  0.107563  0.248620  1
  Re  Re21  1  0.107096  0.892679  0.750635  1
  Re  Re22  1  0.107096  0.214418  0.750635  1
  Re  Re23  1  0.788384  0.894193  0.750930  1
  Re  Re24  1  0.001366  0.000683  0.496726  1
  Re  Re25  1  0.996245  0.998123  0.000153  1
  As  As26  1  0.334433  0.667218  0.252957  1
  As  As27  1  0.666489  0.333244  0.748417  1
