# generated using pymatgen
data_Zr3Ga3Co2Au
_symmetry_space_group_name_H-M   'P 1'
_cell_length_a   7.13839500
_cell_length_b   7.13839576
_cell_length_c   3.41504000
_cell_angle_alpha   90.00000000
_cell_angle_beta   90.00000000
_cell_angle_gamma   120.00000112
_symmetry_Int_Tables_number   1
_chemical_formula_structural   Zr3Ga3Co2Au
_chemical_formula_sum   'Zr3 Ga3 Co2 Au1'
_cell_volume   150.70498547
_cell_formula_units_Z   1
loop_
 _symmetry_equiv_pos_site_id
 _symmetry_equiv_pos_as_xyz
  1  'x, y, z'
loop_
 _atom_site_type_symbol
 _atom_site_label
 _atom_site_symmetry_multiplicity
 _atom_site_fract_x
 _atom_site_fract_y
 _atom_site_fract_z
 _atom_site_occupancy
  Zr  Zr0  1  0.377986  0.405286  0.500000  1
  Zr  Zr1  1  0.594714  0.972700  0.500000  1
  Zr  Zr2  1  0.027300  0.622014  0.500000  1
  Ga  Ga3  1  0.743374  0.742465  0.000000  1
  Ga  Ga4  1  0.257535  0.000909  0.000000  1
  Ga  Ga5  1  0.999091  0.256626  0.000000  1
  Co  Co6  1  0.333333  0.666667  0.000000  1
  Co  Co7  1  0.000000  0.000000  0.500000  1
  Au  Au8  1  0.666667  0.333333  0.000000  1
