# generated using pymatgen
data_Gd2Mn2O7
_symmetry_space_group_name_H-M   'P 1'
_cell_length_a   7.10890137
_cell_length_b   7.10890179
_cell_length_c   7.10890100
_cell_angle_alpha   59.99999900
_cell_angle_beta   59.99999708
_cell_angle_gamma   59.99999998
_symmetry_Int_Tables_number   1
_chemical_formula_structural   Gd2Mn2O7
_chemical_formula_sum   'Gd4 Mn4 O14'
_cell_volume   254.03435793
_cell_formula_units_Z   2
loop_
 _symmetry_equiv_pos_site_id
 _symmetry_equiv_pos_as_xyz
  1  'x, y, z'
loop_
 _atom_site_type_symbol
 _atom_site_label
 _atom_site_symmetry_multiplicity
 _atom_site_fract_x
 _atom_site_fract_y
 _atom_site_fract_z
 _atom_site_occupancy
  Gd  Gd0  1  0.500000  0.000000  0.500000  1
  Gd  Gd1  1  0.000000  0.500000  0.500001  1
  Gd  Gd2  1  0.500000  0.500000  0.000000  1
  Gd  Gd3  1  0.500000  0.500000  0.500000  1
  Mn  Mn4  1  0.000000  0.500000  0.000001  1
  Mn  Mn5  1  0.500000  0.000000  0.000000  1
  Mn  Mn6  1  0.000000  0.000000  0.500000  1
  Mn  Mn7  1  0.000000  0.000000  0.000000  1
  O  O8  1  0.325693  0.924307  0.924306  1
  O  O9  1  0.075694  0.674307  0.674306  1
  O  O10  1  0.924305  0.325694  0.924306  1
  O  O11  1  0.924305  0.924307  0.325694  1
  O  O12  1  0.325693  0.325694  0.924306  1
  O  O13  1  0.325693  0.924307  0.325694  1
  O  O14  1  0.075694  0.674307  0.075694  1
  O  O15  1  0.674306  0.075694  0.674306  1
  O  O16  1  0.375000  0.375001  0.375000  1
  O  O17  1  0.624999  0.625000  0.625000  1
  O  O18  1  0.924305  0.325694  0.325694  1
  O  O19  1  0.674306  0.075694  0.075694  1
  O  O20  1  0.075694  0.075694  0.674306  1
  O  O21  1  0.674306  0.674307  0.075694  1
