# generated using pymatgen
data_Pa2Ge4Ir3Rh
_symmetry_space_group_name_H-M   'P 1'
_cell_length_a   4.19277900
_cell_length_b   4.19277900
_cell_length_c   10.23010600
_cell_angle_alpha   90.00000000
_cell_angle_beta   90.00000000
_cell_angle_gamma   90.00000000
_symmetry_Int_Tables_number   1
_chemical_formula_structural   Pa2Ge4Ir3Rh
_chemical_formula_sum   'Pa2 Ge4 Ir3 Rh1'
_cell_volume   179.83908187
_cell_formula_units_Z   1
loop_
 _symmetry_equiv_pos_site_id
 _symmetry_equiv_pos_as_xyz
  1  'x, y, z'
loop_
 _atom_site_type_symbol
 _atom_site_label
 _atom_site_symmetry_multiplicity
 _atom_site_fract_x
 _atom_site_fract_y
 _atom_site_fract_z
 _atom_site_occupancy
  Pa  Pa0  1  0.000000  0.500000  0.249493  1
  Pa  Pa1  1  0.500000  0.000000  0.750507  1
  Ge  Ge2  1  0.000000  0.000000  0.500000  1
  Ge  Ge3  1  0.500000  0.500000  0.500000  1
  Ge  Ge4  1  0.000000  0.500000  0.866837  1
  Ge  Ge5  1  0.500000  0.000000  0.133163  1
  Ir  Ir6  1  0.500000  0.500000  0.000000  1
  Ir  Ir7  1  0.000000  0.500000  0.631563  1
  Ir  Ir8  1  0.500000  0.000000  0.368437  1
  Rh  Rh9  1  0.000000  0.000000  0.000000  1
