# generated using pymatgen
data_Na2Pt3O7
_symmetry_space_group_name_H-M   'P 1'
_cell_length_a   6.97070668
_cell_length_b   6.91210898
_cell_length_c   8.30406171
_cell_angle_alpha   104.05610913
_cell_angle_beta   110.82774992
_cell_angle_gamma   106.23782306
_symmetry_Int_Tables_number   1
_chemical_formula_structural   Na2Pt3O7
_chemical_formula_sum   'Na4 Pt6 O14'
_cell_volume   331.89877824
_cell_formula_units_Z   2
loop_
 _symmetry_equiv_pos_site_id
 _symmetry_equiv_pos_as_xyz
  1  'x, y, z'
loop_
 _atom_site_type_symbol
 _atom_site_label
 _atom_site_symmetry_multiplicity
 _atom_site_fract_x
 _atom_site_fract_y
 _atom_site_fract_z
 _atom_site_occupancy
  Na  Na0  1  0.286439  0.676137  0.479885  1
  Na  Na1  1  0.713561  0.323863  0.520115  1
  Na  Na2  1  0.341939  0.833765  0.071798  1
  Na  Na3  1  0.658061  0.166235  0.928202  1
  Pt  Pt4  1  0.928460  0.926817  0.782530  1
  Pt  Pt5  1  0.071540  0.073183  0.217470  1
  Pt  Pt6  1  0.356047  0.357725  0.074974  1
  Pt  Pt7  1  0.643953  0.642275  0.925026  1
  Pt  Pt8  1  0.218053  0.215171  0.643755  1
  Pt  Pt9  1  0.781947  0.784829  0.356245  1
  O  O10  1  0.551315  0.351256  0.723639  1
  O  O11  1  0.448685  0.648744  0.276361  1
  O  O12  1  0.879796  0.060445  0.581668  1
  O  O13  1  0.120204  0.939555  0.418332  1
  O  O14  1  0.314841  0.492998  0.869908  1
  O  O15  1  0.685159  0.507002  0.130092  1
  O  O16  1  0.869813  0.676091  0.563307  1
  O  O17  1  0.130187  0.323909  0.436693  1
  O  O18  1  0.974170  0.795283  0.982720  1
  O  O19  1  0.025830  0.204717  0.017280  1
  O  O20  1  0.388422  0.193523  0.247713  1
  O  O21  1  0.611578  0.806477  0.752287  1
  O  O22  1  0.732440  0.921236  0.151087  1
  O  O23  1  0.267560  0.078764  0.848913  1
