# generated using pymatgen
data_Dy4Y12Cd4IrRu3
_symmetry_space_group_name_H-M   'P 1'
_cell_length_a   9.61713658
_cell_length_b   9.70466447
_cell_length_c   9.70466500
_cell_angle_alpha   59.99999477
_cell_angle_beta   59.69846859
_cell_angle_gamma   59.69847018
_symmetry_Int_Tables_number   1
_chemical_formula_structural   Dy4Y12Cd4IrRu3
_chemical_formula_sum   'Dy4 Y12 Cd4 Ir1 Ru3'
_cell_volume   637.52523170
_cell_formula_units_Z   1
loop_
 _symmetry_equiv_pos_site_id
 _symmetry_equiv_pos_as_xyz
  1  'x, y, z'
loop_
 _atom_site_type_symbol
 _atom_site_label
 _atom_site_symmetry_multiplicity
 _atom_site_fract_x
 _atom_site_fract_y
 _atom_site_fract_z
 _atom_site_occupancy
  Dy  Dy0  1  0.346341  0.347928  0.347928  1
  Dy  Dy1  1  0.346341  0.347928  0.957804  1
  Dy  Dy2  1  0.346341  0.957804  0.347928  1
  Dy  Dy3  1  0.966095  0.344635  0.344635  1
  Y  Y4  1  0.810373  0.190107  0.190107  1
  Y  Y5  1  0.187470  0.810639  0.810639  1
  Y  Y6  1  0.187470  0.810639  0.191252  1
  Y  Y7  1  0.810373  0.190107  0.809413  1
  Y  Y8  1  0.187470  0.191252  0.810639  1
  Y  Y9  1  0.810373  0.809413  0.190107  1
  Y  Y10  1  0.936307  0.562815  0.562815  1
  Y  Y11  1  0.560218  0.939128  0.939128  1
  Y  Y12  1  0.560218  0.939128  0.561526  1
  Y  Y13  1  0.936307  0.562815  0.938064  1
  Y  Y14  1  0.560218  0.561526  0.939128  1
  Y  Y15  1  0.936307  0.938064  0.562815  1
  Cd  Cd16  1  0.580366  0.579648  0.579648  1
  Cd  Cd17  1  0.580366  0.579648  0.260340  1
  Cd  Cd18  1  0.580366  0.260340  0.579648  1
  Cd  Cd19  1  0.257710  0.580764  0.580764  1
  Ir  Ir20  1  0.575197  0.141601  0.141601  1
  Ru  Ru21  1  0.145926  0.138322  0.138322  1
  Ru  Ru22  1  0.145926  0.138322  0.577432  1
  Ru  Ru23  1  0.145926  0.577432  0.138322  1
