# generated using pymatgen
data_Ho7Er12LuPb16
_symmetry_space_group_name_H-M   'P 1'
_cell_length_a   8.17001706
_cell_length_b   15.55158106
_cell_length_c   8.23514698
_cell_angle_alpha   90.01286730
_cell_angle_beta   89.91503703
_cell_angle_gamma   90.10881179
_symmetry_Int_Tables_number   1
_chemical_formula_structural   Ho7Er12LuPb16
_chemical_formula_sum   'Ho7 Er12 Lu1 Pb16'
_cell_volume   1046.32739205
_cell_formula_units_Z   1
loop_
 _symmetry_equiv_pos_site_id
 _symmetry_equiv_pos_as_xyz
  1  'x, y, z'
loop_
 _atom_site_type_symbol
 _atom_site_label
 _atom_site_symmetry_multiplicity
 _atom_site_fract_x
 _atom_site_fract_y
 _atom_site_fract_z
 _atom_site_occupancy
  Ho  Ho0  1  0.962976  0.900533  0.823503  1
  Ho  Ho1  1  0.537259  0.099100  0.323318  1
  Ho  Ho2  1  0.038206  0.400795  0.175965  1
  Ho  Ho3  1  0.537945  0.400744  0.324307  1
  Ho  Ho4  1  0.036720  0.098782  0.176210  1
  Ho  Ho5  1  0.463129  0.900713  0.676391  1
  Ho  Ho6  1  0.962335  0.599232  0.823835  1
  Er  Er7  1  0.623905  0.622079  0.157872  1
  Er  Er8  1  0.124728  0.877956  0.342782  1
  Er  Er9  1  0.375768  0.121961  0.842778  1
  Er  Er10  1  0.875607  0.378555  0.657782  1
  Er  Er11  1  0.377128  0.378496  0.842140  1
  Er  Er12  1  0.875255  0.121581  0.657172  1
  Er  Er13  1  0.624578  0.877601  0.157106  1
  Er  Er14  1  0.123983  0.621849  0.342522  1
  Er  Er15  1  0.459889  0.600356  0.674670  1
  Er  Er16  1  0.792447  0.749823  0.495271  1
  Er  Er17  1  0.292592  0.749836  0.004872  1
  Er  Er18  1  0.207747  0.250243  0.504950  1
  Lu  Lu19  1  0.707788  0.250080  0.994981  1
  Pb  Pb20  1  0.718087  0.456835  0.967061  1
  Pb  Pb21  1  0.217340  0.042605  0.535178  1
  Pb  Pb22  1  0.283263  0.956998  0.034754  1
  Pb  Pb23  1  0.780673  0.543157  0.466977  1
  Pb  Pb24  1  0.283643  0.543074  0.033799  1
  Pb  Pb25  1  0.783182  0.957059  0.464459  1
  Pb  Pb26  1  0.716596  0.042758  0.964706  1
  Pb  Pb27  1  0.217165  0.457862  0.535131  1
  Pb  Pb28  1  0.429610  0.750130  0.374689  1
  Pb  Pb29  1  0.930156  0.749695  0.125716  1
  Pb  Pb30  1  0.570697  0.250039  0.625973  1
  Pb  Pb31  1  0.069341  0.250047  0.874179  1
  Pb  Pb32  1  0.650994  0.749448  0.843825  1
  Pb  Pb33  1  0.151669  0.749940  0.656014  1
  Pb  Pb34  1  0.348561  0.250106  0.155547  1
  Pb  Pb35  1  0.849038  0.249932  0.343564  1
