# generated using pymatgen
data_Sc2U2Si3Ge3Ru7
_symmetry_space_group_name_H-M   'P 1'
_cell_length_a   7.06856333
_cell_length_b   7.06856330
_cell_length_c   7.08665066
_cell_angle_alpha   109.58202774
_cell_angle_beta   109.58203939
_cell_angle_gamma   109.18018241
_symmetry_Int_Tables_number   1
_chemical_formula_structural   Sc2U2Si3Ge3Ru7
_chemical_formula_sum   'Sc2 U2 Si3 Ge3 Ru7'
_cell_volume   272.80201884
_cell_formula_units_Z   1
loop_
 _symmetry_equiv_pos_site_id
 _symmetry_equiv_pos_as_xyz
  1  'x, y, z'
loop_
 _atom_site_type_symbol
 _atom_site_label
 _atom_site_symmetry_multiplicity
 _atom_site_fract_x
 _atom_site_fract_y
 _atom_site_fract_z
 _atom_site_occupancy
  Sc  Sc0  1  0.999657  0.505865  0.001165  1
  Sc  Sc1  1  0.505865  0.999657  0.001165  1
  U  U2  1  0.999827  0.999827  0.486701  1
  U  U3  1  0.495993  0.495993  0.499110  1
  Si  Si4  1  0.681734  0.681734  0.998274  1
  Si  Si5  1  0.317180  0.991207  0.306150  1
  Si  Si6  1  0.991207  0.317180  0.306150  1
  Ge  Ge7  1  0.304754  0.304754  0.997809  1
  Ge  Ge8  1  0.696629  0.008551  0.702207  1
  Ge  Ge9  1  0.008551  0.696630  0.702207  1
  Ru  Ru10  1  0.748584  0.249329  0.495486  1
  Ru  Ru11  1  0.751456  0.505616  0.253217  1
  Ru  Ru12  1  0.494188  0.249641  0.739296  1
  Ru  Ru13  1  0.249641  0.494188  0.739296  1
  Ru  Ru14  1  0.249329  0.748584  0.495486  1
  Ru  Ru15  1  0.505616  0.751456  0.253217  1
  Ru  Ru16  1  0.999791  0.999791  0.023062  1
