# generated using pymatgen
data_Ta8Cr3ReOs4
_symmetry_space_group_name_H-M   'P 1'
_cell_length_a   6.33144700
_cell_length_b   4.45934700
_cell_length_c   8.95774800
_cell_angle_alpha   90.00000000
_cell_angle_beta   89.99975178
_cell_angle_gamma   90.00000000
_symmetry_Int_Tables_number   1
_chemical_formula_structural   Ta8Cr3ReOs4
_chemical_formula_sum   'Ta8 Cr3 Re1 Os4'
_cell_volume   252.91412466
_cell_formula_units_Z   1
loop_
 _symmetry_equiv_pos_site_id
 _symmetry_equiv_pos_as_xyz
  1  'x, y, z'
loop_
 _atom_site_type_symbol
 _atom_site_label
 _atom_site_symmetry_multiplicity
 _atom_site_fract_x
 _atom_site_fract_y
 _atom_site_fract_z
 _atom_site_occupancy
  Ta  Ta0  1  0.495552  0.749999  0.125029  1
  Ta  Ta1  1  0.004383  0.749999  0.124978  1
  Ta  Ta2  1  0.497595  0.250000  0.378574  1
  Ta  Ta3  1  0.002441  0.250000  0.378579  1
  Ta  Ta4  1  0.999108  0.749999  0.624973  1
  Ta  Ta5  1  0.500918  0.749999  0.624936  1
  Ta  Ta6  1  0.002404  0.250000  0.871475  1
  Ta  Ta7  1  0.497502  0.250000  0.871480  1
  Cr  Cr8  1  0.249679  0.749999  0.374956  1
  Cr  Cr9  1  0.750271  0.250000  0.625220  1
  Cr  Cr10  1  0.250224  0.749999  0.874717  1
  Re  Re11  1  0.750014  0.250000  0.125031  1
  Os  Os12  1  0.249907  0.250000  0.124953  1
  Os  Os13  1  0.750020  0.749999  0.375701  1
  Os  Os14  1  0.249953  0.250000  0.625016  1
  Os  Os15  1  0.750029  0.749999  0.874381  1
