# generated using pymatgen
data_La18DyErGa12
_symmetry_space_group_name_H-M   'P 1'
_cell_length_a   7.93937000
_cell_length_b   7.93937000
_cell_length_c   15.04918200
_cell_angle_alpha   90.00000000
_cell_angle_beta   90.00000000
_cell_angle_gamma   90.00000000
_symmetry_Int_Tables_number   1
_chemical_formula_structural   La18DyErGa12
_chemical_formula_sum   'La18 Dy1 Er1 Ga12'
_cell_volume   948.60405827
_cell_formula_units_Z   1
loop_
 _symmetry_equiv_pos_site_id
 _symmetry_equiv_pos_as_xyz
  1  'x, y, z'
loop_
 _atom_site_type_symbol
 _atom_site_label
 _atom_site_symmetry_multiplicity
 _atom_site_fract_x
 _atom_site_fract_y
 _atom_site_fract_z
 _atom_site_occupancy
  La  La0  1  0.338131  0.311389  0.104485  1
  La  La1  1  0.838188  0.811359  0.895534  1
  La  La2  1  0.840160  0.183476  0.396264  1
  La  La3  1  0.161812  0.188641  0.895534  1
  La  La4  1  0.661869  0.688611  0.104485  1
  La  La5  1  0.000000  0.500000  0.707037  1
  La  La6  1  0.816554  0.840151  0.603710  1
  La  La7  1  0.316524  0.340160  0.396264  1
  La  La8  1  0.188611  0.838131  0.104485  1
  La  La9  1  0.183446  0.159849  0.603710  1
  La  La10  1  0.811389  0.161869  0.104485  1
  La  La11  1  0.340151  0.683446  0.603710  1
  La  La12  1  0.500000  0.000000  0.292955  1
  La  La13  1  0.688641  0.338188  0.895534  1
  La  La14  1  0.659849  0.316554  0.603710  1
  La  La15  1  0.311359  0.661812  0.895534  1
  La  La16  1  0.159840  0.816524  0.396264  1
  La  La17  1  0.683476  0.659840  0.396264  1
  Dy  Dy18  1  0.500000  0.000000  0.774708  1
  Er  Er19  1  0.000000  0.500000  0.225390  1
  Ga  Ga20  1  0.623963  0.383962  0.249038  1
  Ga  Ga21  1  0.876162  0.116057  0.750935  1
  Ga  Ga22  1  0.500000  0.000000  0.499043  1
  Ga  Ga23  1  0.883962  0.876037  0.249038  1
  Ga  Ga24  1  0.000000  0.500000  0.019713  1
  Ga  Ga25  1  0.123838  0.883943  0.750935  1
  Ga  Ga26  1  0.383943  0.376162  0.750935  1
  Ga  Ga27  1  0.116038  0.123963  0.249038  1
  Ga  Ga28  1  0.376037  0.616038  0.249038  1
  Ga  Ga29  1  0.616057  0.623838  0.750935  1
  Ga  Ga30  1  0.500000  0.000000  0.980358  1
  Ga  Ga31  1  0.000000  0.500000  0.500935  1
