# generated using pymatgen
data_LuPa(SiPd)2
_symmetry_space_group_name_H-M   'P 1'
_cell_length_a   4.28450500
_cell_length_b   7.11755174
_cell_length_c   7.52227700
_cell_angle_alpha   89.21105797
_cell_angle_beta   90.00000000
_cell_angle_gamma   90.00000000
_symmetry_Int_Tables_number   1
_chemical_formula_structural   LuPa(SiPd)2
_chemical_formula_sum   'Lu2 Pa2 Si4 Pd4'
_cell_volume   229.37149004
_cell_formula_units_Z   2
loop_
 _symmetry_equiv_pos_site_id
 _symmetry_equiv_pos_as_xyz
  1  'x, y, z'
loop_
 _atom_site_type_symbol
 _atom_site_label
 _atom_site_symmetry_multiplicity
 _atom_site_fract_x
 _atom_site_fract_y
 _atom_site_fract_z
 _atom_site_occupancy
  Lu  Lu0  1  0.250000  0.502354  0.796383  1
  Lu  Lu1  1  0.750000  0.497646  0.203617  1
  Pa  Pa2  1  0.750000  0.000449  0.291740  1
  Pa  Pa3  1  0.250000  0.999551  0.708260  1
  Si  Si4  1  0.750000  0.725890  0.593625  1
  Si  Si5  1  0.250000  0.274110  0.406375  1
  Si  Si6  1  0.250000  0.798485  0.101683  1
  Si  Si7  1  0.750000  0.201515  0.898317  1
  Pd  Pd8  1  0.750000  0.786399  0.924476  1
  Pd  Pd9  1  0.250000  0.213601  0.075524  1
  Pd  Pd10  1  0.250000  0.672268  0.425300  1
  Pd  Pd11  1  0.750000  0.327732  0.574700  1
