# generated using pymatgen
data_DyU4Se5O4
_symmetry_space_group_name_H-M   'P 1'
_cell_length_a   3.91167103
_cell_length_b   3.91166983
_cell_length_c   18.41619369
_cell_angle_alpha   96.09641600
_cell_angle_beta   96.09641583
_cell_angle_gamma   90.00000639
_symmetry_Int_Tables_number   1
_chemical_formula_structural   DyU4Se5O4
_chemical_formula_sum   'Dy1 U4 Se5 O4'
_cell_volume   278.59284434
_cell_formula_units_Z   1
loop_
 _symmetry_equiv_pos_site_id
 _symmetry_equiv_pos_as_xyz
  1  'x, y, z'
loop_
 _atom_site_type_symbol
 _atom_site_label
 _atom_site_symmetry_multiplicity
 _atom_site_fract_x
 _atom_site_fract_y
 _atom_site_fract_z
 _atom_site_occupancy
  Dy  Dy0  1  0.500001  0.500001  0.000000  1
  U  U1  1  0.117543  0.117543  0.235087  1
  U  U2  1  0.688667  0.688667  0.377334  1
  U  U3  1  0.311333  0.311333  0.622666  1
  U  U4  1  0.882457  0.882457  0.764913  1
  Se  Se5  1  0.000000  0.000000  0.000000  1
  Se  Se6  1  0.578915  0.578915  0.157829  1
  Se  Se7  1  0.223451  0.223451  0.446903  1
  Se  Se8  1  0.776549  0.776549  0.553098  1
  Se  Se9  1  0.421086  0.421086  0.842172  1
  O  O10  1  0.651462  0.151462  0.302923  1
  O  O11  1  0.151462  0.651462  0.302923  1
  O  O12  1  0.848539  0.348539  0.697077  1
  O  O13  1  0.348539  0.848539  0.697077  1
