# generated using pymatgen
data_Er2Cr3Ni6P7Ir3
_symmetry_space_group_name_H-M   'P 1'
_cell_length_a   9.22790200
_cell_length_b   9.22790312
_cell_length_c   3.75548600
_cell_angle_alpha   90.00000000
_cell_angle_beta   90.00000000
_cell_angle_gamma   119.99998787
_symmetry_Int_Tables_number   1
_chemical_formula_structural   Er2Cr3Ni6P7Ir3
_chemical_formula_sum   'Er2 Cr3 Ni6 P7 Ir3'
_cell_volume   276.95093268
_cell_formula_units_Z   1
loop_
 _symmetry_equiv_pos_site_id
 _symmetry_equiv_pos_as_xyz
  1  'x, y, z'
loop_
 _atom_site_type_symbol
 _atom_site_label
 _atom_site_symmetry_multiplicity
 _atom_site_fract_x
 _atom_site_fract_y
 _atom_site_fract_z
 _atom_site_occupancy
  Er  Er0  1  0.000000  0.000000  0.000000  1
  Er  Er1  1  0.333333  0.666667  0.500000  1
  Cr  Cr2  1  0.873732  0.420484  0.500000  1
  Cr  Cr3  1  0.546752  0.126268  0.500000  1
  Cr  Cr4  1  0.579516  0.453248  0.500000  1
  Ni  Ni5  1  0.098791  0.397712  0.000000  1
  Ni  Ni6  1  0.298922  0.901209  0.000000  1
  Ni  Ni7  1  0.602288  0.701078  0.000000  1
  Ni  Ni8  1  0.824654  0.610186  0.000000  1
  Ni  Ni9  1  0.785532  0.175346  0.000000  1
  Ni  Ni10  1  0.389814  0.214468  0.000000  1
  P  P11  1  0.078283  0.623871  0.000000  1
  P  P12  1  0.545589  0.921717  0.000000  1
  P  P13  1  0.376129  0.454411  0.000000  1
  P  P14  1  0.777134  0.731525  0.500000  1
  P  P15  1  0.954391  0.222866  0.500000  1
  P  P16  1  0.268475  0.045609  0.500000  1
  P  P17  1  0.666667  0.333333  0.000000  1
  Ir  Ir18  1  0.053223  0.767003  0.500000  1
  Ir  Ir19  1  0.713780  0.946777  0.500000  1
  Ir  Ir20  1  0.232997  0.286220  0.500000  1
