# generated using pymatgen
data_Er2Sc3Tl3InPt2
_symmetry_space_group_name_H-M   'P 1'
_cell_length_a   3.55291600
_cell_length_b   7.93143183
_cell_length_c   17.81028965
_cell_angle_alpha   89.71891831
_cell_angle_beta   90.00000000
_cell_angle_gamma   90.00000000
_symmetry_Int_Tables_number   1
_chemical_formula_structural   Er2Sc3Tl3InPt2
_chemical_formula_sum   'Er4 Sc6 Tl6 In2 Pt4'
_cell_volume   501.88277660
_cell_formula_units_Z   2
loop_
 _symmetry_equiv_pos_site_id
 _symmetry_equiv_pos_as_xyz
  1  'x, y, z'
loop_
 _atom_site_type_symbol
 _atom_site_label
 _atom_site_symmetry_multiplicity
 _atom_site_fract_x
 _atom_site_fract_y
 _atom_site_fract_z
 _atom_site_occupancy
  Er  Er0  1  0.000000  0.244666  0.220618  1
  Er  Er1  1  0.000000  0.755334  0.779382  1
  Er  Er2  1  0.000000  0.256195  0.718520  1
  Er  Er3  1  0.000000  0.743805  0.281480  1
  Sc  Sc4  1  0.000000  0.114712  0.415541  1
  Sc  Sc5  1  0.000000  0.885288  0.584459  1
  Sc  Sc6  1  0.000000  0.386069  0.913520  1
  Sc  Sc7  1  0.000000  0.613931  0.086480  1
  Sc  Sc8  1  0.000000  0.000000  0.000000  1
  Sc  Sc9  1  0.000000  0.500000  0.500000  1
  Tl  Tl10  1  0.500000  0.420273  0.358239  1
  Tl  Tl11  1  0.500000  0.579727  0.641761  1
  Tl  Tl12  1  0.500000  0.081209  0.856311  1
  Tl  Tl13  1  0.500000  0.918791  0.143689  1
  Tl  Tl14  1  0.500000  0.295492  0.058276  1
  Tl  Tl15  1  0.500000  0.704508  0.941724  1
  In  In16  1  0.500000  0.201871  0.558974  1
  In  In17  1  0.500000  0.798129  0.441026  1
  Pt  Pt18  1  0.500000  0.027476  0.308876  1
  Pt  Pt19  1  0.500000  0.972524  0.691124  1
  Pt  Pt20  1  0.500000  0.469599  0.806497  1
  Pt  Pt21  1  0.500000  0.530401  0.193503  1
