# generated using pymatgen
data_Hf18TiZnRe7As
_symmetry_space_group_name_H-M   'P 1'
_cell_length_a   8.62256907
_cell_length_b   8.62256075
_cell_length_c   8.62858600
_cell_angle_alpha   90.00050672
_cell_angle_beta   89.99951513
_cell_angle_gamma   119.99454654
_symmetry_Int_Tables_number   1
_chemical_formula_structural   Hf18TiZnRe7As
_chemical_formula_sum   'Hf18 Ti1 Zn1 Re7 As1'
_cell_volume   555.60618431
_cell_formula_units_Z   1
loop_
 _symmetry_equiv_pos_site_id
 _symmetry_equiv_pos_as_xyz
  1  'x, y, z'
loop_
 _atom_site_type_symbol
 _atom_site_label
 _atom_site_symmetry_multiplicity
 _atom_site_fract_x
 _atom_site_fract_y
 _atom_site_fract_z
 _atom_site_occupancy
  Hf  Hf0  1  0.804758  0.609510  0.549403  1
  Hf  Hf1  1  0.804649  0.195351  0.549264  1
  Hf  Hf2  1  0.390490  0.195243  0.549403  1
  Hf  Hf3  1  0.194481  0.389014  0.453200  1
  Hf  Hf4  1  0.194611  0.805390  0.453298  1
  Hf  Hf5  1  0.610986  0.805518  0.453199  1
  Hf  Hf6  1  0.192475  0.385029  0.047676  1
  Hf  Hf7  1  0.192640  0.807359  0.047602  1
  Hf  Hf8  1  0.614969  0.807524  0.047676  1
  Hf  Hf9  1  0.805653  0.611276  0.949680  1
  Hf  Hf10  1  0.805519  0.194482  0.949768  1
  Hf  Hf11  1  0.388725  0.194347  0.949678  1
  Hf  Hf12  1  0.458508  0.916914  0.751228  1
  Hf  Hf13  1  0.458398  0.541601  0.751238  1
  Hf  Hf14  1  0.083087  0.541492  0.751228  1
  Hf  Hf15  1  0.542208  0.084522  0.249409  1
  Hf  Hf16  1  0.542270  0.457729  0.249406  1
  Hf  Hf17  1  0.915478  0.457792  0.249409  1
  Ti  Ti18  1  0.000005  0.999995  0.500909  1
  Zn  Zn19  1  0.666618  0.333382  0.751191  1
  Re  Re20  1  0.110493  0.221098  0.747623  1
  Re  Re21  1  0.110561  0.889441  0.747636  1
  Re  Re22  1  0.778903  0.889507  0.747624  1
  Re  Re23  1  0.889903  0.779672  0.251782  1
  Re  Re24  1  0.889854  0.110146  0.251776  1
  Re  Re25  1  0.220328  0.110097  0.251781  1
  Re  Re26  1  0.000006  0.999994  0.999543  1
  As  As27  1  0.333428  0.666573  0.248370  1
