# generated using pymatgen
data_Sr4GdPa5O18
_symmetry_space_group_name_H-M   'P 1'
_cell_length_a   6.97242093
_cell_length_b   7.85142997
_cell_length_c   8.80644001
_cell_angle_alpha   101.28880721
_cell_angle_beta   98.12241394
_cell_angle_gamma   107.29993065
_symmetry_Int_Tables_number   1
_chemical_formula_structural   Sr4GdPa5O18
_chemical_formula_sum   'Sr4 Gd1 Pa5 O18'
_cell_volume   441.01484585
_cell_formula_units_Z   1
loop_
 _symmetry_equiv_pos_site_id
 _symmetry_equiv_pos_as_xyz
  1  'x, y, z'
loop_
 _atom_site_type_symbol
 _atom_site_label
 _atom_site_symmetry_multiplicity
 _atom_site_fract_x
 _atom_site_fract_y
 _atom_site_fract_z
 _atom_site_occupancy
  Sr  Sr0  1  0.598385  0.698804  0.196513  1
  Sr  Sr1  1  0.403685  0.302710  0.803668  1
  Sr  Sr2  1  0.202604  0.897717  0.414397  1
  Sr  Sr3  1  0.000157  0.501904  0.999778  1
  Gd  Gd4  1  0.807202  0.115982  0.583069  1
  Pa  Pa5  1  0.996073  0.997375  0.997161  1
  Pa  Pa6  1  0.789834  0.580704  0.585898  1
  Pa  Pa7  1  0.630508  0.198637  0.194306  1
  Pa  Pa8  1  0.372906  0.801110  0.804163  1
  Pa  Pa9  1  0.209698  0.422976  0.414156  1
  O  O10  1  0.820478  0.808098  0.485875  1
  O  O11  1  0.994744  0.238114  0.176749  1
  O  O12  1  0.664928  0.399709  0.072035  1
  O  O13  1  0.477718  0.997608  0.679885  1
  O  O14  1  0.860841  0.343805  0.429846  1
  O  O15  1  0.505629  0.393988  0.353742  1
  O  O16  1  0.251074  0.607847  0.277150  1
  O  O17  1  0.976383  0.825739  0.149693  1
  O  O18  1  0.660208  0.941947  0.997241  1
  O  O19  1  0.334707  0.057845  0.004638  1
  O  O20  1  0.004725  0.161777  0.832203  1
  O  O21  1  0.751111  0.379095  0.714654  1
  O  O22  1  0.495355  0.599513  0.650970  1
  O  O23  1  0.138763  0.655588  0.572339  1
  O  O24  1  0.559500  0.007872  0.329449  1
  O  O25  1  0.335290  0.600045  0.927504  1
  O  O26  1  0.999590  0.755601  0.821181  1
  O  O27  1  0.157907  0.207890  0.531739  1
