# generated using pymatgen
data_DyHo9Sn5Sb
_symmetry_space_group_name_H-M   'P 1'
_cell_length_a   8.94451902
_cell_length_b   8.93469419
_cell_length_c   6.47784100
_cell_angle_alpha   90.00000000
_cell_angle_beta   90.00000000
_cell_angle_gamma   120.02921232
_symmetry_Int_Tables_number   1
_chemical_formula_structural   DyHo9Sn5Sb
_chemical_formula_sum   'Dy1 Ho9 Sn5 Sb1'
_cell_volume   448.19776277
_cell_formula_units_Z   1
loop_
 _symmetry_equiv_pos_site_id
 _symmetry_equiv_pos_as_xyz
  1  'x, y, z'
loop_
 _atom_site_type_symbol
 _atom_site_label
 _atom_site_symmetry_multiplicity
 _atom_site_fract_x
 _atom_site_fract_y
 _atom_site_fract_z
 _atom_site_occupancy
  Dy  Dy0  1  0.998080  0.760142  0.750000  1
  Ho  Ho1  1  0.000667  0.238912  0.250000  1
  Ho  Ho2  1  0.761731  0.761077  0.250000  1
  Ho  Ho3  1  0.761958  0.000012  0.750000  1
  Ho  Ho4  1  0.237941  0.239888  0.750000  1
  Ho  Ho5  1  0.238957  0.000009  0.250000  1
  Ho  Ho6  1  0.333149  0.665696  0.499822  1
  Ho  Ho7  1  0.667441  0.334295  0.000177  1
  Ho  Ho8  1  0.667441  0.334295  0.499823  1
  Ho  Ho9  1  0.333149  0.665696  0.000178  1
  Sn  Sn10  1  0.395541  0.394798  0.250000  1
  Sn  Sn11  1  0.000744  0.605204  0.250000  1
  Sn  Sn12  1  0.999853  0.395447  0.750000  1
  Sn  Sn13  1  0.604318  0.604498  0.750000  1
  Sn  Sn14  1  0.605362  0.000001  0.250000  1
  Sb  Sb15  1  0.393667  0.000031  0.750000  1
