# generated using pymatgen
data_Pr6RhAu7
_symmetry_space_group_name_H-M   'P 1'
_cell_length_a   8.41837675
_cell_length_b   8.41837723
_cell_length_c   8.41837604
_cell_angle_alpha   114.48373940
_cell_angle_beta   114.48374000
_cell_angle_gamma   114.48372146
_symmetry_Int_Tables_number   1
_chemical_formula_structural   Pr6RhAu7
_chemical_formula_sum   'Pr6 Rh1 Au7'
_cell_volume   349.08515851
_cell_formula_units_Z   1
loop_
 _symmetry_equiv_pos_site_id
 _symmetry_equiv_pos_as_xyz
  1  'x, y, z'
loop_
 _atom_site_type_symbol
 _atom_site_label
 _atom_site_symmetry_multiplicity
 _atom_site_fract_x
 _atom_site_fract_y
 _atom_site_fract_z
 _atom_site_occupancy
  Pr  Pr0  1  0.265740  0.385959  0.016329  1
  Pr  Pr1  1  0.016329  0.265740  0.385959  1
  Pr  Pr2  1  0.983671  0.734260  0.614041  1
  Pr  Pr3  1  0.734260  0.614041  0.983671  1
  Pr  Pr4  1  0.385959  0.016329  0.265740  1
  Pr  Pr5  1  0.614041  0.983671  0.734260  1
  Rh  Rh6  1  0.000000  0.000000  0.000000  1
  Au  Au7  1  0.931366  0.433394  0.767656  1
  Au  Au8  1  0.433394  0.767656  0.931366  1
  Au  Au9  1  0.767656  0.931366  0.433394  1
  Au  Au10  1  0.500000  0.500000  0.500000  1
  Au  Au11  1  0.232344  0.068634  0.566606  1
  Au  Au12  1  0.068634  0.566606  0.232344  1
  Au  Au13  1  0.566606  0.232344  0.068634  1
