# generated using pymatgen
data_DyEr2Mg3AgPb2
_symmetry_space_group_name_H-M   'P 1'
_cell_length_a   7.53351168
_cell_length_b   7.53351111
_cell_length_c   4.57442900
_cell_angle_alpha   90.00000000
_cell_angle_beta   90.00000000
_cell_angle_gamma   120.25290099
_symmetry_Int_Tables_number   1
_chemical_formula_structural   DyEr2Mg3AgPb2
_chemical_formula_sum   'Dy1 Er2 Mg3 Ag1 Pb2'
_cell_volume   224.25906956
_cell_formula_units_Z   1
loop_
 _symmetry_equiv_pos_site_id
 _symmetry_equiv_pos_as_xyz
  1  'x, y, z'
loop_
 _atom_site_type_symbol
 _atom_site_label
 _atom_site_symmetry_multiplicity
 _atom_site_fract_x
 _atom_site_fract_y
 _atom_site_fract_z
 _atom_site_occupancy
  Dy  Dy0  1  0.414747  0.414747  0.500000  1
  Er  Er1  1  0.587745  0.000726  0.500000  1
  Er  Er2  1  0.000726  0.587745  0.500000  1
  Mg  Mg3  1  0.765838  0.765838  0.000000  1
  Mg  Mg4  1  0.233271  0.000191  0.000000  1
  Mg  Mg5  1  0.000191  0.233271  0.000000  1
  Ag  Ag6  1  0.996545  0.996545  0.500000  1
  Pb  Pb7  1  0.668117  0.332819  0.000000  1
  Pb  Pb8  1  0.332819  0.668117  0.000000  1
