# generated using pymatgen
data_HoLu3Al4Pt3Rh
_symmetry_space_group_name_H-M   'P 1'
_cell_length_a   4.36085000
_cell_length_b   6.75179489
_cell_length_c   7.77010157
_cell_angle_alpha   90.39994337
_cell_angle_beta   90.00000000
_cell_angle_gamma   90.00000000
_symmetry_Int_Tables_number   1
_chemical_formula_structural   HoLu3Al4Pt3Rh
_chemical_formula_sum   'Ho1 Lu3 Al4 Pt3 Rh1'
_cell_volume   228.77391492
_cell_formula_units_Z   1
loop_
 _symmetry_equiv_pos_site_id
 _symmetry_equiv_pos_as_xyz
  1  'x, y, z'
loop_
 _atom_site_type_symbol
 _atom_site_label
 _atom_site_symmetry_multiplicity
 _atom_site_fract_x
 _atom_site_fract_y
 _atom_site_fract_z
 _atom_site_occupancy
  Ho  Ho0  1  0.250000  0.032961  0.324209  1
  Lu  Lu1  1  0.250000  0.532628  0.176892  1
  Lu  Lu2  1  0.750000  0.468813  0.820058  1
  Lu  Lu3  1  0.750000  0.969401  0.678742  1
  Al  Al4  1  0.250000  0.635365  0.561400  1
  Al  Al5  1  0.750000  0.357614  0.441852  1
  Al  Al6  1  0.750000  0.858777  0.059788  1
  Al  Al7  1  0.250000  0.144736  0.938912  1
  Pt  Pt8  1  0.250000  0.769609  0.877892  1
  Pt  Pt9  1  0.750000  0.237236  0.120678  1
  Pt  Pt10  1  0.750000  0.729574  0.376835  1
  Rh  Rh11  1  0.250000  0.263287  0.622741  1
