# generated using pymatgen
data_Y16Cd4CoIr2Os
_symmetry_space_group_name_H-M   'P 1'
_cell_length_a   9.68110353
_cell_length_b   9.68117568
_cell_length_c   9.64631105
_cell_angle_alpha   59.58418318
_cell_angle_beta   59.58363514
_cell_angle_gamma   59.69903606
_symmetry_Int_Tables_number   1
_chemical_formula_structural   Y16Cd4CoIr2Os
_chemical_formula_sum   'Y16 Cd4 Co1 Ir2 Os1'
_cell_volume   633.80262351
_cell_formula_units_Z   1
loop_
 _symmetry_equiv_pos_site_id
 _symmetry_equiv_pos_as_xyz
  1  'x, y, z'
loop_
 _atom_site_type_symbol
 _atom_site_label
 _atom_site_symmetry_multiplicity
 _atom_site_fract_x
 _atom_site_fract_y
 _atom_site_fract_z
 _atom_site_occupancy
  Y  Y0  1  0.346528  0.346529  0.354445  1
  Y  Y1  1  0.349114  0.349106  0.953492  1
  Y  Y2  1  0.345191  0.957777  0.352503  1
  Y  Y3  1  0.957750  0.345200  0.352512  1
  Y  Y4  1  0.812712  0.189142  0.188292  1
  Y  Y5  1  0.187812  0.815522  0.806522  1
  Y  Y6  1  0.189147  0.812704  0.188304  1
  Y  Y7  1  0.815522  0.187810  0.806519  1
  Y  Y8  1  0.187999  0.187992  0.809017  1
  Y  Y9  1  0.810367  0.810363  0.187898  1
  Y  Y10  1  0.936307  0.563701  0.561686  1
  Y  Y11  1  0.558141  0.938427  0.939031  1
  Y  Y12  1  0.563690  0.936314  0.561681  1
  Y  Y13  1  0.938447  0.558132  0.939034  1
  Y  Y14  1  0.561417  0.561425  0.938214  1
  Y  Y15  1  0.937396  0.937384  0.558732  1
  Cd  Cd16  1  0.579821  0.579826  0.578859  1
  Cd  Cd17  1  0.579935  0.579944  0.259876  1
  Cd  Cd18  1  0.580315  0.259710  0.579387  1
  Cd  Cd19  1  0.259718  0.580316  0.579376  1
  Co  Co20  1  0.142083  0.142084  0.577829  1
  Ir  Ir21  1  0.142715  0.575881  0.142616  1
  Ir  Ir22  1  0.575887  0.142715  0.142620  1
  Os  Os23  1  0.141985  0.141999  0.141554  1
