# generated using pymatgen
data_Er8Si12OsPt3
_symmetry_space_group_name_H-M   'P 1'
_cell_length_a   8.16440300
_cell_length_b   8.16440240
_cell_length_c   7.85813900
_cell_angle_alpha   90.00000000
_cell_angle_beta   90.00000000
_cell_angle_gamma   119.99999838
_symmetry_Int_Tables_number   1
_chemical_formula_structural   Er8Si12OsPt3
_chemical_formula_sum   'Er8 Si12 Os1 Pt3'
_cell_volume   453.62729740
_cell_formula_units_Z   1
loop_
 _symmetry_equiv_pos_site_id
 _symmetry_equiv_pos_as_xyz
  1  'x, y, z'
loop_
 _atom_site_type_symbol
 _atom_site_label
 _atom_site_symmetry_multiplicity
 _atom_site_fract_x
 _atom_site_fract_y
 _atom_site_fract_z
 _atom_site_occupancy
  Er  Er0  1  0.000000  0.000000  0.250789  1
  Er  Er1  1  0.000000  0.000000  0.751336  1
  Er  Er2  1  0.487336  0.512664  0.254082  1
  Er  Er3  1  0.487336  0.974672  0.254082  1
  Er  Er4  1  0.025328  0.512664  0.254082  1
  Er  Er5  1  0.508567  0.491433  0.745151  1
  Er  Er6  1  0.982865  0.491433  0.745151  1
  Er  Er7  1  0.508567  0.017135  0.745151  1
  Si  Si8  1  0.836268  0.163732  0.496810  1
  Si  Si9  1  0.836268  0.672538  0.496810  1
  Si  Si10  1  0.327462  0.163732  0.496810  1
  Si  Si11  1  0.834755  0.165245  0.000232  1
  Si  Si12  1  0.834755  0.669511  0.000232  1
  Si  Si13  1  0.330489  0.165245  0.000232  1
  Si  Si14  1  0.165315  0.834685  0.001136  1
  Si  Si15  1  0.669371  0.834685  0.001136  1
  Si  Si16  1  0.165315  0.330629  0.001136  1
  Si  Si17  1  0.167535  0.832465  0.503099  1
  Si  Si18  1  0.664932  0.832465  0.503099  1
  Si  Si19  1  0.167535  0.335068  0.503099  1
  Os  Os20  1  0.333333  0.666667  0.536096  1
  Pt  Pt21  1  0.666667  0.333333  0.468880  1
  Pt  Pt22  1  0.666667  0.333333  0.032728  1
  Pt  Pt23  1  0.333333  0.666667  0.958644  1
