# generated using pymatgen
data_La3NdB24
_symmetry_space_group_name_H-M   'P 1'
_cell_length_a   4.14845700
_cell_length_b   5.87030100
_cell_length_c   11.74018800
_cell_angle_alpha   90.00000000
_cell_angle_beta   90.00000000
_cell_angle_gamma   90.00000000
_symmetry_Int_Tables_number   1
_chemical_formula_structural   La3NdB24
_chemical_formula_sum   'La3 Nd1 B24'
_cell_volume   285.90517388
_cell_formula_units_Z   1
loop_
 _symmetry_equiv_pos_site_id
 _symmetry_equiv_pos_as_xyz
  1  'x, y, z'
loop_
 _atom_site_type_symbol
 _atom_site_label
 _atom_site_symmetry_multiplicity
 _atom_site_fract_x
 _atom_site_fract_y
 _atom_site_fract_z
 _atom_site_occupancy
  La  La0  1  0.000000  0.500000  0.250350  1
  La  La1  1  0.000000  0.000000  0.500000  1
  La  La2  1  0.000000  0.500000  0.749650  1
  Nd  Nd3  1  0.000000  0.000000  0.000000  1
  B  B4  1  0.199496  0.500000  0.500000  1
  B  B5  1  0.199474  0.000000  0.750097  1
  B  B6  1  0.199638  0.500000  0.000000  1
  B  B7  1  0.199474  0.000000  0.249903  1
  B  B8  1  0.500000  0.650193  0.575014  1
  B  B9  1  0.500000  0.150035  0.825143  1
  B  B10  1  0.500000  0.649931  0.075067  1
  B  B11  1  0.500000  0.150184  0.324888  1
  B  B12  1  0.500000  0.349807  0.575014  1
  B  B13  1  0.500000  0.849965  0.825143  1
  B  B14  1  0.500000  0.350069  0.075067  1
  B  B15  1  0.500000  0.849816  0.324888  1
  B  B16  1  0.500000  0.349807  0.424986  1
  B  B17  1  0.500000  0.849816  0.675112  1
  B  B18  1  0.500000  0.350069  0.924933  1
  B  B19  1  0.500000  0.849965  0.174857  1
  B  B20  1  0.500000  0.650193  0.424986  1
  B  B21  1  0.500000  0.150184  0.675112  1
  B  B22  1  0.500000  0.649931  0.924933  1
  B  B23  1  0.500000  0.150035  0.174857  1
  B  B24  1  0.800504  0.500000  0.500000  1
  B  B25  1  0.800526  0.000000  0.750097  1
  B  B26  1  0.800362  0.500000  0.000000  1
  B  B27  1  0.800526  0.000000  0.249903  1
