# generated using pymatgen
data_DyY2(ErRh6)3
_symmetry_space_group_name_H-M   'P 1'
_cell_length_a   5.25752800
_cell_length_b   5.25752767
_cell_length_c   17.55476700
_cell_angle_alpha   90.00000000
_cell_angle_beta   90.00000000
_cell_angle_gamma   119.99998952
_symmetry_Int_Tables_number   1
_chemical_formula_structural   DyY2(ErRh6)3
_chemical_formula_sum   'Dy1 Y2 Er3 Rh18'
_cell_volume   420.23179474
_cell_formula_units_Z   1
loop_
 _symmetry_equiv_pos_site_id
 _symmetry_equiv_pos_as_xyz
  1  'x, y, z'
loop_
 _atom_site_type_symbol
 _atom_site_label
 _atom_site_symmetry_multiplicity
 _atom_site_fract_x
 _atom_site_fract_y
 _atom_site_fract_z
 _atom_site_occupancy
  Dy  Dy0  1  0.333333  0.666667  0.958572  1
  Y  Y1  1  0.333333  0.666667  0.749865  1
  Y  Y2  1  0.666667  0.333333  0.250027  1
  Er  Er3  1  0.666667  0.333333  0.042126  1
  Er  Er4  1  0.666667  0.333333  0.458126  1
  Er  Er5  1  0.333333  0.666667  0.541780  1
  Rh  Rh6  1  0.167372  0.832628  0.374729  1
  Rh  Rh7  1  0.167372  0.334743  0.374729  1
  Rh  Rh8  1  0.665257  0.832628  0.374729  1
  Rh  Rh9  1  0.832640  0.167360  0.625073  1
  Rh  Rh10  1  0.832640  0.665282  0.625073  1
  Rh  Rh11  1  0.334718  0.167360  0.625073  1
  Rh  Rh12  1  0.832698  0.167302  0.874558  1
  Rh  Rh13  1  0.832698  0.665398  0.874558  1
  Rh  Rh14  1  0.334602  0.167302  0.874558  1
  Rh  Rh15  1  0.167331  0.832669  0.125497  1
  Rh  Rh16  1  0.167331  0.334662  0.125497  1
  Rh  Rh17  1  0.665338  0.832669  0.125497  1
  Rh  Rh18  1  0.333333  0.666667  0.250018  1
  Rh  Rh19  1  0.666667  0.333333  0.749829  1
  Rh  Rh20  1  0.000000  0.000000  0.250094  1
  Rh  Rh21  1  0.000000  0.000000  0.749805  1
  Rh  Rh22  1  0.000000  0.000000  0.499908  1
  Rh  Rh23  1  0.000000  0.000000  0.000281  1
