# generated using pymatgen
data_HfZr4AlSb2
_symmetry_space_group_name_H-M   'P 1'
_cell_length_a   5.54640083
_cell_length_b   8.37693581
_cell_length_c   8.37693593
_cell_angle_alpha   83.70801286
_cell_angle_beta   70.66736478
_cell_angle_gamma   70.66737138
_symmetry_Int_Tables_number   1
_chemical_formula_structural   HfZr4AlSb2
_chemical_formula_sum   'Hf2 Zr8 Al2 Sb4'
_cell_volume   346.55251820
_cell_formula_units_Z   2
loop_
 _symmetry_equiv_pos_site_id
 _symmetry_equiv_pos_as_xyz
  1  'x, y, z'
loop_
 _atom_site_type_symbol
 _atom_site_label
 _atom_site_symmetry_multiplicity
 _atom_site_fract_x
 _atom_site_fract_y
 _atom_site_fract_z
 _atom_site_occupancy
  Hf  Hf0  1  0.250000  0.500000  0.500000  1
  Hf  Hf1  1  0.750000  0.500000  0.500000  1
  Zr  Zr2  1  0.077280  0.138064  0.707375  1
  Zr  Zr3  1  0.922720  0.861936  0.292625  1
  Zr  Zr4  1  0.784655  0.292625  0.138064  1
  Zr  Zr5  1  0.422720  0.292625  0.861936  1
  Zr  Zr6  1  0.215345  0.707375  0.861936  1
  Zr  Zr7  1  0.577280  0.707375  0.138064  1
  Zr  Zr8  1  0.715345  0.861936  0.707375  1
  Zr  Zr9  1  0.284655  0.138064  0.292625  1
  Al  Al10  1  0.250000  0.000000  0.000000  1
  Al  Al11  1  0.750000  0.000000  0.000000  1
  Sb  Sb12  1  0.162095  0.500000  0.175810  1
  Sb  Sb13  1  0.837905  0.500000  0.824190  1
  Sb  Sb14  1  0.337905  0.824190  0.500000  1
  Sb  Sb15  1  0.662095  0.175810  0.500000  1
