# generated using pymatgen
data_FeCo2(TcO4)6
_symmetry_space_group_name_H-M   'P 1'
_cell_length_a   9.88975524
_cell_length_b   9.88975486
_cell_length_c   9.88975574
_cell_angle_alpha   56.79135953
_cell_angle_beta   56.79135720
_cell_angle_gamma   56.79135509
_symmetry_Int_Tables_number   1
_chemical_formula_structural   FeCo2(TcO4)6
_chemical_formula_sum   'Fe1 Co2 Tc6 O24'
_cell_volume   633.32210327
_cell_formula_units_Z   1
loop_
 _symmetry_equiv_pos_site_id
 _symmetry_equiv_pos_as_xyz
  1  'x, y, z'
loop_
 _atom_site_type_symbol
 _atom_site_label
 _atom_site_symmetry_multiplicity
 _atom_site_fract_x
 _atom_site_fract_y
 _atom_site_fract_z
 _atom_site_occupancy
  Fe  Fe0  1  0.853627  0.853627  0.853627  1
  Co  Co1  1  0.357484  0.357484  0.357484  1
  Co  Co2  1  0.641565  0.641565  0.641565  1
  Tc  Tc3  1  0.476737  0.734216  0.036032  1
  Tc  Tc4  1  0.734216  0.036032  0.476737  1
  Tc  Tc5  1  0.036032  0.476737  0.734216  1
  Tc  Tc6  1  0.962805  0.537841  0.253425  1
  Tc  Tc7  1  0.253425  0.962805  0.537841  1
  Tc  Tc8  1  0.537841  0.253425  0.962805  1
  O  O9  1  0.495898  0.291323  0.138531  1
  O  O10  1  0.138531  0.495898  0.291323  1
  O  O11  1  0.327163  0.938551  0.011269  1
  O  O12  1  0.291323  0.138531  0.495898  1
  O  O13  1  0.667844  0.729212  0.014892  1
  O  O14  1  0.395292  0.587623  0.237663  1
  O  O15  1  0.587623  0.237663  0.395292  1
  O  O16  1  0.938551  0.011269  0.327163  1
  O  O17  1  0.237663  0.395292  0.587623  1
  O  O18  1  0.971319  0.685610  0.043167  1
  O  O19  1  0.968648  0.348437  0.281510  1
  O  O20  1  0.281510  0.968648  0.348437  1
  O  O21  1  0.729212  0.014892  0.667844  1
  O  O22  1  0.014892  0.667844  0.729212  1
  O  O23  1  0.011269  0.327163  0.938551  1
  O  O24  1  0.767963  0.623910  0.402027  1
  O  O25  1  0.043167  0.971319  0.685610  1
  O  O26  1  0.402027  0.767963  0.623910  1
  O  O27  1  0.623910  0.402027  0.767963  1
  O  O28  1  0.348437  0.281510  0.968648  1
  O  O29  1  0.672978  0.875607  0.522193  1
  O  O30  1  0.685610  0.043167  0.971319  1
  O  O31  1  0.875607  0.522193  0.672978  1
  O  O32  1  0.522193  0.672978  0.875607  1
