# generated using pymatgen
data_DyY2In3Ni2Ag
_symmetry_space_group_name_H-M   'P 1'
_cell_length_a   7.72855040
_cell_length_b   7.73859429
_cell_length_c   3.73079000
_cell_angle_alpha   90.00000000
_cell_angle_beta   90.00000000
_cell_angle_gamma   119.99368787
_symmetry_Int_Tables_number   1
_chemical_formula_structural   DyY2In3Ni2Ag
_chemical_formula_sum   'Dy1 Y2 In3 Ni2 Ag1'
_cell_volume   193.24985521
_cell_formula_units_Z   1
loop_
 _symmetry_equiv_pos_site_id
 _symmetry_equiv_pos_as_xyz
  1  'x, y, z'
loop_
 _atom_site_type_symbol
 _atom_site_label
 _atom_site_symmetry_multiplicity
 _atom_site_fract_x
 _atom_site_fract_y
 _atom_site_fract_z
 _atom_site_occupancy
  Dy  Dy0  1  0.026245  0.606046  0.500000  1
  Y  Y1  1  0.580651  0.974614  0.500000  1
  Y  Y2  1  0.394126  0.419472  0.500000  1
  In  In3  1  0.995748  0.250006  0.000000  1
  In  In4  1  0.254123  0.004184  0.000000  1
  In  In5  1  0.750109  0.745779  0.000000  1
  Ni  Ni6  1  0.999895  0.999415  0.500000  1
  Ni  Ni7  1  0.331618  0.666530  0.000000  1
  Ag  Ag8  1  0.667486  0.333955  0.000000  1
