# generated using pymatgen
data_Tb3Tm7(SiPb3)2
_symmetry_space_group_name_H-M   'P 1'
_cell_length_a   9.26651600
_cell_length_b   9.26651577
_cell_length_c   6.46948300
_cell_angle_alpha   90.00000000
_cell_angle_beta   90.00000000
_cell_angle_gamma   120.00000081
_symmetry_Int_Tables_number   1
_chemical_formula_structural   Tb3Tm7(SiPb3)2
_chemical_formula_sum   'Tb3 Tm7 Si2 Pb6'
_cell_volume   481.09755913
_cell_formula_units_Z   1
loop_
 _symmetry_equiv_pos_site_id
 _symmetry_equiv_pos_as_xyz
  1  'x, y, z'
loop_
 _atom_site_type_symbol
 _atom_site_label
 _atom_site_symmetry_multiplicity
 _atom_site_fract_x
 _atom_site_fract_y
 _atom_site_fract_z
 _atom_site_occupancy
  Tb  Tb0  1  0.754693  0.754693  0.250000  1
  Tb  Tb1  1  0.245307  0.000000  0.250000  1
  Tb  Tb2  1  0.000000  0.245307  0.250000  1
  Tm  Tm3  1  0.666667  0.333333  0.500370  1
  Tm  Tm4  1  0.333333  0.666667  0.500370  1
  Tm  Tm5  1  0.333333  0.666667  0.999630  1
  Tm  Tm6  1  0.666667  0.333333  0.999630  1
  Tm  Tm7  1  0.254105  0.254105  0.750000  1
  Tm  Tm8  1  0.745895  0.000000  0.750000  1
  Tm  Tm9  1  0.000000  0.745895  0.750000  1
  Si  Si10  1  0.000000  0.000000  0.518798  1
  Si  Si11  1  0.000000  0.000000  0.981202  1
  Pb  Pb12  1  0.394933  0.394933  0.250000  1
  Pb  Pb13  1  0.605067  0.000000  0.250000  1
  Pb  Pb14  1  0.000000  0.605067  0.250000  1
  Pb  Pb15  1  0.607918  0.607918  0.750000  1
  Pb  Pb16  1  0.392082  0.000000  0.750000  1
  Pb  Pb17  1  0.000000  0.392082  0.750000  1
