# generated using pymatgen
data_HoBiSb4O13
_symmetry_space_group_name_H-M   'P 1'
_cell_length_a   7.43142700
_cell_length_b   7.34026665
_cell_length_c   10.35322323
_cell_angle_alpha   88.97139414
_cell_angle_beta   90.00000000
_cell_angle_gamma   90.00000000
_symmetry_Int_Tables_number   1
_chemical_formula_structural   HoBiSb4O13
_chemical_formula_sum   'Ho2 Bi2 Sb8 O26'
_cell_volume   564.66340368
_cell_formula_units_Z   2
loop_
 _symmetry_equiv_pos_site_id
 _symmetry_equiv_pos_as_xyz
  1  'x, y, z'
loop_
 _atom_site_type_symbol
 _atom_site_label
 _atom_site_symmetry_multiplicity
 _atom_site_fract_x
 _atom_site_fract_y
 _atom_site_fract_z
 _atom_site_occupancy
  Ho  Ho0  1  0.500000  0.500000  0.000000  1
  Ho  Ho1  1  0.000000  0.500000  0.000000  1
  Bi  Bi2  1  0.250000  0.743663  0.736761  1
  Bi  Bi3  1  0.750000  0.256337  0.263239  1
  Sb  Sb4  1  0.500000  0.000000  0.000000  1
  Sb  Sb5  1  0.750000  0.755971  0.747218  1
  Sb  Sb6  1  0.250000  0.747062  0.252463  1
  Sb  Sb7  1  0.500000  0.500000  0.500000  1
  Sb  Sb8  1  0.000000  0.500000  0.500000  1
  Sb  Sb9  1  0.750000  0.252938  0.747537  1
  Sb  Sb10  1  0.250000  0.244029  0.252782  1
  Sb  Sb11  1  0.000000  0.000000  0.000000  1
  O  O12  1  0.448579  0.690922  0.371500  1
  O  O13  1  0.750000  0.461561  0.119009  1
  O  O14  1  0.250000  0.493333  0.161571  1
  O  O15  1  0.453522  0.306538  0.367427  1
  O  O16  1  0.557841  0.214762  0.885613  1
  O  O17  1  0.942159  0.214762  0.885613  1
  O  O18  1  0.448786  0.206723  0.121588  1
  O  O19  1  0.750000  0.001779  0.075384  1
  O  O20  1  0.250000  0.998221  0.924616  1
  O  O21  1  0.750000  0.003770  0.685535  1
  O  O22  1  0.551214  0.793277  0.878412  1
  O  O23  1  0.948786  0.793277  0.878412  1
  O  O24  1  0.442159  0.785238  0.114387  1
  O  O25  1  0.051421  0.690922  0.371500  1
  O  O26  1  0.546478  0.693462  0.632573  1
  O  O27  1  0.953522  0.693462  0.632573  1
  O  O28  1  0.250000  0.514763  0.576720  1
  O  O29  1  0.750000  0.506667  0.838429  1
  O  O30  1  0.750000  0.485237  0.423280  1
  O  O31  1  0.046478  0.306538  0.367427  1
  O  O32  1  0.551421  0.309078  0.628500  1
  O  O33  1  0.948579  0.309078  0.628500  1
  O  O34  1  0.051214  0.206723  0.121588  1
  O  O35  1  0.250000  0.996230  0.314465  1
  O  O36  1  0.057841  0.785238  0.114387  1
  O  O37  1  0.250000  0.538439  0.880991  1
