# generated using pymatgen
data_Sr9(CoO3)7
_symmetry_space_group_name_H-M   'P 1'
_cell_length_a   13.23519216
_cell_length_b   13.23519217
_cell_length_c   13.23519200
_cell_angle_alpha   42.20770209
_cell_angle_beta   42.20770204
_cell_angle_gamma   42.20770351
_symmetry_Int_Tables_number   1
_chemical_formula_structural   Sr9(CoO3)7
_chemical_formula_sum   'Sr18 Co14 O42'
_cell_volume   946.93512223
_cell_formula_units_Z   2
loop_
 _symmetry_equiv_pos_site_id
 _symmetry_equiv_pos_as_xyz
  1  'x, y, z'
loop_
 _atom_site_type_symbol
 _atom_site_label
 _atom_site_symmetry_multiplicity
 _atom_site_fract_x
 _atom_site_fract_y
 _atom_site_fract_z
 _atom_site_occupancy
  Sr  Sr0  1  0.721927  0.998691  0.362257  1
  Sr  Sr1  1  0.922518  0.250000  0.577482  1
  Sr  Sr2  1  0.778073  0.137743  0.501309  1
  Sr  Sr3  1  0.862257  0.498691  0.221927  1
  Sr  Sr4  1  0.001309  0.637743  0.278073  1
  Sr  Sr5  1  0.422517  0.077482  0.750000  1
  Sr  Sr6  1  0.637743  0.278073  0.001309  1
  Sr  Sr7  1  0.750000  0.422517  0.077482  1
  Sr  Sr8  1  0.498691  0.221927  0.862257  1
  Sr  Sr9  1  0.501309  0.778073  0.137743  1
  Sr  Sr10  1  0.250000  0.577482  0.922518  1
  Sr  Sr11  1  0.362257  0.721927  0.998691  1
  Sr  Sr12  1  0.577482  0.922518  0.250000  1
  Sr  Sr13  1  0.137743  0.501309  0.778073  1
  Sr  Sr14  1  0.998691  0.362257  0.721927  1
  Sr  Sr15  1  0.221927  0.862257  0.498691  1
  Sr  Sr16  1  0.077482  0.750000  0.422518  1
  Sr  Sr17  1  0.278073  0.001309  0.637743  1
  Co  Co18  1  0.000000  0.000000  0.000000  1
  Co  Co19  1  0.069434  0.069434  0.069434  1
  Co  Co20  1  0.216183  0.216183  0.216183  1
  Co  Co21  1  0.283817  0.283817  0.283817  1
  Co  Co22  1  0.142122  0.142122  0.142122  1
  Co  Co23  1  0.357878  0.357878  0.357878  1
  Co  Co24  1  0.430566  0.430566  0.430566  1
  Co  Co25  1  0.569434  0.569434  0.569434  1
  Co  Co26  1  0.642122  0.642122  0.642122  1
  Co  Co27  1  0.500000  0.500000  0.500000  1
  Co  Co28  1  0.783817  0.783817  0.783817  1
  Co  Co29  1  0.857878  0.857878  0.857878  1
  Co  Co30  1  0.930566  0.930566  0.930566  1
  Co  Co31  1  0.716183  0.716183  0.716183  1
  O  O32  1  0.470186  0.157867  0.325090  1
  O  O33  1  0.342133  0.029814  0.174910  1
  O  O34  1  0.250000  0.095224  0.404776  1
  O  O35  1  0.404776  0.250000  0.095224  1
  O  O36  1  0.325090  0.470186  0.157867  1
  O  O37  1  0.029814  0.174910  0.342133  1
  O  O38  1  0.954554  0.089291  0.260019  1
  O  O39  1  0.951805  0.128516  0.817385  1
  O  O40  1  0.174910  0.342133  0.029814  1
  O  O41  1  0.157867  0.325090  0.470186  1
  O  O42  1  0.739981  0.045446  0.910709  1
  O  O43  1  0.871484  0.182615  0.048195  1
  O  O44  1  0.095224  0.404776  0.250000  1
  O  O45  1  0.682615  0.371484  0.548195  1
  O  O46  1  0.545446  0.239981  0.410709  1
  O  O47  1  0.628516  0.451805  0.317385  1
  O  O48  1  0.760019  0.589291  0.454554  1
  O  O49  1  0.910709  0.739981  0.045446  1
  O  O50  1  0.589291  0.454554  0.760019  1
  O  O51  1  0.182615  0.048195  0.871484  1
  O  O52  1  0.451805  0.317385  0.628516  1
  O  O53  1  0.548195  0.682615  0.371484  1
  O  O54  1  0.817385  0.951805  0.128516  1
  O  O55  1  0.410709  0.545446  0.239981  1
  O  O56  1  0.089291  0.260019  0.954554  1
  O  O57  1  0.239981  0.410709  0.545446  1
  O  O58  1  0.371484  0.548195  0.682615  1
  O  O59  1  0.454554  0.760019  0.589291  1
  O  O60  1  0.317385  0.628516  0.451805  1
  O  O61  1  0.904776  0.595224  0.750000  1
  O  O62  1  0.128516  0.817385  0.951805  1
  O  O63  1  0.260019  0.954554  0.089291  1
  O  O64  1  0.825090  0.657867  0.970186  1
  O  O65  1  0.842133  0.674910  0.529814  1
  O  O66  1  0.048195  0.871484  0.182615  1
  O  O67  1  0.045446  0.910709  0.739981  1
  O  O68  1  0.970186  0.825090  0.657867  1
  O  O69  1  0.674910  0.529814  0.842133  1
  O  O70  1  0.750000  0.904776  0.595224  1
  O  O71  1  0.595224  0.750000  0.904776  1
  O  O72  1  0.529814  0.842133  0.674910  1
  O  O73  1  0.657867  0.970186  0.825090  1
