# generated using pymatgen
data_TbTh(Al5Tc)4
_symmetry_space_group_name_H-M   'P 1'
_cell_length_a   6.92506333
_cell_length_b   6.92506439
_cell_length_c   9.21851700
_cell_angle_alpha   90.00000000
_cell_angle_beta   90.00000000
_cell_angle_gamma   97.06548570
_symmetry_Int_Tables_number   1
_chemical_formula_structural   TbTh(Al5Tc)4
_chemical_formula_sum   'Tb1 Th1 Al20 Tc4'
_cell_volume   438.73077631
_cell_formula_units_Z   1
loop_
 _symmetry_equiv_pos_site_id
 _symmetry_equiv_pos_as_xyz
  1  'x, y, z'
loop_
 _atom_site_type_symbol
 _atom_site_label
 _atom_site_symmetry_multiplicity
 _atom_site_fract_x
 _atom_site_fract_y
 _atom_site_fract_z
 _atom_site_occupancy
  Tb  Tb0  1  0.126538  0.873462  0.250000  1
  Th  Th1  1  0.872918  0.127082  0.750000  1
  Al  Al2  1  0.621918  0.378082  0.544581  1
  Al  Al3  1  0.376506  0.623494  0.457529  1
  Al  Al4  1  0.376506  0.623494  0.042471  1
  Al  Al5  1  0.621918  0.378082  0.955419  1
  Al  Al6  1  0.228080  0.226187  0.497583  1
  Al  Al7  1  0.773813  0.771920  0.497583  1
  Al  Al8  1  0.773813  0.771920  0.002417  1
  Al  Al9  1  0.228080  0.226187  0.002417  1
  Al  Al10  1  0.844265  0.155735  0.099627  1
  Al  Al11  1  0.156535  0.843465  0.902809  1
  Al  Al12  1  0.156535  0.843465  0.597191  1
  Al  Al13  1  0.844265  0.155735  0.400373  1
  Al  Al14  1  0.863337  0.595209  0.750000  1
  Al  Al15  1  0.137191  0.408889  0.250000  1
  Al  Al16  1  0.404791  0.136663  0.750000  1
  Al  Al17  1  0.591111  0.862809  0.250000  1
  Al  Al18  1  0.220023  0.479217  0.750000  1
  Al  Al19  1  0.784704  0.527205  0.250000  1
  Al  Al20  1  0.520783  0.779977  0.750000  1
  Al  Al21  1  0.472795  0.215296  0.250000  1
  Tc  Tc22  1  0.999815  0.498028  0.500200  1
  Tc  Tc23  1  0.999815  0.498028  0.999800  1
  Tc  Tc24  1  0.501972  0.000185  0.999800  1
  Tc  Tc25  1  0.501972  0.000185  0.500200  1
