# generated using pymatgen
data_CePa3(B4Mo)4
_symmetry_space_group_name_H-M   'P 1'
_cell_length_a   3.72255400
_cell_length_b   5.99652601
_cell_length_c   11.62531902
_cell_angle_alpha   90.00681730
_cell_angle_beta   90.00000000
_cell_angle_gamma   90.00000000
_symmetry_Int_Tables_number   1
_chemical_formula_structural   CePa3(B4Mo)4
_chemical_formula_sum   'Ce1 Pa3 B16 Mo4'
_cell_volume   259.50492515
_cell_formula_units_Z   1
loop_
 _symmetry_equiv_pos_site_id
 _symmetry_equiv_pos_as_xyz
  1  'x, y, z'
loop_
 _atom_site_type_symbol
 _atom_site_label
 _atom_site_symmetry_multiplicity
 _atom_site_fract_x
 _atom_site_fract_y
 _atom_site_fract_z
 _atom_site_occupancy
  Ce  Ce0  1  0.000000  0.126814  0.650647  1
  Pa  Pa1  1  0.000000  0.873335  0.349803  1
  Pa  Pa2  1  0.000000  0.627051  0.849002  1
  Pa  Pa3  1  0.000000  0.373022  0.150293  1
  B  B4  1  0.500000  0.477961  0.692834  1
  B  B5  1  0.500000  0.524915  0.307190  1
  B  B6  1  0.500000  0.973330  0.808501  1
  B  B7  1  0.500000  0.025264  0.192599  1
  B  B8  1  0.500000  0.290260  0.814716  1
  B  B9  1  0.500000  0.710350  0.186583  1
  B  B10  1  0.500000  0.786357  0.686929  1
  B  B11  1  0.500000  0.210272  0.313451  1
  B  B12  1  0.500000  0.365983  0.968657  1
  B  B13  1  0.500000  0.634521  0.031826  1
  B  B14  1  0.500000  0.864292  0.530846  1
  B  B15  1  0.500000  0.134833  0.467021  1
  B  B16  1  0.500000  0.387527  0.545924  1
  B  B17  1  0.500000  0.613466  0.453096  1
  B  B18  1  0.500000  0.886591  0.953679  1
  B  B19  1  0.500000  0.113108  0.046486  1
  Mo  Mo20  1  0.000000  0.134297  0.911324  1
  Mo  Mo21  1  0.000000  0.865985  0.090332  1
  Mo  Mo22  1  0.000000  0.632272  0.588411  1
  Mo  Mo23  1  0.000000  0.368197  0.409847  1
