# generated using pymatgen
data_Y2ZnGa7Ni2
_symmetry_space_group_name_H-M   'P 1'
_cell_length_a   7.94725194
_cell_length_b   7.94725144
_cell_length_c   6.47957223
_cell_angle_alpha   90.71033855
_cell_angle_beta   89.28966369
_cell_angle_gamma   149.80912980
_symmetry_Int_Tables_number   1
_chemical_formula_structural   Y2ZnGa7Ni2
_chemical_formula_sum   'Y2 Zn1 Ga7 Ni2'
_cell_volume   205.78359385
_cell_formula_units_Z   1
loop_
 _symmetry_equiv_pos_site_id
 _symmetry_equiv_pos_as_xyz
  1  'x, y, z'
loop_
 _atom_site_type_symbol
 _atom_site_label
 _atom_site_symmetry_multiplicity
 _atom_site_fract_x
 _atom_site_fract_y
 _atom_site_fract_z
 _atom_site_occupancy
  Y  Y0  1  0.380169  0.619831  0.744504  1
  Y  Y1  1  0.619831  0.380169  0.255496  1
  Zn  Zn2  1  0.000000  0.000000  0.000000  1
  Ga  Ga3  1  0.000000  0.000000  0.500000  1
  Ga  Ga4  1  0.570007  0.429993  0.755697  1
  Ga  Ga5  1  0.429993  0.570007  0.244303  1
  Ga  Ga6  1  0.183448  0.816552  0.953686  1
  Ga  Ga7  1  0.816552  0.183448  0.046314  1
  Ga  Ga8  1  0.185368  0.814632  0.552529  1
  Ga  Ga9  1  0.814632  0.185368  0.447471  1
  Ni  Ni10  1  0.722674  0.277326  0.749684  1
  Ni  Ni11  1  0.277326  0.722674  0.250316  1
