# generated using pymatgen
data_La3Yb3(Si3Ru)8
_symmetry_space_group_name_H-M   'P 1'
_cell_length_a   8.17833319
_cell_length_b   8.18102180
_cell_length_c   10.14758800
_cell_angle_alpha   90.03477938
_cell_angle_beta   113.76393394
_cell_angle_gamma   90.00000299
_symmetry_Int_Tables_number   1
_chemical_formula_structural   La3Yb3(Si3Ru)8
_chemical_formula_sum   'La3 Yb3 Si24 Ru8'
_cell_volume   621.38033015
_cell_formula_units_Z   1
loop_
 _symmetry_equiv_pos_site_id
 _symmetry_equiv_pos_as_xyz
  1  'x, y, z'
loop_
 _atom_site_type_symbol
 _atom_site_label
 _atom_site_symmetry_multiplicity
 _atom_site_fract_x
 _atom_site_fract_y
 _atom_site_fract_z
 _atom_site_occupancy
  La  La0  1  0.497630  0.250000  0.500000  1
  La  La1  1  0.997982  0.250000  0.500000  1
  La  La2  1  0.002199  0.750000  0.500000  1
  Yb  Yb3  1  0.000010  0.999645  0.999976  1
  Yb  Yb4  1  0.500034  0.500355  0.000024  1
  Yb  Yb5  1  0.501552  0.750000  0.500000  1
  Si  Si6  1  0.666819  0.167827  0.997659  1
  Si  Si7  1  0.169158  0.332174  0.002341  1
  Si  Si8  1  0.833153  0.667673  0.001327  1
  Si  Si9  1  0.331825  0.832328  0.998673  1
  Si  Si10  1  0.384385  0.003827  0.229754  1
  Si  Si11  1  0.885085  0.493761  0.230607  1
  Si  Si12  1  0.346332  0.508237  0.230832  1
  Si  Si13  1  0.844668  0.993980  0.230138  1
  Si  Si14  1  0.608975  0.229677  0.230042  1
  Si  Si15  1  0.108910  0.269945  0.230610  1
  Si  Si16  1  0.123905  0.731048  0.230579  1
  Si  Si17  1  0.619064  0.769815  0.229874  1
  Si  Si18  1  0.698839  0.995942  0.406032  1
  Si  Si19  1  0.206868  0.503849  0.406301  1
  Si  Si20  1  0.300566  0.996151  0.593699  1
  Si  Si21  1  0.792808  0.504058  0.593968  1
  Si  Si22  1  0.378300  0.230055  0.769390  1
  Si  Si23  1  0.878932  0.270323  0.769958  1
  Si  Si24  1  0.889190  0.730184  0.770126  1
  Si  Si25  1  0.393325  0.768951  0.769421  1
  Si  Si26  1  0.154478  0.006239  0.769392  1
  Si  Si27  1  0.654632  0.496173  0.770245  1
  Si  Si28  1  0.114530  0.506021  0.769861  1
  Si  Si29  1  0.615498  0.991764  0.769167  1
  Ru  Ru30  1  0.374886  0.125326  0.999560  1
  Ru  Ru31  1  0.875326  0.374674  0.000440  1
  Ru  Ru32  1  0.125550  0.625046  0.000120  1
  Ru  Ru33  1  0.625429  0.874954  0.999880  1
  Ru  Ru34  1  0.170164  0.999329  0.339062  1
  Ru  Ru35  1  0.668719  0.501156  0.339555  1
  Ru  Ru36  1  0.829165  0.998844  0.660445  1
  Ru  Ru37  1  0.331103  0.500671  0.660938  1
