# generated using pymatgen
data_Sm8Pd15Pt9W
_symmetry_space_group_name_H-M   'P 1'
_cell_length_a   8.48015700
_cell_length_b   8.44166100
_cell_length_c   8.46247400
_cell_angle_alpha   90.00000000
_cell_angle_beta   90.00000000
_cell_angle_gamma   90.00000000
_symmetry_Int_Tables_number   1
_chemical_formula_structural   Sm8Pd15Pt9W
_chemical_formula_sum   'Sm8 Pd15 Pt9 W1'
_cell_volume   605.79983113
_cell_formula_units_Z   1
loop_
 _symmetry_equiv_pos_site_id
 _symmetry_equiv_pos_as_xyz
  1  'x, y, z'
loop_
 _atom_site_type_symbol
 _atom_site_label
 _atom_site_symmetry_multiplicity
 _atom_site_fract_x
 _atom_site_fract_y
 _atom_site_fract_z
 _atom_site_occupancy
  Sm  Sm0  1  0.249906  0.250520  0.250379  1
  Sm  Sm1  1  0.749677  0.749591  0.749973  1
  Sm  Sm2  1  0.749677  0.749591  0.250027  1
  Sm  Sm3  1  0.750094  0.250520  0.749621  1
  Sm  Sm4  1  0.249906  0.250520  0.749621  1
  Sm  Sm5  1  0.250323  0.749591  0.250027  1
  Sm  Sm6  1  0.250323  0.749591  0.749973  1
  Sm  Sm7  1  0.750094  0.250520  0.250379  1
  Pd  Pd8  1  0.500000  0.263809  0.000000  1
  Pd  Pd9  1  0.000000  0.736250  0.500000  1
  Pd  Pd10  1  0.500000  0.736483  0.000000  1
  Pd  Pd11  1  0.500000  0.999983  0.263678  1
  Pd  Pd12  1  0.264468  0.999722  0.500000  1
  Pd  Pd13  1  0.500000  0.999983  0.736322  1
  Pd  Pd14  1  0.735532  0.999722  0.500000  1
  Pd  Pd15  1  0.000000  0.500282  0.264937  1
  Pd  Pd16  1  0.000000  0.500282  0.735063  1
  Pd  Pd17  1  0.254749  0.499859  0.500000  1
  Pd  Pd18  1  0.745251  0.499859  0.500000  1
  Pd  Pd19  1  0.500000  0.254436  0.500000  1
  Pd  Pd20  1  0.500000  0.745398  0.500000  1
  Pd  Pd21  1  0.500000  0.500012  0.254448  1
  Pd  Pd22  1  0.500000  0.500012  0.745552  1
  Pt  Pt23  1  0.263524  0.499945  0.000000  1
  Pt  Pt24  1  0.736476  0.499945  0.000000  1
  Pt  Pt25  1  0.000000  0.263173  0.500000  1
  Pt  Pt26  1  0.301728  0.000106  0.000000  1
  Pt  Pt27  1  0.698272  0.000106  0.000000  1
  Pt  Pt28  1  0.000000  0.302508  0.000000  1
  Pt  Pt29  1  0.000000  0.698017  0.000000  1
  Pt  Pt30  1  0.000000  0.999770  0.301840  1
  Pt  Pt31  1  0.000000  0.999770  0.698160  1
  W  W32  1  0.000000  0.000125  0.000000  1
