# generated using pymatgen
data_Yb4Pr16AlSn11
_symmetry_space_group_name_H-M   'P 1'
_cell_length_a   8.29660936
_cell_length_b   8.29660963
_cell_length_c   14.63365000
_cell_angle_alpha   89.98305976
_cell_angle_beta   90.01694024
_cell_angle_gamma   90.31107019
_symmetry_Int_Tables_number   1
_chemical_formula_structural   Yb4Pr16AlSn11
_chemical_formula_sum   'Yb4 Pr16 Al1 Sn11'
_cell_volume   1007.27376785
_cell_formula_units_Z   1
loop_
 _symmetry_equiv_pos_site_id
 _symmetry_equiv_pos_as_xyz
  1  'x, y, z'
loop_
 _atom_site_type_symbol
 _atom_site_label
 _atom_site_symmetry_multiplicity
 _atom_site_fract_x
 _atom_site_fract_y
 _atom_site_fract_z
 _atom_site_occupancy
  Yb  Yb0  1  0.999900  0.500069  0.746734  1
  Yb  Yb1  1  0.000201  0.498595  0.246709  1
  Yb  Yb2  1  0.498595  0.000201  0.253291  1
  Yb  Yb3  1  0.500069  0.999900  0.753266  1
  Pr  Pr4  1  0.828584  0.831197  0.601201  1
  Pr  Pr5  1  0.170615  0.837458  0.101936  1
  Pr  Pr6  1  0.168389  0.834995  0.398140  1
  Pr  Pr7  1  0.837458  0.170615  0.398064  1
  Pr  Pr8  1  0.672193  0.669835  0.397774  1
  Pr  Pr9  1  0.667140  0.329030  0.600164  1
  Pr  Pr10  1  0.331081  0.669513  0.600259  1
  Pr  Pr11  1  0.669835  0.672193  0.102226  1
  Pr  Pr12  1  0.669513  0.331081  0.899741  1
  Pr  Pr13  1  0.831197  0.828584  0.898799  1
  Pr  Pr14  1  0.322283  0.324881  0.394603  1
  Pr  Pr15  1  0.171935  0.169530  0.600518  1
  Pr  Pr16  1  0.834995  0.168389  0.101860  1
  Pr  Pr17  1  0.329030  0.667140  0.899836  1
  Pr  Pr18  1  0.324881  0.322283  0.105397  1
  Pr  Pr19  1  0.169530  0.171935  0.899482  1
  Al  Al20  1  0.121740  0.121740  0.250000  1
  Sn  Sn21  1  0.628754  0.371312  0.250024  1
  Sn  Sn22  1  0.129794  0.870854  0.750022  1
  Sn  Sn23  1  0.371607  0.371607  0.750000  1
  Sn  Sn24  1  0.371312  0.628754  0.249976  1
  Sn  Sn25  1  0.877443  0.877443  0.250000  1
  Sn  Sn26  1  0.628650  0.628650  0.750000  1
  Sn  Sn27  1  0.999825  0.501373  0.500650  1
  Sn  Sn28  1  0.870854  0.129794  0.749978  1
  Sn  Sn29  1  0.501495  0.999728  0.498725  1
  Sn  Sn30  1  0.501373  0.999825  0.999350  1
  Sn  Sn31  1  0.999728  0.501495  0.001275  1
