# generated using pymatgen
data_Tb2Y14CdHg3Pt4
_symmetry_space_group_name_H-M   'P 1'
_cell_length_a   9.70547263
_cell_length_b   9.71233900
_cell_length_c   9.70008600
_cell_angle_alpha   60.04172433
_cell_angle_beta   60.01835788
_cell_angle_gamma   60.07520518
_symmetry_Int_Tables_number   1
_chemical_formula_structural   Tb2Y14CdHg3Pt4
_chemical_formula_sum   'Tb2 Y14 Cd1 Hg3 Pt4'
_cell_volume   647.20904428
_cell_formula_units_Z   1
loop_
 _symmetry_equiv_pos_site_id
 _symmetry_equiv_pos_as_xyz
  1  'x, y, z'
loop_
 _atom_site_type_symbol
 _atom_site_label
 _atom_site_symmetry_multiplicity
 _atom_site_fract_x
 _atom_site_fract_y
 _atom_site_fract_z
 _atom_site_occupancy
  Tb  Tb0  1  0.353601  0.353239  0.350467  1
  Tb  Tb1  1  0.353601  0.353239  0.942693  1
  Y  Y2  1  0.358946  0.931924  0.354565  1
  Y  Y3  1  0.928829  0.359486  0.355843  1
  Y  Y4  1  0.810996  0.189711  0.190136  1
  Y  Y5  1  0.187922  0.812137  0.810200  1
  Y  Y6  1  0.187922  0.812137  0.189742  1
  Y  Y7  1  0.810996  0.189711  0.809157  1
  Y  Y8  1  0.189858  0.190697  0.809723  1
  Y  Y9  1  0.811269  0.811705  0.188513  1
  Y  Y10  1  0.936928  0.563631  0.563907  1
  Y  Y11  1  0.562632  0.937668  0.935817  1
  Y  Y12  1  0.562632  0.937668  0.563883  1
  Y  Y13  1  0.936928  0.563631  0.935533  1
  Y  Y14  1  0.564314  0.564709  0.935489  1
  Y  Y15  1  0.937260  0.937962  0.562389  1
  Cd  Cd16  1  0.257397  0.578539  0.582031  1
  Hg  Hg17  1  0.584023  0.586347  0.588693  1
  Hg  Hg18  1  0.584023  0.586347  0.240936  1
  Hg  Hg19  1  0.583074  0.240604  0.588161  1
  Pt  Pt20  1  0.143138  0.143897  0.147597  1
  Pt  Pt21  1  0.143138  0.143897  0.565368  1
  Pt  Pt22  1  0.141117  0.569333  0.144776  1
  Pt  Pt23  1  0.569456  0.141780  0.144381  1
