# generated using pymatgen
data_Er13Tm7GaBi11
_symmetry_space_group_name_H-M   'P 1'
_cell_length_a   8.14685073
_cell_length_b   9.41210101
_cell_length_c   11.92369503
_cell_angle_alpha   89.99661616
_cell_angle_beta   89.66960656
_cell_angle_gamma   89.99670106
_symmetry_Int_Tables_number   1
_chemical_formula_structural   Er13Tm7GaBi11
_chemical_formula_sum   'Er13 Tm7 Ga1 Bi11'
_cell_volume   914.28159192
_cell_formula_units_Z   1
loop_
 _symmetry_equiv_pos_site_id
 _symmetry_equiv_pos_as_xyz
  1  'x, y, z'
loop_
 _atom_site_type_symbol
 _atom_site_label
 _atom_site_symmetry_multiplicity
 _atom_site_fract_x
 _atom_site_fract_y
 _atom_site_fract_z
 _atom_site_occupancy
  Er  Er0  1  0.037847  0.249997  0.510189  1
  Er  Er1  1  0.978464  0.750012  0.489799  1
  Er  Er2  1  0.475171  0.749980  0.010991  1
  Er  Er3  1  0.525806  0.250055  0.988771  1
  Er  Er4  1  0.356369  0.250073  0.293878  1
  Er  Er5  1  0.646748  0.750019  0.716440  1
  Er  Er6  1  0.147695  0.750008  0.782754  1
  Er  Er7  1  0.853748  0.250051  0.216125  1
  Er  Er8  1  0.192385  0.250064  0.777243  1
  Er  Er9  1  0.810675  0.750011  0.218133  1
  Er  Er10  1  0.312913  0.750005  0.281166  1
  Er  Er11  1  0.674545  0.250007  0.710692  1
  Er  Er12  1  0.193490  0.065498  0.060430  1
  Tm  Tm13  1  0.806675  0.934811  0.940653  1
  Tm  Tm14  1  0.308917  0.949463  0.559176  1
  Tm  Tm15  1  0.806618  0.565163  0.940632  1
  Tm  Tm16  1  0.684341  0.072253  0.444917  1
  Tm  Tm17  1  0.193563  0.434359  0.060482  1
  Tm  Tm18  1  0.684344  0.427729  0.444915  1
  Tm  Tm19  1  0.308884  0.550533  0.559164  1
  Ga  Ga20  1  0.408555  0.250000  0.539853  1
  Bi  Bi21  1  0.593371  0.749998  0.457404  1
  Bi  Bi22  1  0.093599  0.749732  0.042584  1
  Bi  Bi23  1  0.907879  0.250087  0.954827  1
  Bi  Bi24  1  0.064045  0.002878  0.324640  1
  Bi  Bi25  1  0.934514  0.997585  0.674932  1
  Bi  Bi26  1  0.434932  0.996226  0.825264  1
  Bi  Bi27  1  0.934546  0.502432  0.674946  1
  Bi  Bi28  1  0.565198  0.004401  0.174573  1
  Bi  Bi29  1  0.064050  0.497143  0.324604  1
  Bi  Bi30  1  0.565165  0.495618  0.174551  1
  Bi  Bi31  1  0.434945  0.503808  0.825268  1
