# generated using pymatgen
data_TbTh2(GeIr)3
_symmetry_space_group_name_H-M   'P 1'
_cell_length_a   7.28060493
_cell_length_b   7.28060510
_cell_length_c   3.96902300
_cell_angle_alpha   90.00000000
_cell_angle_beta   90.00000000
_cell_angle_gamma   119.62045484
_symmetry_Int_Tables_number   1
_chemical_formula_structural   TbTh2(GeIr)3
_chemical_formula_sum   'Tb1 Th2 Ge3 Ir3'
_cell_volume   182.89317353
_cell_formula_units_Z   1
loop_
 _symmetry_equiv_pos_site_id
 _symmetry_equiv_pos_as_xyz
  1  'x, y, z'
loop_
 _atom_site_type_symbol
 _atom_site_label
 _atom_site_symmetry_multiplicity
 _atom_site_fract_x
 _atom_site_fract_y
 _atom_site_fract_z
 _atom_site_occupancy
  Tb  Tb0  1  0.405753  0.405753  0.000000  1
  Th  Th1  1  0.587348  0.999732  0.000000  1
  Th  Th2  1  0.999732  0.587348  0.000000  1
  Ge  Ge3  1  0.248940  0.009591  0.500000  1
  Ge  Ge4  1  0.009591  0.248940  0.500000  1
  Ge  Ge5  1  0.743052  0.743052  0.500000  1
  Ir  Ir6  1  0.333353  0.674941  0.500000  1
  Ir  Ir7  1  0.674941  0.333353  0.500000  1
  Ir  Ir8  1  0.997287  0.997287  0.000000  1
