# generated using pymatgen
data_Sc20Ga9As7
_symmetry_space_group_name_H-M   'P 1'
_cell_length_a   7.21455437
_cell_length_b   7.22943281
_cell_length_c   13.92048511
_cell_angle_alpha   89.87121704
_cell_angle_beta   89.47357872
_cell_angle_gamma   90.24827248
_symmetry_Int_Tables_number   1
_chemical_formula_structural   Sc20Ga9As7
_chemical_formula_sum   'Sc20 Ga9 As7'
_cell_volume   726.01327564
_cell_formula_units_Z   1
loop_
 _symmetry_equiv_pos_site_id
 _symmetry_equiv_pos_as_xyz
  1  'x, y, z'
loop_
 _atom_site_type_symbol
 _atom_site_label
 _atom_site_symmetry_multiplicity
 _atom_site_fract_x
 _atom_site_fract_y
 _atom_site_fract_z
 _atom_site_occupancy
  Sc  Sc0  1  0.216711  0.999665  0.750882  1
  Sc  Sc1  1  0.782971  0.000696  0.249014  1
  Sc  Sc2  1  0.283828  0.502590  0.248470  1
  Sc  Sc3  1  0.717305  0.498277  0.750593  1
  Sc  Sc4  1  0.045442  0.671812  0.604523  1
  Sc  Sc5  1  0.955314  0.327618  0.396008  1
  Sc  Sc6  1  0.455325  0.173252  0.395722  1
  Sc  Sc7  1  0.961445  0.327412  0.101323  1
  Sc  Sc8  1  0.545256  0.827249  0.604391  1
  Sc  Sc9  1  0.041467  0.671606  0.897445  1
  Sc  Sc10  1  0.535706  0.819975  0.899309  1
  Sc  Sc11  1  0.459737  0.177035  0.102643  1
  Sc  Sc12  1  0.389886  0.335733  0.616054  1
  Sc  Sc13  1  0.610154  0.664197  0.384369  1
  Sc  Sc14  1  0.109987  0.836399  0.384529  1
  Sc  Sc15  1  0.615754  0.664109  0.117446  1
  Sc  Sc16  1  0.889191  0.163223  0.616315  1
  Sc  Sc17  1  0.385344  0.333660  0.881709  1
  Sc  Sc18  1  0.888753  0.164736  0.884210  1
  Sc  Sc19  1  0.112310  0.838518  0.115925  1
  Ga  Ga20  1  0.088483  0.381874  0.748796  1
  Ga  Ga21  1  0.911895  0.617961  0.250885  1
  Ga  Ga22  1  0.410708  0.883484  0.250635  1
  Ga  Ga23  1  0.589583  0.115682  0.750121  1
  Ga  Ga24  1  0.341850  0.631864  0.750003  1
  Ga  Ga25  1  0.659605  0.367600  0.250232  1
  Ga  Ga26  1  0.158336  0.133389  0.249768  1
  Ga  Ga27  1  0.841425  0.866261  0.750901  1
  Ga  Ga28  1  0.276832  0.528461  0.043036  1
  As  As29  1  0.230333  0.020152  0.546459  1
  As  As30  1  0.769535  0.979917  0.453897  1
  As  As31  1  0.269743  0.520760  0.453865  1
  As  As32  1  0.770783  0.978294  0.045401  1
  As  As33  1  0.730668  0.479204  0.546359  1
  As  As34  1  0.226829  0.023069  0.953951  1
  As  As35  1  0.721504  0.474268  0.954809  1
