# generated using pymatgen
data_Sc12Co5Sn
_symmetry_space_group_name_H-M   'P 1'
_cell_length_a   7.70607447
_cell_length_b   7.70607377
_cell_length_c   7.70607312
_cell_angle_alpha   106.15695837
_cell_angle_beta   111.26826973
_cell_angle_gamma   111.03849892
_symmetry_Int_Tables_number   1
_chemical_formula_structural   Sc12Co5Sn
_chemical_formula_sum   'Sc12 Co5 Sn1'
_cell_volume   351.39258153
_cell_formula_units_Z   1
loop_
 _symmetry_equiv_pos_site_id
 _symmetry_equiv_pos_as_xyz
  1  'x, y, z'
loop_
 _atom_site_type_symbol
 _atom_site_label
 _atom_site_symmetry_multiplicity
 _atom_site_fract_x
 _atom_site_fract_y
 _atom_site_fract_z
 _atom_site_occupancy
  Sc  Sc0  1  0.468242  0.282287  0.185955  1
  Sc  Sc1  1  0.096333  0.282287  0.814045  1
  Sc  Sc2  1  0.903667  0.717713  0.185955  1
  Sc  Sc3  1  0.531758  0.717713  0.814045  1
  Sc  Sc4  1  0.302077  0.615350  0.313273  1
  Sc  Sc5  1  0.302077  0.988805  0.686727  1
  Sc  Sc6  1  0.697923  0.384650  0.686727  1
  Sc  Sc7  1  0.697923  0.011195  0.313273  1
  Sc  Sc8  1  0.195759  0.216864  0.412622  1
  Sc  Sc9  1  0.804241  0.783136  0.587378  1
  Sc  Sc10  1  0.195759  0.783136  0.978894  1
  Sc  Sc11  1  0.804241  0.216864  0.021106  1
  Co  Co12  1  0.500000  0.618616  0.118616  1
  Co  Co13  1  0.500000  0.381384  0.881384  1
  Co  Co14  1  0.365117  0.000000  0.365117  1
  Co  Co15  1  0.634883  0.000000  0.634883  1
  Co  Co16  1  0.000000  0.000000  0.000000  1
  Sn  Sn17  1  0.000000  0.500000  0.500000  1
