# generated using pymatgen
data_PrNd4Ho3(Si3Rh)4
_symmetry_space_group_name_H-M   'P 1'
_cell_length_a   8.23414100
_cell_length_b   8.23413964
_cell_length_c   8.17881200
_cell_angle_alpha   90.00000000
_cell_angle_beta   90.00000000
_cell_angle_gamma   120.00000146
_symmetry_Int_Tables_number   1
_chemical_formula_structural   PrNd4Ho3(Si3Rh)4
_chemical_formula_sum   'Pr1 Nd4 Ho3 Si12 Rh4'
_cell_volume   480.23894691
_cell_formula_units_Z   1
loop_
 _symmetry_equiv_pos_site_id
 _symmetry_equiv_pos_as_xyz
  1  'x, y, z'
loop_
 _atom_site_type_symbol
 _atom_site_label
 _atom_site_symmetry_multiplicity
 _atom_site_fract_x
 _atom_site_fract_y
 _atom_site_fract_z
 _atom_site_occupancy
  Pr  Pr0  1  0.000000  0.000000  0.250000  1
  Nd  Nd1  1  0.000000  0.000000  0.750000  1
  Nd  Nd2  1  0.505413  0.494587  0.250000  1
  Nd  Nd3  1  0.505413  0.010825  0.250000  1
  Nd  Nd4  1  0.989175  0.494587  0.250000  1
  Ho  Ho5  1  0.492166  0.507834  0.750000  1
  Ho  Ho6  1  0.492166  0.984330  0.750000  1
  Ho  Ho7  1  0.015670  0.507834  0.750000  1
  Si  Si8  1  0.167024  0.832976  0.507220  1
  Si  Si9  1  0.167024  0.334047  0.507220  1
  Si  Si10  1  0.665953  0.832976  0.507220  1
  Si  Si11  1  0.831539  0.168461  0.504545  1
  Si  Si12  1  0.831539  0.663080  0.504545  1
  Si  Si13  1  0.336920  0.168461  0.504545  1
  Si  Si14  1  0.831539  0.168461  0.995455  1
  Si  Si15  1  0.831539  0.663080  0.995455  1
  Si  Si16  1  0.336920  0.168461  0.995455  1
  Si  Si17  1  0.167024  0.832976  0.992780  1
  Si  Si18  1  0.167024  0.334047  0.992780  1
  Si  Si19  1  0.665953  0.832976  0.992780  1
  Rh  Rh20  1  0.333333  0.666667  0.488837  1
  Rh  Rh21  1  0.666667  0.333333  0.545358  1
  Rh  Rh22  1  0.666667  0.333333  0.954642  1
  Rh  Rh23  1  0.333333  0.666667  0.011163  1
