# generated using pymatgen
data_Er8ReB24MoIr2
_symmetry_space_group_name_H-M   'P 1'
_cell_length_a   3.64521500
_cell_length_b   9.13380790
_cell_length_c   11.52586106
_cell_angle_alpha   90.30544095
_cell_angle_beta   90.00000000
_cell_angle_gamma   90.00000000
_symmetry_Int_Tables_number   1
_chemical_formula_structural   Er8ReB24MoIr2
_chemical_formula_sum   'Er8 Re1 B24 Mo1 Ir2'
_cell_volume   383.74455912
_cell_formula_units_Z   1
loop_
 _symmetry_equiv_pos_site_id
 _symmetry_equiv_pos_as_xyz
  1  'x, y, z'
loop_
 _atom_site_type_symbol
 _atom_site_label
 _atom_site_symmetry_multiplicity
 _atom_site_fract_x
 _atom_site_fract_y
 _atom_site_fract_z
 _atom_site_occupancy
  Er  Er0  1  0.000000  0.316567  0.410466  1
  Er  Er1  1  0.000000  0.683599  0.589722  1
  Er  Er2  1  0.000000  0.825482  0.082492  1
  Er  Er3  1  0.000000  0.173546  0.916885  1
  Er  Er4  1  0.000000  0.945491  0.372953  1
  Er  Er5  1  0.000000  0.054226  0.628117  1
  Er  Er6  1  0.000000  0.442769  0.125603  1
  Er  Er7  1  0.000000  0.558601  0.873847  1
  Re  Re8  1  0.000000  0.861148  0.819429  1
  B  B9  1  0.500000  0.554018  0.434498  1
  B  B10  1  0.500000  0.446120  0.565649  1
  B  B11  1  0.500000  0.050882  0.065296  1
  B  B12  1  0.500000  0.947177  0.932233  1
  B  B13  1  0.500000  0.749451  0.421484  1
  B  B14  1  0.500000  0.250567  0.578708  1
  B  B15  1  0.500000  0.249849  0.078895  1
  B  B16  1  0.500000  0.752055  0.918916  1
  B  B17  1  0.500000  0.791062  0.266413  1
  B  B18  1  0.500000  0.208912  0.734028  1
  B  B19  1  0.500000  0.294961  0.235920  1
  B  B20  1  0.500000  0.707321  0.765307  1
  B  B21  1  0.500000  0.631630  0.184368  1
  B  B22  1  0.500000  0.368584  0.815865  1
  B  B23  1  0.500000  0.131997  0.316922  1
  B  B24  1  0.500000  0.868200  0.684912  1
  B  B25  1  0.500000  0.978827  0.213559  1
  B  B26  1  0.500000  0.017676  0.786716  1
  B  B27  1  0.500000  0.482326  0.287509  1
  B  B28  1  0.500000  0.518000  0.712490  1
  B  B29  1  0.500000  0.606940  0.029736  1
  B  B30  1  0.500000  0.394005  0.969547  1
  B  B31  1  0.500000  0.107614  0.471567  1
  B  B32  1  0.500000  0.892341  0.529480  1
  Mo  Mo33  1  0.000000  0.138033  0.179812  1
  Ir  Ir34  1  0.000000  0.636799  0.322664  1
  Ir  Ir35  1  0.000000  0.363227  0.677995  1
