# generated using pymatgen
data_PrNd9(In2Pt)4
_symmetry_space_group_name_H-M   'P 1'
_cell_length_a   3.79888000
_cell_length_b   8.32959437
_cell_length_c   18.76097583
_cell_angle_alpha   89.96593050
_cell_angle_beta   90.00000000
_cell_angle_gamma   90.00000000
_symmetry_Int_Tables_number   1
_chemical_formula_structural   PrNd9(In2Pt)4
_chemical_formula_sum   'Pr1 Nd9 In8 Pt4'
_cell_volume   593.65588188
_cell_formula_units_Z   1
loop_
 _symmetry_equiv_pos_site_id
 _symmetry_equiv_pos_as_xyz
  1  'x, y, z'
loop_
 _atom_site_type_symbol
 _atom_site_label
 _atom_site_symmetry_multiplicity
 _atom_site_fract_x
 _atom_site_fract_y
 _atom_site_fract_z
 _atom_site_occupancy
  Pr  Pr0  1  0.000000  0.000000  0.000000  1
  Nd  Nd1  1  0.000000  0.118113  0.414807  1
  Nd  Nd2  1  0.000000  0.881887  0.585193  1
  Nd  Nd3  1  0.000000  0.381912  0.914738  1
  Nd  Nd4  1  0.000000  0.618088  0.085262  1
  Nd  Nd5  1  0.000000  0.242586  0.219656  1
  Nd  Nd6  1  0.000000  0.757414  0.780344  1
  Nd  Nd7  1  0.000000  0.257258  0.719487  1
  Nd  Nd8  1  0.000000  0.742742  0.280513  1
  Nd  Nd9  1  0.000000  0.500000  0.500000  1
  In  In10  1  0.500000  0.426066  0.350130  1
  In  In11  1  0.500000  0.573934  0.649870  1
  In  In12  1  0.500000  0.074295  0.849502  1
  In  In13  1  0.500000  0.925705  0.150498  1
  In  In14  1  0.500000  0.293550  0.068534  1
  In  In15  1  0.500000  0.706450  0.931466  1
  In  In16  1  0.500000  0.207676  0.568238  1
  In  In17  1  0.500000  0.792324  0.431762  1
  Pt  Pt18  1  0.500000  0.022358  0.303164  1
  Pt  Pt19  1  0.500000  0.977642  0.696836  1
  Pt  Pt20  1  0.500000  0.477637  0.803014  1
  Pt  Pt21  1  0.500000  0.522363  0.196986  1
