# generated using pymatgen
data_Er6Al24Os7Ru
_symmetry_space_group_name_H-M   'P 1'
_cell_length_a   8.80298000
_cell_length_b   8.80297923
_cell_length_c   9.53287100
_cell_angle_alpha   90.00000000
_cell_angle_beta   90.00000000
_cell_angle_gamma   119.99999537
_symmetry_Int_Tables_number   1
_chemical_formula_structural   Er6Al24Os7Ru
_chemical_formula_sum   'Er6 Al24 Os7 Ru1'
_cell_volume   639.75510569
_cell_formula_units_Z   1
loop_
 _symmetry_equiv_pos_site_id
 _symmetry_equiv_pos_as_xyz
  1  'x, y, z'
loop_
 _atom_site_type_symbol
 _atom_site_label
 _atom_site_symmetry_multiplicity
 _atom_site_fract_x
 _atom_site_fract_y
 _atom_site_fract_z
 _atom_site_occupancy
  Er  Er0  1  0.193641  0.806359  0.249659  1
  Er  Er1  1  0.193641  0.387282  0.249659  1
  Er  Er2  1  0.612718  0.806359  0.249659  1
  Er  Er3  1  0.806359  0.193641  0.750341  1
  Er  Er4  1  0.806359  0.612718  0.750341  1
  Er  Er5  1  0.387282  0.193641  0.750341  1
  Al  Al6  1  0.560611  0.439389  0.249861  1
  Al  Al7  1  0.560611  0.121222  0.249861  1
  Al  Al8  1  0.878778  0.439389  0.249861  1
  Al  Al9  1  0.439389  0.560611  0.750139  1
  Al  Al10  1  0.439389  0.878778  0.750139  1
  Al  Al11  1  0.121222  0.560611  0.750139  1
  Al  Al12  1  0.324675  0.162337  0.423599  1
  Al  Al13  1  0.837663  0.162337  0.423599  1
  Al  Al14  1  0.837663  0.675325  0.423599  1
  Al  Al15  1  0.675325  0.837663  0.576401  1
  Al  Al16  1  0.162337  0.837663  0.576401  1
  Al  Al17  1  0.162337  0.324675  0.576401  1
  Al  Al18  1  0.675413  0.837706  0.923646  1
  Al  Al19  1  0.162294  0.837706  0.923646  1
  Al  Al20  1  0.162294  0.324587  0.923646  1
  Al  Al21  1  0.324587  0.162294  0.076354  1
  Al  Al22  1  0.837706  0.162294  0.076354  1
  Al  Al23  1  0.837706  0.675413  0.076354  1
  Al  Al24  1  0.666667  0.333333  0.516144  1
  Al  Al25  1  0.333333  0.666667  0.483856  1
  Al  Al26  1  0.333333  0.666667  0.016087  1
  Al  Al27  1  0.666667  0.333333  0.983913  1
  Al  Al28  1  0.000000  0.000000  0.248218  1
  Al  Al29  1  0.000000  0.000000  0.751782  1
  Os  Os30  1  0.000000  0.000000  0.500000  1
  Os  Os31  1  0.500000  0.500000  0.500000  1
  Os  Os32  1  0.500000  0.000000  0.500000  1
  Os  Os33  1  0.000000  0.500000  0.500000  1
  Os  Os34  1  0.500000  0.500000  0.000000  1
  Os  Os35  1  0.500000  0.000000  0.000000  1
  Os  Os36  1  0.000000  0.500000  0.000000  1
  Ru  Ru37  1  0.000000  0.000000  0.000000  1
