# generated using pymatgen
data_Tm3Cr3CoNi5P6
_symmetry_space_group_name_H-M   'P 1'
_cell_length_a   3.73293900
_cell_length_b   10.51675600
_cell_length_c   12.38676600
_cell_angle_alpha   90.00000000
_cell_angle_beta   90.00000000
_cell_angle_gamma   90.00000000
_symmetry_Int_Tables_number   1
_chemical_formula_structural   Tm3Cr3CoNi5P6
_chemical_formula_sum   'Tm6 Cr6 Co2 Ni10 P12'
_cell_volume   486.28472118
_cell_formula_units_Z   2
loop_
 _symmetry_equiv_pos_site_id
 _symmetry_equiv_pos_as_xyz
  1  'x, y, z'
loop_
 _atom_site_type_symbol
 _atom_site_label
 _atom_site_symmetry_multiplicity
 _atom_site_fract_x
 _atom_site_fract_y
 _atom_site_fract_z
 _atom_site_occupancy
  Tm  Tm0  1  0.000000  0.500000  0.523120  1
  Tm  Tm1  1  0.500000  0.000000  0.476880  1
  Tm  Tm2  1  0.500000  0.819816  0.210941  1
  Tm  Tm3  1  0.500000  0.180184  0.210941  1
  Tm  Tm4  1  0.000000  0.680184  0.789059  1
  Tm  Tm5  1  0.000000  0.319816  0.789059  1
  Cr  Cr6  1  0.500000  0.500000  0.152117  1
  Cr  Cr7  1  0.000000  0.000000  0.847883  1
  Cr  Cr8  1  0.500000  0.321914  0.999019  1
  Cr  Cr9  1  0.500000  0.678086  0.999019  1
  Cr  Cr10  1  0.000000  0.178086  0.000981  1
  Cr  Cr11  1  0.000000  0.821914  0.000981  1
  Co  Co12  1  0.000000  0.500000  0.989859  1
  Co  Co13  1  0.500000  0.000000  0.010141  1
  Ni  Ni14  1  0.500000  0.500000  0.703013  1
  Ni  Ni15  1  0.000000  0.000000  0.296987  1
  Ni  Ni16  1  0.500000  0.302973  0.430046  1
  Ni  Ni17  1  0.500000  0.697027  0.430046  1
  Ni  Ni18  1  0.000000  0.197027  0.569954  1
  Ni  Ni19  1  0.000000  0.802973  0.569954  1
  Ni  Ni20  1  0.500000  0.880243  0.706644  1
  Ni  Ni21  1  0.500000  0.119757  0.706644  1
  Ni  Ni22  1  0.000000  0.619757  0.293356  1
  Ni  Ni23  1  0.000000  0.380243  0.293356  1
  P  P24  1  0.500000  0.500000  0.883620  1
  P  P25  1  0.000000  0.000000  0.116380  1
  P  P26  1  0.500000  0.500000  0.345692  1
  P  P27  1  0.000000  0.000000  0.654308  1
  P  P28  1  0.500000  0.315274  0.614541  1
  P  P29  1  0.500000  0.684726  0.614541  1
  P  P30  1  0.000000  0.184726  0.385459  1
  P  P31  1  0.000000  0.815274  0.385459  1
  P  P32  1  0.500000  0.851413  0.883910  1
  P  P33  1  0.500000  0.148587  0.883910  1
  P  P34  1  0.000000  0.648587  0.116090  1
  P  P35  1  0.000000  0.351413  0.116090  1
