# generated using pymatgen
data_Sm8Ta9Nb3Si16
_symmetry_space_group_name_H-M   'P 1'
_cell_length_a   7.10770009
_cell_length_b   7.10833100
_cell_length_c   13.18983629
_cell_angle_alpha   90.01019815
_cell_angle_beta   89.96318821
_cell_angle_gamma   90.00349018
_symmetry_Int_Tables_number   1
_chemical_formula_structural   Sm8Ta9Nb3Si16
_chemical_formula_sum   'Sm8 Ta9 Nb3 Si16'
_cell_volume   666.40162146
_cell_formula_units_Z   1
loop_
 _symmetry_equiv_pos_site_id
 _symmetry_equiv_pos_as_xyz
  1  'x, y, z'
loop_
 _atom_site_type_symbol
 _atom_site_label
 _atom_site_symmetry_multiplicity
 _atom_site_fract_x
 _atom_site_fract_y
 _atom_site_fract_z
 _atom_site_occupancy
  Sm  Sm0  1  0.996400  0.338995  0.217884  1
  Sm  Sm1  1  0.003320  0.660982  0.717932  1
  Sm  Sm2  1  0.161163  0.496367  0.468041  1
  Sm  Sm3  1  0.502345  0.838737  0.032031  1
  Sm  Sm4  1  0.838674  0.503586  0.968074  1
  Sm  Sm5  1  0.497591  0.161230  0.532080  1
  Sm  Sm6  1  0.338956  0.997333  0.781969  1
  Sm  Sm7  1  0.661147  0.002360  0.282031  1
  Ta  Ta8  1  0.170133  0.170815  0.999744  1
  Ta  Ta9  1  0.830279  0.829683  0.500139  1
  Ta  Ta10  1  0.329515  0.669761  0.249928  1
  Ta  Ta11  1  0.670188  0.330310  0.750273  1
  Ta  Ta12  1  0.156592  0.990135  0.375710  1
  Ta  Ta13  1  0.843346  0.009717  0.875686  1
  Ta  Ta14  1  0.509483  0.656931  0.625823  1
  Ta  Ta15  1  0.343676  0.491376  0.874572  1
  Ta  Ta16  1  0.490280  0.343669  0.125422  1
  Nb  Nb17  1  0.656377  0.507983  0.374505  1
  Nb  Nb18  1  0.991769  0.156631  0.624514  1
  Nb  Nb19  1  0.008230  0.843645  0.124148  1
  Si  Si20  1  0.292194  0.043081  0.186360  1
  Si  Si21  1  0.707662  0.957286  0.686367  1
  Si  Si22  1  0.456985  0.792180  0.436452  1
  Si  Si23  1  0.206993  0.542532  0.063747  1
  Si  Si24  1  0.543062  0.207503  0.936237  1
  Si  Si25  1  0.792982  0.457555  0.563997  1
  Si  Si26  1  0.042899  0.293335  0.814033  1
  Si  Si27  1  0.957524  0.706963  0.313890  1
  Si  Si28  1  0.369389  0.296782  0.315100  1
  Si  Si29  1  0.630083  0.702884  0.815703  1
  Si  Si30  1  0.203191  0.869561  0.565097  1
  Si  Si31  1  0.129936  0.797697  0.933966  1
  Si  Si32  1  0.797084  0.130640  0.065148  1
  Si  Si33  1  0.870352  0.201372  0.434437  1
  Si  Si34  1  0.298622  0.370772  0.684662  1
  Si  Si35  1  0.701581  0.629609  0.184298  1
