# generated using pymatgen
data_Eu5Si9As3Ir19
_symmetry_space_group_name_H-M   'P 1'
_cell_length_a   13.03350500
_cell_length_b   13.03350574
_cell_length_c   4.01301200
_cell_angle_alpha   90.00000000
_cell_angle_beta   90.00000000
_cell_angle_gamma   120.00000065
_symmetry_Int_Tables_number   1
_chemical_formula_structural   Eu5Si9As3Ir19
_chemical_formula_sum   'Eu5 Si9 As3 Ir19'
_cell_volume   590.36901763
_cell_formula_units_Z   1
loop_
 _symmetry_equiv_pos_site_id
 _symmetry_equiv_pos_as_xyz
  1  'x, y, z'
loop_
 _atom_site_type_symbol
 _atom_site_label
 _atom_site_symmetry_multiplicity
 _atom_site_fract_x
 _atom_site_fract_y
 _atom_site_fract_z
 _atom_site_occupancy
  Eu  Eu0  1  0.000000  0.811708  0.500000  1
  Eu  Eu1  1  0.188292  0.188292  0.500000  1
  Eu  Eu2  1  0.811708  0.000000  0.500000  1
  Eu  Eu3  1  0.333333  0.666667  0.000000  1
  Eu  Eu4  1  0.666667  0.333333  0.000000  1
  Si  Si5  1  0.517578  0.687724  0.500000  1
  Si  Si6  1  0.312276  0.829855  0.500000  1
  Si  Si7  1  0.170145  0.482422  0.500000  1
  Si  Si8  1  0.482422  0.170145  0.500000  1
  Si  Si9  1  0.687724  0.517578  0.500000  1
  Si  Si10  1  0.829855  0.312276  0.500000  1
  Si  Si11  1  0.000000  0.628977  0.000000  1
  Si  Si12  1  0.371023  0.371023  0.000000  1
  Si  Si13  1  0.628977  0.000000  0.000000  1
  As  As14  1  0.000000  0.182469  0.000000  1
  As  As15  1  0.817531  0.817531  0.000000  1
  As  As16  1  0.182469  0.000000  0.000000  1
  Ir  Ir17  1  0.000000  0.290221  0.500000  1
  Ir  Ir18  1  0.709779  0.709779  0.500000  1
  Ir  Ir19  1  0.290221  0.000000  0.500000  1
  Ir  Ir20  1  0.618211  0.803119  0.000000  1
  Ir  Ir21  1  0.196881  0.815093  0.000000  1
  Ir  Ir22  1  0.184907  0.381789  0.000000  1
  Ir  Ir23  1  0.381789  0.184907  0.000000  1
  Ir  Ir24  1  0.803119  0.618211  0.000000  1
  Ir  Ir25  1  0.815093  0.196881  0.000000  1
  Ir  Ir26  1  0.512670  0.875281  0.500000  1
  Ir  Ir27  1  0.124719  0.637390  0.500000  1
  Ir  Ir28  1  0.362610  0.487330  0.500000  1
  Ir  Ir29  1  0.487330  0.362610  0.500000  1
  Ir  Ir30  1  0.875281  0.512670  0.500000  1
  Ir  Ir31  1  0.637390  0.124719  0.500000  1
  Ir  Ir32  1  0.000000  0.000000  0.000000  1
  Ir  Ir33  1  0.000000  0.447617  0.000000  1
  Ir  Ir34  1  0.552383  0.552383  0.000000  1
  Ir  Ir35  1  0.447617  0.000000  0.000000  1
