# generated using pymatgen
data_NdTm9ZnBi5
_symmetry_space_group_name_H-M   'P 1'
_cell_length_a   8.09475100
_cell_length_b   9.35332300
_cell_length_c   11.86919200
_cell_angle_alpha   90.00000000
_cell_angle_beta   90.00000000
_cell_angle_gamma   90.00000000
_symmetry_Int_Tables_number   1
_chemical_formula_structural   NdTm9ZnBi5
_chemical_formula_sum   'Nd2 Tm18 Zn2 Bi10'
_cell_volume   898.65000584
_cell_formula_units_Z   2
loop_
 _symmetry_equiv_pos_site_id
 _symmetry_equiv_pos_as_xyz
  1  'x, y, z'
loop_
 _atom_site_type_symbol
 _atom_site_label
 _atom_site_symmetry_multiplicity
 _atom_site_fract_x
 _atom_site_fract_y
 _atom_site_fract_z
 _atom_site_occupancy
  Nd  Nd0  1  0.686812  0.750000  0.780562  1
  Nd  Nd1  1  0.186812  0.750000  0.719438  1
  Tm  Tm2  1  0.344792  0.750000  0.219815  1
  Tm  Tm3  1  0.844792  0.750000  0.280185  1
  Tm  Tm4  1  0.648998  0.250000  0.795806  1
  Tm  Tm5  1  0.148998  0.250000  0.704194  1
  Tm  Tm6  1  0.690770  0.546049  0.059850  1
  Tm  Tm7  1  0.190770  0.953951  0.440150  1
  Tm  Tm8  1  0.316377  0.071325  0.943666  1
  Tm  Tm9  1  0.816377  0.428675  0.556334  1
  Tm  Tm10  1  0.316377  0.428675  0.943666  1
  Tm  Tm11  1  0.816377  0.071325  0.556334  1
  Tm  Tm12  1  0.690770  0.953951  0.059850  1
  Tm  Tm13  1  0.190770  0.546049  0.440150  1
  Tm  Tm14  1  0.464492  0.250000  0.488243  1
  Tm  Tm15  1  0.964492  0.250000  0.011757  1
  Tm  Tm16  1  0.517627  0.750000  0.507435  1
  Tm  Tm17  1  0.017627  0.750000  0.992565  1
  Tm  Tm18  1  0.323323  0.250000  0.211461  1
  Tm  Tm19  1  0.823323  0.250000  0.288539  1
  Zn  Zn20  1  0.590749  0.250000  0.040734  1
  Zn  Zn21  1  0.090749  0.250000  0.459266  1
  Bi  Bi22  1  0.403490  0.750000  0.964612  1
  Bi  Bi23  1  0.903490  0.750000  0.535388  1
  Bi  Bi24  1  0.561332  0.999367  0.321860  1
  Bi  Bi25  1  0.061332  0.500633  0.178140  1
  Bi  Bi26  1  0.441380  0.491326  0.673377  1
  Bi  Bi27  1  0.941380  0.008674  0.826623  1
  Bi  Bi28  1  0.441380  0.008674  0.673377  1
  Bi  Bi29  1  0.941380  0.491326  0.826623  1
  Bi  Bi30  1  0.561332  0.500633  0.321860  1
  Bi  Bi31  1  0.061332  0.999367  0.178140  1
