# generated using pymatgen
data_PrB4IrRu3
_symmetry_space_group_name_H-M   'P 1'
_cell_length_a   4.00835600
_cell_length_b   7.58547451
_cell_length_c   7.61310158
_cell_angle_alpha   90.31410132
_cell_angle_beta   90.00000000
_cell_angle_gamma   90.00000000
_symmetry_Int_Tables_number   1
_chemical_formula_structural   PrB4IrRu3
_chemical_formula_sum   'Pr2 B8 Ir2 Ru6'
_cell_volume   231.47502428
_cell_formula_units_Z   2
loop_
 _symmetry_equiv_pos_site_id
 _symmetry_equiv_pos_as_xyz
  1  'x, y, z'
loop_
 _atom_site_type_symbol
 _atom_site_label
 _atom_site_symmetry_multiplicity
 _atom_site_fract_x
 _atom_site_fract_y
 _atom_site_fract_z
 _atom_site_occupancy
  Pr  Pr0  1  0.258665  0.250000  0.250000  1
  Pr  Pr1  1  0.756737  0.750000  0.750000  1
  B  B2  1  0.358685  0.917033  0.032159  1
  B  B3  1  0.358685  0.582967  0.467841  1
  B  B4  1  0.858008  0.534168  0.086509  1
  B  B5  1  0.858008  0.965832  0.413491  1
  B  B6  1  0.640183  0.085357  0.960558  1
  B  B7  1  0.640183  0.414643  0.539442  1
  B  B8  1  0.138033  0.458601  0.913364  1
  B  B9  1  0.138033  0.041399  0.586636  1
  Ir  Ir10  1  0.359173  0.857627  0.400650  1
  Ir  Ir11  1  0.359173  0.642373  0.099350  1
  Ru  Ru12  1  0.140055  0.393729  0.640984  1
  Ru  Ru13  1  0.140055  0.106271  0.859016  1
  Ru  Ru14  1  0.639803  0.140999  0.606128  1
  Ru  Ru15  1  0.639803  0.359001  0.893872  1
  Ru  Ru16  1  0.858359  0.603170  0.358553  1
  Ru  Ru17  1  0.858359  0.896830  0.141447  1
