# generated using pymatgen
data_AcTb(Ge2Pd)2
_symmetry_space_group_name_H-M   'P 1'
_cell_length_a   9.77460969
_cell_length_b   9.77460870
_cell_length_c   9.77460890
_cell_angle_alpha   153.52459959
_cell_angle_beta   125.65547783
_cell_angle_gamma   61.44280315
_symmetry_Int_Tables_number   1
_chemical_formula_structural   AcTb(Ge2Pd)2
_chemical_formula_sum   'Ac2 Tb2 Ge8 Pd4'
_cell_volume   335.81863008
_cell_formula_units_Z   2
loop_
 _symmetry_equiv_pos_site_id
 _symmetry_equiv_pos_as_xyz
  1  'x, y, z'
loop_
 _atom_site_type_symbol
 _atom_site_label
 _atom_site_symmetry_multiplicity
 _atom_site_fract_x
 _atom_site_fract_y
 _atom_site_fract_z
 _atom_site_occupancy
  Ac  Ac0  1  0.744313  0.500000  0.244313  1
  Ac  Ac1  1  0.255687  0.500000  0.755687  1
  Tb  Tb2  1  0.703260  0.703260  0.000000  1
  Tb  Tb3  1  0.296740  0.296740  0.000000  1
  Ge  Ge4  1  0.349018  0.700335  0.648683  1
  Ge  Ge5  1  0.650982  0.299665  0.351317  1
  Ge  Ge6  1  0.948349  0.299665  0.648683  1
  Ge  Ge7  1  0.051651  0.700335  0.351317  1
  Ge  Ge8  1  0.578088  0.078088  0.500000  1
  Ge  Ge9  1  0.923703  0.923703  0.000000  1
  Ge  Ge10  1  0.076297  0.076297  0.000000  1
  Ge  Ge11  1  0.421912  0.921912  0.500000  1
  Pd  Pd12  1  0.599683  0.847073  0.752610  1
  Pd  Pd13  1  0.905536  0.152927  0.752610  1
  Pd  Pd14  1  0.400317  0.152927  0.247390  1
  Pd  Pd15  1  0.094464  0.847073  0.247390  1
