# generated using pymatgen
data_Tb3Ho(ScPt)4
_symmetry_space_group_name_H-M   'P 1'
_cell_length_a   4.65118100
_cell_length_b   6.97916395
_cell_length_c   8.39944832
_cell_angle_alpha   90.29744976
_cell_angle_beta   90.00000000
_cell_angle_gamma   90.00000000
_symmetry_Int_Tables_number   1
_chemical_formula_structural   Tb3Ho(ScPt)4
_chemical_formula_sum   'Tb3 Ho1 Sc4 Pt4'
_cell_volume   272.65379747
_cell_formula_units_Z   1
loop_
 _symmetry_equiv_pos_site_id
 _symmetry_equiv_pos_as_xyz
  1  'x, y, z'
loop_
 _atom_site_type_symbol
 _atom_site_label
 _atom_site_symmetry_multiplicity
 _atom_site_fract_x
 _atom_site_fract_y
 _atom_site_fract_z
 _atom_site_occupancy
  Tb  Tb0  1  0.250000  0.985239  0.322373  1
  Tb  Tb1  1  0.750000  0.016674  0.677811  1
  Tb  Tb2  1  0.250000  0.484040  0.176854  1
  Ho  Ho3  1  0.750000  0.515235  0.824483  1
  Sc  Sc4  1  0.750000  0.640559  0.428000  1
  Sc  Sc5  1  0.250000  0.360944  0.576349  1
  Sc  Sc6  1  0.750000  0.140773  0.072159  1
  Sc  Sc7  1  0.250000  0.855795  0.925177  1
  Pt  Pt8  1  0.250000  0.245035  0.901874  1
  Pt  Pt9  1  0.750000  0.754666  0.094998  1
  Pt  Pt10  1  0.250000  0.746018  0.596016  1
  Pt  Pt11  1  0.750000  0.255022  0.403904  1
