# generated using pymatgen
data_Ho8Er8Cd4IrPd3
_symmetry_space_group_name_H-M   'P 1'
_cell_length_a   9.63674904
_cell_length_b   9.59430843
_cell_length_c   9.59495500
_cell_angle_alpha   59.99777416
_cell_angle_beta   60.14336497
_cell_angle_gamma   60.19798365
_symmetry_Int_Tables_number   1
_chemical_formula_structural   Ho8Er8Cd4IrPd3
_chemical_formula_sum   'Ho8 Er8 Cd4 Ir1 Pd3'
_cell_volume   628.89796866
_cell_formula_units_Z   1
loop_
 _symmetry_equiv_pos_site_id
 _symmetry_equiv_pos_as_xyz
  1  'x, y, z'
loop_
 _atom_site_type_symbol
 _atom_site_label
 _atom_site_symmetry_multiplicity
 _atom_site_fract_x
 _atom_site_fract_y
 _atom_site_fract_z
 _atom_site_occupancy
  Ho  Ho0  1  0.441760  0.439258  0.059491  1
  Ho  Ho1  1  0.058427  0.065765  0.437903  1
  Ho  Ho2  1  0.185615  0.814933  0.815532  1
  Ho  Ho3  1  0.816430  0.186108  0.185544  1
  Ho  Ho4  1  0.816430  0.186108  0.811918  1
  Ho  Ho5  1  0.185615  0.814933  0.183920  1
  Ho  Ho6  1  0.818041  0.813018  0.184470  1
  Ho  Ho7  1  0.186020  0.185806  0.814088  1
  Er  Er8  1  0.605752  0.599588  0.597281  1
  Er  Er9  1  0.605752  0.599588  0.197381  1
  Er  Er10  1  0.608894  0.191688  0.599710  1
  Er  Er11  1  0.182414  0.608221  0.604683  1
  Er  Er12  1  0.057428  0.438919  0.439281  1
  Er  Er13  1  0.440989  0.059974  0.059515  1
  Er  Er14  1  0.440989  0.059974  0.439522  1
  Er  Er15  1  0.057428  0.438919  0.064371  1
  Cd  Cd16  1  0.830665  0.831260  0.833383  1
  Cd  Cd17  1  0.830665  0.831260  0.504690  1
  Cd  Cd18  1  0.830006  0.503686  0.833153  1
  Cd  Cd19  1  0.505563  0.830007  0.832215  1
  Ir  Ir20  1  0.821496  0.392343  0.393081  1
  Pd  Pd21  1  0.391423  0.394936  0.398480  1
  Pd  Pd22  1  0.391423  0.394936  0.815163  1
  Pd  Pd23  1  0.390776  0.818772  0.395226  1
