# generated using pymatgen
data_TbSm3Er2CoBr10
_symmetry_space_group_name_H-M   'P 1'
_cell_length_a   7.43800420
_cell_length_b   9.16319291
_cell_length_c   9.26785633
_cell_angle_alpha   108.05766383
_cell_angle_beta   97.67352896
_cell_angle_gamma   104.37663454
_symmetry_Int_Tables_number   1
_chemical_formula_structural   TbSm3Er2CoBr10
_chemical_formula_sum   'Tb1 Sm3 Er2 Co1 Br10'
_cell_volume   566.34188434
_cell_formula_units_Z   1
loop_
 _symmetry_equiv_pos_site_id
 _symmetry_equiv_pos_as_xyz
  1  'x, y, z'
loop_
 _atom_site_type_symbol
 _atom_site_label
 _atom_site_symmetry_multiplicity
 _atom_site_fract_x
 _atom_site_fract_y
 _atom_site_fract_z
 _atom_site_occupancy
  Tb  Tb0  1  0.644660  0.867417  0.319208  1
  Sm  Sm1  1  0.359175  0.134199  0.683171  1
  Sm  Sm2  1  0.964229  0.284258  0.586032  1
  Sm  Sm3  1  0.034129  0.715183  0.412771  1
  Er  Er4  1  0.878694  0.953533  0.741006  1
  Er  Er5  1  0.119055  0.045238  0.257944  1
  Co  Co6  1  0.999195  0.999619  0.499698  1
  Br  Br7  1  0.540096  0.176661  0.411680  1
  Br  Br8  1  0.461032  0.819918  0.584293  1
  Br  Br9  1  0.214522  0.750414  0.152144  1
  Br  Br10  1  0.791323  0.250914  0.850116  1
  Br  Br11  1  0.910834  0.634746  0.676867  1
  Br  Br12  1  0.089031  0.365159  0.322890  1
  Br  Br13  1  0.755769  0.915899  0.040243  1
  Br  Br14  1  0.241029  0.082720  0.961991  1
  Br  Br15  1  0.649625  0.548278  0.226557  1
  Br  Br16  1  0.347603  0.455845  0.773388  1
