# generated using pymatgen
data_DyEr(ScSb5)2
_symmetry_space_group_name_H-M   'P 1'
_cell_length_a   4.19834000
_cell_length_b   13.03971121
_cell_length_c   14.21186018
_cell_angle_alpha   78.88879345
_cell_angle_beta   90.00000000
_cell_angle_gamma   90.00000000
_symmetry_Int_Tables_number   1
_chemical_formula_structural   DyEr(ScSb5)2
_chemical_formula_sum   'Dy2 Er2 Sc4 Sb20'
_cell_volume   763.44610586
_cell_formula_units_Z   2
loop_
 _symmetry_equiv_pos_site_id
 _symmetry_equiv_pos_as_xyz
  1  'x, y, z'
loop_
 _atom_site_type_symbol
 _atom_site_label
 _atom_site_symmetry_multiplicity
 _atom_site_fract_x
 _atom_site_fract_y
 _atom_site_fract_z
 _atom_site_occupancy
  Dy  Dy0  1  0.250000  0.953491  0.354714  1
  Dy  Dy1  1  0.750000  0.046509  0.645286  1
  Er  Er2  1  0.250000  0.669238  0.576233  1
  Er  Er3  1  0.750000  0.330762  0.423767  1
  Sc  Sc4  1  0.250000  0.396634  0.772912  1
  Sc  Sc5  1  0.750000  0.603366  0.227088  1
  Sc  Sc6  1  0.250000  0.657495  0.858701  1
  Sc  Sc7  1  0.750000  0.342505  0.141299  1
  Sb  Sb8  1  0.250000  0.147955  0.780685  1
  Sb  Sb9  1  0.750000  0.852045  0.219315  1
  Sb  Sb10  1  0.250000  0.143385  0.482847  1
  Sb  Sb11  1  0.750000  0.856615  0.517153  1
  Sb  Sb12  1  0.250000  0.163085  0.160809  1
  Sb  Sb13  1  0.750000  0.836915  0.839191  1
  Sb  Sb14  1  0.250000  0.422140  0.975179  1
  Sb  Sb15  1  0.750000  0.577860  0.024821  1
  Sb  Sb16  1  0.750000  0.028370  0.913492  1
  Sb  Sb17  1  0.250000  0.971630  0.086508  1
  Sb  Sb18  1  0.750000  0.143134  0.315680  1
  Sb  Sb19  1  0.250000  0.856866  0.684320  1
  Sb  Sb20  1  0.750000  0.279925  0.936560  1
  Sb  Sb21  1  0.250000  0.720075  0.063440  1
  Sb  Sb22  1  0.750000  0.289359  0.658978  1
  Sb  Sb23  1  0.250000  0.710641  0.341022  1
  Sb  Sb24  1  0.750000  0.573475  0.741038  1
  Sb  Sb25  1  0.250000  0.426525  0.258962  1
  Sb  Sb26  1  0.750000  0.570467  0.443899  1
  Sb  Sb27  1  0.250000  0.429533  0.556101  1
