# generated using pymatgen
data_Nd5IrOs
_symmetry_space_group_name_H-M   'P 1'
_cell_length_a   8.94470687
_cell_length_b   8.94470594
_cell_length_c   7.40940369
_cell_angle_alpha   83.57297635
_cell_angle_beta   83.57297709
_cell_angle_gamma   43.65627187
_symmetry_Int_Tables_number   1
_chemical_formula_structural   Nd5IrOs
_chemical_formula_sum   'Nd10 Ir2 Os2'
_cell_volume   406.24862481
_cell_formula_units_Z   2
loop_
 _symmetry_equiv_pos_site_id
 _symmetry_equiv_pos_as_xyz
  1  'x, y, z'
loop_
 _atom_site_type_symbol
 _atom_site_label
 _atom_site_symmetry_multiplicity
 _atom_site_fract_x
 _atom_site_fract_y
 _atom_site_fract_z
 _atom_site_occupancy
  Nd  Nd0  1  0.020927  0.795919  0.916184  1
  Nd  Nd1  1  0.204081  0.979073  0.583816  1
  Nd  Nd2  1  0.983151  0.201946  0.080773  1
  Nd  Nd3  1  0.798054  0.016849  0.419227  1
  Nd  Nd4  1  0.350783  0.212364  0.816351  1
  Nd  Nd5  1  0.787636  0.649217  0.683649  1
  Nd  Nd6  1  0.646382  0.787201  0.182461  1
  Nd  Nd7  1  0.212799  0.353618  0.317539  1
  Nd  Nd8  1  0.566812  0.433188  0.750000  1
  Nd  Nd9  1  0.431311  0.568689  0.250000  1
  Ir  Ir10  1  0.823232  0.400505  0.425135  1
  Ir  Ir11  1  0.599495  0.176768  0.074865  1
  Os  Os12  1  0.176552  0.601214  0.572339  1
  Os  Os13  1  0.398786  0.823448  0.927661  1
