# generated using pymatgen
data_NdEr4Bi3O14
_symmetry_space_group_name_H-M   'P 1'
_cell_length_a   6.58589960
_cell_length_b   6.62525917
_cell_length_c   7.73508057
_cell_angle_alpha   106.89697377
_cell_angle_beta   89.67775530
_cell_angle_gamma   98.95636011
_symmetry_Int_Tables_number   1
_chemical_formula_structural   NdEr4Bi3O14
_chemical_formula_sum   'Nd1 Er4 Bi3 O14'
_cell_volume   318.71852633
_cell_formula_units_Z   1
loop_
 _symmetry_equiv_pos_site_id
 _symmetry_equiv_pos_as_xyz
  1  'x, y, z'
loop_
 _atom_site_type_symbol
 _atom_site_label
 _atom_site_symmetry_multiplicity
 _atom_site_fract_x
 _atom_site_fract_y
 _atom_site_fract_z
 _atom_site_occupancy
  Nd  Nd0  1  0.749262  0.484057  0.621135  1
  Er  Er1  1  0.461680  0.008323  0.252730  1
  Er  Er2  1  0.535094  0.998425  0.751420  1
  Er  Er3  1  0.272958  0.534951  0.885193  1
  Er  Er4  1  0.735865  0.458908  0.111360  1
  Bi  Bi5  1  0.995122  0.998946  0.499744  1
  Bi  Bi6  1  0.999524  0.997402  0.998350  1
  Bi  Bi7  1  0.282341  0.533366  0.384581  1
  O  O8  1  0.454831  0.656759  0.164817  1
  O  O9  1  0.547829  0.348865  0.842780  1
  O  O10  1  0.302206  0.920031  0.951633  1
  O  O11  1  0.698313  0.076976  0.050585  1
  O  O12  1  0.299533  0.932131  0.515799  1
  O  O13  1  0.696751  0.078993  0.489854  1
  O  O14  1  0.546707  0.359858  0.334686  1
  O  O15  1  0.453347  0.643130  0.661312  1
  O  O16  1  0.927369  0.660442  0.951905  1
  O  O17  1  0.067852  0.328428  0.029118  1
  O  O18  1  0.076569  0.335813  0.632823  1
  O  O19  1  0.905334  0.663683  0.374802  1
  O  O20  1  0.867708  0.902298  0.725738  1
  O  O21  1  0.123803  0.078216  0.269633  1
