# generated using pymatgen
data_Li8SiGe2
_symmetry_space_group_name_H-M   'P 1'
_cell_length_a   4.38787223
_cell_length_b   4.40343722
_cell_length_c   10.11234351
_cell_angle_alpha   89.61806086
_cell_angle_beta   103.11340559
_cell_angle_gamma   119.77429331
_symmetry_Int_Tables_number   1
_chemical_formula_structural   Li8SiGe2
_chemical_formula_sum   'Li8 Si1 Ge2'
_cell_volume   163.86825577
_cell_formula_units_Z   1
loop_
 _symmetry_equiv_pos_site_id
 _symmetry_equiv_pos_as_xyz
  1  'x, y, z'
loop_
 _atom_site_type_symbol
 _atom_site_label
 _atom_site_symmetry_multiplicity
 _atom_site_fract_x
 _atom_site_fract_y
 _atom_site_fract_z
 _atom_site_occupancy
  Li  Li0  1  0.230566  0.772372  0.006449  1
  Li  Li1  1  0.316302  0.314251  0.641691  1
  Li  Li2  1  0.775849  0.045009  0.830395  1
  Li  Li3  1  0.875136  0.590997  0.468857  1
  Li  Li4  1  0.700118  0.505640  0.200942  1
  Li  Li5  1  0.497044  0.403556  0.909747  1
  Li  Li6  1  0.426158  0.868568  0.280499  1
  Li  Li7  1  0.594509  0.954337  0.560291  1
  Si  Si8  1  0.145952  0.227185  0.363113  1
  Ge  Ge9  1  0.048133  0.680783  0.737628  1
  Ge  Ge10  1  0.972014  0.142595  0.112352  1
