# generated using pymatgen
data_Np3In2OF12
_symmetry_space_group_name_H-M   'P 1'
_cell_length_a   11.30166771
_cell_length_b   11.30166728
_cell_length_c   11.30166788
_cell_angle_alpha   43.17832464
_cell_angle_beta   43.17832529
_cell_angle_gamma   43.17832567
_symmetry_Int_Tables_number   1
_chemical_formula_structural   Np3In2OF12
_chemical_formula_sum   'Np6 In4 O2 F24'
_cell_volume   612.86275020
_cell_formula_units_Z   2
loop_
 _symmetry_equiv_pos_site_id
 _symmetry_equiv_pos_as_xyz
  1  'x, y, z'
loop_
 _atom_site_type_symbol
 _atom_site_label
 _atom_site_symmetry_multiplicity
 _atom_site_fract_x
 _atom_site_fract_y
 _atom_site_fract_z
 _atom_site_occupancy
  Np  Np0  1  0.579742  0.579742  0.033154  1
  Np  Np1  1  0.033154  0.579742  0.579742  1
  Np  Np2  1  0.579742  0.033154  0.579742  1
  Np  Np3  1  0.420258  0.966846  0.420258  1
  Np  Np4  1  0.966846  0.420258  0.420258  1
  Np  Np5  1  0.420258  0.420258  0.966846  1
  In  In6  1  0.000000  0.000000  0.000000  1
  In  In7  1  0.500000  0.500000  0.500000  1
  In  In8  1  0.139653  0.139653  0.139653  1
  In  In9  1  0.860347  0.860347  0.860347  1
  O  O10  1  0.717099  0.717099  0.717099  1
  O  O11  1  0.282901  0.282901  0.282901  1
  F  F12  1  0.699329  0.699329  0.366696  1
  F  F13  1  0.366696  0.699329  0.699329  1
  F  F14  1  0.699329  0.366696  0.699329  1
  F  F15  1  0.300671  0.633304  0.300671  1
  F  F16  1  0.300671  0.300671  0.633304  1
  F  F17  1  0.633304  0.300671  0.300671  1
  F  F18  1  0.914325  0.914325  0.407380  1
  F  F19  1  0.407380  0.914325  0.914325  1
  F  F20  1  0.648560  0.351440  0.000000  1
  F  F21  1  0.351440  0.000000  0.648560  1
  F  F22  1  0.000000  0.648560  0.351440  1
  F  F23  1  0.351440  0.648560  0.000000  1
  F  F24  1  0.648560  0.000000  0.351440  1
  F  F25  1  0.000000  0.351440  0.648560  1
  F  F26  1  0.919751  0.338246  0.338246  1
  F  F27  1  0.338246  0.338246  0.919751  1
  F  F28  1  0.338246  0.919751  0.338246  1
  F  F29  1  0.661754  0.080249  0.661754  1
  F  F30  1  0.080249  0.661754  0.661754  1
  F  F31  1  0.661754  0.661754  0.080249  1
  F  F32  1  0.592620  0.085675  0.085675  1
  F  F33  1  0.085675  0.085675  0.592620  1
  F  F34  1  0.085675  0.592620  0.085675  1
  F  F35  1  0.914325  0.407380  0.914325  1
