# generated using pymatgen
data_TbCeAl3Os
_symmetry_space_group_name_H-M   'P 1'
_cell_length_a   5.50439100
_cell_length_b   5.50439037
_cell_length_c   8.91062100
_cell_angle_alpha   90.00000000
_cell_angle_beta   90.00000000
_cell_angle_gamma   119.99999777
_symmetry_Int_Tables_number   1
_chemical_formula_structural   TbCeAl3Os
_chemical_formula_sum   'Tb2 Ce2 Al6 Os2'
_cell_volume   233.80678813
_cell_formula_units_Z   2
loop_
 _symmetry_equiv_pos_site_id
 _symmetry_equiv_pos_as_xyz
  1  'x, y, z'
loop_
 _atom_site_type_symbol
 _atom_site_label
 _atom_site_symmetry_multiplicity
 _atom_site_fract_x
 _atom_site_fract_y
 _atom_site_fract_z
 _atom_site_occupancy
  Tb  Tb0  1  0.333333  0.666667  0.942009  1
  Tb  Tb1  1  0.666667  0.333333  0.057991  1
  Ce  Ce2  1  0.666667  0.333333  0.458865  1
  Ce  Ce3  1  0.333333  0.666667  0.541135  1
  Al  Al4  1  0.837831  0.162169  0.754306  1
  Al  Al5  1  0.837831  0.675662  0.754306  1
  Al  Al6  1  0.324338  0.162169  0.754306  1
  Al  Al7  1  0.162169  0.837831  0.245694  1
  Al  Al8  1  0.162169  0.324338  0.245694  1
  Al  Al9  1  0.675662  0.837831  0.245694  1
  Os  Os10  1  0.000000  0.000000  0.000000  1
  Os  Os11  1  0.000000  0.000000  0.500000  1
