# generated using pymatgen
data_Pr2SmFeCo7NiP6
_symmetry_space_group_name_H-M   'P 1'
_cell_length_a   3.77585200
_cell_length_b   10.67181700
_cell_length_c   12.38602900
_cell_angle_alpha   90.00000000
_cell_angle_beta   90.00000000
_cell_angle_gamma   90.00000000
_symmetry_Int_Tables_number   1
_chemical_formula_structural   Pr2SmFeCo7NiP6
_chemical_formula_sum   'Pr4 Sm2 Fe2 Co14 Ni2 P12'
_cell_volume   499.09753512
_cell_formula_units_Z   2
loop_
 _symmetry_equiv_pos_site_id
 _symmetry_equiv_pos_as_xyz
  1  'x, y, z'
loop_
 _atom_site_type_symbol
 _atom_site_label
 _atom_site_symmetry_multiplicity
 _atom_site_fract_x
 _atom_site_fract_y
 _atom_site_fract_z
 _atom_site_occupancy
  Pr  Pr0  1  0.000000  0.500000  0.519589  1
  Pr  Pr1  1  0.500000  0.000000  0.481924  1
  Pr  Pr2  1  0.500000  0.815225  0.204257  1
  Pr  Pr3  1  0.500000  0.184775  0.204257  1
  Sm  Sm4  1  0.000000  0.684522  0.795923  1
  Sm  Sm5  1  0.000000  0.315478  0.795923  1
  Fe  Fe6  1  0.500000  0.500000  0.153908  1
  Fe  Fe7  1  0.000000  0.000000  0.845143  1
  Co  Co8  1  0.000000  0.500000  0.984741  1
  Co  Co9  1  0.500000  0.000000  0.011239  1
  Co  Co10  1  0.500000  0.334193  0.994185  1
  Co  Co11  1  0.500000  0.665807  0.994185  1
  Co  Co12  1  0.000000  0.167489  0.002575  1
  Co  Co13  1  0.000000  0.832511  0.002575  1
  Co  Co14  1  0.500000  0.297035  0.431651  1
  Co  Co15  1  0.500000  0.702965  0.431651  1
  Co  Co16  1  0.000000  0.203588  0.571535  1
  Co  Co17  1  0.000000  0.796412  0.571535  1
  Co  Co18  1  0.500000  0.879958  0.712459  1
  Co  Co19  1  0.500000  0.120042  0.712459  1
  Co  Co20  1  0.000000  0.618934  0.288916  1
  Co  Co21  1  0.000000  0.381066  0.288916  1
  Ni  Ni22  1  0.500000  0.500000  0.704448  1
  Ni  Ni23  1  0.000000  0.000000  0.296643  1
  P  P24  1  0.500000  0.500000  0.884840  1
  P  P25  1  0.000000  0.000000  0.111127  1
  P  P26  1  0.500000  0.500000  0.336626  1
  P  P27  1  0.000000  0.000000  0.663872  1
  P  P28  1  0.500000  0.305119  0.615907  1
  P  P29  1  0.500000  0.694881  0.615907  1
  P  P30  1  0.000000  0.196125  0.387597  1
  P  P31  1  0.000000  0.803875  0.387597  1
  P  P32  1  0.500000  0.847624  0.894816  1
  P  P33  1  0.500000  0.152376  0.894816  1
  P  P34  1  0.000000  0.649917  0.103130  1
  P  P35  1  0.000000  0.350083  0.103130  1
