# generated using pymatgen
data_Sc4Fe3Si4Ir
_symmetry_space_group_name_H-M   'P 1'
_cell_length_a   4.06656400
_cell_length_b   6.53824333
_cell_length_c   6.80721237
_cell_angle_alpha   90.46003074
_cell_angle_beta   90.00000000
_cell_angle_gamma   90.00000000
_symmetry_Int_Tables_number   1
_chemical_formula_structural   Sc4Fe3Si4Ir
_chemical_formula_sum   'Sc4 Fe3 Si4 Ir1'
_cell_volume   180.98558748
_cell_formula_units_Z   1
loop_
 _symmetry_equiv_pos_site_id
 _symmetry_equiv_pos_as_xyz
  1  'x, y, z'
loop_
 _atom_site_type_symbol
 _atom_site_label
 _atom_site_symmetry_multiplicity
 _atom_site_fract_x
 _atom_site_fract_y
 _atom_site_fract_z
 _atom_site_occupancy
  Sc  Sc0  1  0.250000  0.994350  0.308305  1
  Sc  Sc1  1  0.250000  0.492417  0.183425  1
  Sc  Sc2  1  0.750000  0.005622  0.696087  1
  Sc  Sc3  1  0.750000  0.518881  0.814676  1
  Fe  Fe4  1  0.250000  0.149639  0.938706  1
  Fe  Fe5  1  0.250000  0.652255  0.559575  1
  Fe  Fe6  1  0.750000  0.842410  0.058453  1
  Si  Si7  1  0.250000  0.299090  0.628028  1
  Si  Si8  1  0.250000  0.797686  0.890673  1
  Si  Si9  1  0.750000  0.709985  0.387734  1
  Si  Si10  1  0.750000  0.197878  0.097236  1
  Ir  Ir11  1  0.750000  0.339789  0.437101  1
