# generated using pymatgen
data_Y6Al14Fe2Os7
_symmetry_space_group_name_H-M   'P 1'
_cell_length_a   8.86155580
_cell_length_b   8.86155522
_cell_length_c   8.87798700
_cell_angle_alpha   59.93863830
_cell_angle_beta   59.93864044
_cell_angle_gamma   59.95818940
_symmetry_Int_Tables_number   1
_chemical_formula_structural   Y6Al14Fe2Os7
_chemical_formula_sum   'Y6 Al14 Fe2 Os7'
_cell_volume   492.35556634
_cell_formula_units_Z   1
loop_
 _symmetry_equiv_pos_site_id
 _symmetry_equiv_pos_as_xyz
  1  'x, y, z'
loop_
 _atom_site_type_symbol
 _atom_site_label
 _atom_site_symmetry_multiplicity
 _atom_site_fract_x
 _atom_site_fract_y
 _atom_site_fract_z
 _atom_site_occupancy
  Y  Y0  1  0.203099  0.794197  0.791319  1
  Y  Y1  1  0.794197  0.203099  0.211386  1
  Y  Y2  1  0.794197  0.203099  0.791319  1
  Y  Y3  1  0.794407  0.794407  0.205593  1
  Y  Y4  1  0.203099  0.794197  0.211386  1
  Y  Y5  1  0.209883  0.209883  0.790117  1
  Al  Al6  1  0.516376  0.827652  0.827986  1
  Al  Al7  1  0.827652  0.516376  0.827986  1
  Al  Al8  1  0.171098  0.171098  0.169078  1
  Al  Al9  1  0.171098  0.171098  0.488724  1
  Al  Al10  1  0.170587  0.488922  0.170246  1
  Al  Al11  1  0.488922  0.170587  0.170246  1
  Al  Al12  1  0.620197  0.620197  0.618113  1
  Al  Al13  1  0.620197  0.620197  0.141493  1
  Al  Al14  1  0.137441  0.622113  0.620224  1
  Al  Al15  1  0.622113  0.137441  0.620224  1
  Al  Al16  1  0.380649  0.380649  0.379636  1
  Al  Al17  1  0.380649  0.380649  0.859067  1
  Al  Al18  1  0.381096  0.859355  0.379774  1
  Al  Al19  1  0.859355  0.381096  0.379774  1
  Fe  Fe20  1  0.823288  0.823288  0.822930  1
  Fe  Fe21  1  0.823288  0.823288  0.530493  1
  Os  Os22  1  0.498812  0.498812  0.501188  1
  Os  Os23  1  0.996830  0.509928  0.496338  1
  Os  Os24  1  0.509928  0.996830  0.996905  1
  Os  Os25  1  0.509928  0.996830  0.496338  1
  Os  Os26  1  0.500301  0.500301  0.999699  1
  Os  Os27  1  0.996830  0.509928  0.996905  1
  Os  Os28  1  0.994484  0.994484  0.505516  1
