# generated using pymatgen
data_Er3In3CuAgAu
_symmetry_space_group_name_H-M   'P 1'
_cell_length_a   7.73972300
_cell_length_b   7.73972434
_cell_length_c   3.85994700
_cell_angle_alpha   90.00000000
_cell_angle_beta   90.00000000
_cell_angle_gamma   119.99999853
_symmetry_Int_Tables_number   1
_chemical_formula_structural   Er3In3CuAgAu
_chemical_formula_sum   'Er3 In3 Cu1 Ag1 Au1'
_cell_volume   200.24555788
_cell_formula_units_Z   1
loop_
 _symmetry_equiv_pos_site_id
 _symmetry_equiv_pos_as_xyz
  1  'x, y, z'
loop_
 _atom_site_type_symbol
 _atom_site_label
 _atom_site_symmetry_multiplicity
 _atom_site_fract_x
 _atom_site_fract_y
 _atom_site_fract_z
 _atom_site_occupancy
  Er  Er0  1  0.996431  0.592916  0.500000  1
  Er  Er1  1  0.407084  0.403515  0.500000  1
  Er  Er2  1  0.596485  0.003569  0.500000  1
  In  In3  1  0.750704  0.753020  0.000000  1
  In  In4  1  0.002316  0.249296  0.000000  1
  In  In5  1  0.246980  0.997684  0.000000  1
  Cu  Cu6  1  0.000000  0.000000  0.500000  1
  Ag  Ag7  1  0.333333  0.666667  0.000000  1
  Au  Au8  1  0.666667  0.333333  0.000000  1
