# generated using pymatgen
data_Hf8Mn11Si16Ni
_symmetry_space_group_name_H-M   'P 1'
_cell_length_a   9.69290857
_cell_length_b   9.69394035
_cell_length_c   12.97781831
_cell_angle_alpha   53.64485893
_cell_angle_beta   53.66989987
_cell_angle_gamma   30.69271573
_symmetry_Int_Tables_number   1
_chemical_formula_structural   Hf8Mn11Si16Ni
_chemical_formula_sum   'Hf8 Mn11 Si16 Ni1'
_cell_volume   491.03909909
_cell_formula_units_Z   1
loop_
 _symmetry_equiv_pos_site_id
 _symmetry_equiv_pos_as_xyz
  1  'x, y, z'
loop_
 _atom_site_type_symbol
 _atom_site_label
 _atom_site_symmetry_multiplicity
 _atom_site_fract_x
 _atom_site_fract_y
 _atom_site_fract_z
 _atom_site_occupancy
  Hf  Hf0  1  0.293003  0.567101  0.641786  1
  Hf  Hf1  1  0.433596  0.707510  0.857639  1
  Hf  Hf2  1  0.711467  0.428546  0.357874  1
  Hf  Hf3  1  0.566122  0.291984  0.142907  1
  Hf  Hf4  1  0.032878  0.293359  0.643879  1
  Hf  Hf5  1  0.706595  0.966059  0.858254  1
  Hf  Hf6  1  0.969109  0.705188  0.356528  1
  Hf  Hf7  1  0.293858  0.032713  0.144123  1
  Mn  Mn8  1  0.165418  0.356202  0.222095  1
  Mn  Mn9  1  0.758624  0.485424  0.063267  1
  Mn  Mn10  1  0.835031  0.646101  0.774251  1
  Mn  Mn11  1  0.889709  0.152306  0.583822  1
  Mn  Mn12  1  0.846631  0.107919  0.919628  1
  Mn  Mn13  1  0.109238  0.851310  0.415315  1
  Mn  Mn14  1  0.150952  0.889877  0.083343  1
  Mn  Mn15  1  0.240448  0.518060  0.934294  1
  Mn  Mn16  1  0.483695  0.760252  0.562446  1
  Mn  Mn17  1  0.513505  0.242630  0.436331  1
  Mn  Mn18  1  0.353999  0.164373  0.725421  1
  Si  Si19  1  0.882933  0.117891  0.249259  1
  Si  Si20  1  0.116915  0.883327  0.750066  1
  Si  Si21  1  0.388662  0.611409  0.249733  1
  Si  Si22  1  0.611197  0.388933  0.750081  1
  Si  Si23  1  0.965263  0.255979  0.898264  1
  Si  Si24  1  0.744961  0.033137  0.602668  1
  Si  Si25  1  0.042383  0.737617  0.100787  1
  Si  Si26  1  0.255591  0.968213  0.397965  1
  Si  Si27  1  0.563465  0.093983  0.066129  1
  Si  Si28  1  0.914312  0.426837  0.435093  1
  Si  Si29  1  0.427785  0.911713  0.936637  1
  Si  Si30  1  0.086578  0.574310  0.563607  1
  Si  Si31  1  0.390526  0.138482  0.397091  1
  Si  Si32  1  0.867350  0.601934  0.101684  1
  Si  Si33  1  0.606124  0.862505  0.602348  1
  Si  Si34  1  0.137172  0.393722  0.897002  1
  Ni  Ni35  1  0.644906  0.833091  0.278380  1
