# generated using pymatgen
data_Dy4ErVReO12
_symmetry_space_group_name_H-M   'P 1'
_cell_length_a   6.78865312
_cell_length_b   6.78865403
_cell_length_c   7.45005900
_cell_angle_alpha   73.89969805
_cell_angle_beta   73.89969265
_cell_angle_gamma   50.19768720
_symmetry_Int_Tables_number   1
_chemical_formula_structural   Dy4ErVReO12
_chemical_formula_sum   'Dy4 Er1 V1 Re1 O12'
_cell_volume   251.10232007
_cell_formula_units_Z   1
loop_
 _symmetry_equiv_pos_site_id
 _symmetry_equiv_pos_as_xyz
  1  'x, y, z'
loop_
 _atom_site_type_symbol
 _atom_site_label
 _atom_site_symmetry_multiplicity
 _atom_site_fract_x
 _atom_site_fract_y
 _atom_site_fract_z
 _atom_site_occupancy
  Dy  Dy0  1  0.708717  0.681612  0.640580  1
  Dy  Dy1  1  0.318388  0.291283  0.359420  1
  Dy  Dy2  1  0.686652  0.684743  0.176376  1
  Dy  Dy3  1  0.315257  0.313348  0.823624  1
  Er  Er4  1  0.006964  0.993036  0.500000  1
  V  V5  1  0.767927  0.232073  0.000000  1
  Re  Re6  1  0.217810  0.782190  0.000000  1
  O  O7  1  0.999337  0.003124  0.198477  1
  O  O8  1  0.996876  0.000663  0.801523  1
  O  O9  1  0.572006  0.091377  0.083479  1
  O  O10  1  0.410231  0.906100  0.917611  1
  O  O11  1  0.908623  0.427994  0.916521  1
  O  O12  1  0.093900  0.589769  0.082389  1
  O  O13  1  0.488388  0.510835  0.180629  1
  O  O14  1  0.489165  0.511612  0.819371  1
  O  O15  1  0.405662  0.895469  0.430439  1
  O  O16  1  0.599400  0.089833  0.577646  1
  O  O17  1  0.104531  0.594338  0.569561  1
  O  O18  1  0.910167  0.400600  0.422354  1
