# generated using pymatgen
data_Tm4Fe2Co3Mo4P12Rh11
_symmetry_space_group_name_H-M   'P 1'
_cell_length_a   3.82577800
_cell_length_b   10.68131659
_cell_length_c   12.31637500
_cell_angle_alpha   89.84399534
_cell_angle_beta   90.00000000
_cell_angle_gamma   90.00000000
_symmetry_Int_Tables_number   1
_chemical_formula_structural   Tm4Fe2Co3Mo4P12Rh11
_chemical_formula_sum   'Tm4 Fe2 Co3 Mo4 P12 Rh11'
_cell_volume   503.29874426
_cell_formula_units_Z   1
loop_
 _symmetry_equiv_pos_site_id
 _symmetry_equiv_pos_as_xyz
  1  'x, y, z'
loop_
 _atom_site_type_symbol
 _atom_site_label
 _atom_site_symmetry_multiplicity
 _atom_site_fract_x
 _atom_site_fract_y
 _atom_site_fract_z
 _atom_site_occupancy
  Tm  Tm0  1  0.250000  0.580589  0.710214  1
  Tm  Tm1  1  0.250000  0.916546  0.208034  1
  Tm  Tm2  1  0.750000  0.416147  0.292043  1
  Tm  Tm3  1  0.750000  0.086104  0.792250  1
  Fe  Fe4  1  0.250000  0.464865  0.933745  1
  Fe  Fe5  1  0.250000  0.035902  0.438025  1
  Co  Co6  1  0.750000  0.386783  0.803022  1
  Co  Co7  1  0.750000  0.536050  0.062101  1
  Co  Co8  1  0.750000  0.963942  0.564816  1
  Mo  Mo9  1  0.250000  0.705480  0.984564  1
  Mo  Mo10  1  0.250000  0.793773  0.486383  1
  Mo  Mo11  1  0.750000  0.294853  0.010722  1
  Mo  Mo12  1  0.750000  0.207429  0.515130  1
  P  P13  1  0.250000  0.422743  0.106180  1
  P  P14  1  0.250000  0.079829  0.608930  1
  P  P15  1  0.750000  0.568283  0.886446  1
  P  P16  1  0.750000  0.924024  0.391709  1
  P  P17  1  0.250000  0.273697  0.869844  1
  P  P18  1  0.250000  0.230354  0.372075  1
  P  P19  1  0.750000  0.730656  0.127058  1
  P  P20  1  0.750000  0.768622  0.628925  1
  P  P21  1  0.250000  0.597974  0.391228  1
  P  P22  1  0.250000  0.901761  0.890179  1
  P  P23  1  0.750000  0.400492  0.617074  1
  P  P24  1  0.750000  0.100106  0.108594  1
  Rh  Rh25  1  0.250000  0.405483  0.485526  1
  Rh  Rh26  1  0.250000  0.095946  0.983353  1
  Rh  Rh27  1  0.750000  0.593509  0.517454  1
  Rh  Rh28  1  0.750000  0.905736  0.013920  1
  Rh  Rh29  1  0.250000  0.229625  0.179688  1
  Rh  Rh30  1  0.250000  0.275960  0.682821  1
  Rh  Rh31  1  0.750000  0.767928  0.819232  1
  Rh  Rh32  1  0.750000  0.728335  0.319631  1
  Rh  Rh33  1  0.250000  0.891743  0.700107  1
  Rh  Rh34  1  0.250000  0.608812  0.199045  1
  Rh  Rh35  1  0.750000  0.109921  0.299936  1
