# generated using pymatgen
data_Dy3ZnCdIn3Ir
_symmetry_space_group_name_H-M   'P 1'
_cell_length_a   7.91731500
_cell_length_b   7.91731532
_cell_length_c   3.83450400
_cell_angle_alpha   90.00000000
_cell_angle_beta   90.00000000
_cell_angle_gamma   120.00000284
_symmetry_Int_Tables_number   1
_chemical_formula_structural   Dy3ZnCdIn3Ir
_chemical_formula_sum   'Dy3 Zn1 Cd1 In3 Ir1'
_cell_volume   208.15923366
_cell_formula_units_Z   1
loop_
 _symmetry_equiv_pos_site_id
 _symmetry_equiv_pos_as_xyz
  1  'x, y, z'
loop_
 _atom_site_type_symbol
 _atom_site_label
 _atom_site_symmetry_multiplicity
 _atom_site_fract_x
 _atom_site_fract_y
 _atom_site_fract_z
 _atom_site_occupancy
  Dy  Dy0  1  0.581351  0.616572  0.000000  1
  Dy  Dy1  1  0.383428  0.964779  0.000000  1
  Dy  Dy2  1  0.035221  0.418649  0.000000  1
  Zn  Zn3  1  0.000000  0.000000  0.000000  1
  Cd  Cd4  1  0.666667  0.333333  0.500000  1
  In  In5  1  0.998882  0.739235  0.500000  1
  In  In6  1  0.260765  0.259648  0.500000  1
  In  In7  1  0.740352  0.001118  0.500000  1
  Ir  Ir8  1  0.333333  0.666667  0.500000  1
