# generated using pymatgen
data_TbPr8SmB2Br15
_symmetry_space_group_name_H-M   'P 1'
_cell_length_a   9.42651451
_cell_length_b   10.24287410
_cell_length_c   11.09637968
_cell_angle_alpha   91.30991498
_cell_angle_beta   114.46503394
_cell_angle_gamma   110.74994412
_symmetry_Int_Tables_number   1
_chemical_formula_structural   TbPr8SmB2Br15
_chemical_formula_sum   'Tb1 Pr8 Sm1 B2 Br15'
_cell_volume   893.66954332
_cell_formula_units_Z   1
loop_
 _symmetry_equiv_pos_site_id
 _symmetry_equiv_pos_as_xyz
  1  'x, y, z'
loop_
 _atom_site_type_symbol
 _atom_site_label
 _atom_site_symmetry_multiplicity
 _atom_site_fract_x
 _atom_site_fract_y
 _atom_site_fract_z
 _atom_site_occupancy
  Tb  Tb0  1  0.282939  0.927450  0.953408  1
  Pr  Pr1  1  0.801658  0.409302  0.276253  1
  Pr  Pr2  1  0.197115  0.590022  0.723159  1
  Pr  Pr3  1  0.675471  0.746714  0.820730  1
  Pr  Pr4  1  0.323474  0.253194  0.179390  1
  Pr  Pr5  1  0.526176  0.704677  0.096759  1
  Pr  Pr6  1  0.473354  0.295093  0.903136  1
  Pr  Pr7  1  0.586899  0.037550  0.325279  1
  Pr  Pr8  1  0.412341  0.962135  0.674436  1
  Sm  Sm9  1  0.721170  0.073216  0.046988  1
  B  B10  1  0.465367  0.821472  0.877403  1
  B  B11  1  0.530948  0.177089  0.121660  1
  Br  Br12  1  0.001616  0.999126  0.999476  1
  Br  Br13  1  0.636355  0.881806  0.583144  1
  Br  Br14  1  0.363474  0.118083  0.416890  1
  Br  Br15  1  0.883397  0.298681  0.528374  1
  Br  Br16  1  0.116265  0.701059  0.471364  1
  Br  Br17  1  0.282148  0.766086  0.170130  1
  Br  Br18  1  0.716145  0.235660  0.826593  1
  Br  Br19  1  0.047953  0.335108  0.220650  1
  Br  Br20  1  0.159536  0.050334  0.711189  1
  Br  Br21  1  0.840477  0.947538  0.291705  1
  Br  Br22  1  0.229425  0.409934  0.943832  1
  Br  Br23  1  0.770266  0.589915  0.056074  1
  Br  Br24  1  0.408082  0.462834  0.658571  1
  Br  Br25  1  0.591903  0.537139  0.341443  1
  Br  Br26  1  0.956047  0.668785  0.781965  1
