# generated using pymatgen
data_La3Sm(Si5Pt3)2
_symmetry_space_group_name_H-M   'P 1'
_cell_length_a   8.30921612
_cell_length_b   8.30630114
_cell_length_c   8.30630102
_cell_angle_alpha   136.55587173
_cell_angle_beta   105.64138758
_cell_angle_gamma   90.24311783
_symmetry_Int_Tables_number   1
_chemical_formula_structural   La3Sm(Si5Pt3)2
_chemical_formula_sum   'La3 Sm1 Si10 Pt6'
_cell_volume   361.89468483
_cell_formula_units_Z   1
loop_
 _symmetry_equiv_pos_site_id
 _symmetry_equiv_pos_as_xyz
  1  'x, y, z'
loop_
 _atom_site_type_symbol
 _atom_site_label
 _atom_site_symmetry_multiplicity
 _atom_site_fract_x
 _atom_site_fract_y
 _atom_site_fract_z
 _atom_site_occupancy
  La  La0  1  0.637900  0.371021  0.266879  1
  La  La1  1  0.361915  0.629074  0.732841  1
  La  La2  1  0.103335  0.870765  0.232570  1
  Sm  Sm3  1  0.897678  0.128630  0.769049  1
  Si  Si4  1  0.269467  0.520663  0.250139  1
  Si  Si5  1  0.729505  0.478104  0.749195  1
  Si  Si6  1  0.729505  0.980310  0.251401  1
  Si  Si7  1  0.269467  0.019328  0.748804  1
  Si  Si8  1  0.464522  0.113211  0.351311  1
  Si  Si9  1  0.538004  0.889152  0.648853  1
  Si  Si10  1  0.761426  0.613502  0.147925  1
  Si  Si11  1  0.237625  0.385456  0.852169  1
  Si  Si12  1  0.999927  0.250930  0.250291  1
  Si  Si13  1  0.999927  0.749637  0.748997  1
  Pt  Pt14  1  0.244465  0.136007  0.108457  1
  Pt  Pt15  1  0.755192  0.864840  0.890352  1
  Pt  Pt16  1  0.024803  0.635977  0.388826  1
  Pt  Pt17  1  0.973031  0.362311  0.610720  1
  Pt  Pt18  1  0.501152  0.250513  0.750583  1
  Pt  Pt19  1  0.501152  0.750569  0.250638  1
