# generated using pymatgen
data_Hf4Fe4Si7
_symmetry_space_group_name_H-M   'P 1'
_cell_length_a   9.54609283
_cell_length_b   9.54602336
_cell_length_c   9.54609279
_cell_angle_alpha   93.98114504
_cell_angle_beta   93.98119143
_cell_angle_gamma   149.44591069
_symmetry_Int_Tables_number   1
_chemical_formula_structural   Hf4Fe4Si7
_chemical_formula_sum   'Hf8 Fe8 Si14'
_cell_volume   426.59130663
_cell_formula_units_Z   2
loop_
 _symmetry_equiv_pos_site_id
 _symmetry_equiv_pos_as_xyz
  1  'x, y, z'
loop_
 _atom_site_type_symbol
 _atom_site_label
 _atom_site_symmetry_multiplicity
 _atom_site_fract_x
 _atom_site_fract_y
 _atom_site_fract_z
 _atom_site_occupancy
  Hf  Hf0  1  0.137820  0.137817  0.275665  1
  Hf  Hf1  1  0.862180  0.862183  0.724335  1
  Hf  Hf2  1  0.862153  0.137817  0.999997  1
  Hf  Hf3  1  0.137847  0.862183  0.000003  1
  Hf  Hf4  1  0.499987  0.303937  0.803950  1
  Hf  Hf5  1  0.500013  0.696063  0.196050  1
  Hf  Hf6  1  0.696049  0.500000  0.196049  1
  Hf  Hf7  1  0.303951  0.500000  0.803951  1
  Fe  Fe8  1  0.398361  0.898370  0.796750  1
  Fe  Fe9  1  0.101653  0.601651  0.203279  1
  Fe  Fe10  1  0.101620  0.898370  0.500009  1
  Fe  Fe11  1  0.398372  0.601651  0.499998  1
  Fe  Fe12  1  0.601628  0.398349  0.500002  1
  Fe  Fe13  1  0.898380  0.101630  0.499991  1
  Fe  Fe14  1  0.898347  0.398349  0.796721  1
  Fe  Fe15  1  0.601639  0.101630  0.203250  1
  Si  Si16  1  0.500071  0.091429  0.591358  1
  Si  Si17  1  0.499929  0.908571  0.408642  1
  Si  Si18  1  0.908641  0.500000  0.408641  1
  Si  Si19  1  0.091359  0.500000  0.591359  1
  Si  Si20  1  0.749848  0.749859  0.000011  1
  Si  Si21  1  0.250152  0.250141  0.999989  1
  Si  Si22  1  0.290385  0.290386  0.580558  1
  Si  Si23  1  0.709615  0.709614  0.419442  1
  Si  Si24  1  0.709827  0.290386  0.000001  1
  Si  Si25  1  0.290173  0.709614  0.999999  1
  Si  Si26  1  0.000089  0.298688  0.298599  1
  Si  Si27  1  0.999911  0.701312  0.701401  1
  Si  Si28  1  0.701404  0.000000  0.701404  1
  Si  Si29  1  0.298596  0.000000  0.298596  1
