# generated using pymatgen
data_Hf15Sc3Cr2(Re3P)2
_symmetry_space_group_name_H-M   'P 1'
_cell_length_a   8.56955300
_cell_length_b   8.56955360
_cell_length_c   8.46967800
_cell_angle_alpha   90.00000000
_cell_angle_beta   90.00000000
_cell_angle_gamma   120.00000155
_symmetry_Int_Tables_number   1
_chemical_formula_structural   Hf15Sc3Cr2(Re3P)2
_chemical_formula_sum   'Hf15 Sc3 Cr2 Re6 P2'
_cell_volume   538.65896604
_cell_formula_units_Z   1
loop_
 _symmetry_equiv_pos_site_id
 _symmetry_equiv_pos_as_xyz
  1  'x, y, z'
loop_
 _atom_site_type_symbol
 _atom_site_label
 _atom_site_symmetry_multiplicity
 _atom_site_fract_x
 _atom_site_fract_y
 _atom_site_fract_z
 _atom_site_occupancy
  Hf  Hf0  1  0.194191  0.805809  0.451042  1
  Hf  Hf1  1  0.194191  0.388381  0.451042  1
  Hf  Hf2  1  0.611619  0.805809  0.451042  1
  Hf  Hf3  1  0.805615  0.194385  0.548897  1
  Hf  Hf4  1  0.805615  0.611233  0.548897  1
  Hf  Hf5  1  0.388767  0.194385  0.548897  1
  Hf  Hf6  1  0.805615  0.194385  0.951103  1
  Hf  Hf7  1  0.805615  0.611233  0.951103  1
  Hf  Hf8  1  0.388767  0.194385  0.951103  1
  Hf  Hf9  1  0.194191  0.805809  0.048958  1
  Hf  Hf10  1  0.194191  0.388381  0.048958  1
  Hf  Hf11  1  0.611619  0.805809  0.048958  1
  Hf  Hf12  1  0.459334  0.540666  0.750000  1
  Hf  Hf13  1  0.459334  0.918669  0.750000  1
  Hf  Hf14  1  0.081331  0.540666  0.750000  1
  Sc  Sc15  1  0.540472  0.459528  0.250000  1
  Sc  Sc16  1  0.540472  0.080945  0.250000  1
  Sc  Sc17  1  0.919055  0.459528  0.250000  1
  Cr  Cr18  1  0.000000  0.000000  0.498653  1
  Cr  Cr19  1  0.000000  0.000000  0.001347  1
  Re  Re20  1  0.892439  0.107561  0.250000  1
  Re  Re21  1  0.892439  0.784876  0.250000  1
  Re  Re22  1  0.215124  0.107561  0.250000  1
  Re  Re23  1  0.107295  0.892705  0.750000  1
  Re  Re24  1  0.107295  0.214590  0.750000  1
  Re  Re25  1  0.785410  0.892705  0.750000  1
  P  P26  1  0.333333  0.666667  0.250000  1
  P  P27  1  0.666667  0.333333  0.750000  1
