# generated using pymatgen
data_Tb15Y2Lu3Pb16
_symmetry_space_group_name_H-M   'P 1'
_cell_length_a   8.19412102
_cell_length_b   8.29173742
_cell_length_c   15.68246201
_cell_angle_alpha   90.00397700
_cell_angle_beta   89.99900287
_cell_angle_gamma   89.93868873
_symmetry_Int_Tables_number   1
_chemical_formula_structural   Tb15Y2Lu3Pb16
_chemical_formula_sum   'Tb15 Y2 Lu3 Pb16'
_cell_volume   1065.52074385
_cell_formula_units_Z   1
loop_
 _symmetry_equiv_pos_site_id
 _symmetry_equiv_pos_as_xyz
  1  'x, y, z'
loop_
 _atom_site_type_symbol
 _atom_site_label
 _atom_site_symmetry_multiplicity
 _atom_site_fract_x
 _atom_site_fract_y
 _atom_site_fract_z
 _atom_site_occupancy
  Tb  Tb0  1  0.876714  0.658839  0.620384  1
  Tb  Tb1  1  0.623851  0.159378  0.379814  1
  Tb  Tb2  1  0.122792  0.341397  0.120250  1
  Tb  Tb3  1  0.623856  0.159423  0.120200  1
  Tb  Tb4  1  0.122759  0.341388  0.379723  1
  Tb  Tb5  1  0.376850  0.841090  0.620635  1
  Tb  Tb6  1  0.876789  0.658854  0.879628  1
  Tb  Tb7  1  0.533788  0.323056  0.899994  1
  Tb  Tb8  1  0.033857  0.176884  0.600200  1
  Tb  Tb9  1  0.466536  0.676441  0.399993  1
  Tb  Tb10  1  0.965879  0.822772  0.099974  1
  Tb  Tb11  1  0.466502  0.676429  0.099989  1
  Tb  Tb12  1  0.965878  0.822799  0.400029  1
  Tb  Tb13  1  0.533799  0.323113  0.600028  1
  Tb  Tb14  1  0.033892  0.176873  0.899801  1
  Y  Y15  1  0.376768  0.841142  0.879368  1
  Y  Y16  1  0.291556  0.003578  0.249999  1
  Lu  Lu17  1  0.208798  0.503850  0.750016  1
  Lu  Lu18  1  0.708740  0.995975  0.749993  1
  Lu  Lu19  1  0.791120  0.495950  0.250003  1
  Pb  Pb20  1  0.281212  0.033035  0.042818  1
  Pb  Pb21  1  0.781320  0.467206  0.456353  1
  Pb  Pb22  1  0.718686  0.967292  0.543835  1
  Pb  Pb23  1  0.218868  0.532909  0.956195  1
  Pb  Pb24  1  0.718570  0.967266  0.956148  1
  Pb  Pb25  1  0.218797  0.532848  0.543809  1
  Pb  Pb26  1  0.281200  0.033119  0.457119  1
  Pb  Pb27  1  0.781325  0.467207  0.043651  1
  Pb  Pb28  1  0.571376  0.626333  0.749990  1
  Pb  Pb29  1  0.071422  0.873514  0.750020  1
  Pb  Pb30  1  0.428916  0.374672  0.249998  1
  Pb  Pb31  1  0.926767  0.127226  0.250006  1
  Pb  Pb32  1  0.345632  0.153841  0.750018  1
  Pb  Pb33  1  0.845428  0.346613  0.750017  1
  Pb  Pb34  1  0.655407  0.846195  0.249998  1
  Pb  Pb35  1  0.154352  0.651495  0.250004  1
