# generated using pymatgen
data_LiHf5Sc2(Si4Mo3)4
_symmetry_space_group_name_H-M   'P 1'
_cell_length_a   6.55272088
_cell_length_b   6.75624729
_cell_length_c   12.65775375
_cell_angle_alpha   90.06564832
_cell_angle_beta   89.81545004
_cell_angle_gamma   90.05545139
_symmetry_Int_Tables_number   1
_chemical_formula_structural   LiHf5Sc2(Si4Mo3)4
_chemical_formula_sum   'Li1 Hf5 Sc2 Si16 Mo12'
_cell_volume   560.37804119
_cell_formula_units_Z   1
loop_
 _symmetry_equiv_pos_site_id
 _symmetry_equiv_pos_as_xyz
  1  'x, y, z'
loop_
 _atom_site_type_symbol
 _atom_site_label
 _atom_site_symmetry_multiplicity
 _atom_site_fract_x
 _atom_site_fract_y
 _atom_site_fract_z
 _atom_site_occupancy
  Li  Li0  1  0.976261  0.164591  0.085901  1
  Hf  Hf1  1  0.005287  0.831905  0.593313  1
  Hf  Hf2  1  0.498568  0.328936  0.095035  1
  Hf  Hf3  1  0.997501  0.169645  0.407558  1
  Hf  Hf4  1  0.493865  0.330040  0.405141  1
  Hf  Hf5  1  0.505952  0.669896  0.592348  1
  Sc  Sc6  1  0.006178  0.830009  0.910423  1
  Sc  Sc7  1  0.503814  0.669578  0.910462  1
  Si  Si8  1  0.033799  0.126130  0.752361  1
  Si  Si9  1  0.970297  0.879788  0.246376  1
  Si  Si10  1  0.465372  0.623926  0.250397  1
  Si  Si11  1  0.534012  0.378046  0.750107  1
  Si  Si12  1  0.302621  0.860330  0.752192  1
  Si  Si13  1  0.707399  0.138285  0.245731  1
  Si  Si14  1  0.188784  0.353594  0.242909  1
  Si  Si15  1  0.802094  0.640861  0.753367  1
  Si  Si16  1  0.169262  0.459288  0.542686  1
  Si  Si17  1  0.832336  0.540993  0.457205  1
  Si  Si18  1  0.334524  0.958782  0.457023  1
  Si  Si19  1  0.838838  0.531332  0.047145  1
  Si  Si20  1  0.667647  0.042171  0.541950  1
  Si  Si21  1  0.165255  0.458355  0.956345  1
  Si  Si22  1  0.664442  0.037271  0.956614  1
  Si  Si23  1  0.326707  0.969048  0.046593  1
  Mo  Mo24  1  0.168375  0.510716  0.749251  1
  Mo  Mo25  1  0.831182  0.492623  0.252494  1
  Mo  Mo26  1  0.336898  0.011341  0.251516  1
  Mo  Mo27  1  0.668186  0.992128  0.748496  1
  Mo  Mo28  1  0.331853  0.161700  0.622842  1
  Mo  Mo29  1  0.670809  0.838636  0.376183  1
  Mo  Mo30  1  0.168556  0.663794  0.377001  1
  Mo  Mo31  1  0.666199  0.832447  0.123808  1
  Mo  Mo32  1  0.832156  0.337964  0.622996  1
  Mo  Mo33  1  0.334962  0.164702  0.875253  1
  Mo  Mo34  1  0.828485  0.336168  0.875869  1
  Mo  Mo35  1  0.171524  0.664979  0.125107  1
