# generated using pymatgen
data_Eu4Ta3CrO14
_symmetry_space_group_name_H-M   'P 1'
_cell_length_a   7.50302457
_cell_length_b   7.50302459
_cell_length_c   7.43634608
_cell_angle_alpha   59.70294452
_cell_angle_beta   59.70294557
_cell_angle_gamma   60.00000111
_symmetry_Int_Tables_number   1
_chemical_formula_structural   Eu4Ta3CrO14
_chemical_formula_sum   'Eu4 Ta3 Cr1 O14'
_cell_volume   294.68138302
_cell_formula_units_Z   1
loop_
 _symmetry_equiv_pos_site_id
 _symmetry_equiv_pos_as_xyz
  1  'x, y, z'
loop_
 _atom_site_type_symbol
 _atom_site_label
 _atom_site_symmetry_multiplicity
 _atom_site_fract_x
 _atom_site_fract_y
 _atom_site_fract_z
 _atom_site_occupancy
  Eu  Eu0  1  0.125000  0.625000  0.125000  1
  Eu  Eu1  1  0.125000  0.125000  0.625000  1
  Eu  Eu2  1  0.625000  0.125000  0.125000  1
  Eu  Eu3  1  0.125000  0.125000  0.125000  1
  Ta  Ta4  1  0.625000  0.625000  0.625000  1
  Ta  Ta5  1  0.125000  0.625000  0.625000  1
  Ta  Ta6  1  0.625000  0.125000  0.625000  1
  Cr  Cr7  1  0.625000  0.625000  0.125000  1
  O  O8  1  0.305369  0.695799  0.693465  1
  O  O9  1  0.552784  0.951148  0.943286  1
  O  O10  1  0.697216  0.697216  0.306714  1
  O  O11  1  0.305369  0.305369  0.693465  1
  O  O12  1  0.000112  0.000112  0.999665  1
  O  O13  1  0.298852  0.697216  0.306714  1
  O  O14  1  0.695799  0.305369  0.693465  1
  O  O15  1  0.951148  0.552784  0.943286  1
  O  O16  1  0.552784  0.552784  0.943286  1
  O  O17  1  0.944631  0.944631  0.556535  1
  O  O18  1  0.249888  0.249888  0.250335  1
  O  O19  1  0.554201  0.944631  0.556535  1
  O  O20  1  0.697216  0.298852  0.306714  1
  O  O21  1  0.944631  0.554201  0.556535  1
