# generated using pymatgen
data_Sc4Al18(IrPt)3
_symmetry_space_group_name_H-M   'P 1'
_cell_length_a   7.51179480
_cell_length_b   7.51179492
_cell_length_c   9.29917707
_cell_angle_alpha   89.97152521
_cell_angle_beta   89.97153056
_cell_angle_gamma   119.77916583
_symmetry_Int_Tables_number   1
_chemical_formula_structural   Sc4Al18(IrPt)3
_chemical_formula_sum   'Sc4 Al18 Ir3 Pt3'
_cell_volume   455.43300743
_cell_formula_units_Z   1
loop_
 _symmetry_equiv_pos_site_id
 _symmetry_equiv_pos_as_xyz
  1  'x, y, z'
loop_
 _atom_site_type_symbol
 _atom_site_label
 _atom_site_symmetry_multiplicity
 _atom_site_fract_x
 _atom_site_fract_y
 _atom_site_fract_z
 _atom_site_occupancy
  Sc  Sc0  1  0.997209  0.670298  0.750883  1
  Sc  Sc1  1  0.003579  0.329925  0.249077  1
  Sc  Sc2  1  0.670075  0.996421  0.750923  1
  Sc  Sc3  1  0.329702  0.002791  0.249117  1
  Al  Al4  1  0.122182  0.122873  0.750361  1
  Al  Al5  1  0.877127  0.877818  0.249639  1
  Al  Al6  1  0.997231  0.331485  0.578417  1
  Al  Al7  1  0.002281  0.669131  0.421021  1
  Al  Al8  1  0.999553  0.665248  0.076943  1
  Al  Al9  1  0.334752  0.000447  0.923057  1
  Al  Al10  1  0.994146  0.331022  0.922507  1
  Al  Al11  1  0.668978  0.005854  0.077493  1
  Al  Al12  1  0.668515  0.002769  0.421583  1
  Al  Al13  1  0.330869  0.997719  0.578979  1
  Al  Al14  1  0.330482  0.327044  0.060677  1
  Al  Al15  1  0.672956  0.669518  0.939323  1
  Al  Al16  1  0.672236  0.672514  0.564504  1
  Al  Al17  1  0.327486  0.327764  0.435496  1
  Al  Al18  1  0.339244  0.548363  0.750478  1
  Al  Al19  1  0.660137  0.449316  0.247839  1
  Al  Al20  1  0.550684  0.339863  0.752161  1
  Al  Al21  1  0.451637  0.660756  0.249522  1
  Ir  Ir22  1  0.671972  0.328028  0.000000  1
  Ir  Ir23  1  0.999699  0.000301  0.500000  1
  Ir  Ir24  1  0.000210  0.999790  0.000000  1
  Pt  Pt25  1  0.672056  0.327944  0.500000  1
  Pt  Pt26  1  0.327420  0.672580  0.500000  1
  Pt  Pt27  1  0.327584  0.672416  0.000000  1
