# generated using pymatgen
data_ErTm3Ga12Ir
_symmetry_space_group_name_H-M   'P 1'
_cell_length_a   7.41699744
_cell_length_b   7.41181073
_cell_length_c   7.41699823
_cell_angle_alpha   109.45705852
_cell_angle_beta   109.48539296
_cell_angle_gamma   109.45704897
_symmetry_Int_Tables_number   1
_chemical_formula_structural   ErTm3Ga12Ir
_chemical_formula_sum   'Er1 Tm3 Ga12 Ir1'
_cell_volume   313.93127704
_cell_formula_units_Z   1
loop_
 _symmetry_equiv_pos_site_id
 _symmetry_equiv_pos_as_xyz
  1  'x, y, z'
loop_
 _atom_site_type_symbol
 _atom_site_label
 _atom_site_symmetry_multiplicity
 _atom_site_fract_x
 _atom_site_fract_y
 _atom_site_fract_z
 _atom_site_occupancy
  Er  Er0  1  0.000000  0.500000  0.000000  1
  Tm  Tm1  1  0.000000  0.000000  0.500000  1
  Tm  Tm2  1  0.500000  0.000000  0.000000  1
  Tm  Tm3  1  0.500000  0.500000  0.500000  1
  Ga  Ga4  1  0.749954  0.249954  0.499907  1
  Ga  Ga5  1  0.749954  0.500000  0.250046  1
  Ga  Ga6  1  0.499907  0.249954  0.749954  1
  Ga  Ga7  1  0.250046  0.500000  0.749954  1
  Ga  Ga8  1  0.250046  0.750046  0.500093  1
  Ga  Ga9  1  0.500093  0.750046  0.250046  1
  Ga  Ga10  1  0.707009  0.707114  0.000000  1
  Ga  Ga11  1  0.292991  0.000105  0.292991  1
  Ga  Ga12  1  0.000000  0.292886  0.292991  1
  Ga  Ga13  1  0.292991  0.292886  0.000000  1
  Ga  Ga14  1  0.707009  0.999895  0.707009  1
  Ga  Ga15  1  0.000000  0.707114  0.707009  1
  Ir  Ir16  1  0.000000  0.000000  0.000000  1
