# generated using pymatgen
data_K2Hf9Zr3(BI14)2
_symmetry_space_group_name_H-M   'P 1'
_cell_length_a   11.20967356
_cell_length_b   11.22308135
_cell_length_c   12.86180807
_cell_angle_alpha   90.06823739
_cell_angle_beta   90.02776683
_cell_angle_gamma   91.35533917
_symmetry_Int_Tables_number   1
_chemical_formula_structural   K2Hf9Zr3(BI14)2
_chemical_formula_sum   'K2 Hf9 Zr3 B2 I28'
_cell_volume   1617.65243670
_cell_formula_units_Z   1
loop_
 _symmetry_equiv_pos_site_id
 _symmetry_equiv_pos_as_xyz
  1  'x, y, z'
loop_
 _atom_site_type_symbol
 _atom_site_label
 _atom_site_symmetry_multiplicity
 _atom_site_fract_x
 _atom_site_fract_y
 _atom_site_fract_z
 _atom_site_occupancy
  K  K0  1  0.498879  0.502406  0.995529  1
  K  K1  1  0.004889  0.000554  0.501596  1
  Hf  Hf2  1  0.375632  0.377224  0.405672  1
  Hf  Hf3  1  0.622947  0.622424  0.595454  1
  Hf  Hf4  1  0.123667  0.123311  0.905233  1
  Hf  Hf5  1  0.876780  0.877414  0.094884  1
  Hf  Hf6  1  0.952095  0.161976  0.109771  1
  Hf  Hf7  1  0.047711  0.838019  0.889953  1
  Hf  Hf8  1  0.546451  0.338356  0.610066  1
  Hf  Hf9  1  0.661786  0.451552  0.389805  1
  Hf  Hf10  1  0.452318  0.661406  0.390938  1
  Zr  Zr11  1  0.337526  0.547915  0.610750  1
  Zr  Zr12  1  0.836828  0.047741  0.888612  1
  Zr  Zr13  1  0.163573  0.952662  0.111218  1
  B  B14  1  0.000321  0.000240  0.999786  1
  B  B15  1  0.501501  0.499200  0.499020  1
  I  I16  1  0.097322  0.346096  0.009805  1
  I  I17  1  0.902061  0.654448  0.990775  1
  I  I18  1  0.401146  0.154115  0.509192  1
  I  I19  1  0.845764  0.596393  0.490878  1
  I  I20  1  0.599054  0.845033  0.490979  1
  I  I21  1  0.152070  0.400395  0.508280  1
  I  I22  1  0.652906  0.899780  0.992179  1
  I  I23  1  0.347436  0.100832  0.008174  1
  I  I24  1  0.750699  0.249948  0.001101  1
  I  I25  1  0.248840  0.749957  0.998739  1
  I  I26  1  0.747423  0.250625  0.499834  1
  I  I27  1  0.251488  0.750765  0.499105  1
  I  I28  1  0.886197  0.387278  0.250173  1
  I  I29  1  0.110189  0.614314  0.750169  1
  I  I30  1  0.611708  0.113272  0.748493  1
  I  I31  1  0.390233  0.885609  0.249811  1
  I  I32  1  0.140000  0.144441  0.266286  1
  I  I33  1  0.859916  0.856146  0.733543  1
  I  I34  1  0.358881  0.356630  0.766343  1
  I  I35  1  0.640881  0.639965  0.235343  1
  I  I36  1  0.290566  0.535421  0.248616  1
  I  I37  1  0.709533  0.463882  0.751699  1
  I  I38  1  0.210174  0.964278  0.748803  1
  I  I39  1  0.032412  0.790565  0.253061  1
  I  I40  1  0.790395  0.035987  0.251473  1
  I  I41  1  0.968133  0.210112  0.746940  1
  I  I42  1  0.467984  0.710662  0.753494  1
  I  I43  1  0.533689  0.290654  0.248426  1
