# generated using pymatgen
data_CaPr8Ho11Sn16
_symmetry_space_group_name_H-M   'P 1'
_cell_length_a   8.08610781
_cell_length_b   8.32144376
_cell_length_c   15.69850600
_cell_angle_alpha   90.00000000
_cell_angle_beta   90.00000000
_cell_angle_gamma   90.19847571
_symmetry_Int_Tables_number   1
_chemical_formula_structural   CaPr8Ho11Sn16
_chemical_formula_sum   'Ca1 Pr8 Ho11 Sn16'
_cell_volume   1056.31616779
_cell_formula_units_Z   1
loop_
 _symmetry_equiv_pos_site_id
 _symmetry_equiv_pos_as_xyz
  1  'x, y, z'
loop_
 _atom_site_type_symbol
 _atom_site_label
 _atom_site_symmetry_multiplicity
 _atom_site_fract_x
 _atom_site_fract_y
 _atom_site_fract_z
 _atom_site_occupancy
  Ca  Ca0  1  0.312592  0.999342  0.250000  1
  Pr  Pr1  1  0.510225  0.323588  0.902938  1
  Pr  Pr2  1  0.009218  0.177813  0.597378  1
  Pr  Pr3  1  0.490628  0.679933  0.404141  1
  Pr  Pr4  1  0.992818  0.821682  0.094832  1
  Pr  Pr5  1  0.490628  0.679933  0.095859  1
  Pr  Pr6  1  0.992818  0.821682  0.405168  1
  Pr  Pr7  1  0.510225  0.323588  0.597062  1
  Pr  Pr8  1  0.009218  0.177813  0.902622  1
  Ho  Ho9  1  0.352969  0.833324  0.874814  1
  Ho  Ho10  1  0.852422  0.664956  0.623592  1
  Ho  Ho11  1  0.644843  0.166693  0.376982  1
  Ho  Ho12  1  0.146870  0.332624  0.122021  1
  Ho  Ho13  1  0.644843  0.166693  0.123018  1
  Ho  Ho14  1  0.146870  0.332624  0.377979  1
  Ho  Ho15  1  0.352969  0.833324  0.625186  1
  Ho  Ho16  1  0.852422  0.664956  0.876408  1
  Ho  Ho17  1  0.187261  0.501393  0.750000  1
  Ho  Ho18  1  0.686598  0.998315  0.750000  1
  Ho  Ho19  1  0.812828  0.498022  0.250000  1
  Sn  Sn20  1  0.311363  0.042872  0.037286  1
  Sn  Sn21  1  0.809727  0.460013  0.457792  1
  Sn  Sn22  1  0.688313  0.958667  0.541584  1
  Sn  Sn23  1  0.190006  0.540496  0.957871  1
  Sn  Sn24  1  0.688313  0.958667  0.958416  1
  Sn  Sn25  1  0.190006  0.540496  0.542129  1
  Sn  Sn26  1  0.311363  0.042872  0.462714  1
  Sn  Sn27  1  0.809727  0.460013  0.042208  1
  Sn  Sn28  1  0.552378  0.624010  0.750000  1
  Sn  Sn29  1  0.050714  0.875868  0.750000  1
  Sn  Sn30  1  0.446389  0.381188  0.250000  1
  Sn  Sn31  1  0.944223  0.123900  0.250000  1
  Sn  Sn32  1  0.317664  0.142726  0.750000  1
  Sn  Sn33  1  0.818080  0.357903  0.750000  1
  Sn  Sn34  1  0.692255  0.858270  0.250000  1
  Sn  Sn35  1  0.180217  0.633742  0.250000  1
