# generated using pymatgen
data_YbTmSc3Si7Pt9
_symmetry_space_group_name_H-M   'P 1'
_cell_length_a   10.08109800
_cell_length_b   10.08109666
_cell_length_c   3.94305400
_cell_angle_alpha   90.00000000
_cell_angle_beta   90.00000000
_cell_angle_gamma   119.99999782
_symmetry_Int_Tables_number   1
_chemical_formula_structural   YbTmSc3Si7Pt9
_chemical_formula_sum   'Yb1 Tm1 Sc3 Si7 Pt9'
_cell_volume   347.03955807
_cell_formula_units_Z   1
loop_
 _symmetry_equiv_pos_site_id
 _symmetry_equiv_pos_as_xyz
  1  'x, y, z'
loop_
 _atom_site_type_symbol
 _atom_site_label
 _atom_site_symmetry_multiplicity
 _atom_site_fract_x
 _atom_site_fract_y
 _atom_site_fract_z
 _atom_site_occupancy
  Yb  Yb0  1  0.000000  0.000000  0.000000  1
  Tm  Tm1  1  0.333333  0.666667  0.500000  1
  Sc  Sc2  1  0.895048  0.457639  0.500000  1
  Sc  Sc3  1  0.562591  0.104952  0.500000  1
  Sc  Sc4  1  0.542361  0.437409  0.500000  1
  Si  Si5  1  0.243819  0.193280  0.500000  1
  Si  Si6  1  0.806720  0.050541  0.500000  1
  Si  Si7  1  0.949459  0.756181  0.500000  1
  Si  Si8  1  0.556089  0.647512  0.000000  1
  Si  Si9  1  0.352488  0.908575  0.000000  1
  Si  Si10  1  0.091425  0.443911  0.000000  1
  Si  Si11  1  0.666667  0.333333  0.000000  1
  Pt  Pt12  1  0.219240  0.935275  0.500000  1
  Pt  Pt13  1  0.064725  0.283966  0.500000  1
  Pt  Pt14  1  0.716034  0.780760  0.500000  1
  Pt  Pt15  1  0.314700  0.413903  0.000000  1
  Pt  Pt16  1  0.586097  0.900799  0.000000  1
  Pt  Pt17  1  0.099201  0.685300  0.000000  1
  Pt  Pt18  1  0.384799  0.173159  0.000000  1
  Pt  Pt19  1  0.826841  0.211640  0.000000  1
  Pt  Pt20  1  0.788360  0.615201  0.000000  1
