# generated using pymatgen
data_U4SiPRu6
_symmetry_space_group_name_H-M   'P 1'
_cell_length_a   5.50196903
_cell_length_b   5.50148840
_cell_length_c   7.57116903
_cell_angle_alpha   90.00000257
_cell_angle_beta   89.99125236
_cell_angle_gamma   60.00289215
_symmetry_Int_Tables_number   1
_chemical_formula_structural   U4SiPRu6
_chemical_formula_sum   'U4 Si1 P1 Ru6'
_cell_volume   198.47443135
_cell_formula_units_Z   1
loop_
 _symmetry_equiv_pos_site_id
 _symmetry_equiv_pos_as_xyz
  1  'x, y, z'
loop_
 _atom_site_type_symbol
 _atom_site_label
 _atom_site_symmetry_multiplicity
 _atom_site_fract_x
 _atom_site_fract_y
 _atom_site_fract_z
 _atom_site_occupancy
  U  U0  1  0.333610  0.333194  0.572403  1
  U  U1  1  0.666390  0.666806  0.427597  1
  U  U2  1  0.666428  0.666787  0.070542  1
  U  U3  1  0.333572  0.333213  0.929458  1
  Si  Si4  1  0.000000  0.000000  0.000000  1
  P  P5  1  0.000000  0.000000  0.500000  1
  Ru  Ru6  1  0.832396  0.335659  0.747422  1
  Ru  Ru7  1  0.335955  0.832021  0.747420  1
  Ru  Ru8  1  0.832396  0.831944  0.747422  1
  Ru  Ru9  1  0.167604  0.664341  0.252578  1
  Ru  Ru10  1  0.664045  0.167979  0.252580  1
  Ru  Ru11  1  0.167604  0.168056  0.252578  1
