# generated using pymatgen
data_Er4ScIr2Rh
_symmetry_space_group_name_H-M   'P 1'
_cell_length_a   10.68567200
_cell_length_b   10.68567200
_cell_length_c   6.25210900
_cell_angle_alpha   90.00000000
_cell_angle_beta   90.00000000
_cell_angle_gamma   90.00000000
_symmetry_Int_Tables_number   1
_chemical_formula_structural   Er4ScIr2Rh
_chemical_formula_sum   'Er16 Sc4 Ir8 Rh4'
_cell_volume   713.88822626
_cell_formula_units_Z   4
loop_
 _symmetry_equiv_pos_site_id
 _symmetry_equiv_pos_as_xyz
  1  'x, y, z'
loop_
 _atom_site_type_symbol
 _atom_site_label
 _atom_site_symmetry_multiplicity
 _atom_site_fract_x
 _atom_site_fract_y
 _atom_site_fract_z
 _atom_site_occupancy
  Er  Er0  1  0.287901  0.086495  0.377105  1
  Er  Er1  1  0.287901  0.913505  0.877105  1
  Er  Er2  1  0.712099  0.086495  0.877105  1
  Er  Er3  1  0.712099  0.913505  0.377105  1
  Er  Er4  1  0.586495  0.787901  0.877105  1
  Er  Er5  1  0.586495  0.212099  0.377105  1
  Er  Er6  1  0.413505  0.787901  0.377105  1
  Er  Er7  1  0.413505  0.212099  0.877105  1
  Er  Er8  1  0.212099  0.413505  0.622895  1
  Er  Er9  1  0.212099  0.586495  0.122895  1
  Er  Er10  1  0.787901  0.413505  0.122895  1
  Er  Er11  1  0.787901  0.586495  0.622895  1
  Er  Er12  1  0.913505  0.712099  0.122895  1
  Er  Er13  1  0.913505  0.287901  0.622895  1
  Er  Er14  1  0.086495  0.712099  0.622895  1
  Er  Er15  1  0.086495  0.287901  0.122895  1
  Sc  Sc16  1  0.000000  0.000000  0.500000  1
  Sc  Sc17  1  0.000000  0.000000  0.000000  1
  Sc  Sc18  1  0.500000  0.500000  0.000000  1
  Sc  Sc19  1  0.500000  0.500000  0.500000  1
  Ir  Ir20  1  0.851281  0.148719  0.250000  1
  Ir  Ir21  1  0.851281  0.851281  0.750000  1
  Ir  Ir22  1  0.148719  0.148719  0.750000  1
  Ir  Ir23  1  0.148719  0.851281  0.250000  1
  Ir  Ir24  1  0.648719  0.351281  0.750000  1
  Ir  Ir25  1  0.648719  0.648719  0.250000  1
  Ir  Ir26  1  0.351281  0.351281  0.250000  1
  Ir  Ir27  1  0.351281  0.648719  0.750000  1
  Rh  Rh28  1  0.500000  0.000000  0.122472  1
  Rh  Rh29  1  0.500000  0.000000  0.622472  1
  Rh  Rh30  1  0.000000  0.500000  0.877528  1
  Rh  Rh31  1  0.000000  0.500000  0.377528  1
