# generated using pymatgen
data_Ca12La8Si15Ag
_symmetry_space_group_name_H-M   'P 1'
_cell_length_a   8.04792191
_cell_length_b   7.97099077
_cell_length_c   14.69977900
_cell_angle_alpha   90.09861992
_cell_angle_beta   88.64275155
_cell_angle_gamma   90.32562957
_symmetry_Int_Tables_number   1
_chemical_formula_structural   Ca12La8Si15Ag
_chemical_formula_sum   'Ca12 La8 Si15 Ag1'
_cell_volume   942.70854278
_cell_formula_units_Z   1
loop_
 _symmetry_equiv_pos_site_id
 _symmetry_equiv_pos_as_xyz
  1  'x, y, z'
loop_
 _atom_site_type_symbol
 _atom_site_label
 _atom_site_symmetry_multiplicity
 _atom_site_fract_x
 _atom_site_fract_y
 _atom_site_fract_z
 _atom_site_occupancy
  Ca  Ca0  1  0.370426  0.487956  0.377604  1
  Ca  Ca1  1  0.857589  0.007783  0.369081  1
  Ca  Ca2  1  0.988546  0.131692  0.125375  1
  Ca  Ca3  1  0.018036  0.871897  0.626797  1
  Ca  Ca4  1  0.635366  0.507986  0.876292  1
  Ca  Ca5  1  0.501278  0.370689  0.627470  1
  Ca  Ca6  1  0.501009  0.633170  0.122919  1
  Ca  Ca7  1  0.133228  0.992017  0.874679  1
  Ca  Ca8  1  0.681371  0.684379  0.499765  1
  Ca  Ca9  1  0.821090  0.187651  0.750597  1
  Ca  Ca10  1  0.176622  0.812431  0.248572  1
  Ca  Ca11  1  0.310470  0.316486  0.999903  1
  La  La12  1  0.990301  0.629479  0.044882  1
  La  La13  1  0.013171  0.359603  0.544535  1
  La  La14  1  0.627071  0.993764  0.953878  1
  La  La15  1  0.137562  0.512690  0.791332  1
  La  La16  1  0.849880  0.482111  0.286798  1
  La  La17  1  0.498347  0.124680  0.202308  1
  La  La18  1  0.500592  0.870750  0.706498  1
  La  La19  1  0.378316  0.012684  0.457868  1
  Si  Si20  1  0.921175  0.292833  0.942449  1
  Si  Si21  1  0.714253  0.077476  0.557818  1
  Si  Si22  1  0.198770  0.424023  0.194767  1
  Si  Si23  1  0.805360  0.578243  0.690349  1
  Si  Si24  1  0.423442  0.209204  0.808779  1
  Si  Si25  1  0.569403  0.791758  0.307264  1
  Si  Si26  1  0.289307  0.921995  0.057603  1
  Si  Si27  1  0.842283  0.792284  0.807646  1
  Si  Si28  1  0.158206  0.208724  0.313788  1
  Si  Si29  1  0.783619  0.837796  0.188208  1
  Si  Si30  1  0.306448  0.664292  0.566518  1
  Si  Si31  1  0.705686  0.337341  0.060498  1
  Si  Si32  1  0.665821  0.293385  0.443507  1
  Si  Si33  1  0.337835  0.708315  0.940304  1
  Si  Si34  1  0.215276  0.165043  0.691046  1
  Ag  Ag35  1  0.072843  0.707392  0.442302  1
