# generated using pymatgen
data_Nd5Er14TmPt16
_symmetry_space_group_name_H-M   'P 1'
_cell_length_a   7.49729451
_cell_length_b   7.59802537
_cell_length_c   14.74242800
_cell_angle_alpha   89.97040959
_cell_angle_beta   90.03636156
_cell_angle_gamma   90.04510568
_symmetry_Int_Tables_number   1
_chemical_formula_structural   Nd5Er14TmPt16
_chemical_formula_sum   'Nd5 Er14 Tm1 Pt16'
_cell_volume   839.79647210
_cell_formula_units_Z   1
loop_
 _symmetry_equiv_pos_site_id
 _symmetry_equiv_pos_as_xyz
  1  'x, y, z'
loop_
 _atom_site_type_symbol
 _atom_site_label
 _atom_site_symmetry_multiplicity
 _atom_site_fract_x
 _atom_site_fract_y
 _atom_site_fract_z
 _atom_site_occupancy
  Nd  Nd0  1  0.500594  0.323843  0.093685  1
  Nd  Nd1  1  0.002080  0.173688  0.407631  1
  Nd  Nd2  1  0.501638  0.327123  0.407592  1
  Nd  Nd3  1  0.000884  0.173540  0.091744  1
  Nd  Nd4  1  0.498639  0.678625  0.905184  1
  Er  Er5  1  0.658046  0.166397  0.622509  1
  Er  Er6  1  0.156066  0.331626  0.875412  1
  Er  Er7  1  0.344035  0.833348  0.122850  1
  Er  Er8  1  0.846284  0.667718  0.378674  1
  Er  Er9  1  0.346376  0.831350  0.379083  1
  Er  Er10  1  0.846224  0.668996  0.121598  1
  Er  Er11  1  0.658053  0.166435  0.876174  1
  Er  Er12  1  0.157069  0.332761  0.622561  1
  Er  Er13  1  0.500205  0.681931  0.595888  1
  Er  Er14  1  0.001005  0.819635  0.903215  1
  Er  Er15  1  0.818330  0.509714  0.748732  1
  Er  Er16  1  0.318001  0.990329  0.748715  1
  Er  Er17  1  0.180381  0.489391  0.250150  1
  Er  Er18  1  0.681022  0.010532  0.250694  1
  Tm  Tm19  1  0.999568  0.818677  0.595408  1
  Pt  Pt20  1  0.679956  0.956390  0.462735  1
  Pt  Pt21  1  0.178949  0.540525  0.039911  1
  Pt  Pt22  1  0.313359  0.030664  0.954847  1
  Pt  Pt23  1  0.815546  0.476674  0.547458  1
  Pt  Pt24  1  0.315400  0.024267  0.547118  1
  Pt  Pt25  1  0.825011  0.470747  0.953475  1
  Pt  Pt26  1  0.679400  0.961250  0.039673  1
  Pt  Pt27  1  0.179465  0.543368  0.462865  1
  Pt  Pt28  1  0.451185  0.381198  0.747985  1
  Pt  Pt29  1  0.953389  0.116393  0.749120  1
  Pt  Pt30  1  0.548108  0.624798  0.250488  1
  Pt  Pt31  1  0.047910  0.875395  0.250782  1
  Pt  Pt32  1  0.685984  0.859347  0.746270  1
  Pt  Pt33  1  0.180207  0.643048  0.747952  1
  Pt  Pt34  1  0.315743  0.138045  0.251183  1
  Pt  Pt35  1  0.815889  0.362233  0.250637  1
