# generated using pymatgen
data_Ta3P6WO24
_symmetry_space_group_name_H-M   'P 1'
_cell_length_a   8.81564184
_cell_length_b   9.08231178
_cell_length_c   8.81557600
_cell_angle_alpha   89.99683788
_cell_angle_beta   59.99915142
_cell_angle_gamma   119.03020661
_symmetry_Int_Tables_number   1
_chemical_formula_structural   Ta3P6WO24
_chemical_formula_sum   'Ta3 P6 W1 O24'
_cell_volume   506.27005166
_cell_formula_units_Z   1
loop_
 _symmetry_equiv_pos_site_id
 _symmetry_equiv_pos_as_xyz
  1  'x, y, z'
loop_
 _atom_site_type_symbol
 _atom_site_label
 _atom_site_symmetry_multiplicity
 _atom_site_fract_x
 _atom_site_fract_y
 _atom_site_fract_z
 _atom_site_occupancy
  Ta  Ta0  1  0.284245  0.926249  0.357870  1
  Ta  Ta1  1  0.284341  0.426377  0.857825  1
  Ta  Ta2  1  0.714512  0.571691  0.142690  1
  P  P3  1  0.785305  0.750710  0.749266  1
  P  P4  1  0.492952  0.249388  0.535403  1
  P  P5  1  0.500197  0.750788  0.465317  1
  P  P6  1  0.221138  0.249492  0.243463  1
  P  P7  1  0.784920  0.249435  0.971577  1
  P  P8  1  0.216240  0.750750  0.034412  1
  W  W9  1  0.715721  0.073537  0.642084  1
  O  O10  1  0.657345  0.914015  0.475190  1
  O  O11  1  0.999755  0.711270  0.088578  1
  O  O12  1  0.221492  0.584310  0.002481  1
  O  O13  1  0.224846  0.778589  0.205629  1
  O  O14  1  0.986549  0.276039  0.945247  1
  O  O15  1  0.787634  0.415590  0.013823  1
  O  O16  1  0.788382  0.237081  0.800795  1
  O  O17  1  0.800134  0.711463  0.911561  1
  O  O18  1  0.984298  0.778452  0.569445  1
  O  O19  1  0.648106  0.237285  0.551134  1
  O  O20  1  0.781231  0.913806  0.743266  1
  O  O21  1  0.586886  0.584169  0.776133  1
  O  O22  1  0.588981  0.083781  0.145607  1
  O  O23  1  0.613910  0.415469  0.371968  1
  O  O24  1  0.221229  0.275867  0.068227  1
  O  O25  1  0.344189  0.275916  0.710469  1
  O  O26  1  0.623196  0.711414  0.288284  1
  O  O27  1  0.349293  0.083616  0.505197  1
  O  O28  1  0.389237  0.913871  0.867232  1
  O  O29  1  0.360614  0.584363  0.636986  1
  O  O30  1  0.229542  0.083873  0.265512  1
  O  O31  1  0.429601  0.415741  0.198270  1
  O  O32  1  0.348042  0.778389  0.446132  1
  O  O33  1  0.038068  0.237216  0.410798  1
