# generated using pymatgen
data_Ac5Sn2Ru
_symmetry_space_group_name_H-M   'P 1'
_cell_length_a   8.71733700
_cell_length_b   9.72754100
_cell_length_c   13.46216800
_cell_angle_alpha   90.00000000
_cell_angle_beta   90.00000000
_cell_angle_gamma   90.00000000
_symmetry_Int_Tables_number   1
_chemical_formula_structural   Ac5Sn2Ru
_chemical_formula_sum   'Ac20 Sn8 Ru4'
_cell_volume   1141.56832905
_cell_formula_units_Z   4
loop_
 _symmetry_equiv_pos_site_id
 _symmetry_equiv_pos_as_xyz
  1  'x, y, z'
loop_
 _atom_site_type_symbol
 _atom_site_label
 _atom_site_symmetry_multiplicity
 _atom_site_fract_x
 _atom_site_fract_y
 _atom_site_fract_z
 _atom_site_occupancy
  Ac  Ac0  1  0.675038  0.465847  0.922129  1
  Ac  Ac1  1  0.175038  0.965848  0.577871  1
  Ac  Ac2  1  0.675038  0.034153  0.922129  1
  Ac  Ac3  1  0.824962  0.465847  0.422129  1
  Ac  Ac4  1  0.947690  0.750000  0.994913  1
  Ac  Ac5  1  0.447690  0.250000  0.505087  1
  Ac  Ac6  1  0.052310  0.250000  0.005087  1
  Ac  Ac7  1  0.552310  0.750000  0.494913  1
  Ac  Ac8  1  0.324962  0.534152  0.077871  1
  Ac  Ac9  1  0.824962  0.034153  0.422129  1
  Ac  Ac10  1  0.324962  0.965848  0.077871  1
  Ac  Ac11  1  0.175038  0.534152  0.577871  1
  Ac  Ac12  1  0.365896  0.750000  0.808762  1
  Ac  Ac13  1  0.865896  0.250000  0.691238  1
  Ac  Ac14  1  0.634104  0.250000  0.191238  1
  Ac  Ac15  1  0.134104  0.750000  0.308762  1
  Ac  Ac16  1  0.838309  0.750000  0.704910  1
  Ac  Ac17  1  0.338309  0.250000  0.795090  1
  Ac  Ac18  1  0.161691  0.250000  0.295090  1
  Ac  Ac19  1  0.661691  0.750000  0.204910  1
  Sn  Sn20  1  0.556693  0.497332  0.672409  1
  Sn  Sn21  1  0.943307  0.002668  0.172409  1
  Sn  Sn22  1  0.443307  0.997332  0.327591  1
  Sn  Sn23  1  0.056693  0.502668  0.827591  1
  Sn  Sn24  1  0.443307  0.502668  0.327591  1
  Sn  Sn25  1  0.056693  0.997332  0.827591  1
  Sn  Sn26  1  0.556693  0.002668  0.672409  1
  Sn  Sn27  1  0.943307  0.497332  0.172409  1
  Ru  Ru28  1  0.577401  0.750000  0.992130  1
  Ru  Ru29  1  0.077401  0.250000  0.507870  1
  Ru  Ru30  1  0.422599  0.250000  0.007870  1
  Ru  Ru31  1  0.922599  0.750000  0.492130  1
