# generated using pymatgen
data_Er4Ga2(OsRu)3
_symmetry_space_group_name_H-M   'P 1'
_cell_length_a   5.29021872
_cell_length_b   5.29021978
_cell_length_c   8.85889700
_cell_angle_alpha   90.00000000
_cell_angle_beta   90.00000000
_cell_angle_gamma   119.67968330
_symmetry_Int_Tables_number   1
_chemical_formula_structural   Er4Ga2(OsRu)3
_chemical_formula_sum   'Er4 Ga2 Os3 Ru3'
_cell_volume   215.40232173
_cell_formula_units_Z   1
loop_
 _symmetry_equiv_pos_site_id
 _symmetry_equiv_pos_as_xyz
  1  'x, y, z'
loop_
 _atom_site_type_symbol
 _atom_site_label
 _atom_site_symmetry_multiplicity
 _atom_site_fract_x
 _atom_site_fract_y
 _atom_site_fract_z
 _atom_site_occupancy
  Er  Er0  1  0.330354  0.669646  0.440519  1
  Er  Er1  1  0.665944  0.334056  0.568452  1
  Er  Er2  1  0.665944  0.334056  0.931548  1
  Er  Er3  1  0.330354  0.669646  0.059481  1
  Ga  Ga4  1  0.340069  0.166628  0.250000  1
  Ga  Ga5  1  0.833372  0.659931  0.250000  1
  Os  Os6  1  0.166024  0.335902  0.750000  1
  Os  Os7  1  0.175906  0.824094  0.750000  1
  Os  Os8  1  0.664098  0.833976  0.750000  1
  Ru  Ru9  1  0.998081  0.001919  0.001090  1
  Ru  Ru10  1  0.831773  0.168227  0.250000  1
  Ru  Ru11  1  0.998081  0.001919  0.498910  1
