# generated using pymatgen
data_Nb8Co7Si14Pd
_symmetry_space_group_name_H-M   'P 1'
_cell_length_a   9.30535424
_cell_length_b   9.32031543
_cell_length_c   9.27728829
_cell_angle_alpha   94.28207759
_cell_angle_beta   94.19624143
_cell_angle_gamma   148.50928481
_symmetry_Int_Tables_number   1
_chemical_formula_structural   Nb8Co7Si14Pd
_chemical_formula_sum   'Nb8 Co7 Si14 Pd1'
_cell_volume   404.40129374
_cell_formula_units_Z   1
loop_
 _symmetry_equiv_pos_site_id
 _symmetry_equiv_pos_as_xyz
  1  'x, y, z'
loop_
 _atom_site_type_symbol
 _atom_site_label
 _atom_site_symmetry_multiplicity
 _atom_site_fract_x
 _atom_site_fract_y
 _atom_site_fract_z
 _atom_site_occupancy
  Nb  Nb0  1  0.310540  0.499294  0.809091  1
  Nb  Nb1  1  0.692200  0.502530  0.192168  1
  Nb  Nb2  1  0.499969  0.689639  0.192168  1
  Nb  Nb3  1  0.498551  0.309797  0.809091  1
  Nb  Nb4  1  0.133868  0.133868  0.267734  1
  Nb  Nb5  1  0.866606  0.866606  0.733213  1
  Nb  Nb6  1  0.134601  0.869327  0.002313  1
  Nb  Nb7  1  0.867713  0.132986  0.002313  1
  Co  Co8  1  0.104417  0.604417  0.208835  1
  Co  Co9  1  0.898363  0.096274  0.495492  1
  Co  Co10  1  0.597128  0.399217  0.495492  1
  Co  Co11  1  0.599295  0.099295  0.198591  1
  Co  Co12  1  0.897800  0.397800  0.795599  1
  Co  Co13  1  0.103962  0.899049  0.502480  1
  Co  Co14  1  0.398518  0.603431  0.502480  1
  Si  Si15  1  0.291422  0.291422  0.582844  1
  Si  Si16  1  0.708042  0.708042  0.416084  1
  Si  Si17  1  0.279129  0.691221  0.006140  1
  Si  Si18  1  0.727011  0.314919  0.006140  1
  Si  Si19  1  0.065142  0.466684  0.585897  1
  Si  Si20  1  0.904049  0.499250  0.406788  1
  Si  Si21  1  0.502740  0.907538  0.406788  1
  Si  Si22  1  0.520755  0.119213  0.585897  1
  Si  Si23  1  0.249718  0.249477  0.000636  1
  Si  Si24  1  0.750918  0.751159  0.000636  1
  Si  Si25  1  0.298409  0.002073  0.296299  1
  Si  Si26  1  0.722094  0.010399  0.702504  1
  Si  Si27  1  0.980410  0.692105  0.702504  1
  Si  Si28  1  0.997890  0.294226  0.296299  1
  Pd  Pd29  1  0.398742  0.898742  0.797483  1
