# generated using pymatgen
data_MnTl2GeF14
_symmetry_space_group_name_H-M   'P 1'
_cell_length_a   5.43543200
_cell_length_b   8.70636188
_cell_length_c   11.69649100
_cell_angle_alpha   62.39058303
_cell_angle_beta   90.00000000
_cell_angle_gamma   90.00000000
_symmetry_Int_Tables_number   1
_chemical_formula_structural   MnTl2GeF14
_chemical_formula_sum   'Mn2 Tl4 Ge2 F28'
_cell_volume   490.48140646
_cell_formula_units_Z   2
loop_
 _symmetry_equiv_pos_site_id
 _symmetry_equiv_pos_as_xyz
  1  'x, y, z'
loop_
 _atom_site_type_symbol
 _atom_site_label
 _atom_site_symmetry_multiplicity
 _atom_site_fract_x
 _atom_site_fract_y
 _atom_site_fract_z
 _atom_site_occupancy
  Mn  Mn0  1  0.238778  0.723335  0.045709  1
  Mn  Mn1  1  0.738778  0.276665  0.454291  1
  Tl  Tl2  1  0.762333  0.811141  0.763725  1
  Tl  Tl3  1  0.262333  0.188859  0.736275  1
  Tl  Tl4  1  0.237928  0.188324  0.236553  1
  Tl  Tl5  1  0.737928  0.811676  0.263447  1
  Ge  Ge6  1  0.760449  0.275389  0.955461  1
  Ge  Ge7  1  0.260449  0.724611  0.544539  1
  F  F8  1  0.422831  0.701605  0.923460  1
  F  F9  1  0.922831  0.298395  0.576540  1
  F  F10  1  0.573631  0.298714  0.074758  1
  F  F11  1  0.073631  0.701286  0.425242  1
  F  F12  1  0.448569  0.283078  0.535968  1
  F  F13  1  0.948569  0.716922  0.964032  1
  F  F14  1  0.549131  0.716049  0.465096  1
  F  F15  1  0.049131  0.283951  0.034904  1
  F  F16  1  0.776062  0.512981  0.859681  1
  F  F17  1  0.276062  0.487019  0.640319  1
  F  F18  1  0.222428  0.482839  0.141849  1
  F  F19  1  0.722428  0.517161  0.358151  1
  F  F20  1  0.761318  0.040719  0.040691  1
  F  F21  1  0.261318  0.959281  0.459309  1
  F  F22  1  0.240021  0.959554  0.958067  1
  F  F23  1  0.740021  0.040446  0.541933  1
  F  F24  1  0.981077  0.722623  0.634849  1
  F  F25  1  0.481077  0.277377  0.865151  1
  F  F26  1  0.024388  0.277111  0.367689  1
  F  F27  1  0.524388  0.722889  0.132311  1
  F  F28  1  0.057178  0.736259  0.177449  1
  F  F29  1  0.557178  0.263741  0.322551  1
  F  F30  1  0.944440  0.265556  0.824135  1
  F  F31  1  0.444440  0.734444  0.675865  1
  F  F32  1  0.391913  0.965861  0.224303  1
  F  F33  1  0.891913  0.034139  0.275697  1
  F  F34  1  0.607527  0.033040  0.775932  1
  F  F35  1  0.107527  0.966960  0.724068  1
