# generated using pymatgen
data_K6Fe2O7
_symmetry_space_group_name_H-M   'P 1'
_cell_length_a   9.23661100
_cell_length_b   6.64867708
_cell_length_c   11.12017110
_cell_angle_alpha   57.14391633
_cell_angle_beta   90.00000000
_cell_angle_gamma   90.00000000
_symmetry_Int_Tables_number   1
_chemical_formula_structural   K6Fe2O7
_chemical_formula_sum   'K12 Fe4 O14'
_cell_volume   573.66352527
_cell_formula_units_Z   2
loop_
 _symmetry_equiv_pos_site_id
 _symmetry_equiv_pos_as_xyz
  1  'x, y, z'
loop_
 _atom_site_type_symbol
 _atom_site_label
 _atom_site_symmetry_multiplicity
 _atom_site_fract_x
 _atom_site_fract_y
 _atom_site_fract_z
 _atom_site_occupancy
  K  K0  1  0.516307  0.199749  0.562771  1
  K  K1  1  0.983693  0.199749  0.062771  1
  K  K2  1  0.483693  0.800251  0.437229  1
  K  K3  1  0.016307  0.800251  0.937229  1
  K  K4  1  0.646895  0.929124  0.942346  1
  K  K5  1  0.853105  0.929124  0.442346  1
  K  K6  1  0.353105  0.070876  0.057654  1
  K  K7  1  0.146895  0.070876  0.557654  1
  K  K8  1  0.706132  0.585527  0.788729  1
  K  K9  1  0.793868  0.585527  0.288729  1
  K  K10  1  0.293868  0.414473  0.211271  1
  K  K11  1  0.206132  0.414473  0.711271  1
  Fe  Fe12  1  0.641966  0.303986  0.142022  1
  Fe  Fe13  1  0.858034  0.303986  0.642022  1
  Fe  Fe14  1  0.358034  0.696014  0.857978  1
  Fe  Fe15  1  0.141966  0.696014  0.357978  1
  O  O16  1  0.635489  0.015214  0.161579  1
  O  O17  1  0.864511  0.015214  0.661579  1
  O  O18  1  0.364511  0.984786  0.838421  1
  O  O19  1  0.135489  0.984786  0.338421  1
  O  O20  1  0.704082  0.502985  0.575653  1
  O  O21  1  0.795918  0.502985  0.075653  1
  O  O22  1  0.295918  0.497015  0.424347  1
  O  O23  1  0.204082  0.497015  0.924347  1
  O  O24  1  0.500000  0.500000  0.000000  1
  O  O25  1  0.000000  0.500000  0.500000  1
  O  O26  1  0.612979  0.232995  0.321021  1
  O  O27  1  0.887021  0.232995  0.821021  1
  O  O28  1  0.387021  0.767005  0.678979  1
  O  O29  1  0.112979  0.767005  0.178979  1
