# generated using pymatgen
data_Nd2Hf3Co9As7
_symmetry_space_group_name_H-M   'P 1'
_cell_length_a   3.85962100
_cell_length_b   9.75329951
_cell_length_c   9.75330000
_cell_angle_alpha   120.00000168
_cell_angle_beta   90.00000000
_cell_angle_gamma   90.00000000
_symmetry_Int_Tables_number   1
_chemical_formula_structural   Nd2Hf3Co9As7
_chemical_formula_sum   'Nd2 Hf3 Co9 As7'
_cell_volume   317.96434915
_cell_formula_units_Z   1
loop_
 _symmetry_equiv_pos_site_id
 _symmetry_equiv_pos_as_xyz
  1  'x, y, z'
loop_
 _atom_site_type_symbol
 _atom_site_label
 _atom_site_symmetry_multiplicity
 _atom_site_fract_x
 _atom_site_fract_y
 _atom_site_fract_z
 _atom_site_occupancy
  Nd  Nd0  1  0.000000  0.666667  0.333333  1
  Nd  Nd1  1  0.500000  0.333333  0.666667  1
  Hf  Hf2  1  0.500000  0.770372  0.886476  1
  Hf  Hf3  1  0.500000  0.116103  0.229628  1
  Hf  Hf4  1  0.500000  0.113524  0.883897  1
  Co  Co5  1  0.000000  0.579318  0.938238  1
  Co  Co6  1  0.000000  0.358921  0.420682  1
  Co  Co7  1  0.000000  0.061762  0.641079  1
  Co  Co8  1  0.000000  0.878917  0.161622  1
  Co  Co9  1  0.000000  0.282705  0.121083  1
  Co  Co10  1  0.000000  0.838378  0.717295  1
  Co  Co11  1  0.500000  0.949071  0.389636  1
  Co  Co12  1  0.500000  0.440564  0.050929  1
  Co  Co13  1  0.500000  0.610364  0.559436  1
  As  As14  1  0.000000  0.000000  0.000000  1
  As  As15  1  0.500000  0.713075  0.128329  1
  As  As16  1  0.500000  0.415254  0.286925  1
  As  As17  1  0.500000  0.871671  0.584746  1
  As  As18  1  0.000000  0.576211  0.680387  1
  As  As19  1  0.000000  0.104176  0.423789  1
  As  As20  1  0.000000  0.319613  0.895824  1
