# generated using pymatgen
data_Ho5Er5Si5As
_symmetry_space_group_name_H-M   'P 1'
_cell_length_a   8.37373807
_cell_length_b   8.38906623
_cell_length_c   6.26814200
_cell_angle_alpha   90.00000000
_cell_angle_beta   90.00000000
_cell_angle_gamma   119.95460049
_symmetry_Int_Tables_number   1
_chemical_formula_structural   Ho5Er5Si5As
_chemical_formula_sum   'Ho5 Er5 Si5 As1'
_cell_volume   381.50562946
_cell_formula_units_Z   1
loop_
 _symmetry_equiv_pos_site_id
 _symmetry_equiv_pos_as_xyz
  1  'x, y, z'
loop_
 _atom_site_type_symbol
 _atom_site_label
 _atom_site_symmetry_multiplicity
 _atom_site_fract_x
 _atom_site_fract_y
 _atom_site_fract_z
 _atom_site_occupancy
  Ho  Ho0  1  0.996567  0.753878  0.750000  1
  Ho  Ho1  1  0.756440  0.756262  0.250000  1
  Ho  Ho2  1  0.758591  0.000047  0.750000  1
  Ho  Ho3  1  0.242618  0.246097  0.750000  1
  Ho  Ho4  1  0.242791  0.000029  0.250000  1
  Er  Er5  1  0.000211  0.243744  0.250000  1
  Er  Er6  1  0.332977  0.663932  0.498835  1
  Er  Er7  1  0.669055  0.336025  0.001158  1
  Er  Er8  1  0.669055  0.336025  0.498842  1
  Er  Er9  1  0.332977  0.663932  0.001165  1
  Si  Si10  1  0.394014  0.393099  0.250000  1
  Si  Si11  1  0.001023  0.606788  0.250000  1
  Si  Si12  1  0.999790  0.394070  0.750000  1
  Si  Si13  1  0.605735  0.605957  0.750000  1
  Si  Si14  1  0.606968  0.000106  0.250000  1
  As  As15  1  0.391187  0.000008  0.750000  1
