# generated using pymatgen
data_Tb11DyCo4SnPt
_symmetry_space_group_name_H-M   'P 1'
_cell_length_a   8.34041357
_cell_length_b   8.34041444
_cell_length_c   8.34315747
_cell_angle_alpha   106.96757238
_cell_angle_beta   110.37103069
_cell_angle_gamma   111.09165261
_symmetry_Int_Tables_number   1
_chemical_formula_structural   Tb11DyCo4SnPt
_chemical_formula_sum   'Tb11 Dy1 Co4 Sn1 Pt1'
_cell_volume   446.18768457
_cell_formula_units_Z   1
loop_
 _symmetry_equiv_pos_site_id
 _symmetry_equiv_pos_as_xyz
  1  'x, y, z'
loop_
 _atom_site_type_symbol
 _atom_site_label
 _atom_site_symmetry_multiplicity
 _atom_site_fract_x
 _atom_site_fract_y
 _atom_site_fract_z
 _atom_site_occupancy
  Tb  Tb0  1  0.476552  0.291317  0.184991  1
  Tb  Tb1  1  0.106127  0.291235  0.815060  1
  Tb  Tb2  1  0.893674  0.708439  0.184991  1
  Tb  Tb3  1  0.523825  0.708933  0.815060  1
  Tb  Tb4  1  0.305082  0.620205  0.314935  1
  Tb  Tb5  1  0.305634  0.990324  0.685121  1
  Tb  Tb6  1  0.694798  0.379486  0.685121  1
  Tb  Tb7  1  0.694731  0.009852  0.314935  1
  Tb  Tb8  1  0.198927  0.213931  0.412859  1
  Tb  Tb9  1  0.800859  0.786172  0.587032  1
  Tb  Tb10  1  0.199141  0.786086  0.985226  1
  Dy  Dy11  1  0.800879  0.213670  0.014551  1
  Co  Co12  1  0.499969  0.611561  0.111530  1
  Co  Co13  1  0.500178  0.388343  0.888521  1
  Co  Co14  1  0.378280  0.999944  0.378224  1
  Co  Co15  1  0.621926  0.000175  0.622100  1
  Sn  Sn16  1  0.999902  0.499872  0.499774  1
  Pt  Pt17  1  0.999515  0.000455  0.999969  1
