# generated using pymatgen
data_Cs2Zr7Ti5(BI14)2
_symmetry_space_group_name_H-M   'P 1'
_cell_length_a   11.04483475
_cell_length_b   11.01206561
_cell_length_c   13.19627372
_cell_angle_alpha   89.98664021
_cell_angle_beta   90.24133078
_cell_angle_gamma   92.68086591
_symmetry_Int_Tables_number   1
_chemical_formula_structural   Cs2Zr7Ti5(BI14)2
_chemical_formula_sum   'Cs2 Zr7 Ti5 B2 I28'
_cell_volume   1603.24502670
_cell_formula_units_Z   1
loop_
 _symmetry_equiv_pos_site_id
 _symmetry_equiv_pos_as_xyz
  1  'x, y, z'
loop_
 _atom_site_type_symbol
 _atom_site_label
 _atom_site_symmetry_multiplicity
 _atom_site_fract_x
 _atom_site_fract_y
 _atom_site_fract_z
 _atom_site_occupancy
  Cs  Cs0  1  0.002257  0.997885  0.000169  1
  Cs  Cs1  1  0.499497  0.499530  0.498676  1
  Zr  Zr2  1  0.166474  0.954322  0.608193  1
  Zr  Zr3  1  0.453667  0.667105  0.892334  1
  Zr  Zr4  1  0.667514  0.453692  0.891827  1
  Zr  Zr5  1  0.954284  0.166500  0.607650  1
  Zr  Zr6  1  0.832853  0.045913  0.391958  1
  Zr  Zr7  1  0.545833  0.333297  0.108561  1
  Zr  Zr8  1  0.045546  0.831617  0.391246  1
  Ti  Ti9  1  0.879091  0.878656  0.589834  1
  Ti  Ti10  1  0.378904  0.379317  0.910580  1
  Ti  Ti11  1  0.345073  0.542745  0.100247  1
  Ti  Ti12  1  0.120023  0.121006  0.410270  1
  Ti  Ti13  1  0.620454  0.621126  0.090286  1
  B  B14  1  0.501883  0.499731  0.999194  1
  B  B15  1  0.999834  0.999090  0.499520  1
  I  I16  1  0.464088  0.703501  0.234923  1
  I  I17  1  0.528098  0.288995  0.759867  1
  I  I18  1  0.892561  0.392928  0.751289  1
  I  I19  1  0.347193  0.107476  0.502783  1
  I  I20  1  0.350183  0.361498  0.249992  1
  I  I21  1  0.159480  0.400489  0.007397  1
  I  I22  1  0.148662  0.149375  0.756602  1
  I  I23  1  0.747351  0.252893  0.499920  1
  I  I24  1  0.647902  0.648895  0.743915  1
  I  I25  1  0.892797  0.651705  0.497946  1
  I  I26  1  0.253021  0.747705  0.500726  1
  I  I27  1  0.029531  0.789290  0.740690  1
  I  I28  1  0.606546  0.848188  0.998171  1
  I  I29  1  0.103620  0.610996  0.252606  1
  I  I30  1  0.710763  0.471788  0.240643  1
  I  I31  1  0.752371  0.246437  0.000723  1
  I  I32  1  0.391126  0.892784  0.752799  1
  I  I33  1  0.847259  0.607252  0.998237  1
  I  I34  1  0.289126  0.528496  0.759703  1
  I  I35  1  0.106296  0.348156  0.502515  1
  I  I36  1  0.250596  0.743375  0.005226  1
  I  I37  1  0.790012  0.028697  0.740134  1
  I  I38  1  0.652057  0.892538  0.496689  1
  I  I39  1  0.209904  0.971821  0.259820  1
  I  I40  1  0.849447  0.851650  0.243493  1
  I  I41  1  0.969946  0.210515  0.259370  1
  I  I42  1  0.392603  0.152195  0.002702  1
  I  I43  1  0.604272  0.108831  0.250572  1
