# generated using pymatgen
data_Tm8Lu4Co4TcSn
_symmetry_space_group_name_H-M   'P 1'
_cell_length_a   8.13124708
_cell_length_b   8.13124597
_cell_length_c   8.13124672
_cell_angle_alpha   111.66829303
_cell_angle_beta   110.71298946
_cell_angle_gamma   106.08604700
_symmetry_Int_Tables_number   1
_chemical_formula_structural   Tm8Lu4Co4TcSn
_chemical_formula_sum   'Tm8 Lu4 Co4 Tc1 Sn1'
_cell_volume   412.75033386
_cell_formula_units_Z   1
loop_
 _symmetry_equiv_pos_site_id
 _symmetry_equiv_pos_as_xyz
  1  'x, y, z'
loop_
 _atom_site_type_symbol
 _atom_site_label
 _atom_site_symmetry_multiplicity
 _atom_site_fract_x
 _atom_site_fract_y
 _atom_site_fract_z
 _atom_site_occupancy
  Tm  Tm0  1  0.421325  0.224640  0.196683  1
  Tm  Tm1  1  0.578675  0.775360  0.803317  1
  Tm  Tm2  1  0.027957  0.224640  0.803317  1
  Tm  Tm3  1  0.972043  0.775360  0.196683  1
  Tm  Tm4  1  0.182422  0.277031  0.459454  1
  Tm  Tm5  1  0.817578  0.722969  0.540546  1
  Tm  Tm6  1  0.182422  0.722969  0.905393  1
  Tm  Tm7  1  0.817578  0.277031  0.094607  1
  Lu  Lu8  1  0.313496  0.619611  0.306114  1
  Lu  Lu9  1  0.686504  0.380389  0.693886  1
  Lu  Lu10  1  0.313496  0.007381  0.693886  1
  Lu  Lu11  1  0.686504  0.992619  0.306114  1
  Co  Co12  1  0.374664  0.000000  0.374664  1
  Co  Co13  1  0.625336  0.000000  0.625336  1
  Co  Co14  1  0.112603  0.612603  0.500000  1
  Co  Co15  1  0.887397  0.387397  0.500000  1
  Tc  Tc16  1  0.000000  0.000000  0.000000  1
  Sn  Sn17  1  0.500000  0.500000  0.000000  1
