# generated using pymatgen
data_Sc8CdPb3Au8
_symmetry_space_group_name_H-M   'P 1'
_cell_length_a   7.81006700
_cell_length_b   7.81006700
_cell_length_c   6.97568600
_cell_angle_alpha   90.00000000
_cell_angle_beta   90.00000000
_cell_angle_gamma   90.00000000
_symmetry_Int_Tables_number   1
_chemical_formula_structural   Sc8CdPb3Au8
_chemical_formula_sum   'Sc8 Cd1 Pb3 Au8'
_cell_volume   425.49694119
_cell_formula_units_Z   1
loop_
 _symmetry_equiv_pos_site_id
 _symmetry_equiv_pos_as_xyz
  1  'x, y, z'
loop_
 _atom_site_type_symbol
 _atom_site_label
 _atom_site_symmetry_multiplicity
 _atom_site_fract_x
 _atom_site_fract_y
 _atom_site_fract_z
 _atom_site_occupancy
  Sc  Sc0  1  0.146111  0.154712  0.997063  1
  Sc  Sc1  1  0.853889  0.845288  0.997063  1
  Sc  Sc2  1  0.654712  0.353889  0.502937  1
  Sc  Sc3  1  0.345288  0.646111  0.502937  1
  Sc  Sc4  1  0.684584  0.321828  0.998011  1
  Sc  Sc5  1  0.315416  0.678172  0.998011  1
  Sc  Sc6  1  0.821828  0.815416  0.501989  1
  Sc  Sc7  1  0.178172  0.184584  0.501989  1
  Cd  Cd8  1  0.000000  0.500000  0.750000  1
  Pb  Pb9  1  0.500000  0.000000  0.250000  1
  Pb  Pb10  1  0.500000  0.000000  0.750000  1
  Pb  Pb11  1  0.000000  0.500000  0.250000  1
  Au  Au12  1  0.372684  0.369780  0.217614  1
  Au  Au13  1  0.634923  0.625723  0.780591  1
  Au  Au14  1  0.627316  0.630220  0.217614  1
  Au  Au15  1  0.874277  0.134923  0.719409  1
  Au  Au16  1  0.869780  0.127316  0.282386  1
  Au  Au17  1  0.365077  0.374277  0.780591  1
  Au  Au18  1  0.130220  0.872684  0.282386  1
  Au  Au19  1  0.125723  0.865077  0.719409  1
