# generated using pymatgen
data_Ac5Ru2
_symmetry_space_group_name_H-M   'P 1'
_cell_length_a   9.51057343
_cell_length_b   9.51057308
_cell_length_c   7.75257653
_cell_angle_alpha   84.38022833
_cell_angle_beta   84.38023094
_cell_angle_gamma   42.89579591
_symmetry_Int_Tables_number   1
_chemical_formula_structural   Ac5Ru2
_chemical_formula_sum   'Ac10 Ru4'
_cell_volume   474.65393389
_cell_formula_units_Z   2
loop_
 _symmetry_equiv_pos_site_id
 _symmetry_equiv_pos_as_xyz
  1  'x, y, z'
loop_
 _atom_site_type_symbol
 _atom_site_label
 _atom_site_symmetry_multiplicity
 _atom_site_fract_x
 _atom_site_fract_y
 _atom_site_fract_z
 _atom_site_occupancy
  Ac  Ac0  1  0.001873  0.810456  0.909397  1
  Ac  Ac1  1  0.189544  0.998127  0.590603  1
  Ac  Ac2  1  0.998127  0.189544  0.090603  1
  Ac  Ac3  1  0.810456  0.001873  0.409397  1
  Ac  Ac4  1  0.360698  0.213287  0.818777  1
  Ac  Ac5  1  0.786713  0.639302  0.681223  1
  Ac  Ac6  1  0.639302  0.786713  0.181223  1
  Ac  Ac7  1  0.213287  0.360698  0.318777  1
  Ac  Ac8  1  0.571486  0.428514  0.750000  1
  Ac  Ac9  1  0.428514  0.571486  0.250000  1
  Ru  Ru10  1  0.175557  0.602932  0.579281  1
  Ru  Ru11  1  0.397068  0.824443  0.920719  1
  Ru  Ru12  1  0.824443  0.397068  0.420719  1
  Ru  Ru13  1  0.602932  0.175557  0.079281  1
