# generated using pymatgen
data_Pr8Er8Lu3Sc(Ga3Si)4
_symmetry_space_group_name_H-M   'P 1'
_cell_length_a   7.60510800
_cell_length_b   7.95795900
_cell_length_c   15.10586700
_cell_angle_alpha   90.00000000
_cell_angle_beta   90.00000000
_cell_angle_gamma   90.00159116
_symmetry_Int_Tables_number   1
_chemical_formula_structural   Pr8Er8Lu3Sc(Ga3Si)4
_chemical_formula_sum   'Pr8 Er8 Lu3 Sc1 Ga12 Si4'
_cell_volume   914.22425610
_cell_formula_units_Z   1
loop_
 _symmetry_equiv_pos_site_id
 _symmetry_equiv_pos_as_xyz
  1  'x, y, z'
loop_
 _atom_site_type_symbol
 _atom_site_label
 _atom_site_symmetry_multiplicity
 _atom_site_fract_x
 _atom_site_fract_y
 _atom_site_fract_z
 _atom_site_occupancy
  Pr  Pr0  1  0.020416  0.178808  0.404820  1
  Pr  Pr1  1  0.519338  0.322454  0.404868  1
  Pr  Pr2  1  0.481332  0.678438  0.904175  1
  Pr  Pr3  1  0.480707  0.680093  0.595135  1
  Pr  Pr4  1  0.982916  0.818212  0.595372  1
  Pr  Pr5  1  0.981095  0.822426  0.904049  1
  Pr  Pr6  1  0.518361  0.320630  0.095975  1
  Pr  Pr7  1  0.018840  0.180573  0.095714  1
  Er  Er8  1  0.322179  0.175221  0.622446  1
  Er  Er9  1  0.675842  0.822169  0.378643  1
  Er  Er10  1  0.176826  0.676773  0.378457  1
  Er  Er11  1  0.822556  0.323766  0.876984  1
  Er  Er12  1  0.823399  0.326078  0.623010  1
  Er  Er13  1  0.323651  0.177456  0.876343  1
  Er  Er14  1  0.176315  0.673546  0.122766  1
  Er  Er15  1  0.676493  0.824977  0.121645  1
  Lu  Lu16  1  0.657707  0.989912  0.751774  1
  Lu  Lu17  1  0.844050  0.489820  0.250741  1
  Lu  Lu18  1  0.342189  0.011057  0.250932  1
  Sc  Sc19  1  0.157228  0.507971  0.750706  1
  Ga  Ga20  1  0.275119  0.873521  0.749719  1
  Ga  Ga21  1  0.470658  0.609921  0.250925  1
  Ga  Ga22  1  0.028019  0.113070  0.749736  1
  Ga  Ga23  1  0.523957  0.391384  0.749672  1
  Ga  Ga24  1  0.150222  0.467884  0.541024  1
  Ga  Ga25  1  0.971500  0.887052  0.250196  1
  Ga  Ga26  1  0.723176  0.122857  0.250525  1
  Ga  Ga27  1  0.848587  0.532010  0.041201  1
  Ga  Ga28  1  0.349195  0.967332  0.040202  1
  Ga  Ga29  1  0.151569  0.468161  0.957439  1
  Ga  Ga30  1  0.650431  0.032995  0.540096  1
  Ga  Ga31  1  0.781321  0.621572  0.749657  1
  Si  Si32  1  0.349833  0.968785  0.457922  1
  Si  Si33  1  0.850841  0.530136  0.457700  1
  Si  Si34  1  0.224970  0.380895  0.250938  1
  Si  Si35  1  0.649168  0.032042  0.958491  1
