# generated using pymatgen
data_Tm5CrRuO12
_symmetry_space_group_name_H-M   'P 1'
_cell_length_a   6.72978236
_cell_length_b   6.72978074
_cell_length_c   7.17051900
_cell_angle_alpha   74.41775252
_cell_angle_beta   74.41775636
_cell_angle_gamma   51.27623111
_symmetry_Int_Tables_number   1
_chemical_formula_structural   Tm5CrRuO12
_chemical_formula_sum   'Tm5 Cr1 Ru1 O12'
_cell_volume   241.85460263
_cell_formula_units_Z   1
loop_
 _symmetry_equiv_pos_site_id
 _symmetry_equiv_pos_as_xyz
  1  'x, y, z'
loop_
 _atom_site_type_symbol
 _atom_site_label
 _atom_site_symmetry_multiplicity
 _atom_site_fract_x
 _atom_site_fract_y
 _atom_site_fract_z
 _atom_site_occupancy
  Tm  Tm0  1  0.692703  0.690995  0.669772  1
  Tm  Tm1  1  0.695535  0.701318  0.139928  1
  Tm  Tm2  1  0.999997  0.000003  0.000000  1
  Tm  Tm3  1  0.298682  0.304465  0.860072  1
  Tm  Tm4  1  0.309005  0.307297  0.330228  1
  Cr  Cr5  1  0.250084  0.749916  0.500000  1
  Ru  Ru6  1  0.759913  0.240087  0.500000  1
  O  O7  1  0.400554  0.903813  0.926697  1
  O  O8  1  0.568108  0.095882  0.584479  1
  O  O9  1  0.904118  0.431892  0.415521  1
  O  O10  1  0.096187  0.599446  0.073303  1
  O  O11  1  0.001901  0.998458  0.314926  1
  O  O12  1  0.500938  0.498598  0.687902  1
  O  O13  1  0.901238  0.404536  0.925654  1
  O  O14  1  0.098940  0.576309  0.582984  1
  O  O15  1  0.423691  0.901060  0.417016  1
  O  O16  1  0.595464  0.098762  0.074346  1
  O  O17  1  0.501402  0.499062  0.312098  1
  O  O18  1  0.001542  0.998099  0.685074  1
