# generated using pymatgen
data_Dy4LuP12Ru5Rh14
_symmetry_space_group_name_H-M   'P 1'
_cell_length_a   12.65144000
_cell_length_b   12.61566258
_cell_length_c   3.93654700
_cell_angle_alpha   90.00000000
_cell_angle_beta   90.00000000
_cell_angle_gamma   120.06778992
_symmetry_Int_Tables_number   1
_chemical_formula_structural   Dy4LuP12Ru5Rh14
_chemical_formula_sum   'Dy4 Lu1 P12 Ru5 Rh14'
_cell_volume   543.74969635
_cell_formula_units_Z   1
loop_
 _symmetry_equiv_pos_site_id
 _symmetry_equiv_pos_as_xyz
  1  'x, y, z'
loop_
 _atom_site_type_symbol
 _atom_site_label
 _atom_site_symmetry_multiplicity
 _atom_site_fract_x
 _atom_site_fract_y
 _atom_site_fract_z
 _atom_site_occupancy
  Dy  Dy0  1  0.666290  0.330895  0.000000  1
  Dy  Dy1  1  0.334577  0.668275  0.000000  1
  Dy  Dy2  1  0.184519  0.186137  0.500000  1
  Dy  Dy3  1  0.999938  0.813087  0.500000  1
  Lu  Lu4  1  0.814303  0.001216  0.500000  1
  P  P5  1  0.636215  0.999526  0.000000  1
  P  P6  1  0.364447  0.364760  0.000000  1
  P  P7  1  0.000183  0.634965  0.000000  1
  P  P8  1  0.688500  0.519387  0.500000  1
  P  P9  1  0.829421  0.307666  0.500000  1
  P  P10  1  0.316927  0.834808  0.500000  1
  P  P11  1  0.519354  0.690450  0.500000  1
  P  P12  1  0.180302  0.000152  0.000000  1
  P  P13  1  0.818927  0.818791  0.000000  1
  P  P14  1  0.996453  0.180871  0.000000  1
  P  P15  1  0.478647  0.167373  0.500000  1
  P  P16  1  0.168751  0.480867  0.500000  1
  Ru  Ru17  1  0.513555  0.872823  0.500000  1
  Ru  Ru18  1  0.716288  0.716953  0.500000  1
  Ru  Ru19  1  0.000035  0.283873  0.500000  1
  Ru  Ru20  1  0.817341  0.194303  0.000000  1
  Ru  Ru21  1  0.280939  0.999609  0.500000  1
  Rh  Rh22  1  0.625799  0.806428  0.000000  1
  Rh  Rh23  1  0.182534  0.377216  0.000000  1
  Rh  Rh24  1  0.375597  0.181902  0.000000  1
  Rh  Rh25  1  0.193853  0.818453  0.000000  1
  Rh  Rh26  1  0.804332  0.622282  0.000000  1
  Rh  Rh27  1  0.869574  0.507750  0.500000  1
  Rh  Rh28  1  0.491478  0.360342  0.500000  1
  Rh  Rh29  1  0.635930  0.127184  0.500000  1
  Rh  Rh30  1  0.132499  0.641509  0.500000  1
  Rh  Rh31  1  0.361227  0.490819  0.500000  1
  Rh  Rh32  1  0.998425  0.000166  0.000000  1
  Rh  Rh33  1  0.452616  0.998818  0.000000  1
  Rh  Rh34  1  0.548283  0.547643  0.000000  1
  Rh  Rh35  1  0.001943  0.452698  0.000000  1
