# generated using pymatgen
data_DyEr9(AlSb2)2
_symmetry_space_group_name_H-M   'P 1'
_cell_length_a   8.81669754
_cell_length_b   8.81970518
_cell_length_c   6.35051700
_cell_angle_alpha   90.00000000
_cell_angle_beta   90.00000000
_cell_angle_gamma   119.99933439
_symmetry_Int_Tables_number   1
_chemical_formula_structural   DyEr9(AlSb2)2
_chemical_formula_sum   'Dy1 Er9 Al2 Sb4'
_cell_volume   427.66394515
_cell_formula_units_Z   1
loop_
 _symmetry_equiv_pos_site_id
 _symmetry_equiv_pos_as_xyz
  1  'x, y, z'
loop_
 _atom_site_type_symbol
 _atom_site_label
 _atom_site_symmetry_multiplicity
 _atom_site_fract_x
 _atom_site_fract_y
 _atom_site_fract_z
 _atom_site_occupancy
  Dy  Dy0  1  0.008651  0.242368  0.250000  1
  Er  Er1  1  0.008963  0.766848  0.750000  1
  Er  Er2  1  0.755631  0.756727  0.250000  1
  Er  Er3  1  0.755496  0.998631  0.750000  1
  Er  Er4  1  0.241587  0.231918  0.750000  1
  Er  Er5  1  0.241530  0.009273  0.250000  1
  Er  Er6  1  0.335891  0.667959  0.500044  1
  Er  Er7  1  0.655678  0.327817  0.999991  1
  Er  Er8  1  0.655678  0.327817  0.500009  1
  Er  Er9  1  0.335891  0.667959  0.999956  1
  Al  Al10  1  0.397917  0.997078  0.750000  1
  Al  Al11  1  0.398501  0.401092  0.250000  1
  Sb  Sb12  1  0.998510  0.606800  0.250000  1
  Sb  Sb13  1  0.998540  0.392055  0.750000  1
  Sb  Sb14  1  0.606082  0.605088  0.750000  1
  Sb  Sb15  1  0.605451  0.000570  0.250000  1
