# generated using pymatgen
data_Sm3Y5(Ho3Pb4)4
_symmetry_space_group_name_H-M   'P 1'
_cell_length_a   8.20508924
_cell_length_b   8.28396410
_cell_length_c   15.63251700
_cell_angle_alpha   90.00767728
_cell_angle_beta   90.01390307
_cell_angle_gamma   90.00409269
_symmetry_Int_Tables_number   1
_chemical_formula_structural   Sm3Y5(Ho3Pb4)4
_chemical_formula_sum   'Sm3 Y5 Ho12 Pb16'
_cell_volume   1062.55252754
_cell_formula_units_Z   1
loop_
 _symmetry_equiv_pos_site_id
 _symmetry_equiv_pos_as_xyz
  1  'x, y, z'
loop_
 _atom_site_type_symbol
 _atom_site_label
 _atom_site_symmetry_multiplicity
 _atom_site_fract_x
 _atom_site_fract_y
 _atom_site_fract_z
 _atom_site_occupancy
  Sm  Sm0  1  0.966280  0.822908  0.400360  1
  Sm  Sm1  1  0.533673  0.323029  0.599268  1
  Sm  Sm2  1  0.033901  0.176875  0.900729  1
  Y  Y3  1  0.534719  0.323597  0.900081  1
  Y  Y4  1  0.034681  0.176518  0.600083  1
  Y  Y5  1  0.465396  0.676378  0.399939  1
  Y  Y6  1  0.965248  0.823396  0.100212  1
  Y  Y7  1  0.465395  0.676576  0.099794  1
  Ho  Ho8  1  0.376586  0.840887  0.879227  1
  Ho  Ho9  1  0.876296  0.659023  0.620934  1
  Ho  Ho10  1  0.623642  0.158802  0.378691  1
  Ho  Ho11  1  0.123776  0.341336  0.121097  1
  Ho  Ho12  1  0.623806  0.158562  0.121148  1
  Ho  Ho13  1  0.124024  0.341349  0.378865  1
  Ho  Ho14  1  0.376032  0.841306  0.620971  1
  Ho  Ho15  1  0.876241  0.658882  0.879129  1
  Ho  Ho16  1  0.208177  0.504678  0.750170  1
  Ho  Ho17  1  0.708126  0.995339  0.749880  1
  Ho  Ho18  1  0.791661  0.495630  0.249862  1
  Ho  Ho19  1  0.292051  0.004546  0.249715  1
  Pb  Pb20  1  0.283313  0.033271  0.043536  1
  Pb  Pb21  1  0.782916  0.465818  0.456512  1
  Pb  Pb22  1  0.717155  0.966005  0.543206  1
  Pb  Pb23  1  0.218251  0.534747  0.957385  1
  Pb  Pb24  1  0.716439  0.964876  0.957589  1
  Pb  Pb25  1  0.216384  0.535270  0.542365  1
  Pb  Pb26  1  0.283716  0.035283  0.457406  1
  Pb  Pb27  1  0.782474  0.465754  0.042784  1
  Pb  Pb28  1  0.571475  0.626982  0.749930  1
  Pb  Pb29  1  0.071425  0.872990  0.750089  1
  Pb  Pb30  1  0.428629  0.373211  0.249879  1
  Pb  Pb31  1  0.928637  0.127025  0.250058  1
  Pb  Pb32  1  0.345419  0.151850  0.750585  1
  Pb  Pb33  1  0.845431  0.348151  0.749524  1
  Pb  Pb34  1  0.653600  0.847204  0.249741  1
  Pb  Pb35  1  0.155026  0.651942  0.249251  1
