# generated using pymatgen
data_Er11In9(CoCu)2
_symmetry_space_group_name_H-M   'P 1'
_cell_length_a   3.61725100
_cell_length_b   12.86577638
_cell_length_c   12.90758563
_cell_angle_alpha   110.49688149
_cell_angle_beta   90.00000000
_cell_angle_gamma   90.00000000
_symmetry_Int_Tables_number   1
_chemical_formula_structural   Er11In9(CoCu)2
_chemical_formula_sum   'Er11 In9 Co2 Cu2'
_cell_volume   562.67305951
_cell_formula_units_Z   1
loop_
 _symmetry_equiv_pos_site_id
 _symmetry_equiv_pos_as_xyz
  1  'x, y, z'
loop_
 _atom_site_type_symbol
 _atom_site_label
 _atom_site_symmetry_multiplicity
 _atom_site_fract_x
 _atom_site_fract_y
 _atom_site_fract_z
 _atom_site_occupancy
  Er  Er0  1  0.000000  0.922709  0.578384  1
  Er  Er1  1  0.000000  0.077291  0.421616  1
  Er  Er2  1  0.000000  0.579058  0.920249  1
  Er  Er3  1  0.000000  0.420942  0.079751  1
  Er  Er4  1  0.000000  0.158938  0.843376  1
  Er  Er5  1  0.000000  0.841062  0.156624  1
  Er  Er6  1  0.000000  0.383942  0.638484  1
  Er  Er7  1  0.000000  0.616058  0.361516  1
  Er  Er8  1  0.000000  0.681322  0.694427  1
  Er  Er9  1  0.000000  0.318678  0.305573  1
  Er  Er10  1  0.000000  0.000000  0.000000  1
  In  In11  1  0.500000  0.157010  0.634644  1
  In  In12  1  0.500000  0.842990  0.365356  1
  In  In13  1  0.500000  0.633070  0.156850  1
  In  In14  1  0.500000  0.366930  0.843150  1
  In  In15  1  0.500000  0.926244  0.780132  1
  In  In16  1  0.500000  0.073756  0.219868  1
  In  In17  1  0.500000  0.779935  0.923656  1
  In  In18  1  0.500000  0.220065  0.076344  1
  In  In19  1  0.500000  0.500000  0.500000  1
  Co  Co20  1  0.500000  0.548615  0.756302  1
  Co  Co21  1  0.500000  0.451385  0.243698  1
  Cu  Cu22  1  0.500000  0.744212  0.544358  1
  Cu  Cu23  1  0.500000  0.255788  0.455642  1
