# generated using pymatgen
data_Tb2Th2CdTc
_symmetry_space_group_name_H-M   'P 1'
_cell_length_a   9.78183338
_cell_length_b   9.78183332
_cell_length_c   9.87197900
_cell_angle_alpha   59.69467516
_cell_angle_beta   59.69467537
_cell_angle_gamma   60.61064317
_symmetry_Int_Tables_number   1
_chemical_formula_structural   Tb2Th2CdTc
_chemical_formula_sum   'Tb8 Th8 Cd4 Tc4'
_cell_volume   667.81360400
_cell_formula_units_Z   4
loop_
 _symmetry_equiv_pos_site_id
 _symmetry_equiv_pos_as_xyz
  1  'x, y, z'
loop_
 _atom_site_type_symbol
 _atom_site_label
 _atom_site_symmetry_multiplicity
 _atom_site_fract_x
 _atom_site_fract_y
 _atom_site_fract_z
 _atom_site_occupancy
  Tb  Tb0  1  0.195152  0.195152  0.804848  1
  Tb  Tb1  1  0.804848  0.804848  0.195152  1
  Tb  Tb2  1  0.936114  0.563886  0.563886  1
  Tb  Tb3  1  0.563886  0.936114  0.936114  1
  Tb  Tb4  1  0.563886  0.936114  0.563886  1
  Tb  Tb5  1  0.936114  0.563886  0.936114  1
  Tb  Tb6  1  0.560740  0.560740  0.939260  1
  Tb  Tb7  1  0.939260  0.939260  0.560740  1
  Th  Th8  1  0.345688  0.345688  0.350782  1
  Th  Th9  1  0.345688  0.345688  0.957844  1
  Th  Th10  1  0.350782  0.957844  0.345688  1
  Th  Th11  1  0.957844  0.350782  0.345688  1
  Th  Th12  1  0.812245  0.187755  0.187755  1
  Th  Th13  1  0.187755  0.812245  0.812245  1
  Th  Th14  1  0.187755  0.812245  0.187755  1
  Th  Th15  1  0.812245  0.187755  0.812245  1
  Cd  Cd16  1  0.582751  0.582751  0.579688  1
  Cd  Cd17  1  0.582751  0.582751  0.254809  1
  Cd  Cd18  1  0.579688  0.254809  0.582751  1
  Cd  Cd19  1  0.254809  0.579688  0.582751  1
  Tc  Tc20  1  0.131210  0.131210  0.153756  1
  Tc  Tc21  1  0.131210  0.131210  0.583823  1
  Tc  Tc22  1  0.153756  0.583823  0.131210  1
  Tc  Tc23  1  0.583823  0.153756  0.131210  1
