# generated using pymatgen
data_Ho3ZnSn3Ir2
_symmetry_space_group_name_H-M   'P 1'
_cell_length_a   7.48121400
_cell_length_b   7.48121318
_cell_length_c   4.01239400
_cell_angle_alpha   90.00000000
_cell_angle_beta   90.00000000
_cell_angle_gamma   119.99999480
_symmetry_Int_Tables_number   1
_chemical_formula_structural   Ho3ZnSn3Ir2
_chemical_formula_sum   'Ho3 Zn1 Sn3 Ir2'
_cell_volume   194.48151755
_cell_formula_units_Z   1
loop_
 _symmetry_equiv_pos_site_id
 _symmetry_equiv_pos_as_xyz
  1  'x, y, z'
loop_
 _atom_site_type_symbol
 _atom_site_label
 _atom_site_symmetry_multiplicity
 _atom_site_fract_x
 _atom_site_fract_y
 _atom_site_fract_z
 _atom_site_occupancy
  Ho  Ho0  1  0.392442  0.409306  0.500000  1
  Ho  Ho1  1  0.590694  0.983136  0.500000  1
  Ho  Ho2  1  0.016864  0.607558  0.500000  1
  Zn  Zn3  1  0.666667  0.333333  0.000000  1
  Sn  Sn4  1  0.743257  0.742908  0.000000  1
  Sn  Sn5  1  0.257092  0.000349  0.000000  1
  Sn  Sn6  1  0.999651  0.256743  0.000000  1
  Ir  Ir7  1  0.333333  0.666667  0.000000  1
  Ir  Ir8  1  0.000000  0.000000  0.500000  1
