# generated using pymatgen
data_PaTi2(Nb2Sn3)2
_symmetry_space_group_name_H-M   'P 1'
_cell_length_a   5.77510100
_cell_length_b   5.77038869
_cell_length_c   9.59871300
_cell_angle_alpha   90.00000000
_cell_angle_beta   90.00000000
_cell_angle_gamma   120.02700057
_symmetry_Int_Tables_number   1
_chemical_formula_structural   PaTi2(Nb2Sn3)2
_chemical_formula_sum   'Pa1 Ti2 Nb4 Sn6'
_cell_volume   276.94279137
_cell_formula_units_Z   1
loop_
 _symmetry_equiv_pos_site_id
 _symmetry_equiv_pos_as_xyz
  1  'x, y, z'
loop_
 _atom_site_type_symbol
 _atom_site_label
 _atom_site_symmetry_multiplicity
 _atom_site_fract_x
 _atom_site_fract_y
 _atom_site_fract_z
 _atom_site_occupancy
  Pa  Pa0  1  0.000000  0.000000  0.000000  1
  Ti  Ti1  1  0.500000  0.000000  0.752723  1
  Ti  Ti2  1  0.500000  0.000000  0.247277  1
  Nb  Nb3  1  0.000000  0.500000  0.753411  1
  Nb  Nb4  1  0.500000  0.500000  0.753411  1
  Nb  Nb5  1  0.000000  0.500000  0.246589  1
  Nb  Nb6  1  0.500000  0.500000  0.246589  1
  Sn  Sn7  1  0.664374  0.328749  0.500000  1
  Sn  Sn8  1  0.335626  0.671251  0.500000  1
  Sn  Sn9  1  0.663665  0.327328  0.000000  1
  Sn  Sn10  1  0.336335  0.672672  0.000000  1
  Sn  Sn11  1  0.000000  0.000000  0.665856  1
  Sn  Sn12  1  0.000000  0.000000  0.334144  1
