# generated using pymatgen
data_Hg2Bi2RuRh3O14
_symmetry_space_group_name_H-M   'P 1'
_cell_length_a   7.31039567
_cell_length_b   7.16051357
_cell_length_c   7.29904543
_cell_angle_alpha   60.62587630
_cell_angle_beta   61.16038794
_cell_angle_gamma   60.67594403
_symmetry_Int_Tables_number   1
_chemical_formula_structural   Hg2Bi2RuRh3O14
_chemical_formula_sum   'Hg2 Bi2 Ru1 Rh3 O14'
_cell_volume   275.15571823
_cell_formula_units_Z   1
loop_
 _symmetry_equiv_pos_site_id
 _symmetry_equiv_pos_as_xyz
  1  'x, y, z'
loop_
 _atom_site_type_symbol
 _atom_site_label
 _atom_site_symmetry_multiplicity
 _atom_site_fract_x
 _atom_site_fract_y
 _atom_site_fract_z
 _atom_site_occupancy
  Hg  Hg0  1  0.125000  0.125000  0.125000  1
  Hg  Hg1  1  0.125000  0.625000  0.125000  1
  Bi  Bi2  1  0.625000  0.125000  0.125000  1
  Bi  Bi3  1  0.125000  0.125000  0.625000  1
  Ru  Ru4  1  0.125000  0.625000  0.625000  1
  Rh  Rh5  1  0.625000  0.625000  0.625000  1
  Rh  Rh6  1  0.625000  0.625000  0.125000  1
  Rh  Rh7  1  0.625000  0.125000  0.625000  1
  O  O8  1  0.241275  0.257134  0.244457  1
  O  O9  1  0.309332  0.684801  0.321065  1
  O  O10  1  0.949676  0.949508  0.561389  1
  O  O11  1  0.537872  0.958911  0.544305  1
  O  O12  1  0.705492  0.709301  0.294648  1
  O  O13  1  0.949676  0.539428  0.561389  1
  O  O14  1  0.712128  0.291089  0.705695  1
  O  O15  1  0.300324  0.300492  0.688611  1
  O  O16  1  0.705492  0.290558  0.294648  1
  O  O17  1  0.300324  0.710572  0.688611  1
  O  O18  1  0.940668  0.565199  0.928935  1
  O  O19  1  0.544508  0.540699  0.955352  1
  O  O20  1  0.008725  0.992866  0.005543  1
  O  O21  1  0.544508  0.959442  0.955352  1
