# generated using pymatgen
data_Th2CoCuSn
_symmetry_space_group_name_H-M   'P 1'
_cell_length_a   7.65524900
_cell_length_b   7.62973700
_cell_length_c   3.81712600
_cell_angle_alpha   90.00000000
_cell_angle_beta   90.00000000
_cell_angle_gamma   90.00000000
_symmetry_Int_Tables_number   1
_chemical_formula_structural   Th2CoCuSn
_chemical_formula_sum   'Th4 Co2 Cu2 Sn2'
_cell_volume   222.94892632
_cell_formula_units_Z   2
loop_
 _symmetry_equiv_pos_site_id
 _symmetry_equiv_pos_as_xyz
  1  'x, y, z'
loop_
 _atom_site_type_symbol
 _atom_site_label
 _atom_site_symmetry_multiplicity
 _atom_site_fract_x
 _atom_site_fract_y
 _atom_site_fract_z
 _atom_site_occupancy
  Th  Th0  1  0.321240  0.811074  0.500000  1
  Th  Th1  1  0.821240  0.688926  0.500000  1
  Th  Th2  1  0.174430  0.344030  0.500000  1
  Th  Th3  1  0.674430  0.155970  0.500000  1
  Co  Co4  1  0.125846  0.616794  0.000000  1
  Co  Co5  1  0.625846  0.883206  0.000000  1
  Cu  Cu6  1  0.373335  0.117380  0.000000  1
  Cu  Cu7  1  0.873335  0.382620  0.000000  1
  Sn  Sn8  1  0.005149  0.001460  0.000000  1
  Sn  Sn9  1  0.505149  0.498540  0.000000  1
