# generated using pymatgen
data_Y4Ga4RuPt2Rh
_symmetry_space_group_name_H-M   'P 1'
_cell_length_a   4.39214100
_cell_length_b   6.88719110
_cell_length_c   7.74887205
_cell_angle_alpha   89.68537205
_cell_angle_beta   90.00000000
_cell_angle_gamma   90.00000000
_symmetry_Int_Tables_number   1
_chemical_formula_structural   Y4Ga4RuPt2Rh
_chemical_formula_sum   'Y4 Ga4 Ru1 Pt2 Rh1'
_cell_volume   234.39608264
_cell_formula_units_Z   1
loop_
 _symmetry_equiv_pos_site_id
 _symmetry_equiv_pos_as_xyz
  1  'x, y, z'
loop_
 _atom_site_type_symbol
 _atom_site_label
 _atom_site_symmetry_multiplicity
 _atom_site_fract_x
 _atom_site_fract_y
 _atom_site_fract_z
 _atom_site_occupancy
  Y  Y0  1  0.250000  0.983148  0.301259  1
  Y  Y1  1  0.250000  0.485451  0.196717  1
  Y  Y2  1  0.750000  0.021679  0.690656  1
  Y  Y3  1  0.750000  0.521375  0.810868  1
  Ga  Ga4  1  0.250000  0.332811  0.570822  1
  Ga  Ga5  1  0.250000  0.830857  0.929809  1
  Ga  Ga6  1  0.750000  0.662882  0.422344  1
  Ga  Ga7  1  0.750000  0.162853  0.076482  1
  Ru  Ru8  1  0.750000  0.774303  0.102437  1
  Pt  Pt9  1  0.250000  0.225257  0.897438  1
  Pt  Pt10  1  0.250000  0.724489  0.602332  1
  Rh  Rh11  1  0.750000  0.274896  0.398837  1
