# generated using pymatgen
data_CeSm2Zn3PdPt2
_symmetry_space_group_name_H-M   'P 1'
_cell_length_a   7.49428200
_cell_length_b   7.44415775
_cell_length_c   3.86433900
_cell_angle_alpha   90.00000000
_cell_angle_beta   90.00000000
_cell_angle_gamma   120.22298908
_symmetry_Int_Tables_number   1
_chemical_formula_structural   CeSm2Zn3PdPt2
_chemical_formula_sum   'Ce1 Sm2 Zn3 Pd1 Pt2'
_cell_volume   186.28213335
_cell_formula_units_Z   1
loop_
 _symmetry_equiv_pos_site_id
 _symmetry_equiv_pos_as_xyz
  1  'x, y, z'
loop_
 _atom_site_type_symbol
 _atom_site_label
 _atom_site_symmetry_multiplicity
 _atom_site_fract_x
 _atom_site_fract_y
 _atom_site_fract_z
 _atom_site_occupancy
  Ce  Ce0  1  0.413278  0.000000  0.000000  1
  Sm  Sm1  1  0.998331  0.407759  0.000000  1
  Sm  Sm2  1  0.590572  0.592241  0.000000  1
  Zn  Zn3  1  0.997624  0.749688  0.500000  1
  Zn  Zn4  1  0.247936  0.250312  0.500000  1
  Zn  Zn5  1  0.756591  0.000000  0.500000  1
  Pd  Pd6  1  0.003530  0.000000  0.000000  1
  Pt  Pt7  1  0.658176  0.324214  0.500000  1
  Pt  Pt8  1  0.333961  0.675786  0.500000  1
