# generated using pymatgen
data_Pr3DyB4I5
_symmetry_space_group_name_H-M   'P 1'
_cell_length_a   9.88910736
_cell_length_b   9.88910700
_cell_length_c   10.00109186
_cell_angle_alpha   74.95937675
_cell_angle_beta   74.95937667
_cell_angle_gamma   25.29391582
_symmetry_Int_Tables_number   1
_chemical_formula_structural   Pr3DyB4I5
_chemical_formula_sum   'Pr3 Dy1 B4 I5'
_cell_volume   402.83388156
_cell_formula_units_Z   1
loop_
 _symmetry_equiv_pos_site_id
 _symmetry_equiv_pos_as_xyz
  1  'x, y, z'
loop_
 _atom_site_type_symbol
 _atom_site_label
 _atom_site_symmetry_multiplicity
 _atom_site_fract_x
 _atom_site_fract_y
 _atom_site_fract_z
 _atom_site_occupancy
  Pr  Pr0  1  0.496928  0.496928  0.252640  1
  Pr  Pr1  1  0.133847  0.133847  0.930399  1
  Pr  Pr2  1  0.867680  0.867680  0.063121  1
  Dy  Dy3  1  0.504480  0.504480  0.758848  1
  B  B4  1  0.315741  0.685830  0.998762  1
  B  B5  1  0.685830  0.315741  0.998762  1
  B  B6  1  0.000186  0.000186  0.093452  1
  B  B7  1  0.001477  0.001477  0.902993  1
  I  I8  1  0.671769  0.671769  0.674353  1
  I  I9  1  0.324098  0.324098  0.319928  1
  I  I10  1  0.333101  0.333101  0.837221  1
  I  I11  1  0.674637  0.674637  0.148539  1
  I  I12  1  0.004529  0.004529  0.511184  1
