# generated using pymatgen
data_Nd10Si16B
_symmetry_space_group_name_H-M   'P 1'
_cell_length_a   11.26899285
_cell_length_b   11.26271651
_cell_length_c   11.26899335
_cell_angle_alpha   144.75526022
_cell_angle_beta   135.16677085
_cell_angle_gamma   58.28499384
_symmetry_Int_Tables_number   1
_chemical_formula_structural   Nd10Si16B
_chemical_formula_sum   'Nd10 Si16 B1'
_cell_volume   576.86665380
_cell_formula_units_Z   1
loop_
 _symmetry_equiv_pos_site_id
 _symmetry_equiv_pos_as_xyz
  1  'x, y, z'
loop_
 _atom_site_type_symbol
 _atom_site_label
 _atom_site_symmetry_multiplicity
 _atom_site_fract_x
 _atom_site_fract_y
 _atom_site_fract_z
 _atom_site_occupancy
  Nd  Nd0  1  0.051878  0.567279  0.015605  1
  Nd  Nd1  1  0.350499  0.366981  0.519169  1
  Nd  Nd2  1  0.148435  0.164319  0.515507  1
  Nd  Nd3  1  0.452329  0.967004  0.019059  1
  Nd  Nd4  1  0.648813  0.164319  0.015885  1
  Nd  Nd5  1  0.947944  0.967004  0.514675  1
  Nd  Nd6  1  0.847812  0.366981  0.016482  1
  Nd  Nd7  1  0.551674  0.567279  0.515401  1
  Nd  Nd8  1  0.245375  0.759297  0.006609  1
  Nd  Nd9  1  0.752687  0.759297  0.513922  1
  Si  Si10  1  0.113620  0.066862  0.953242  1
  Si  Si11  1  0.810017  0.243237  0.433220  1
  Si  Si12  1  0.299640  0.898268  0.598630  1
  Si  Si13  1  0.399468  0.498416  0.098948  1
  Si  Si14  1  0.893451  0.805890  0.912439  1
  Si  Si15  1  0.099830  0.705174  0.605344  1
  Si  Si16  1  0.197969  0.595042  0.397073  1
  Si  Si17  1  0.701357  0.301926  0.600571  1
  Si  Si18  1  0.991052  0.433673  0.442620  1
  Si  Si19  1  0.708392  0.658983  0.950592  1
  Si  Si20  1  0.599155  0.699795  0.100640  1
  Si  Si21  1  0.999284  0.089532  0.090248  1
  Si  Si22  1  0.499173  0.398433  0.899259  1
  Si  Si23  1  0.288859  0.240878  0.952019  1
  Si  Si24  1  0.589474  0.037356  0.447881  1
  Si  Si25  1  0.411834  0.860417  0.448581  1
  B  B26  1  0.899980  0.505278  0.605298  1
