# generated using pymatgen
data_V4BTe4
_symmetry_space_group_name_H-M   'P 1'
_cell_length_a   4.40273500
_cell_length_b   9.93484600
_cell_length_c   17.25560800
_cell_angle_alpha   90.00000000
_cell_angle_beta   90.00000000
_cell_angle_gamma   90.00000000
_symmetry_Int_Tables_number   1
_chemical_formula_structural   V4BTe4
_chemical_formula_sum   'V16 B4 Te16'
_cell_volume   754.76882171
_cell_formula_units_Z   4
loop_
 _symmetry_equiv_pos_site_id
 _symmetry_equiv_pos_as_xyz
  1  'x, y, z'
loop_
 _atom_site_type_symbol
 _atom_site_label
 _atom_site_symmetry_multiplicity
 _atom_site_fract_x
 _atom_site_fract_y
 _atom_site_fract_z
 _atom_site_occupancy
  V  V0  1  0.500000  0.560780  0.391154  1
  V  V1  1  0.500000  0.439220  0.608846  1
  V  V2  1  0.500000  0.060780  0.108846  1
  V  V3  1  0.500000  0.939220  0.891154  1
  V  V4  1  0.500000  0.691327  0.533422  1
  V  V5  1  0.500000  0.308673  0.466578  1
  V  V6  1  0.500000  0.191327  0.966578  1
  V  V7  1  0.500000  0.808673  0.033422  1
  V  V8  1  0.000000  0.677616  0.445520  1
  V  V9  1  0.000000  0.322384  0.554480  1
  V  V10  1  0.000000  0.177616  0.054480  1
  V  V11  1  0.000000  0.822384  0.945520  1
  V  V12  1  0.000000  0.407039  0.398989  1
  V  V13  1  0.000000  0.592961  0.601011  1
  V  V14  1  0.000000  0.907039  0.101011  1
  V  V15  1  0.000000  0.092961  0.898989  1
  B  B16  1  0.247557  0.500000  0.500000  1
  B  B17  1  0.752443  0.000000  0.000000  1
  B  B18  1  0.752443  0.500000  0.500000  1
  B  B19  1  0.247557  0.000000  0.000000  1
  Te  Te20  1  0.000000  0.857719  0.564477  1
  Te  Te21  1  0.000000  0.142281  0.435523  1
  Te  Te22  1  0.000000  0.357719  0.935523  1
  Te  Te23  1  0.000000  0.642281  0.064477  1
  Te  Te24  1  0.500000  0.327967  0.310892  1
  Te  Te25  1  0.500000  0.672033  0.689108  1
  Te  Te26  1  0.500000  0.827967  0.189108  1
  Te  Te27  1  0.500000  0.172033  0.810892  1
  Te  Te28  1  0.500000  0.833650  0.399009  1
  Te  Te29  1  0.500000  0.166350  0.600991  1
  Te  Te30  1  0.500000  0.333650  0.100991  1
  Te  Te31  1  0.500000  0.666350  0.899009  1
  Te  Te32  1  0.000000  0.607312  0.294072  1
  Te  Te33  1  0.000000  0.392688  0.705928  1
  Te  Te34  1  0.000000  0.107312  0.205928  1
  Te  Te35  1  0.000000  0.892688  0.794072  1
