# generated using pymatgen
data_MgMnV4O12
_symmetry_space_group_name_H-M   'P 1'
_cell_length_a   6.90253349
_cell_length_b   6.90253330
_cell_length_c   5.93647004
_cell_angle_alpha   74.61236788
_cell_angle_beta   74.61236678
_cell_angle_gamma   84.06833387
_symmetry_Int_Tables_number   1
_chemical_formula_structural   MgMnV4O12
_chemical_formula_sum   'Mg1 Mn1 V4 O12'
_cell_volume   262.76302363
_cell_formula_units_Z   1
loop_
 _symmetry_equiv_pos_site_id
 _symmetry_equiv_pos_as_xyz
  1  'x, y, z'
loop_
 _atom_site_type_symbol
 _atom_site_label
 _atom_site_symmetry_multiplicity
 _atom_site_fract_x
 _atom_site_fract_y
 _atom_site_fract_z
 _atom_site_occupancy
  Mg  Mg0  1  0.911316  0.088684  0.000000  1
  Mn  Mn1  1  0.087837  0.912163  0.500000  1
  V  V2  1  0.790941  0.612934  0.007668  1
  V  V3  1  0.615503  0.791369  0.503791  1
  V  V4  1  0.387066  0.209059  0.992332  1
  V  V5  1  0.208631  0.384497  0.496209  1
  O  O6  1  0.957187  0.804648  0.895259  1
  O  O7  1  0.905991  0.385122  0.026471  1
  O  O8  1  0.806064  0.958788  0.380901  1
  O  O9  1  0.634864  0.649762  0.799440  1
  O  O10  1  0.614878  0.094009  0.973529  1
  O  O11  1  0.644328  0.630775  0.301966  1
  O  O12  1  0.350238  0.365136  0.200560  1
  O  O13  1  0.389207  0.909837  0.525639  1
  O  O14  1  0.369225  0.355672  0.698034  1
  O  O15  1  0.195352  0.042813  0.104741  1
  O  O16  1  0.090163  0.610793  0.474361  1
  O  O17  1  0.041212  0.193936  0.619099  1
