# generated using pymatgen
data_Th3In3OsPd2
_symmetry_space_group_name_H-M   'P 1'
_cell_length_a   7.77431700
_cell_length_b   7.77425439
_cell_length_c   4.03003400
_cell_angle_alpha   90.00000000
_cell_angle_beta   90.00000000
_cell_angle_gamma   119.99905362
_symmetry_Int_Tables_number   1
_chemical_formula_structural   Th3In3OsPd2
_chemical_formula_sum   'Th3 In3 Os1 Pd2'
_cell_volume   210.94268803
_cell_formula_units_Z   1
loop_
 _symmetry_equiv_pos_site_id
 _symmetry_equiv_pos_as_xyz
  1  'x, y, z'
loop_
 _atom_site_type_symbol
 _atom_site_label
 _atom_site_symmetry_multiplicity
 _atom_site_fract_x
 _atom_site_fract_y
 _atom_site_fract_z
 _atom_site_occupancy
  Th  Th0  1  0.576610  0.985013  0.500002  1
  Th  Th1  1  0.014985  0.591613  0.500002  1
  Th  Th2  1  0.408391  0.423379  0.500002  1
  In  In3  1  0.252628  0.004444  0.000000  1
  In  In4  1  0.995482  0.248200  0.000000  1
  In  In5  1  0.751821  0.747344  0.000000  1
  Os  Os6  1  0.333326  0.666662  0.000000  1
  Pd  Pd7  1  0.999997  0.000009  0.500002  1
  Pd  Pd8  1  0.666660  0.333333  0.000000  1
