# generated using pymatgen
data_Ce6Ho9Cd4Ru4Pb
_symmetry_space_group_name_H-M   'P 1'
_cell_length_a   9.55750693
_cell_length_b   9.55750813
_cell_length_c   9.61605662
_cell_angle_alpha   60.13135255
_cell_angle_beta   60.13134929
_cell_angle_gamma   61.01046706
_symmetry_Int_Tables_number   1
_chemical_formula_structural   Ce6Ho9Cd4Ru4Pb
_chemical_formula_sum   'Ce6 Ho9 Cd4 Ru4 Pb1'
_cell_volume   626.97638600
_cell_formula_units_Z   1
loop_
 _symmetry_equiv_pos_site_id
 _symmetry_equiv_pos_as_xyz
  1  'x, y, z'
loop_
 _atom_site_type_symbol
 _atom_site_label
 _atom_site_symmetry_multiplicity
 _atom_site_fract_x
 _atom_site_fract_y
 _atom_site_fract_z
 _atom_site_occupancy
  Ce  Ce0  1  0.192907  0.809997  0.181752  1
  Ce  Ce1  1  0.809997  0.192908  0.181753  1
  Ce  Ce2  1  0.349213  0.349213  0.957435  1
  Ce  Ce3  1  0.350272  0.958144  0.346139  1
  Ce  Ce4  1  0.958144  0.350272  0.346139  1
  Ce  Ce5  1  0.347079  0.347079  0.351630  1
  Ho  Ho6  1  0.929322  0.563419  0.934818  1
  Ho  Ho7  1  0.563419  0.929322  0.934818  1
  Ho  Ho8  1  0.940474  0.940474  0.563412  1
  Ho  Ho9  1  0.565294  0.930775  0.562903  1
  Ho  Ho10  1  0.930775  0.565294  0.562903  1
  Ho  Ho11  1  0.192460  0.192460  0.802791  1
  Ho  Ho12  1  0.808854  0.192181  0.809859  1
  Ho  Ho13  1  0.192180  0.808855  0.809859  1
  Ho  Ho14  1  0.809124  0.809125  0.183303  1
  Cd  Cd15  1  0.583478  0.583478  0.257675  1
  Cd  Cd16  1  0.580939  0.252588  0.584135  1
  Cd  Cd17  1  0.252588  0.580939  0.584135  1
  Cd  Cd18  1  0.581618  0.581618  0.577442  1
  Ru  Ru19  1  0.140571  0.140571  0.567083  1
  Ru  Ru20  1  0.145791  0.579651  0.159839  1
  Ru  Ru21  1  0.579651  0.145791  0.159839  1
  Ru  Ru22  1  0.129419  0.129419  0.150621  1
  Pb  Pb23  1  0.566428  0.566428  0.929715  1
