# generated using pymatgen
data_SnSb11PtRh3
_symmetry_space_group_name_H-M   'P 1'
_cell_length_a   8.14817152
_cell_length_b   8.14997827
_cell_length_c   8.14367117
_cell_angle_alpha   109.54209072
_cell_angle_beta   109.17454607
_cell_angle_gamma   109.65775773
_symmetry_Int_Tables_number   1
_chemical_formula_structural   SnSb11PtRh3
_chemical_formula_sum   'Sn1 Sb11 Pt1 Rh3'
_cell_volume   416.50375982
_cell_formula_units_Z   1
loop_
 _symmetry_equiv_pos_site_id
 _symmetry_equiv_pos_as_xyz
  1  'x, y, z'
loop_
 _atom_site_type_symbol
 _atom_site_label
 _atom_site_symmetry_multiplicity
 _atom_site_fract_x
 _atom_site_fract_y
 _atom_site_fract_z
 _atom_site_occupancy
  Sn  Sn0  1  0.151587  0.814484  0.656293  1
  Sb  Sb1  1  0.851798  0.192047  0.346560  1
  Sb  Sb2  1  0.847007  0.508018  0.661054  1
  Sb  Sb3  1  0.156975  0.498334  0.342195  1
  Sb  Sb4  1  0.818111  0.662142  0.156480  1
  Sb  Sb5  1  0.181603  0.336542  0.844070  1
  Sb  Sb6  1  0.503943  0.654789  0.843085  1
  Sb  Sb7  1  0.494405  0.343731  0.155952  1
  Sb  Sb8  1  0.658762  0.155128  0.809737  1
  Sb  Sb9  1  0.338096  0.841374  0.187299  1
  Sb  Sb10  1  0.661928  0.842985  0.505548  1
  Sb  Sb11  1  0.337411  0.153453  0.494064  1
  Pt  Pt12  1  0.502674  0.001005  0.002365  1
  Rh  Rh13  1  0.998362  0.001873  0.498145  1
  Rh  Rh14  1  0.998081  0.497087  0.998106  1
  Rh  Rh15  1  0.499256  0.497009  0.499047  1
