# generated using pymatgen
data_HoErBi2(SeO3)6
_symmetry_space_group_name_H-M   'P 1'
_cell_length_a   7.22642649
_cell_length_b   8.22593189
_cell_length_c   9.28451676
_cell_angle_alpha   70.96445143
_cell_angle_beta   70.28333512
_cell_angle_gamma   65.66850811
_symmetry_Int_Tables_number   1
_chemical_formula_structural   HoErBi2(SeO3)6
_chemical_formula_sum   'Ho1 Er1 Bi2 Se6 O18'
_cell_volume   461.99831932
_cell_formula_units_Z   1
loop_
 _symmetry_equiv_pos_site_id
 _symmetry_equiv_pos_as_xyz
  1  'x, y, z'
loop_
 _atom_site_type_symbol
 _atom_site_label
 _atom_site_symmetry_multiplicity
 _atom_site_fract_x
 _atom_site_fract_y
 _atom_site_fract_z
 _atom_site_occupancy
  Ho  Ho0  1  0.739020  0.736386  0.802466  1
  Er  Er1  1  0.260808  0.263313  0.197626  1
  Bi  Bi2  1  0.330694  0.727800  0.600168  1
  Bi  Bi3  1  0.669152  0.272400  0.399398  1
  Se  Se4  1  0.427483  0.778607  0.193463  1
  Se  Se5  1  0.571845  0.222530  0.806898  1
  Se  Se6  1  0.147931  0.749085  0.968544  1
  Se  Se7  1  0.852425  0.249474  0.032297  1
  Se  Se8  1  0.883269  0.751205  0.426097  1
  Se  Se9  1  0.116992  0.248966  0.573058  1
  O  O10  1  0.646144  0.786113  0.048035  1
  O  O11  1  0.353905  0.214537  0.953021  1
  O  O12  1  0.368405  0.952699  0.284660  1
  O  O13  1  0.630326  0.048844  0.715302  1
  O  O14  1  0.520166  0.599295  0.346048  1
  O  O15  1  0.478742  0.401748  0.654431  1
  O  O16  1  0.171366  0.563473  0.118951  1
  O  O17  1  0.829695  0.434370  0.881318  1
  O  O18  1  0.402858  0.710989  0.850623  1
  O  O19  1  0.597138  0.288676  0.149919  1
  O  O20  1  0.348794  0.241401  0.426807  1
  O  O21  1  0.651298  0.758608  0.572031  1
  O  O22  1  0.982028  0.294614  0.430991  1
  O  O23  1  0.018821  0.705100  0.567900  1
  O  O24  1  0.145276  0.028390  0.663396  1
  O  O25  1  0.854713  0.972023  0.336339  1
  O  O26  1  0.941752  0.298793  0.160927  1
  O  O27  1  0.058953  0.700559  0.839289  1
