# generated using pymatgen
data_Cs3Ag2P2Au
_symmetry_space_group_name_H-M   'P 1'
_cell_length_a   8.04654893
_cell_length_b   8.20574451
_cell_length_c   7.87306608
_cell_angle_alpha   48.45296520
_cell_angle_beta   47.97403440
_cell_angle_gamma   48.59454741
_symmetry_Int_Tables_number   1
_chemical_formula_structural   Cs3Ag2P2Au
_chemical_formula_sum   'Cs3 Ag2 P2 Au1'
_cell_volume   266.00090318
_cell_formula_units_Z   1
loop_
 _symmetry_equiv_pos_site_id
 _symmetry_equiv_pos_as_xyz
  1  'x, y, z'
loop_
 _atom_site_type_symbol
 _atom_site_label
 _atom_site_symmetry_multiplicity
 _atom_site_fract_x
 _atom_site_fract_y
 _atom_site_fract_z
 _atom_site_occupancy
  Cs  Cs0  1  0.911927  0.909972  0.902027  1
  Cs  Cs1  1  0.500000  0.500000  0.500000  1
  Cs  Cs2  1  0.088073  0.090028  0.097973  1
  Ag  Ag3  1  0.500000  0.500000  0.000000  1
  Ag  Ag4  1  0.000000  0.500000  0.500000  1
  P  P5  1  0.266474  0.259989  0.256200  1
  P  P6  1  0.733526  0.740011  0.743800  1
  Au  Au7  1  0.500000  0.000000  0.500000  1
