# generated using pymatgen
data_Ce4Be(Rh5Au)2
_symmetry_space_group_name_H-M   'P 1'
_cell_length_a   7.21612270
_cell_length_b   7.21867333
_cell_length_c   7.21867436
_cell_angle_alpha   108.42523505
_cell_angle_beta   110.00409565
_cell_angle_gamma   110.00409434
_symmetry_Int_Tables_number   1
_chemical_formula_structural   Ce4Be(Rh5Au)2
_chemical_formula_sum   'Ce4 Be1 Rh10 Au2'
_cell_volume   289.34021271
_cell_formula_units_Z   1
loop_
 _symmetry_equiv_pos_site_id
 _symmetry_equiv_pos_as_xyz
  1  'x, y, z'
loop_
 _atom_site_type_symbol
 _atom_site_label
 _atom_site_symmetry_multiplicity
 _atom_site_fract_x
 _atom_site_fract_y
 _atom_site_fract_z
 _atom_site_occupancy
  Ce  Ce0  1  0.016407  0.008204  0.508204  1
  Ce  Ce1  1  0.016407  0.508204  0.008204  1
  Ce  Ce2  1  0.487499  0.980737  0.980737  1
  Ce  Ce3  1  0.487499  0.506763  0.506763  1
  Be  Be4  1  0.999959  0.999979  0.999979  1
  Rh  Rh5  1  0.500817  0.250408  0.750408  1
  Rh  Rh6  1  0.249989  0.500808  0.749181  1
  Rh  Rh7  1  0.249989  0.749181  0.500808  1
  Rh  Rh8  1  0.500817  0.750408  0.250408  1
  Rh  Rh9  1  0.734251  0.734254  0.999997  1
  Rh  Rh10  1  0.264558  0.998649  0.265909  1
  Rh  Rh11  1  0.999299  0.262443  0.262443  1
  Rh  Rh12  1  0.264558  0.265909  0.998649  1
  Rh  Rh13  1  0.734251  0.999997  0.734254  1
  Rh  Rh14  1  0.999299  0.736856  0.736856  1
  Au  Au15  1  0.747200  0.248535  0.498667  1
  Au  Au16  1  0.747200  0.498667  0.248535  1
