# generated using pymatgen
data_TbHo4Lu(Al3Ru)8
_symmetry_space_group_name_H-M   'P 1'
_cell_length_a   8.78405400
_cell_length_b   8.77975721
_cell_length_c   9.60066600
_cell_angle_alpha   90.00116049
_cell_angle_beta   90.00000000
_cell_angle_gamma   120.01619045
_symmetry_Int_Tables_number   1
_chemical_formula_structural   TbHo4Lu(Al3Ru)8
_chemical_formula_sum   'Tb1 Ho4 Lu1 Al24 Ru8'
_cell_volume   641.11895865
_cell_formula_units_Z   1
loop_
 _symmetry_equiv_pos_site_id
 _symmetry_equiv_pos_as_xyz
  1  'x, y, z'
loop_
 _atom_site_type_symbol
 _atom_site_label
 _atom_site_symmetry_multiplicity
 _atom_site_fract_x
 _atom_site_fract_y
 _atom_site_fract_z
 _atom_site_occupancy
  Tb  Tb0  1  0.192275  0.384551  0.749925  1
  Ho  Ho1  1  0.387816  0.194302  0.249998  1
  Ho  Ho2  1  0.806486  0.194302  0.249998  1
  Ho  Ho3  1  0.611583  0.805663  0.749976  1
  Ho  Ho4  1  0.194080  0.805663  0.749976  1
  Lu  Lu5  1  0.805714  0.611428  0.250011  1
  Al  Al6  1  0.438519  0.877037  0.249996  1
  Al  Al7  1  0.122502  0.562348  0.250045  1
  Al  Al8  1  0.439846  0.562348  0.250045  1
  Al  Al9  1  0.561779  0.123559  0.749994  1
  Al  Al10  1  0.875949  0.438300  0.750053  1
  Al  Al11  1  0.562351  0.438300  0.750053  1
  Al  Al12  1  0.162456  0.837329  0.422147  1
  Al  Al13  1  0.162905  0.325811  0.421385  1
  Al  Al14  1  0.674871  0.837329  0.422147  1
  Al  Al15  1  0.836589  0.162826  0.576794  1
  Al  Al16  1  0.837188  0.674375  0.576314  1
  Al  Al17  1  0.326238  0.162826  0.576794  1
  Al  Al18  1  0.836595  0.162773  0.923187  1
  Al  Al19  1  0.837177  0.674353  0.923740  1
  Al  Al20  1  0.326179  0.162773  0.923187  1
  Al  Al21  1  0.162441  0.837262  0.077842  1
  Al  Al22  1  0.162896  0.325794  0.078609  1
  Al  Al23  1  0.674821  0.837262  0.077842  1
  Al  Al24  1  0.333271  0.666544  0.517514  1
  Al  Al25  1  0.667097  0.334194  0.479608  1
  Al  Al26  1  0.667055  0.334110  0.020376  1
  Al  Al27  1  0.333203  0.666408  0.982390  1
  Al  Al28  1  0.999824  0.999650  0.249960  1
  Al  Al29  1  0.998262  0.996525  0.749965  1
  Ru  Ru30  1  0.000180  0.000360  0.499993  1
  Ru  Ru31  1  0.000185  0.000371  0.999915  1
  Ru  Ru32  1  0.500276  0.000552  0.499648  1
  Ru  Ru33  1  0.999439  0.500653  0.499167  1
  Ru  Ru34  1  0.501213  0.500653  0.499167  1
  Ru  Ru35  1  0.500210  0.000421  0.000305  1
  Ru  Ru36  1  0.999454  0.500526  0.000965  1
  Ru  Ru37  1  0.501072  0.500526  0.000965  1
