# generated using pymatgen
data_Nb4InC3
_symmetry_space_group_name_H-M   'P 1'
_cell_length_a   3.18235100
_cell_length_b   3.18235091
_cell_length_c   25.07245300
_cell_angle_alpha   90.00000000
_cell_angle_beta   90.00000000
_cell_angle_gamma   119.99999049
_symmetry_Int_Tables_number   1
_chemical_formula_structural   Nb4InC3
_chemical_formula_sum   'Nb8 In2 C6'
_cell_volume   219.89919787
_cell_formula_units_Z   2
loop_
 _symmetry_equiv_pos_site_id
 _symmetry_equiv_pos_as_xyz
  1  'x, y, z'
loop_
 _atom_site_type_symbol
 _atom_site_label
 _atom_site_symmetry_multiplicity
 _atom_site_fract_x
 _atom_site_fract_y
 _atom_site_fract_z
 _atom_site_occupancy
  Nb  Nb0  1  0.000000  0.000000  0.348152  1
  Nb  Nb1  1  0.000000  0.000000  0.848152  1
  Nb  Nb2  1  0.000000  0.000000  0.651848  1
  Nb  Nb3  1  0.000000  0.000000  0.151848  1
  Nb  Nb4  1  0.333333  0.666667  0.446517  1
  Nb  Nb5  1  0.666667  0.333333  0.946517  1
  Nb  Nb6  1  0.666667  0.333333  0.553483  1
  Nb  Nb7  1  0.333333  0.666667  0.053483  1
  In  In8  1  0.666667  0.333333  0.750000  1
  In  In9  1  0.333333  0.666667  0.250000  1
  C  C10  1  0.666667  0.333333  0.394494  1
  C  C11  1  0.333333  0.666667  0.894494  1
  C  C12  1  0.333333  0.666667  0.605506  1
  C  C13  1  0.000000  0.000000  0.000000  1
  C  C14  1  0.666667  0.333333  0.105506  1
  C  C15  1  0.000000  0.000000  0.500000  1
