# generated using pymatgen
data_SrVCo2(PO4)3
_symmetry_space_group_name_H-M   'P 1'
_cell_length_a   9.15761822
_cell_length_b   9.15761924
_cell_length_c   9.15761917
_cell_angle_alpha   137.56554447
_cell_angle_beta   109.85572848
_cell_angle_gamma   85.54347643
_symmetry_Int_Tables_number   1
_chemical_formula_structural   SrVCo2(PO4)3
_chemical_formula_sum   'Sr2 V2 Co4 P6 O24'
_cell_volume   468.92969990
_cell_formula_units_Z   2
loop_
 _symmetry_equiv_pos_site_id
 _symmetry_equiv_pos_as_xyz
  1  'x, y, z'
loop_
 _atom_site_type_symbol
 _atom_site_label
 _atom_site_symmetry_multiplicity
 _atom_site_fract_x
 _atom_site_fract_y
 _atom_site_fract_z
 _atom_site_occupancy
  Sr  Sr0  1  0.250000  0.345951  0.095951  1
  Sr  Sr1  1  0.750000  0.654049  0.904049  1
  V  V2  1  0.000000  0.500000  0.500000  1
  V  V3  1  0.500000  0.000000  0.500000  1
  Co  Co4  1  0.116835  0.116835  0.500000  1
  Co  Co5  1  0.383165  0.883165  0.000000  1
  Co  Co6  1  0.616835  0.116835  0.000000  1
  Co  Co7  1  0.883165  0.883165  0.500000  1
  P  P8  1  0.250000  0.838384  0.588384  1
  P  P9  1  0.750000  0.161616  0.411616  1
  P  P10  1  0.323024  0.323024  0.500000  1
  P  P11  1  0.176976  0.676976  0.000000  1
  P  P12  1  0.823024  0.323024  0.000000  1
  P  P13  1  0.676976  0.676976  0.500000  1
  O  O14  1  0.342901  0.795194  0.452294  1
  O  O15  1  0.657099  0.204806  0.547706  1
  O  O16  1  0.842901  0.390607  0.547706  1
  O  O17  1  0.157099  0.609393  0.452294  1
  O  O18  1  0.132958  0.984660  0.617618  1
  O  O19  1  0.632958  0.015340  0.148298  1
  O  O20  1  0.867042  0.015340  0.382382  1
  O  O21  1  0.367042  0.984660  0.851702  1
  O  O22  1  0.345784  0.203908  0.277616  1
  O  O23  1  0.073708  0.796092  0.141876  1
  O  O24  1  0.845784  0.568168  0.141876  1
  O  O25  1  0.573708  0.431832  0.277616  1
  O  O26  1  0.654216  0.796092  0.722384  1
  O  O27  1  0.926292  0.203908  0.858124  1
  O  O28  1  0.154216  0.431832  0.858124  1
  O  O29  1  0.426292  0.568168  0.722384  1
  O  O30  1  0.135289  0.292604  0.436087  1
  O  O31  1  0.143484  0.707396  0.842686  1
  O  O32  1  0.635289  0.199203  0.842686  1
  O  O33  1  0.643484  0.800797  0.436087  1
  O  O34  1  0.864711  0.707396  0.563913  1
  O  O35  1  0.856516  0.292604  0.157314  1
  O  O36  1  0.364711  0.800797  0.157314  1
  O  O37  1  0.356516  0.199203  0.563913  1
