# generated using pymatgen
data_Y2Ho(LuSn2)2
_symmetry_space_group_name_H-M   'P 1'
_cell_length_a   8.00638000
_cell_length_b   8.13978500
_cell_length_c   15.39449800
_cell_angle_alpha   90.00000000
_cell_angle_beta   90.00000000
_cell_angle_gamma   90.00000000
_symmetry_Int_Tables_number   1
_chemical_formula_structural   Y2Ho(LuSn2)2
_chemical_formula_sum   'Y8 Ho4 Lu8 Sn16'
_cell_volume   1003.26269565
_cell_formula_units_Z   4
loop_
 _symmetry_equiv_pos_site_id
 _symmetry_equiv_pos_as_xyz
  1  'x, y, z'
loop_
 _atom_site_type_symbol
 _atom_site_label
 _atom_site_symmetry_multiplicity
 _atom_site_fract_x
 _atom_site_fract_y
 _atom_site_fract_z
 _atom_site_occupancy
  Y  Y0  1  0.522065  0.321061  0.902706  1
  Y  Y1  1  0.022065  0.178939  0.597294  1
  Y  Y2  1  0.477935  0.678939  0.402706  1
  Y  Y3  1  0.977935  0.821061  0.097294  1
  Y  Y4  1  0.477766  0.679019  0.097345  1
  Y  Y5  1  0.977766  0.820981  0.402655  1
  Y  Y6  1  0.522234  0.320981  0.597345  1
  Y  Y7  1  0.022234  0.179019  0.902655  1
  Ho  Ho8  1  0.367366  0.836957  0.877231  1
  Ho  Ho9  1  0.867366  0.663043  0.622769  1
  Ho  Ho10  1  0.632634  0.163043  0.377231  1
  Ho  Ho11  1  0.132634  0.336957  0.122769  1
  Lu  Lu12  1  0.633092  0.162819  0.122826  1
  Lu  Lu13  1  0.133092  0.337181  0.377174  1
  Lu  Lu14  1  0.366908  0.837181  0.622826  1
  Lu  Lu15  1  0.866908  0.662819  0.877174  1
  Lu  Lu16  1  0.198221  0.504112  0.749830  1
  Lu  Lu17  1  0.698221  0.995888  0.750170  1
  Lu  Lu18  1  0.801779  0.495888  0.249830  1
  Lu  Lu19  1  0.301779  0.004112  0.250170  1
  Sn  Sn20  1  0.295896  0.037294  0.042572  1
  Sn  Sn21  1  0.795896  0.462706  0.457428  1
  Sn  Sn22  1  0.704104  0.962706  0.542572  1
  Sn  Sn23  1  0.204104  0.537294  0.957428  1
  Sn  Sn24  1  0.706904  0.962118  0.958442  1
  Sn  Sn25  1  0.206904  0.537882  0.541558  1
  Sn  Sn26  1  0.293096  0.037882  0.458442  1
  Sn  Sn27  1  0.793096  0.462118  0.041558  1
  Sn  Sn28  1  0.563715  0.621225  0.749863  1
  Sn  Sn29  1  0.063715  0.878775  0.750137  1
  Sn  Sn30  1  0.436285  0.378775  0.249863  1
  Sn  Sn31  1  0.936285  0.121225  0.250137  1
  Sn  Sn32  1  0.331618  0.148743  0.749567  1
  Sn  Sn33  1  0.831618  0.351257  0.750433  1
  Sn  Sn34  1  0.668382  0.851257  0.249567  1
  Sn  Sn35  1  0.168382  0.648743  0.250433  1
