# generated using pymatgen
data_Ti6Ga5Fe12Mo
_symmetry_space_group_name_H-M   'P 1'
_cell_length_a   4.13328300
_cell_length_b   5.87012400
_cell_length_c   12.37828300
_cell_angle_alpha   90.00000000
_cell_angle_beta   89.99863105
_cell_angle_gamma   90.00000000
_symmetry_Int_Tables_number   1
_chemical_formula_structural   Ti6Ga5Fe12Mo
_chemical_formula_sum   'Ti6 Ga5 Fe12 Mo1'
_cell_volume   300.33284125
_cell_formula_units_Z   1
loop_
 _symmetry_equiv_pos_site_id
 _symmetry_equiv_pos_as_xyz
  1  'x, y, z'
loop_
 _atom_site_type_symbol
 _atom_site_label
 _atom_site_symmetry_multiplicity
 _atom_site_fract_x
 _atom_site_fract_y
 _atom_site_fract_z
 _atom_site_occupancy
  Ti  Ti0  1  0.000000  0.500010  0.000000  1
  Ti  Ti1  1  0.500043  0.999967  0.175302  1
  Ti  Ti2  1  0.000015  0.499848  0.333510  1
  Ti  Ti3  1  0.500000  0.000313  0.500000  1
  Ti  Ti4  1  0.999985  0.499848  0.666489  1
  Ti  Ti5  1  0.499958  0.999967  0.824699  1
  Ga  Ga6  1  0.499991  0.500069  0.166411  1
  Ga  Ga7  1  0.999932  0.000005  0.333426  1
  Ga  Ga8  1  0.500000  0.499899  0.500000  1
  Ga  Ga9  1  0.000068  0.000005  0.666574  1
  Ga  Ga10  1  0.500010  0.500069  0.833589  1
  Fe  Fe11  1  0.500000  0.241761  0.000000  1
  Fe  Fe12  1  0.500000  0.758184  0.000000  1
  Fe  Fe13  1  0.999948  0.245724  0.162357  1
  Fe  Fe14  1  0.000061  0.754220  0.162432  1
  Fe  Fe15  1  0.499913  0.252929  0.334685  1
  Fe  Fe16  1  0.499969  0.747113  0.334855  1
  Fe  Fe17  1  0.000000  0.250265  0.500000  1
  Fe  Fe18  1  0.000000  0.749812  0.500000  1
  Fe  Fe19  1  0.500088  0.252929  0.665315  1
  Fe  Fe20  1  0.500032  0.747113  0.665145  1
  Fe  Fe21  1  0.000052  0.245724  0.837643  1
  Fe  Fe22  1  0.999939  0.754220  0.837568  1
  Mo  Mo23  1  0.000000  0.000001  0.000000  1
