# generated using pymatgen
data_La16Ho3MgIr12
_symmetry_space_group_name_H-M   'P 1'
_cell_length_a   11.36490900
_cell_length_b   11.36490900
_cell_length_c   6.50442700
_cell_angle_alpha   90.00000000
_cell_angle_beta   90.00000000
_cell_angle_gamma   90.00000000
_symmetry_Int_Tables_number   1
_chemical_formula_structural   La16Ho3MgIr12
_chemical_formula_sum   'La16 Ho3 Mg1 Ir12'
_cell_volume   840.11931420
_cell_formula_units_Z   1
loop_
 _symmetry_equiv_pos_site_id
 _symmetry_equiv_pos_as_xyz
  1  'x, y, z'
loop_
 _atom_site_type_symbol
 _atom_site_label
 _atom_site_symmetry_multiplicity
 _atom_site_fract_x
 _atom_site_fract_y
 _atom_site_fract_z
 _atom_site_occupancy
  La  La0  1  0.277798  0.085444  0.393403  1
  La  La1  1  0.287435  0.912086  0.892126  1
  La  La2  1  0.712565  0.087914  0.892126  1
  La  La3  1  0.722202  0.914556  0.393403  1
  La  La4  1  0.588917  0.789750  0.894050  1
  La  La5  1  0.587216  0.209965  0.390553  1
  La  La6  1  0.412784  0.790035  0.390553  1
  La  La7  1  0.411083  0.210250  0.894050  1
  La  La8  1  0.209965  0.412784  0.609447  1
  La  La9  1  0.210250  0.588917  0.105950  1
  La  La10  1  0.789750  0.411083  0.105950  1
  La  La11  1  0.790035  0.587216  0.609447  1
  La  La12  1  0.912086  0.712565  0.107874  1
  La  La13  1  0.914556  0.277798  0.606597  1
  La  La14  1  0.085444  0.722202  0.606597  1
  La  La15  1  0.087914  0.287435  0.107874  1
  Ho  Ho16  1  0.000000  0.000000  0.000000  1
  Ho  Ho17  1  0.500000  0.500000  0.000000  1
  Ho  Ho18  1  0.500000  0.500000  0.500000  1
  Mg  Mg19  1  0.000000  0.000000  0.500000  1
  Ir  Ir20  1  0.851219  0.151168  0.242546  1
  Ir  Ir21  1  0.848832  0.851219  0.757454  1
  Ir  Ir22  1  0.151168  0.148781  0.757454  1
  Ir  Ir23  1  0.148781  0.848832  0.242546  1
  Ir  Ir24  1  0.648983  0.352596  0.747155  1
  Ir  Ir25  1  0.647404  0.648983  0.252845  1
  Ir  Ir26  1  0.352596  0.351017  0.252845  1
  Ir  Ir27  1  0.351017  0.647404  0.747155  1
  Ir  Ir28  1  0.500000  0.000000  0.127911  1
  Ir  Ir29  1  0.500000  0.000000  0.622900  1
  Ir  Ir30  1  0.000000  0.500000  0.872089  1
  Ir  Ir31  1  0.000000  0.500000  0.377100  1
