# generated using pymatgen
data_Zr5Zn6GeRh12
_symmetry_space_group_name_H-M   'P 1'
_cell_length_a   4.46263300
_cell_length_b   6.28973900
_cell_length_c   13.27600900
_cell_angle_alpha   90.00000000
_cell_angle_beta   90.00012451
_cell_angle_gamma   90.00000000
_symmetry_Int_Tables_number   1
_chemical_formula_structural   Zr5Zn6GeRh12
_chemical_formula_sum   'Zr5 Zn6 Ge1 Rh12'
_cell_volume   372.64159924
_cell_formula_units_Z   1
loop_
 _symmetry_equiv_pos_site_id
 _symmetry_equiv_pos_as_xyz
  1  'x, y, z'
loop_
 _atom_site_type_symbol
 _atom_site_label
 _atom_site_symmetry_multiplicity
 _atom_site_fract_x
 _atom_site_fract_y
 _atom_site_fract_z
 _atom_site_occupancy
  Zr  Zr0  1  0.000006  0.000000  0.993247  1
  Zr  Zr1  1  0.500011  0.500000  0.165042  1
  Zr  Zr2  1  0.999991  0.000000  0.333318  1
  Zr  Zr3  1  0.499998  0.500000  0.501612  1
  Zr  Zr4  1  0.999998  0.000000  0.673397  1
  Zn  Zn5  1  0.000000  0.500000  0.005942  1
  Zn  Zn6  1  0.499999  0.000000  0.159936  1
  Zn  Zn7  1  0.000000  0.500000  0.333341  1
  Zn  Zn8  1  0.499999  0.000000  0.506733  1
  Zn  Zn9  1  0.999996  0.500000  0.660717  1
  Zn  Zn10  1  0.499993  0.000000  0.833339  1
  Ge  Ge11  1  0.500022  0.500000  0.833407  1
  Rh  Rh12  1  0.500003  0.262528  0.988922  1
  Rh  Rh13  1  0.500003  0.737473  0.988922  1
  Rh  Rh14  1  0.000008  0.247276  0.165111  1
  Rh  Rh15  1  0.000008  0.752725  0.165111  1
  Rh  Rh16  1  0.499993  0.248736  0.333328  1
  Rh  Rh17  1  0.499993  0.751265  0.333328  1
  Rh  Rh18  1  0.999997  0.247255  0.501539  1
  Rh  Rh19  1  0.999997  0.752744  0.501539  1
  Rh  Rh20  1  0.499995  0.262585  0.677755  1
  Rh  Rh21  1  0.499995  0.737416  0.677755  1
  Rh  Rh22  1  0.999998  0.271833  0.833330  1
  Rh  Rh23  1  0.999998  0.728168  0.833330  1
