# generated using pymatgen
data_TbGd3B16MoW3
_symmetry_space_group_name_H-M   'P 1'
_cell_length_a   6.05457101
_cell_length_b   11.70777423
_cell_length_c   3.64353000
_cell_angle_alpha   90.00000000
_cell_angle_beta   90.00000000
_cell_angle_gamma   89.98520891
_symmetry_Int_Tables_number   1
_chemical_formula_structural   TbGd3B16MoW3
_chemical_formula_sum   'Tb1 Gd3 B16 Mo1 W3'
_cell_volume   258.27362108
_cell_formula_units_Z   1
loop_
 _symmetry_equiv_pos_site_id
 _symmetry_equiv_pos_as_xyz
  1  'x, y, z'
loop_
 _atom_site_type_symbol
 _atom_site_label
 _atom_site_symmetry_multiplicity
 _atom_site_fract_x
 _atom_site_fract_y
 _atom_site_fract_z
 _atom_site_occupancy
  Tb  Tb0  1  0.873273  0.850369  0.000000  1
  Gd  Gd1  1  0.626556  0.349835  0.000000  1
  Gd  Gd2  1  0.373506  0.649989  0.000000  1
  Gd  Gd3  1  0.126304  0.149856  0.000000  1
  B  B4  1  0.785293  0.185639  0.500000  1
  B  B5  1  0.213801  0.813860  0.500000  1
  B  B6  1  0.286081  0.313720  0.500000  1
  B  B7  1  0.713970  0.686300  0.500000  1
  B  B8  1  0.865619  0.032152  0.500000  1
  B  B9  1  0.133807  0.968086  0.500000  1
  B  B10  1  0.365711  0.467866  0.500000  1
  B  B11  1  0.634392  0.532207  0.500000  1
  B  B12  1  0.886397  0.452954  0.500000  1
  B  B13  1  0.113571  0.547177  0.500000  1
  B  B14  1  0.386669  0.047226  0.500000  1
  B  B15  1  0.613968  0.952961  0.500000  1
  B  B16  1  0.975843  0.307150  0.500000  1
  B  B17  1  0.023877  0.692985  0.500000  1
  B  B18  1  0.476556  0.192588  0.500000  1
  B  B19  1  0.524330  0.807172  0.500000  1
  Mo  Mo20  1  0.630017  0.083718  0.000000  1
  W  W21  1  0.370425  0.916025  0.000000  1
  W  W22  1  0.130341  0.415633  0.000000  1
  W  W23  1  0.869692  0.584530  0.000000  1
