# generated using pymatgen
data_Hf20Zn3SnSb8
_symmetry_space_group_name_H-M   'P 1'
_cell_length_a   5.55812900
_cell_length_b   8.27837588
_cell_length_c   15.56735500
_cell_angle_alpha   90.00000000
_cell_angle_beta   90.00000000
_cell_angle_gamma   109.61521466
_symmetry_Int_Tables_number   1
_chemical_formula_structural   Hf20Zn3SnSb8
_chemical_formula_sum   'Hf20 Zn3 Sn1 Sb8'
_cell_volume   674.72204523
_cell_formula_units_Z   1
loop_
 _symmetry_equiv_pos_site_id
 _symmetry_equiv_pos_as_xyz
  1  'x, y, z'
loop_
 _atom_site_type_symbol
 _atom_site_label
 _atom_site_symmetry_multiplicity
 _atom_site_fract_x
 _atom_site_fract_y
 _atom_site_fract_z
 _atom_site_occupancy
  Hf  Hf0  1  0.430225  0.859002  0.356073  1
  Hf  Hf1  1  0.921582  0.858115  0.850844  1
  Hf  Hf2  1  0.063466  0.141885  0.149156  1
  Hf  Hf3  1  0.571224  0.140998  0.643927  1
  Hf  Hf4  1  0.654797  0.296387  0.071906  1
  Hf  Hf5  1  0.145087  0.289588  0.568150  1
  Hf  Hf6  1  0.855499  0.710412  0.431850  1
  Hf  Hf7  1  0.358411  0.703613  0.928094  1
  Hf  Hf8  1  0.845203  0.703613  0.071906  1
  Hf  Hf9  1  0.354913  0.710412  0.568150  1
  Hf  Hf10  1  0.644501  0.289588  0.431850  1
  Hf  Hf11  1  0.141589  0.296387  0.928094  1
  Hf  Hf12  1  0.069775  0.140998  0.356073  1
  Hf  Hf13  1  0.578418  0.141885  0.850844  1
  Hf  Hf14  1  0.436534  0.858115  0.149156  1
  Hf  Hf15  1  0.928776  0.859002  0.643927  1
  Hf  Hf16  1  0.500575  0.500435  0.250394  1
  Hf  Hf17  1  0.000139  0.499565  0.749606  1
  Hf  Hf18  1  0.999425  0.499565  0.250394  1
  Hf  Hf19  1  0.499861  0.500435  0.749606  1
  Zn  Zn20  1  0.750000  0.000000  0.500000  1
  Zn  Zn21  1  0.750000  0.000000  0.000000  1
  Zn  Zn22  1  0.250000  0.000000  0.500000  1
  Sn  Sn23  1  0.250000  0.000000  0.000000  1
  Sb  Sb24  1  0.917313  0.828840  0.252093  1
  Sb  Sb25  1  0.411527  0.828840  0.747907  1
  Sb  Sb26  1  0.582687  0.171160  0.252093  1
  Sb  Sb27  1  0.088473  0.171160  0.747907  1
  Sb  Sb28  1  0.250000  0.500000  0.085803  1
  Sb  Sb29  1  0.750000  0.500000  0.585687  1
  Sb  Sb30  1  0.250000  0.500000  0.414313  1
  Sb  Sb31  1  0.750000  0.500000  0.914197  1
