# generated using pymatgen
data_LaEu6Y3Si8O3
_symmetry_space_group_name_H-M   'P 1'
_cell_length_a   10.75914700
_cell_length_b   10.75914894
_cell_length_c   4.55951700
_cell_angle_alpha   90.00000000
_cell_angle_beta   90.00000000
_cell_angle_gamma   120.00000326
_symmetry_Int_Tables_number   1
_chemical_formula_structural   LaEu6Y3Si8O3
_chemical_formula_sum   'La1 Eu6 Y3 Si8 O3'
_cell_volume   457.09368103
_cell_formula_units_Z   1
loop_
 _symmetry_equiv_pos_site_id
 _symmetry_equiv_pos_as_xyz
  1  'x, y, z'
loop_
 _atom_site_type_symbol
 _atom_site_label
 _atom_site_symmetry_multiplicity
 _atom_site_fract_x
 _atom_site_fract_y
 _atom_site_fract_z
 _atom_site_occupancy
  La  La0  1  0.000000  0.000000  0.000000  1
  Eu  Eu1  1  0.214396  0.785604  0.000000  1
  Eu  Eu2  1  0.571210  0.785604  0.000000  1
  Eu  Eu3  1  0.785604  0.571210  0.000000  1
  Eu  Eu4  1  0.214396  0.428790  0.000000  1
  Eu  Eu5  1  0.428790  0.214396  0.000000  1
  Eu  Eu6  1  0.785604  0.214396  0.000000  1
  Y  Y7  1  0.000000  0.500000  0.500000  1
  Y  Y8  1  0.500000  0.500000  0.500000  1
  Y  Y9  1  0.500000  0.000000  0.500000  1
  Si  Si10  1  0.000000  0.781133  0.500000  1
  Si  Si11  1  0.000000  0.218867  0.500000  1
  Si  Si12  1  0.218867  0.218867  0.500000  1
  Si  Si13  1  0.781133  0.000000  0.500000  1
  Si  Si14  1  0.333333  0.666667  0.500000  1
  Si  Si15  1  0.218867  0.000000  0.500000  1
  Si  Si16  1  0.666667  0.333333  0.500000  1
  Si  Si17  1  0.781133  0.781133  0.500000  1
  O  O18  1  0.000000  0.500000  0.000000  1
  O  O19  1  0.500000  0.500000  0.000000  1
  O  O20  1  0.500000  0.000000  0.000000  1
