# generated using pymatgen
data_K2Rb3AgAs2
_symmetry_space_group_name_H-M   'P 1'
_cell_length_a   5.95263500
_cell_length_b   5.95263427
_cell_length_c   20.19354700
_cell_angle_alpha   90.00000000
_cell_angle_beta   90.00000000
_cell_angle_gamma   120.00000960
_symmetry_Int_Tables_number   1
_chemical_formula_structural   K2Rb3AgAs2
_chemical_formula_sum   'K4 Rb6 Ag2 As4'
_cell_volume   619.67168654
_cell_formula_units_Z   2
loop_
 _symmetry_equiv_pos_site_id
 _symmetry_equiv_pos_as_xyz
  1  'x, y, z'
loop_
 _atom_site_type_symbol
 _atom_site_label
 _atom_site_symmetry_multiplicity
 _atom_site_fract_x
 _atom_site_fract_y
 _atom_site_fract_z
 _atom_site_occupancy
  K  K0  1  0.000000  0.000000  0.144461  1
  K  K1  1  0.000000  0.000000  0.644461  1
  K  K2  1  0.000000  0.000000  0.855539  1
  K  K3  1  0.000000  0.000000  0.355539  1
  Rb  Rb4  1  0.333333  0.666667  0.549963  1
  Rb  Rb5  1  0.666667  0.333333  0.049963  1
  Rb  Rb6  1  0.666667  0.333333  0.450037  1
  Rb  Rb7  1  0.333333  0.666667  0.950037  1
  Rb  Rb8  1  0.333333  0.666667  0.750000  1
  Rb  Rb9  1  0.666667  0.333333  0.250000  1
  Ag  Ag10  1  0.666667  0.333333  0.750000  1
  Ag  Ag11  1  0.333333  0.666667  0.250000  1
  As  As12  1  0.333333  0.666667  0.124057  1
  As  As13  1  0.666667  0.333333  0.624057  1
  As  As14  1  0.333333  0.666667  0.375943  1
  As  As15  1  0.666667  0.333333  0.875943  1
