# generated using pymatgen
data_Zr5Fe19P12
_symmetry_space_group_name_H-M   'P 1'
_cell_length_a   11.78010200
_cell_length_b   11.78010285
_cell_length_c   3.61912600
_cell_angle_alpha   90.00000000
_cell_angle_beta   90.00000000
_cell_angle_gamma   120.00000322
_symmetry_Int_Tables_number   1
_chemical_formula_structural   Zr5Fe19P12
_chemical_formula_sum   'Zr5 Fe19 P12'
_cell_volume   434.94310870
_cell_formula_units_Z   1
loop_
 _symmetry_equiv_pos_site_id
 _symmetry_equiv_pos_as_xyz
  1  'x, y, z'
loop_
 _atom_site_type_symbol
 _atom_site_label
 _atom_site_symmetry_multiplicity
 _atom_site_fract_x
 _atom_site_fract_y
 _atom_site_fract_z
 _atom_site_occupancy
  Zr  Zr0  1  0.333333  0.666667  0.500000  1
  Zr  Zr1  1  0.666667  0.333333  0.500000  1
  Zr  Zr2  1  0.813740  0.000000  0.000000  1
  Zr  Zr3  1  0.000000  0.813740  0.000000  1
  Zr  Zr4  1  0.186260  0.186260  0.000000  1
  Fe  Fe5  1  0.622263  0.802952  0.500000  1
  Fe  Fe6  1  0.197048  0.819311  0.500000  1
  Fe  Fe7  1  0.180689  0.377737  0.500000  1
  Fe  Fe8  1  0.377737  0.180689  0.500000  1
  Fe  Fe9  1  0.802952  0.622263  0.500000  1
  Fe  Fe10  1  0.819311  0.197048  0.500000  1
  Fe  Fe11  1  0.283507  0.000000  0.000000  1
  Fe  Fe12  1  0.000000  0.283507  0.000000  1
  Fe  Fe13  1  0.716493  0.716493  0.000000  1
  Fe  Fe14  1  0.443011  0.000000  0.500000  1
  Fe  Fe15  1  0.000000  0.443011  0.500000  1
  Fe  Fe16  1  0.556989  0.556989  0.500000  1
  Fe  Fe17  1  0.515451  0.876225  0.000000  1
  Fe  Fe18  1  0.123775  0.639227  0.000000  1
  Fe  Fe19  1  0.360773  0.484549  0.000000  1
  Fe  Fe20  1  0.484549  0.360773  0.000000  1
  Fe  Fe21  1  0.876225  0.515451  0.000000  1
  Fe  Fe22  1  0.639227  0.123775  0.000000  1
  Fe  Fe23  1  0.000000  0.000000  0.500000  1
  P  P24  1  0.181145  0.000000  0.500000  1
  P  P25  1  0.000000  0.181145  0.500000  1
  P  P26  1  0.818855  0.818855  0.500000  1
  P  P27  1  0.519369  0.686789  0.000000  1
  P  P28  1  0.313211  0.832580  0.000000  1
  P  P29  1  0.167420  0.480631  0.000000  1
  P  P30  1  0.480631  0.167420  0.000000  1
  P  P31  1  0.686789  0.519369  0.000000  1
  P  P32  1  0.832580  0.313211  0.000000  1
  P  P33  1  0.631526  0.000000  0.500000  1
  P  P34  1  0.000000  0.631526  0.500000  1
  P  P35  1  0.368474  0.368474  0.500000  1
