# generated using pymatgen
data_Tb2Co9CuP6
_symmetry_space_group_name_H-M   'P 1'
_cell_length_a   3.68931200
_cell_length_b   10.29176600
_cell_length_c   11.84272200
_cell_angle_alpha   90.00000000
_cell_angle_beta   90.00000000
_cell_angle_gamma   90.00000000
_symmetry_Int_Tables_number   1
_chemical_formula_structural   Tb2Co9CuP6
_chemical_formula_sum   'Tb4 Co18 Cu2 P12'
_cell_volume   449.66265701
_cell_formula_units_Z   2
loop_
 _symmetry_equiv_pos_site_id
 _symmetry_equiv_pos_as_xyz
  1  'x, y, z'
loop_
 _atom_site_type_symbol
 _atom_site_label
 _atom_site_symmetry_multiplicity
 _atom_site_fract_x
 _atom_site_fract_y
 _atom_site_fract_z
 _atom_site_occupancy
  Tb  Tb0  1  0.250000  0.579947  0.701866  1
  Tb  Tb1  1  0.250000  0.920053  0.201866  1
  Tb  Tb2  1  0.750000  0.417862  0.297027  1
  Tb  Tb3  1  0.750000  0.082138  0.797027  1
  Co  Co4  1  0.750000  0.287001  0.009091  1
  Co  Co5  1  0.750000  0.212999  0.509091  1
  Co  Co6  1  0.250000  0.404873  0.487431  1
  Co  Co7  1  0.250000  0.095127  0.987431  1
  Co  Co8  1  0.750000  0.592101  0.514393  1
  Co  Co9  1  0.750000  0.907899  0.014393  1
  Co  Co10  1  0.250000  0.222276  0.175490  1
  Co  Co11  1  0.250000  0.277724  0.675490  1
  Co  Co12  1  0.750000  0.778436  0.825611  1
  Co  Co13  1  0.750000  0.721564  0.325611  1
  Co  Co14  1  0.250000  0.882089  0.698039  1
  Co  Co15  1  0.250000  0.617911  0.198039  1
  Co  Co16  1  0.750000  0.119829  0.300776  1
  Co  Co17  1  0.750000  0.380171  0.800776  1
  Co  Co18  1  0.250000  0.465793  0.932109  1
  Co  Co19  1  0.250000  0.034207  0.432109  1
  Co  Co20  1  0.750000  0.533834  0.066386  1
  Co  Co21  1  0.750000  0.966166  0.566386  1
  Cu  Cu22  1  0.250000  0.712396  0.990427  1
  Cu  Cu23  1  0.250000  0.787604  0.490427  1
  P  P24  1  0.250000  0.419859  0.111529  1
  P  P25  1  0.250000  0.080141  0.611529  1
  P  P26  1  0.750000  0.576728  0.884701  1
  P  P27  1  0.750000  0.923272  0.384701  1
  P  P28  1  0.250000  0.270188  0.868325  1
  P  P29  1  0.250000  0.229812  0.368325  1
  P  P30  1  0.750000  0.728671  0.138202  1
  P  P31  1  0.750000  0.771329  0.638202  1
  P  P32  1  0.250000  0.599030  0.391067  1
  P  P33  1  0.250000  0.900970  0.891067  1
  P  P34  1  0.750000  0.396015  0.607532  1
  P  P35  1  0.750000  0.103985  0.107532  1
