# generated using pymatgen
data_TbEu2(As2Pd3)3
_symmetry_space_group_name_H-M   'P 1'
_cell_length_a   8.66418049
_cell_length_b   8.66417957
_cell_length_c   10.13403071
_cell_angle_alpha   72.54609613
_cell_angle_beta   72.54609010
_cell_angle_gamma   27.52357386
_symmetry_Int_Tables_number   1
_chemical_formula_structural   TbEu2(As2Pd3)3
_chemical_formula_sum   'Tb1 Eu2 As6 Pd9'
_cell_volume   334.36734944
_cell_formula_units_Z   1
loop_
 _symmetry_equiv_pos_site_id
 _symmetry_equiv_pos_as_xyz
  1  'x, y, z'
loop_
 _atom_site_type_symbol
 _atom_site_label
 _atom_site_symmetry_multiplicity
 _atom_site_fract_x
 _atom_site_fract_y
 _atom_site_fract_z
 _atom_site_occupancy
  Tb  Tb0  1  0.000000  0.000000  0.000000  1
  Eu  Eu1  1  0.845808  0.845808  0.698747  1
  Eu  Eu2  1  0.154192  0.154192  0.301253  1
  As  As3  1  0.802023  0.802023  0.131290  1
  As  As4  1  0.197977  0.197977  0.868710  1
  As  As5  1  0.539088  0.539088  0.211845  1
  As  As6  1  0.460912  0.460912  0.788155  1
  As  As7  1  0.635938  0.635938  0.548931  1
  As  As8  1  0.364062  0.364062  0.451069  1
  Pd  Pd9  1  0.956328  0.956328  0.326724  1
  Pd  Pd10  1  0.043672  0.043672  0.673276  1
  Pd  Pd11  1  0.778957  0.778957  0.391956  1
  Pd  Pd12  1  0.221043  0.221043  0.608044  1
  Pd  Pd13  1  0.381285  0.381285  0.194945  1
  Pd  Pd14  1  0.618715  0.618715  0.805055  1
  Pd  Pd15  1  0.500000  0.500000  0.500000  1
  Pd  Pd16  1  0.681216  0.681216  0.030804  1
  Pd  Pd17  1  0.318784  0.318784  0.969196  1
