# generated using pymatgen
data_Ti3Nb3Ga2Si
_symmetry_space_group_name_H-M   'P 1'
_cell_length_a   6.95116100
_cell_length_b   6.95115937
_cell_length_c   3.57119800
_cell_angle_alpha   90.00000000
_cell_angle_beta   90.00000000
_cell_angle_gamma   119.99999346
_symmetry_Int_Tables_number   1
_chemical_formula_structural   Ti3Nb3Ga2Si
_chemical_formula_sum   'Ti3 Nb3 Ga2 Si1'
_cell_volume   149.43735896
_cell_formula_units_Z   1
loop_
 _symmetry_equiv_pos_site_id
 _symmetry_equiv_pos_as_xyz
  1  'x, y, z'
loop_
 _atom_site_type_symbol
 _atom_site_label
 _atom_site_symmetry_multiplicity
 _atom_site_fract_x
 _atom_site_fract_y
 _atom_site_fract_z
 _atom_site_occupancy
  Ti  Ti0  1  0.746043  0.000000  0.000000  1
  Ti  Ti1  1  0.000000  0.746043  0.000000  1
  Ti  Ti2  1  0.253957  0.253957  0.000000  1
  Nb  Nb3  1  0.398495  0.000000  0.500000  1
  Nb  Nb4  1  0.000000  0.398495  0.500000  1
  Nb  Nb5  1  0.601505  0.601505  0.500000  1
  Ga  Ga6  1  0.333333  0.666667  0.000000  1
  Ga  Ga7  1  0.666667  0.333333  0.000000  1
  Si  Si8  1  0.000000  0.000000  0.500000  1
