# generated using pymatgen
data_Nd8ZnSi14Ag
_symmetry_space_group_name_H-M   'P 1'
_cell_length_a   8.26324400
_cell_length_b   8.26324331
_cell_length_c   8.44027000
_cell_angle_alpha   90.00000000
_cell_angle_beta   90.00000000
_cell_angle_gamma   119.99999476
_symmetry_Int_Tables_number   1
_chemical_formula_structural   Nd8ZnSi14Ag
_chemical_formula_sum   'Nd8 Zn1 Si14 Ag1'
_cell_volume   499.10062286
_cell_formula_units_Z   1
loop_
 _symmetry_equiv_pos_site_id
 _symmetry_equiv_pos_as_xyz
  1  'x, y, z'
loop_
 _atom_site_type_symbol
 _atom_site_label
 _atom_site_symmetry_multiplicity
 _atom_site_fract_x
 _atom_site_fract_y
 _atom_site_fract_z
 _atom_site_occupancy
  Nd  Nd0  1  0.000000  0.000000  0.749359  1
  Nd  Nd1  1  0.000000  0.000000  0.250459  1
  Nd  Nd2  1  0.494403  0.505597  0.748065  1
  Nd  Nd3  1  0.494403  0.988809  0.748065  1
  Nd  Nd4  1  0.011191  0.505597  0.748065  1
  Nd  Nd5  1  0.495152  0.504848  0.251852  1
  Nd  Nd6  1  0.009698  0.504848  0.251852  1
  Nd  Nd7  1  0.495152  0.990302  0.251852  1
  Zn  Zn8  1  0.666667  0.333333  0.502779  1
  Si  Si9  1  0.836778  0.163222  0.000103  1
  Si  Si10  1  0.836778  0.673555  0.000103  1
  Si  Si11  1  0.326445  0.163222  0.000103  1
  Si  Si12  1  0.833957  0.166043  0.499893  1
  Si  Si13  1  0.833957  0.667915  0.499893  1
  Si  Si14  1  0.332085  0.166043  0.499893  1
  Si  Si15  1  0.166636  0.833364  0.499885  1
  Si  Si16  1  0.666729  0.833364  0.499885  1
  Si  Si17  1  0.166636  0.333271  0.499885  1
  Si  Si18  1  0.166000  0.834000  0.000057  1
  Si  Si19  1  0.668001  0.834000  0.000057  1
  Si  Si20  1  0.166000  0.331999  0.000057  1
  Si  Si21  1  0.333333  0.666667  0.499055  1
  Si  Si22  1  0.333333  0.666667  0.000884  1
  Ag  Ag23  1  0.666667  0.333333  0.997899  1
