# generated using pymatgen
data_Dy3Y9InCo4Ag
_symmetry_space_group_name_H-M   'P 1'
_cell_length_a   8.39470407
_cell_length_b   8.40008651
_cell_length_c   8.39470468
_cell_angle_alpha   111.30241495
_cell_angle_beta   110.36964531
_cell_angle_gamma   106.75120346
_symmetry_Int_Tables_number   1
_chemical_formula_structural   Dy3Y9InCo4Ag
_chemical_formula_sum   'Dy3 Y9 In1 Co4 Ag1'
_cell_volume   455.04341915
_cell_formula_units_Z   1
loop_
 _symmetry_equiv_pos_site_id
 _symmetry_equiv_pos_as_xyz
  1  'x, y, z'
loop_
 _atom_site_type_symbol
 _atom_site_label
 _atom_site_symmetry_multiplicity
 _atom_site_fract_x
 _atom_site_fract_y
 _atom_site_fract_z
 _atom_site_occupancy
  Dy  Dy0  1  0.685539  0.380280  0.694741  1
  Dy  Dy1  1  0.314411  0.008367  0.693956  1
  Dy  Dy2  1  0.685421  0.990789  0.305368  1
  Y  Y3  1  0.424273  0.219472  0.203587  1
  Y  Y4  1  0.576144  0.780152  0.796142  1
  Y  Y5  1  0.015886  0.219472  0.795198  1
  Y  Y6  1  0.984008  0.780152  0.204008  1
  Y  Y7  1  0.188842  0.294241  0.483175  1
  Y  Y8  1  0.811499  0.705544  0.516876  1
  Y  Y9  1  0.188669  0.705544  0.894045  1
  Y  Y10  1  0.811066  0.294241  0.105400  1
  Y  Y11  1  0.314429  0.618355  0.303926  1
  In  In12  1  0.499931  0.500108  0.000177  1
  Co  Co13  1  0.381919  0.001690  0.382610  1
  Co  Co14  1  0.619081  0.001690  0.619772  1
  Co  Co15  1  0.110468  0.611119  0.500651  1
  Co  Co16  1  0.888154  0.387901  0.499747  1
  Ag  Ag17  1  0.000261  0.000882  0.000621  1
