# generated using pymatgen
data_K5Rb5Ba2(TaP4)2
_symmetry_space_group_name_H-M   'P 1'
_cell_length_a   10.51373003
_cell_length_b   10.51129784
_cell_length_c   7.98198242
_cell_angle_alpha   88.94702022
_cell_angle_beta   89.26055322
_cell_angle_gamma   120.79426920
_symmetry_Int_Tables_number   1
_chemical_formula_structural   K5Rb5Ba2(TaP4)2
_chemical_formula_sum   'K5 Rb5 Ba2 Ta2 P8'
_cell_volume   757.36066538
_cell_formula_units_Z   1
loop_
 _symmetry_equiv_pos_site_id
 _symmetry_equiv_pos_as_xyz
  1  'x, y, z'
loop_
 _atom_site_type_symbol
 _atom_site_label
 _atom_site_symmetry_multiplicity
 _atom_site_fract_x
 _atom_site_fract_y
 _atom_site_fract_z
 _atom_site_occupancy
  K  K0  1  0.466296  0.527465  0.502283  1
  K  K1  1  0.059422  0.527433  0.501247  1
  K  K2  1  0.527143  0.465741  0.003343  1
  K  K3  1  0.529458  0.059194  0.001482  1
  K  K4  1  0.857861  0.146572  0.676332  1
  Rb  Rb5  1  0.292703  0.152852  0.714098  1
  Rb  Rb6  1  0.856283  0.720065  0.663092  1
  Rb  Rb7  1  0.140482  0.865093  0.178761  1
  Rb  Rb8  1  0.720097  0.856842  0.163654  1
  Rb  Rb9  1  0.152782  0.292777  0.215343  1
  Ba  Ba10  1  0.463441  0.931885  0.490641  1
  Ba  Ba11  1  0.933312  0.462156  0.993639  1
  Ta  Ta12  1  0.668796  0.332222  0.394327  1
  Ta  Ta13  1  0.333122  0.667180  0.890006  1
  P  P14  1  0.680760  0.334331  0.697339  1
  P  P15  1  0.335380  0.678989  0.192892  1
  P  P16  1  0.790231  0.203022  0.292131  1
  P  P17  1  0.413142  0.198749  0.312061  1
  P  P18  1  0.795622  0.580758  0.275770  1
  P  P19  1  0.204649  0.788824  0.786705  1
  P  P20  1  0.583720  0.798117  0.774247  1
  P  P21  1  0.195299  0.409734  0.809185  1
