# generated using pymatgen
data_Ac6TlSn9
_symmetry_space_group_name_H-M   'P 1'
_cell_length_a   6.92375457
_cell_length_b   6.92375596
_cell_length_c   10.99357253
_cell_angle_alpha   90.07238355
_cell_angle_beta   90.07238351
_cell_angle_gamma   101.61612682
_symmetry_Int_Tables_number   1
_chemical_formula_structural   Ac6TlSn9
_chemical_formula_sum   'Ac6 Tl1 Sn9'
_cell_volume   516.21912266
_cell_formula_units_Z   1
loop_
 _symmetry_equiv_pos_site_id
 _symmetry_equiv_pos_as_xyz
  1  'x, y, z'
loop_
 _atom_site_type_symbol
 _atom_site_label
 _atom_site_symmetry_multiplicity
 _atom_site_fract_x
 _atom_site_fract_y
 _atom_site_fract_z
 _atom_site_occupancy
  Ac  Ac0  1  0.796348  0.202089  0.999341  1
  Ac  Ac1  1  0.202089  0.796348  0.999341  1
  Ac  Ac2  1  0.202839  0.796210  0.501201  1
  Ac  Ac3  1  0.796210  0.202839  0.501201  1
  Ac  Ac4  1  0.632869  0.632869  0.250578  1
  Ac  Ac5  1  0.370187  0.370187  0.749206  1
  Tl  Tl6  1  0.307039  0.307039  0.043490  1
  Sn  Sn7  1  0.079198  0.488619  0.250305  1
  Sn  Sn8  1  0.921884  0.511460  0.750895  1
  Sn  Sn9  1  0.488619  0.079197  0.250305  1
  Sn  Sn10  1  0.511460  0.921884  0.750895  1
  Sn  Sn11  1  0.030950  0.030950  0.250401  1
  Sn  Sn12  1  0.971509  0.971509  0.750010  1
  Sn  Sn13  1  0.689113  0.689113  0.951347  1
  Sn  Sn14  1  0.687519  0.687519  0.551488  1
  Sn  Sn15  1  0.312167  0.312167  0.449994  1
