# generated using pymatgen
data_Dy4HoTm15(CoSb2)4
_symmetry_space_group_name_H-M   'P 1'
_cell_length_a   7.79644376
_cell_length_b   8.72839600
_cell_length_c   12.07862717
_cell_angle_alpha   90.00000000
_cell_angle_beta   90.05056672
_cell_angle_gamma   90.00000000
_symmetry_Int_Tables_number   1
_chemical_formula_structural   Dy4HoTm15(CoSb2)4
_chemical_formula_sum   'Dy4 Ho1 Tm15 Co4 Sb8'
_cell_volume   821.95567673
_cell_formula_units_Z   1
loop_
 _symmetry_equiv_pos_site_id
 _symmetry_equiv_pos_as_xyz
  1  'x, y, z'
loop_
 _atom_site_type_symbol
 _atom_site_label
 _atom_site_symmetry_multiplicity
 _atom_site_fract_x
 _atom_site_fract_y
 _atom_site_fract_z
 _atom_site_occupancy
  Dy  Dy0  1  0.622566  0.750000  0.307113  1
  Dy  Dy1  1  0.878089  0.750000  0.807216  1
  Dy  Dy2  1  0.377899  0.250000  0.692864  1
  Dy  Dy3  1  0.122088  0.250000  0.192867  1
  Ho  Ho4  1  0.155686  0.750000  0.204355  1
  Tm  Tm5  1  0.344595  0.750000  0.703677  1
  Tm  Tm6  1  0.844441  0.250000  0.796237  1
  Tm  Tm7  1  0.655349  0.250000  0.296412  1
  Tm  Tm8  1  0.450579  0.750000  0.997608  1
  Tm  Tm9  1  0.049932  0.750000  0.498267  1
  Tm  Tm10  1  0.550325  0.250000  0.001951  1
  Tm  Tm11  1  0.949805  0.250000  0.502197  1
  Tm  Tm12  1  0.822733  0.535763  0.065175  1
  Tm  Tm13  1  0.676890  0.963730  0.565470  1
  Tm  Tm14  1  0.176873  0.036466  0.934349  1
  Tm  Tm15  1  0.323167  0.463545  0.434673  1
  Tm  Tm16  1  0.176873  0.463534  0.934349  1
  Tm  Tm17  1  0.323167  0.036455  0.434673  1
  Tm  Tm18  1  0.822733  0.964237  0.065175  1
  Tm  Tm19  1  0.676890  0.536270  0.565470  1
  Co  Co20  1  0.433050  0.750000  0.491356  1
  Co  Co21  1  0.066589  0.750000  0.990914  1
  Co  Co22  1  0.566667  0.250000  0.508618  1
  Co  Co23  1  0.933116  0.250000  0.008567  1
  Sb  Sb24  1  0.929388  0.507802  0.328585  1
  Sb  Sb25  1  0.569775  0.991527  0.828190  1
  Sb  Sb26  1  0.069824  0.008528  0.671850  1
  Sb  Sb27  1  0.430961  0.490936  0.171598  1
  Sb  Sb28  1  0.069824  0.491472  0.671850  1
  Sb  Sb29  1  0.430961  0.009064  0.171598  1
  Sb  Sb30  1  0.929388  0.992198  0.328585  1
  Sb  Sb31  1  0.569775  0.508473  0.828190  1
