# generated using pymatgen
data_TaTi6Tc12Mo5
_symmetry_space_group_name_H-M   'P 1'
_cell_length_a   4.39559800
_cell_length_b   6.25027500
_cell_length_c   13.30403900
_cell_angle_alpha   90.00000000
_cell_angle_beta   89.99955016
_cell_angle_gamma   90.00000000
_symmetry_Int_Tables_number   1
_chemical_formula_structural   TaTi6Tc12Mo5
_chemical_formula_sum   'Ta1 Ti6 Tc12 Mo5'
_cell_volume   365.51112690
_cell_formula_units_Z   1
loop_
 _symmetry_equiv_pos_site_id
 _symmetry_equiv_pos_as_xyz
  1  'x, y, z'
loop_
 _atom_site_type_symbol
 _atom_site_label
 _atom_site_symmetry_multiplicity
 _atom_site_fract_x
 _atom_site_fract_y
 _atom_site_fract_z
 _atom_site_occupancy
  Ta  Ta0  1  0.000000  0.000000  0.000000  1
  Ti  Ti1  1  0.000000  0.500000  0.000000  1
  Ti  Ti2  1  0.499885  0.000000  0.167021  1
  Ti  Ti3  1  0.999884  0.500000  0.332844  1
  Ti  Ti4  1  0.500000  0.000000  0.500000  1
  Ti  Ti5  1  0.000116  0.500000  0.667156  1
  Ti  Ti6  1  0.500114  0.000000  0.832979  1
  Tc  Tc7  1  0.500000  0.252975  0.000000  1
  Tc  Tc8  1  0.500000  0.747025  0.000000  1
  Tc  Tc9  1  0.999884  0.251372  0.168493  1
  Tc  Tc10  1  0.999884  0.748628  0.168493  1
  Tc  Tc11  1  0.499889  0.249689  0.333904  1
  Tc  Tc12  1  0.499889  0.750310  0.333904  1
  Tc  Tc13  1  0.000000  0.250439  0.500000  1
  Tc  Tc14  1  0.000000  0.749561  0.500000  1
  Tc  Tc15  1  0.500112  0.249689  0.666096  1
  Tc  Tc16  1  0.500112  0.750310  0.666096  1
  Tc  Tc17  1  0.000114  0.251372  0.831507  1
  Tc  Tc18  1  0.000114  0.748628  0.831507  1
  Mo  Mo19  1  0.499877  0.500000  0.166535  1
  Mo  Mo20  1  0.999885  0.000000  0.333538  1
  Mo  Mo21  1  0.500000  0.500000  0.500000  1
  Mo  Mo22  1  0.000116  0.000000  0.666462  1
  Mo  Mo23  1  0.500123  0.500000  0.833465  1
