# generated using pymatgen
data_Yb6Zn16N
_symmetry_space_group_name_H-M   'P 1'
_cell_length_a   8.11927417
_cell_length_b   8.11927351
_cell_length_c   8.11927400
_cell_angle_alpha   109.47122434
_cell_angle_beta   109.47122271
_cell_angle_gamma   109.47121667
_symmetry_Int_Tables_number   1
_chemical_formula_structural   Yb6Zn16N
_chemical_formula_sum   'Yb6 Zn16 N1'
_cell_volume   412.03079456
_cell_formula_units_Z   1
loop_
 _symmetry_equiv_pos_site_id
 _symmetry_equiv_pos_as_xyz
  1  'x, y, z'
loop_
 _atom_site_type_symbol
 _atom_site_label
 _atom_site_symmetry_multiplicity
 _atom_site_fract_x
 _atom_site_fract_y
 _atom_site_fract_z
 _atom_site_occupancy
  Yb  Yb0  1  0.000000  0.254181  0.254181  1
  Yb  Yb1  1  0.254181  0.000000  0.254181  1
  Yb  Yb2  1  0.745819  0.000000  0.745819  1
  Yb  Yb3  1  0.745819  0.745819  0.000000  1
  Yb  Yb4  1  0.254181  0.254181  0.000000  1
  Yb  Yb5  1  0.000000  0.745819  0.745819  1
  Zn  Zn6  1  0.500000  0.500000  0.500000  1
  Zn  Zn7  1  0.500000  0.000000  0.000000  1
  Zn  Zn8  1  0.000000  0.500000  0.000000  1
  Zn  Zn9  1  0.000000  0.000000  0.500000  1
  Zn  Zn10  1  0.681240  0.340620  0.340620  1
  Zn  Zn11  1  0.340620  0.000000  0.659380  1
  Zn  Zn12  1  0.340620  0.681240  0.340620  1
  Zn  Zn13  1  0.340620  0.340620  0.681240  1
  Zn  Zn14  1  0.340620  0.659380  0.000000  1
  Zn  Zn15  1  0.000000  0.340620  0.659380  1
  Zn  Zn16  1  0.000000  0.659380  0.340620  1
  Zn  Zn17  1  0.659380  0.659380  0.318760  1
  Zn  Zn18  1  0.659380  0.000000  0.340620  1
  Zn  Zn19  1  0.659380  0.340620  0.000000  1
  Zn  Zn20  1  0.659380  0.318760  0.659380  1
  Zn  Zn21  1  0.318760  0.659380  0.659380  1
  N  N22  1  0.000000  0.000000  0.000000  1
