# generated using pymatgen
data_CeDy3(SbIr)4
_symmetry_space_group_name_H-M   'P 1'
_cell_length_a   4.54920700
_cell_length_b   7.21575006
_cell_length_c   7.94726706
_cell_angle_alpha   90.01455454
_cell_angle_beta   90.00000000
_cell_angle_gamma   90.00000000
_symmetry_Int_Tables_number   1
_chemical_formula_structural   CeDy3(SbIr)4
_chemical_formula_sum   'Ce1 Dy3 Sb4 Ir4'
_cell_volume   260.87650876
_cell_formula_units_Z   1
loop_
 _symmetry_equiv_pos_site_id
 _symmetry_equiv_pos_as_xyz
  1  'x, y, z'
loop_
 _atom_site_type_symbol
 _atom_site_label
 _atom_site_symmetry_multiplicity
 _atom_site_fract_x
 _atom_site_fract_y
 _atom_site_fract_z
 _atom_site_occupancy
  Ce  Ce0  1  0.250000  0.510919  0.190921  1
  Dy  Dy1  1  0.750000  0.487031  0.807565  1
  Dy  Dy2  1  0.750000  0.987331  0.691226  1
  Dy  Dy3  1  0.250000  0.010734  0.310973  1
  Sb  Sb4  1  0.250000  0.674711  0.588784  1
  Sb  Sb5  1  0.750000  0.322216  0.414765  1
  Sb  Sb6  1  0.750000  0.827193  0.086632  1
  Sb  Sb7  1  0.250000  0.174139  0.910880  1
  Ir  Ir8  1  0.250000  0.787690  0.911033  1
  Ir  Ir9  1  0.750000  0.214496  0.086239  1
  Ir  Ir10  1  0.750000  0.713824  0.411483  1
  Ir  Ir11  1  0.250000  0.289715  0.589500  1
