# generated using pymatgen
data_Y3In3Ir2Au
_symmetry_space_group_name_H-M   'P 1'
_cell_length_a   7.70981800
_cell_length_b   7.70981829
_cell_length_c   3.90081700
_cell_angle_alpha   90.00000000
_cell_angle_beta   90.00000000
_cell_angle_gamma   120.00000735
_symmetry_Int_Tables_number   1
_chemical_formula_structural   Y3In3Ir2Au
_chemical_formula_sum   'Y3 In3 Ir2 Au1'
_cell_volume   200.80496395
_cell_formula_units_Z   1
loop_
 _symmetry_equiv_pos_site_id
 _symmetry_equiv_pos_as_xyz
  1  'x, y, z'
loop_
 _atom_site_type_symbol
 _atom_site_label
 _atom_site_symmetry_multiplicity
 _atom_site_fract_x
 _atom_site_fract_y
 _atom_site_fract_z
 _atom_site_occupancy
  Y  Y0  1  0.977777  0.587560  0.500000  1
  Y  Y1  1  0.609784  0.022223  0.500000  1
  Y  Y2  1  0.412440  0.390216  0.500000  1
  In  In3  1  0.998724  0.256412  0.000000  1
  In  In4  1  0.257688  0.001276  0.000000  1
  In  In5  1  0.743588  0.742312  0.000000  1
  Ir  Ir6  1  0.000000  0.000000  0.500000  1
  Ir  Ir7  1  0.666667  0.333333  0.000000  1
  Au  Au8  1  0.333333  0.666667  0.000000  1
