# generated using pymatgen
data_Th5Tc3P12Ir5Ru11
_symmetry_space_group_name_H-M   'P 1'
_cell_length_a   12.70645610
_cell_length_b   12.75551301
_cell_length_c   4.01066300
_cell_angle_alpha   90.00000000
_cell_angle_beta   90.00000000
_cell_angle_gamma   120.09937320
_symmetry_Int_Tables_number   1
_chemical_formula_structural   Th5Tc3P12Ir5Ru11
_chemical_formula_sum   'Th5 Tc3 P12 Ir5 Ru11'
_cell_volume   562.38460213
_cell_formula_units_Z   1
loop_
 _symmetry_equiv_pos_site_id
 _symmetry_equiv_pos_as_xyz
  1  'x, y, z'
loop_
 _atom_site_type_symbol
 _atom_site_label
 _atom_site_symmetry_multiplicity
 _atom_site_fract_x
 _atom_site_fract_y
 _atom_site_fract_z
 _atom_site_occupancy
  Th  Th0  1  0.333630  0.667450  0.500000  1
  Th  Th1  1  0.666744  0.333670  0.500000  1
  Th  Th2  1  0.000696  0.810234  0.000000  1
  Th  Th3  1  0.189269  0.188473  0.000000  1
  Th  Th4  1  0.809292  0.998054  0.000000  1
  Tc  Tc5  1  0.998419  0.444119  0.500000  1
  Tc  Tc6  1  0.555644  0.553386  0.500000  1
  Tc  Tc7  1  0.447591  0.004186  0.500000  1
  P  P8  1  0.003840  0.627294  0.500000  1
  P  P9  1  0.374500  0.374928  0.500000  1
  P  P10  1  0.623899  0.996316  0.500000  1
  P  P11  1  0.523429  0.691252  0.000000  1
  P  P12  1  0.310212  0.834400  0.000000  1
  P  P13  1  0.164888  0.479454  0.000000  1
  P  P14  1  0.479388  0.165431  0.000000  1
  P  P15  1  0.684875  0.520584  0.000000  1
  P  P16  1  0.835857  0.314566  0.000000  1
  P  P17  1  0.000017  0.182944  0.500000  1
  P  P18  1  0.812689  0.814251  0.500000  1
  P  P19  1  0.184084  0.996999  0.500000  1
  Ir  Ir20  1  0.181175  0.373856  0.500000  1
  Ir  Ir21  1  0.373577  0.182173  0.500000  1
  Ir  Ir22  1  0.809033  0.626037  0.500000  1
  Ir  Ir23  1  0.818698  0.191096  0.500000  1
  Ir  Ir24  1  0.999220  0.998576  0.500000  1
  Ru  Ru25  1  0.510700  0.875150  0.000000  1
  Ru  Ru26  1  0.125343  0.637314  0.000000  1
  Ru  Ru27  1  0.362062  0.492241  0.000000  1
  Ru  Ru28  1  0.488678  0.360572  0.000000  1
  Ru  Ru29  1  0.870268  0.509495  0.000000  1
  Ru  Ru30  1  0.640424  0.130895  0.000000  1
  Ru  Ru31  1  0.000285  0.283808  0.000000  1
  Ru  Ru32  1  0.716616  0.714693  0.000000  1
  Ru  Ru33  1  0.284830  0.002021  0.000000  1
  Ru  Ru34  1  0.623601  0.803871  0.500000  1
  Ru  Ru35  1  0.196529  0.820217  0.500000  1
