# generated using pymatgen
data_Ce7NdZn8Ir7Rh
_symmetry_space_group_name_H-M   'P 1'
_cell_length_a   3.92584000
_cell_length_b   7.39971788
_cell_length_c   16.35941285
_cell_angle_alpha   90.44895955
_cell_angle_beta   90.00000000
_cell_angle_gamma   90.00000000
_symmetry_Int_Tables_number   1
_chemical_formula_structural   Ce7NdZn8Ir7Rh
_chemical_formula_sum   'Ce7 Nd1 Zn8 Ir7 Rh1'
_cell_volume   475.22812783
_cell_formula_units_Z   1
loop_
 _symmetry_equiv_pos_site_id
 _symmetry_equiv_pos_as_xyz
  1  'x, y, z'
loop_
 _atom_site_type_symbol
 _atom_site_label
 _atom_site_symmetry_multiplicity
 _atom_site_fract_x
 _atom_site_fract_y
 _atom_site_fract_z
 _atom_site_occupancy
  Ce  Ce0  1  0.250000  0.173180  0.941213  1
  Ce  Ce1  1  0.250000  0.676550  0.558625  1
  Ce  Ce2  1  0.750000  0.328476  0.440637  1
  Ce  Ce3  1  0.750000  0.945357  0.283343  1
  Ce  Ce4  1  0.750000  0.827226  0.060165  1
  Ce  Ce5  1  0.750000  0.444748  0.216637  1
  Ce  Ce6  1  0.250000  0.053145  0.716400  1
  Nd  Nd7  1  0.250000  0.552042  0.784298  1
  Zn  Zn8  1  0.750000  0.007506  0.559218  1
  Zn  Zn9  1  0.250000  0.615113  0.347657  1
  Zn  Zn10  1  0.750000  0.386558  0.652430  1
  Zn  Zn11  1  0.250000  0.496387  0.061405  1
  Zn  Zn12  1  0.750000  0.501097  0.938928  1
  Zn  Zn13  1  0.250000  0.998796  0.438951  1
  Zn  Zn14  1  0.250000  0.114885  0.151962  1
  Zn  Zn15  1  0.750000  0.878299  0.848556  1
  Ir  Ir16  1  0.750000  0.750596  0.436654  1
  Ir  Ir17  1  0.250000  0.243453  0.313665  1
  Ir  Ir18  1  0.750000  0.237088  0.815713  1
  Ir  Ir19  1  0.750000  0.768384  0.680931  1
  Ir  Ir20  1  0.250000  0.255489  0.561986  1
  Ir  Ir21  1  0.250000  0.744101  0.185948  1
  Ir  Ir22  1  0.750000  0.248709  0.062363  1
  Rh  Rh23  1  0.250000  0.752810  0.942316  1
