# generated using pymatgen
data_CaU5O12
_symmetry_space_group_name_H-M   'P 1'
_cell_length_a   6.61494341
_cell_length_b   6.61494261
_cell_length_c   6.60202139
_cell_angle_alpha   80.40471835
_cell_angle_beta   80.40471941
_cell_angle_gamma   120.01833656
_symmetry_Int_Tables_number   1
_chemical_formula_structural   CaU5O12
_chemical_formula_sum   'Ca1 U5 O12'
_cell_volume   235.82040441
_cell_formula_units_Z   1
loop_
 _symmetry_equiv_pos_site_id
 _symmetry_equiv_pos_as_xyz
  1  'x, y, z'
loop_
 _atom_site_type_symbol
 _atom_site_label
 _atom_site_symmetry_multiplicity
 _atom_site_fract_x
 _atom_site_fract_y
 _atom_site_fract_z
 _atom_site_occupancy
  Ca  Ca0  1  0.500000  0.500000  0.500000  1
  U  U1  1  0.833377  0.166623  0.500000  1
  U  U2  1  0.166623  0.833377  0.500000  1
  U  U3  1  0.664664  0.335336  0.000000  1
  U  U4  1  0.000000  0.000000  0.000000  1
  U  U5  1  0.335336  0.664664  0.000000  1
  O  O6  1  0.107420  0.107420  0.634434  1
  O  O7  1  0.706588  0.043046  0.879824  1
  O  O8  1  0.956954  0.293412  0.120176  1
  O  O9  1  0.366815  0.366815  0.890354  1
  O  O10  1  0.043046  0.706588  0.879824  1
  O  O11  1  0.542839  0.197697  0.366240  1
  O  O12  1  0.892580  0.892580  0.365566  1
  O  O13  1  0.457161  0.802303  0.633760  1
  O  O14  1  0.633185  0.633185  0.109646  1
  O  O15  1  0.293412  0.956954  0.120176  1
  O  O16  1  0.802303  0.457161  0.633760  1
  O  O17  1  0.197697  0.542839  0.366240  1
