# generated using pymatgen
data_Dy12Al5Ge3Ru8
_symmetry_space_group_name_H-M   'P 1'
_cell_length_a   5.59948200
_cell_length_b   7.68884738
_cell_length_c   13.71923600
_cell_angle_alpha   90.00000000
_cell_angle_beta   90.00000000
_cell_angle_gamma   89.96567510
_symmetry_Int_Tables_number   1
_chemical_formula_structural   Dy12Al5Ge3Ru8
_chemical_formula_sum   'Dy12 Al5 Ge3 Ru8'
_cell_volume   590.66187876
_cell_formula_units_Z   1
loop_
 _symmetry_equiv_pos_site_id
 _symmetry_equiv_pos_as_xyz
  1  'x, y, z'
loop_
 _atom_site_type_symbol
 _atom_site_label
 _atom_site_symmetry_multiplicity
 _atom_site_fract_x
 _atom_site_fract_y
 _atom_site_fract_z
 _atom_site_occupancy
  Dy  Dy0  1  0.850060  0.900732  0.595318  1
  Dy  Dy1  1  0.149147  0.403270  0.904967  1
  Dy  Dy2  1  0.848071  0.595363  0.099674  1
  Dy  Dy3  1  0.624861  0.271133  0.750000  1
  Dy  Dy4  1  0.625417  0.233237  0.250000  1
  Dy  Dy5  1  0.848071  0.595363  0.400326  1
  Dy  Dy6  1  0.372443  0.733480  0.250000  1
  Dy  Dy7  1  0.149670  0.096095  0.099897  1
  Dy  Dy8  1  0.149670  0.096095  0.400103  1
  Dy  Dy9  1  0.382972  0.759252  0.750000  1
  Dy  Dy10  1  0.149147  0.403270  0.595033  1
  Dy  Dy11  1  0.850060  0.900732  0.904682  1
  Al  Al12  1  0.377716  0.751502  0.499130  1
  Al  Al13  1  0.377716  0.751502  0.000870  1
  Al  Al14  1  0.132891  0.106155  0.750000  1
  Al  Al15  1  0.621217  0.251517  0.499725  1
  Al  Al16  1  0.621217  0.251517  0.000275  1
  Ge  Ge17  1  0.122039  0.385275  0.250000  1
  Ge  Ge18  1  0.874993  0.884477  0.250000  1
  Ge  Ge19  1  0.885973  0.612983  0.750000  1
  Ru  Ru20  1  0.349628  0.035978  0.906510  1
  Ru  Ru21  1  0.354182  0.468416  0.094139  1
  Ru  Ru22  1  0.644004  0.968485  0.094928  1
  Ru  Ru23  1  0.645511  0.535645  0.906007  1
  Ru  Ru24  1  0.644004  0.968485  0.405072  1
  Ru  Ru25  1  0.645511  0.535645  0.593993  1
  Ru  Ru26  1  0.354182  0.468416  0.405861  1
  Ru  Ru27  1  0.349628  0.035978  0.593490  1
