# generated using pymatgen
data_Hf2Hg2C
_symmetry_space_group_name_H-M   'P 1'
_cell_length_a   3.31862900
_cell_length_b   3.31862873
_cell_length_c   9.76564700
_cell_angle_alpha   90.00000000
_cell_angle_beta   90.00000000
_cell_angle_gamma   119.99999269
_symmetry_Int_Tables_number   1
_chemical_formula_structural   Hf2Hg2C
_chemical_formula_sum   'Hf2 Hg2 C1'
_cell_volume   93.14275048
_cell_formula_units_Z   1
loop_
 _symmetry_equiv_pos_site_id
 _symmetry_equiv_pos_as_xyz
  1  'x, y, z'
loop_
 _atom_site_type_symbol
 _atom_site_label
 _atom_site_symmetry_multiplicity
 _atom_site_fract_x
 _atom_site_fract_y
 _atom_site_fract_z
 _atom_site_occupancy
  Hf  Hf0  1  0.333333  0.666666  0.374800  1
  Hf  Hf1  1  0.666665  0.333333  0.625201  1
  Hg  Hg2  1  0.666665  0.333333  0.129086  1
  Hg  Hg3  1  0.333333  0.666666  0.870914  1
  C  C4  1  0.000000  0.000000  0.500000  1
