# generated using pymatgen
data_Rb6Mn(RhBr6)3
_symmetry_space_group_name_H-M   'P 1'
_cell_length_a   7.51095027
_cell_length_b   7.51243665
_cell_length_c   19.24393922
_cell_angle_alpha   89.99090055
_cell_angle_beta   90.01753825
_cell_angle_gamma   120.01837457
_symmetry_Int_Tables_number   1
_chemical_formula_structural   Rb6Mn(RhBr6)3
_chemical_formula_sum   'Rb6 Mn1 Rh3 Br18'
_cell_volume   940.19915287
_cell_formula_units_Z   1
loop_
 _symmetry_equiv_pos_site_id
 _symmetry_equiv_pos_as_xyz
  1  'x, y, z'
loop_
 _atom_site_type_symbol
 _atom_site_label
 _atom_site_symmetry_multiplicity
 _atom_site_fract_x
 _atom_site_fract_y
 _atom_site_fract_z
 _atom_site_occupancy
  Rb  Rb0  1  0.333369  0.666696  0.066206  1
  Rb  Rb1  1  0.666667  0.333357  0.937863  1
  Rb  Rb2  1  0.666685  0.333355  0.566358  1
  Rb  Rb3  1  0.333333  0.666663  0.437017  1
  Rb  Rb4  1  0.999989  0.000019  0.251061  1
  Rb  Rb5  1  0.999991  0.999990  0.744674  1
  Mn  Mn6  1  0.333340  0.666767  0.839798  1
  Rh  Rh7  1  0.333295  0.666596  0.666021  1
  Rh  Rh8  1  0.666678  0.333339  0.334673  1
  Rh  Rh9  1  0.666663  0.333346  0.165436  1
  Br  Br10  1  0.176760  0.353476  0.591803  1
  Br  Br11  1  0.823538  0.647055  0.407835  1
  Br  Br12  1  0.646541  0.823236  0.591820  1
  Br  Br13  1  0.823667  0.647315  0.092197  1
  Br  Br14  1  0.352966  0.176483  0.407832  1
  Br  Br15  1  0.171405  0.342843  0.907890  1
  Br  Br16  1  0.176750  0.823252  0.591792  1
  Br  Br17  1  0.352614  0.176301  0.092175  1
  Br  Br18  1  0.823545  0.176478  0.407845  1
  Br  Br19  1  0.657793  0.828881  0.908026  1
  Br  Br20  1  0.823625  0.176392  0.092220  1
  Br  Br21  1  0.171489  0.828479  0.907865  1
  Br  Br22  1  0.515148  0.030322  0.249954  1
  Br  Br23  1  0.487251  0.974639  0.747295  1
  Br  Br24  1  0.969732  0.484872  0.249980  1
  Br  Br25  1  0.024796  0.512397  0.747102  1
  Br  Br26  1  0.515167  0.484815  0.249931  1
  Br  Br27  1  0.487204  0.512638  0.747328  1
