# generated using pymatgen
data_RbDy(SeO4)2
_symmetry_space_group_name_H-M   'P 1'
_cell_length_a   5.40740122
_cell_length_b   5.40740217
_cell_length_c   8.80914335
_cell_angle_alpha   93.80789187
_cell_angle_beta   93.80789420
_cell_angle_gamma   64.88578480
_symmetry_Int_Tables_number   1
_chemical_formula_structural   RbDy(SeO4)2
_chemical_formula_sum   'Rb1 Dy1 Se2 O8'
_cell_volume   232.50538163
_cell_formula_units_Z   1
loop_
 _symmetry_equiv_pos_site_id
 _symmetry_equiv_pos_as_xyz
  1  'x, y, z'
loop_
 _atom_site_type_symbol
 _atom_site_label
 _atom_site_symmetry_multiplicity
 _atom_site_fract_x
 _atom_site_fract_y
 _atom_site_fract_z
 _atom_site_occupancy
  Rb  Rb0  1  0.000000  0.000000  0.000000  1
  Dy  Dy1  1  0.000000  0.000000  0.500000  1
  Se  Se2  1  0.627524  0.627524  0.289235  1
  Se  Se3  1  0.372477  0.372477  0.710766  1
  O  O4  1  0.687143  0.687143  0.118294  1
  O  O5  1  0.757498  0.288153  0.312030  1
  O  O6  1  0.288153  0.757498  0.312030  1
  O  O7  1  0.759377  0.759377  0.432634  1
  O  O8  1  0.240623  0.240623  0.567365  1
  O  O9  1  0.711847  0.242502  0.687970  1
  O  O10  1  0.242502  0.711847  0.687970  1
  O  O11  1  0.312856  0.312856  0.881706  1
