# generated using pymatgen
data_HoSc2Al7Cu2
_symmetry_space_group_name_H-M   'P 1'
_cell_length_a   5.37436182
_cell_length_b   5.37436272
_cell_length_c   8.88251410
_cell_angle_alpha   107.53210765
_cell_angle_beta   107.53211142
_cell_angle_gamma   60.00959301
_symmetry_Int_Tables_number   1
_chemical_formula_structural   HoSc2Al7Cu2
_chemical_formula_sum   'Ho1 Sc2 Al7 Cu2'
_cell_volume   208.33170005
_cell_formula_units_Z   1
loop_
 _symmetry_equiv_pos_site_id
 _symmetry_equiv_pos_as_xyz
  1  'x, y, z'
loop_
 _atom_site_type_symbol
 _atom_site_label
 _atom_site_symmetry_multiplicity
 _atom_site_fract_x
 _atom_site_fract_y
 _atom_site_fract_z
 _atom_site_occupancy
  Ho  Ho0  1  0.000000  0.000000  0.000000  1
  Sc  Sc1  1  0.142880  0.142880  0.429945  1
  Sc  Sc2  1  0.857121  0.857121  0.570056  1
  Al  Al3  1  0.584330  0.584330  0.242669  1
  Al  Al4  1  0.584817  0.074418  0.243441  1
  Al  Al5  1  0.074418  0.584817  0.243441  1
  Al  Al6  1  0.500000  0.500000  0.500000  1
  Al  Al7  1  0.925582  0.415183  0.756559  1
  Al  Al8  1  0.415183  0.925582  0.756559  1
  Al  Al9  1  0.415670  0.415670  0.757331  1
  Cu  Cu10  1  0.333996  0.333996  0.005125  1
  Cu  Cu11  1  0.666003  0.666003  0.994874  1
