# generated using pymatgen
data_Th5Pb3C
_symmetry_space_group_name_H-M   'P 1'
_cell_length_a   9.51901000
_cell_length_b   9.51900872
_cell_length_c   6.55475200
_cell_angle_alpha   90.00000000
_cell_angle_beta   90.00000000
_cell_angle_gamma   120.00000445
_symmetry_Int_Tables_number   1
_chemical_formula_structural   Th5Pb3C
_chemical_formula_sum   'Th10 Pb6 C2'
_cell_volume   514.36378640
_cell_formula_units_Z   2
loop_
 _symmetry_equiv_pos_site_id
 _symmetry_equiv_pos_as_xyz
  1  'x, y, z'
loop_
 _atom_site_type_symbol
 _atom_site_label
 _atom_site_symmetry_multiplicity
 _atom_site_fract_x
 _atom_site_fract_y
 _atom_site_fract_z
 _atom_site_occupancy
  Th  Th0  1  0.333333  0.666667  0.500000  1
  Th  Th1  1  0.666667  0.333333  0.500000  1
  Th  Th2  1  0.666667  0.333333  0.000000  1
  Th  Th3  1  0.333333  0.666667  0.000000  1
  Th  Th4  1  0.218416  0.000000  0.750000  1
  Th  Th5  1  0.781584  0.000000  0.250000  1
  Th  Th6  1  0.000000  0.218416  0.750000  1
  Th  Th7  1  0.000000  0.781584  0.250000  1
  Th  Th8  1  0.781584  0.781584  0.750000  1
  Th  Th9  1  0.218416  0.218416  0.250000  1
  Pb  Pb10  1  0.601374  0.000000  0.750000  1
  Pb  Pb11  1  0.398626  0.000000  0.250000  1
  Pb  Pb12  1  0.000000  0.601374  0.750000  1
  Pb  Pb13  1  0.000000  0.398626  0.250000  1
  Pb  Pb14  1  0.398626  0.398626  0.750000  1
  Pb  Pb15  1  0.601374  0.601374  0.250000  1
  C  C16  1  0.000000  0.000000  0.500000  1
  C  C17  1  0.000000  0.000000  0.000000  1
