# generated using pymatgen
data_PrDy5Co16(ReP6)2
_symmetry_space_group_name_H-M   'P 1'
_cell_length_a   3.74432200
_cell_length_b   10.56493200
_cell_length_c   12.28005200
_cell_angle_alpha   90.00000000
_cell_angle_beta   90.00000000
_cell_angle_gamma   90.00000000
_symmetry_Int_Tables_number   1
_chemical_formula_structural   PrDy5Co16(ReP6)2
_chemical_formula_sum   'Pr1 Dy5 Co16 Re2 P12'
_cell_volume   485.78052688
_cell_formula_units_Z   1
loop_
 _symmetry_equiv_pos_site_id
 _symmetry_equiv_pos_as_xyz
  1  'x, y, z'
loop_
 _atom_site_type_symbol
 _atom_site_label
 _atom_site_symmetry_multiplicity
 _atom_site_fract_x
 _atom_site_fract_y
 _atom_site_fract_z
 _atom_site_occupancy
  Pr  Pr0  1  0.000000  0.500000  0.524698  1
  Dy  Dy1  1  0.500000  0.000000  0.475982  1
  Dy  Dy2  1  0.500000  0.818262  0.205536  1
  Dy  Dy3  1  0.500000  0.181738  0.205536  1
  Dy  Dy4  1  0.000000  0.682629  0.795286  1
  Dy  Dy5  1  0.000000  0.317371  0.795286  1
  Co  Co6  1  0.500000  0.500000  0.705074  1
  Co  Co7  1  0.000000  0.000000  0.297254  1
  Co  Co8  1  0.000000  0.500000  0.988181  1
  Co  Co9  1  0.500000  0.000000  0.012006  1
  Co  Co10  1  0.500000  0.331983  0.989896  1
  Co  Co11  1  0.500000  0.668017  0.989896  1
  Co  Co12  1  0.000000  0.167204  0.010040  1
  Co  Co13  1  0.000000  0.832796  0.010040  1
  Co  Co14  1  0.500000  0.293117  0.430105  1
  Co  Co15  1  0.500000  0.706883  0.430105  1
  Co  Co16  1  0.000000  0.200829  0.569705  1
  Co  Co17  1  0.000000  0.799171  0.569705  1
  Co  Co18  1  0.500000  0.880364  0.709656  1
  Co  Co19  1  0.500000  0.119636  0.709656  1
  Co  Co20  1  0.000000  0.621009  0.289409  1
  Co  Co21  1  0.000000  0.378991  0.289409  1
  Re  Re22  1  0.500000  0.500000  0.153963  1
  Re  Re23  1  0.000000  0.000000  0.844179  1
  P  P24  1  0.500000  0.500000  0.881557  1
  P  P25  1  0.000000  0.000000  0.119356  1
  P  P26  1  0.500000  0.500000  0.344748  1
  P  P27  1  0.000000  0.000000  0.651475  1
  P  P28  1  0.500000  0.307205  0.617618  1
  P  P29  1  0.500000  0.692795  0.617618  1
  P  P30  1  0.000000  0.188020  0.383915  1
  P  P31  1  0.000000  0.811980  0.383915  1
  P  P32  1  0.500000  0.846364  0.892856  1
  P  P33  1  0.500000  0.153636  0.892856  1
  P  P34  1  0.000000  0.654562  0.106741  1
  P  P35  1  0.000000  0.345438  0.106741  1
