# generated using pymatgen
data_K8Ba4HfZrAs8
_symmetry_space_group_name_H-M   'P 1'
_cell_length_a   10.62787206
_cell_length_b   10.62611075
_cell_length_c   8.18327002
_cell_angle_alpha   88.93495230
_cell_angle_beta   88.94199277
_cell_angle_gamma   119.97768919
_symmetry_Int_Tables_number   1
_chemical_formula_structural   K8Ba4HfZrAs8
_chemical_formula_sum   'K8 Ba4 Hf1 Zr1 As8'
_cell_volume   799.97726352
_cell_formula_units_Z   1
loop_
 _symmetry_equiv_pos_site_id
 _symmetry_equiv_pos_as_xyz
  1  'x, y, z'
loop_
 _atom_site_type_symbol
 _atom_site_label
 _atom_site_symmetry_multiplicity
 _atom_site_fract_x
 _atom_site_fract_y
 _atom_site_fract_z
 _atom_site_occupancy
  K  K0  1  0.472058  0.940331  0.382473  1
  K  K1  1  0.939813  0.471793  0.882416  1
  K  K2  1  0.866952  0.725500  0.184716  1
  K  K3  1  0.271083  0.128370  0.231657  1
  K  K4  1  0.856486  0.137110  0.207648  1
  K  K5  1  0.128223  0.270795  0.731210  1
  K  K6  1  0.725728  0.867136  0.684296  1
  K  K7  1  0.136989  0.856702  0.707230  1
  Ba  Ba8  1  0.063158  0.533991  0.390269  1
  Ba  Ba9  1  0.475441  0.535068  0.380545  1
  Ba  Ba10  1  0.534510  0.064082  0.889899  1
  Ba  Ba11  1  0.535436  0.475108  0.880586  1
  Hf  Hf12  1  0.663978  0.331702  0.488005  1
  Zr  Zr13  1  0.331695  0.664099  0.987565  1
  As  As14  1  0.652066  0.330734  0.167107  1
  As  As15  1  0.330598  0.651968  0.664105  1
  As  As16  1  0.205348  0.397960  0.116214  1
  As  As17  1  0.606416  0.799374  0.078288  1
  As  As18  1  0.203107  0.803470  0.094296  1
  As  As19  1  0.798413  0.604331  0.577886  1
  As  As20  1  0.399866  0.206118  0.615271  1
  As  As21  1  0.802445  0.204066  0.593654  1
