# generated using pymatgen
data_ZrSc(SiRh2)4
_symmetry_space_group_name_H-M   'P 1'
_cell_length_a   4.12086700
_cell_length_b   8.98894200
_cell_length_c   11.19630400
_cell_angle_alpha   90.00000000
_cell_angle_beta   90.00000000
_cell_angle_gamma   90.00000000
_symmetry_Int_Tables_number   1
_chemical_formula_structural   ZrSc(SiRh2)4
_chemical_formula_sum   'Zr2 Sc2 Si8 Rh16'
_cell_volume   414.73611777
_cell_formula_units_Z   2
loop_
 _symmetry_equiv_pos_site_id
 _symmetry_equiv_pos_as_xyz
  1  'x, y, z'
loop_
 _atom_site_type_symbol
 _atom_site_label
 _atom_site_symmetry_multiplicity
 _atom_site_fract_x
 _atom_site_fract_y
 _atom_site_fract_z
 _atom_site_occupancy
  Zr  Zr0  1  0.250000  0.142308  0.824079  1
  Zr  Zr1  1  0.250000  0.357692  0.324079  1
  Sc  Sc2  1  0.750000  0.854693  0.175693  1
  Sc  Sc3  1  0.750000  0.645307  0.675693  1
  Si  Si4  1  0.250000  0.414832  0.638005  1
  Si  Si5  1  0.250000  0.085168  0.138005  1
  Si  Si6  1  0.750000  0.591571  0.361885  1
  Si  Si7  1  0.750000  0.908429  0.861885  1
  Si  Si8  1  0.250000  0.617376  0.058683  1
  Si  Si9  1  0.250000  0.882624  0.558683  1
  Si  Si10  1  0.750000  0.381909  0.940953  1
  Si  Si11  1  0.750000  0.118091  0.440953  1
  Rh  Rh12  1  0.250000  0.617310  0.503106  1
  Rh  Rh13  1  0.250000  0.882690  0.003106  1
  Rh  Rh14  1  0.750000  0.385911  0.497356  1
  Rh  Rh15  1  0.750000  0.114089  0.997356  1
  Rh  Rh16  1  0.250000  0.694659  0.264369  1
  Rh  Rh17  1  0.250000  0.805341  0.764369  1
  Rh  Rh18  1  0.750000  0.303693  0.732863  1
  Rh  Rh19  1  0.750000  0.196307  0.232863  1
  Rh  Rh20  1  0.250000  0.173321  0.559334  1
  Rh  Rh21  1  0.250000  0.326679  0.059334  1
  Rh  Rh22  1  0.750000  0.831612  0.442452  1
  Rh  Rh23  1  0.750000  0.668388  0.942452  1
  Rh  Rh24  1  0.250000  0.011084  0.341317  1
  Rh  Rh25  1  0.250000  0.488916  0.841317  1
  Rh  Rh26  1  0.750000  0.995658  0.659905  1
  Rh  Rh27  1  0.750000  0.504342  0.159905  1
