# generated using pymatgen
data_Pa4Re5(Ge3Os)2
_symmetry_space_group_name_H-M   'P 1'
_cell_length_a   7.31529072
_cell_length_b   7.31529013
_cell_length_c   7.31529024
_cell_angle_alpha   109.68921486
_cell_angle_beta   109.36233791
_cell_angle_gamma   109.36232172
_symmetry_Int_Tables_number   1
_chemical_formula_structural   Pa4Re5(Ge3Os)2
_chemical_formula_sum   'Pa4 Re5 Ge6 Os2'
_cell_volume   301.34787933
_cell_formula_units_Z   1
loop_
 _symmetry_equiv_pos_site_id
 _symmetry_equiv_pos_as_xyz
  1  'x, y, z'
loop_
 _atom_site_type_symbol
 _atom_site_label
 _atom_site_symmetry_multiplicity
 _atom_site_fract_x
 _atom_site_fract_y
 _atom_site_fract_z
 _atom_site_occupancy
  Pa  Pa0  1  0.002994  0.001497  0.501497  1
  Pa  Pa1  1  0.997006  0.498503  0.998503  1
  Pa  Pa2  1  0.500000  0.001497  0.998503  1
  Pa  Pa3  1  0.500000  0.498503  0.501497  1
  Re  Re4  1  0.749997  0.249094  0.499097  1
  Re  Re5  1  0.749997  0.500903  0.250900  1
  Re  Re6  1  0.500000  0.250000  0.750000  1
  Re  Re7  1  0.250003  0.500903  0.750906  1
  Re  Re8  1  0.250003  0.749100  0.499097  1
  Ge  Ge9  1  0.689167  0.690283  0.001116  1
  Ge  Ge10  1  0.310833  0.998884  0.309717  1
  Ge  Ge11  1  0.000000  0.310474  0.310474  1
  Ge  Ge12  1  0.310833  0.311949  0.001116  1
  Ge  Ge13  1  0.689167  0.998884  0.688051  1
  Ge  Ge14  1  0.000000  0.689526  0.689526  1
  Os  Os15  1  0.500000  0.750000  0.250000  1
  Os  Os16  1  0.000000  0.000000  0.000000  1
