# generated using pymatgen
data_Li2Pr3Nd(AgAs4)2
_symmetry_space_group_name_H-M   'P 1'
_cell_length_a   4.01686400
_cell_length_b   4.05664428
_cell_length_c   21.48112480
_cell_angle_alpha   89.99439309
_cell_angle_beta   90.00000000
_cell_angle_gamma   90.00000000
_symmetry_Int_Tables_number   1
_chemical_formula_structural   Li2Pr3Nd(AgAs4)2
_chemical_formula_sum   'Li2 Pr3 Nd1 Ag2 As8'
_cell_volume   350.03467699
_cell_formula_units_Z   1
loop_
 _symmetry_equiv_pos_site_id
 _symmetry_equiv_pos_as_xyz
  1  'x, y, z'
loop_
 _atom_site_type_symbol
 _atom_site_label
 _atom_site_symmetry_multiplicity
 _atom_site_fract_x
 _atom_site_fract_y
 _atom_site_fract_z
 _atom_site_occupancy
  Li  Li0  1  0.250000  0.226282  0.249941  1
  Li  Li1  1  0.250000  0.273632  0.750417  1
  Pr  Pr2  1  0.250000  0.727978  0.115431  1
  Pr  Pr3  1  0.750000  0.228608  0.384263  1
  Pr  Pr4  1  0.250000  0.772056  0.615981  1
  Nd  Nd5  1  0.750000  0.270968  0.884365  1
  Ag  Ag6  1  0.750000  0.726086  0.249510  1
  Ag  Ag7  1  0.750000  0.773707  0.750204  1
  As  As8  1  0.750000  0.226094  0.166382  1
  As  As9  1  0.250000  0.726375  0.333526  1
  As  As10  1  0.750000  0.274084  0.666881  1
  As  As11  1  0.250000  0.773309  0.834581  1
  As  As12  1  0.250000  0.209969  0.000662  1
  As  As13  1  0.750000  0.709162  0.498636  1
  As  As14  1  0.250000  0.291122  0.501407  1
  As  As15  1  0.750000  0.790564  0.997813  1
