# generated using pymatgen
data_NaGd3(Al8Pt3)3
_symmetry_space_group_name_H-M   'P 1'
_cell_length_a   7.53220124
_cell_length_b   7.53711852
_cell_length_c   13.17588300
_cell_angle_alpha   84.60836494
_cell_angle_beta   100.89624349
_cell_angle_gamma   119.85115644
_symmetry_Int_Tables_number   1
_chemical_formula_structural   NaGd3(Al8Pt3)3
_chemical_formula_sum   'Na1 Gd3 Al24 Pt9'
_cell_volume   637.06793813
_cell_formula_units_Z   1
loop_
 _symmetry_equiv_pos_site_id
 _symmetry_equiv_pos_as_xyz
  1  'x, y, z'
loop_
 _atom_site_type_symbol
 _atom_site_label
 _atom_site_symmetry_multiplicity
 _atom_site_fract_x
 _atom_site_fract_y
 _atom_site_fract_z
 _atom_site_occupancy
  Na  Na0  1  0.937064  0.331049  0.805853  1
  Gd  Gd1  1  0.733060  0.000421  0.190926  1
  Gd  Gd2  1  0.267646  0.001317  0.808193  1
  Gd  Gd3  1  0.061903  0.666368  0.191039  1
  Al  Al4  1  0.810540  0.868395  0.816431  1
  Al  Al5  1  0.192621  0.131077  0.184844  1
  Al  Al6  1  0.981928  0.662948  0.944091  1
  Al  Al7  1  0.018028  0.333799  0.051821  1
  Al  Al8  1  0.398411  0.667664  0.817836  1
  Al  Al9  1  0.600855  0.336506  0.183654  1
  Al  Al10  1  0.882301  0.661364  0.672205  1
  Al  Al11  1  0.117173  0.334763  0.328991  1
  Al  Al12  1  0.599552  0.456052  0.817148  1
  Al  Al13  1  0.395995  0.540562  0.184104  1
  Al  Al14  1  0.227693  0.340908  0.670402  1
  Al  Al15  1  0.769653  0.660316  0.330758  1
  Al  Al16  1  0.853013  0.333679  0.558578  1
  Al  Al17  1  0.185527  0.999381  0.558463  1
  Al  Al18  1  0.813875  0.000551  0.440501  1
  Al  Al19  1  0.352137  0.999909  0.055830  1
  Al  Al20  1  0.650972  0.003845  0.943842  1
  Al  Al21  1  0.560226  0.996066  0.671993  1
  Al  Al22  1  0.443701  0.006286  0.329770  1
  Al  Al23  1  0.520967  0.668487  0.561076  1
  Al  Al24  1  0.479848  0.332049  0.438148  1
  Al  Al25  1  0.683427  0.667524  0.045675  1
  Al  Al26  1  0.315264  0.332793  0.954643  1
  Al  Al27  1  0.145635  0.665733  0.440424  1
  Pt  Pt28  1  0.331823  0.673450  0.002298  1
  Pt  Pt29  1  0.543413  0.325785  0.635497  1
  Pt  Pt30  1  0.454402  0.674560  0.363588  1
  Pt  Pt31  1  0.886364  0.005905  0.636884  1
  Pt  Pt32  1  0.112754  0.992225  0.362327  1
  Pt  Pt33  1  0.670614  0.328731  0.001368  1
  Pt  Pt34  1  0.206186  0.668150  0.636969  1
  Pt  Pt35  1  0.794783  0.333169  0.362031  1
  Pt  Pt36  1  0.000648  0.998214  0.001801  1
