# generated using pymatgen
data_ErLuV6O18
_symmetry_space_group_name_H-M   'P 1'
_cell_length_a   8.39530074
_cell_length_b   8.40251477
_cell_length_c   10.78780793
_cell_angle_alpha   57.66513776
_cell_angle_beta   122.26535738
_cell_angle_gamma   127.84400848
_symmetry_Int_Tables_number   1
_chemical_formula_structural   ErLuV6O18
_chemical_formula_sum   'Er1 Lu1 V6 O18'
_cell_volume   483.02766958
_cell_formula_units_Z   1
loop_
 _symmetry_equiv_pos_site_id
 _symmetry_equiv_pos_as_xyz
  1  'x, y, z'
loop_
 _atom_site_type_symbol
 _atom_site_label
 _atom_site_symmetry_multiplicity
 _atom_site_fract_x
 _atom_site_fract_y
 _atom_site_fract_z
 _atom_site_occupancy
  Er  Er0  1  0.387111  0.129588  0.354201  1
  Lu  Lu1  1  0.869674  0.612178  0.853790  1
  V  V2  1  0.655847  0.126269  0.177035  1
  V  V3  1  0.878215  0.347628  0.679469  1
  V  V4  1  0.080415  0.101012  0.525705  1
  V  V5  1  0.895297  0.915608  0.023625  1
  V  V6  1  0.329742  0.581759  0.594864  1
  V  V7  1  0.415885  0.673278  0.091798  1
  O  O8  1  0.855946  0.082142  0.355287  1
  O  O9  1  0.919939  0.145013  0.856450  1
  O  O10  1  0.236292  0.051440  0.511772  1
  O  O11  1  0.944117  0.761307  0.007112  1
  O  O12  1  0.000594  0.924771  0.684188  1
  O  O13  1  0.069462  0.990192  0.184087  1
  O  O14  1  0.218841  0.369571  0.526563  1
  O  O15  1  0.625560  0.779235  0.022162  1
  O  O16  1  0.539801  0.218835  0.193508  1
  O  O17  1  0.785559  0.462719  0.696947  1
  O  O18  1  0.466249  0.872133  0.145925  1
  O  O19  1  0.133514  0.536497  0.649394  1
  O  O20  1  0.388485  0.817939  0.455338  1
  O  O21  1  0.178756  0.615668  0.953539  1
  O  O22  1  0.410027  0.452819  0.244183  1
  O  O23  1  0.550361  0.586426  0.746373  1
  O  O24  1  0.703700  0.244236  0.532084  1
  O  O25  1  0.761208  0.301142  0.030394  1
