# generated using pymatgen
data_YEr3(Ga2Ag)4
_symmetry_space_group_name_H-M   'P 1'
_cell_length_a   4.37103600
_cell_length_b   6.93105253
_cell_length_c   10.23380901
_cell_angle_alpha   90.07567760
_cell_angle_beta   90.00000000
_cell_angle_gamma   90.00000000
_symmetry_Int_Tables_number   1
_chemical_formula_structural   YEr3(Ga2Ag)4
_chemical_formula_sum   'Y1 Er3 Ga8 Ag4'
_cell_volume   310.04198073
_cell_formula_units_Z   1
loop_
 _symmetry_equiv_pos_site_id
 _symmetry_equiv_pos_as_xyz
  1  'x, y, z'
loop_
 _atom_site_type_symbol
 _atom_site_label
 _atom_site_symmetry_multiplicity
 _atom_site_fract_x
 _atom_site_fract_y
 _atom_site_fract_z
 _atom_site_occupancy
  Y  Y0  1  0.250000  0.279377  0.675122  1
  Er  Er1  1  0.250000  0.779171  0.825618  1
  Er  Er2  1  0.750000  0.220518  0.174756  1
  Er  Er3  1  0.750000  0.720732  0.325161  1
  Ga  Ga4  1  0.250000  0.929062  0.154507  1
  Ga  Ga5  1  0.750000  0.069947  0.846019  1
  Ga  Ga6  1  0.750000  0.572465  0.654366  1
  Ga  Ga7  1  0.250000  0.429480  0.345452  1
  Ga  Ga8  1  0.250000  0.703053  0.536395  1
  Ga  Ga9  1  0.750000  0.297934  0.462722  1
  Ga  Ga10  1  0.750000  0.798301  0.036585  1
  Ga  Ga11  1  0.250000  0.201059  0.964460  1
  Ag  Ag12  1  0.250000  0.544320  0.096230  1
  Ag  Ag13  1  0.750000  0.455733  0.904080  1
  Ag  Ag14  1  0.750000  0.954977  0.595683  1
  Ag  Ag15  1  0.250000  0.043872  0.402844  1
