# generated using pymatgen
data_NdNp2(Ni3As2)3
_symmetry_space_group_name_H-M   'P 1'
_cell_length_a   3.93868600
_cell_length_b   10.88226800
_cell_length_c   12.80689100
_cell_angle_alpha   90.00000000
_cell_angle_beta   90.00000000
_cell_angle_gamma   90.00000000
_symmetry_Int_Tables_number   1
_chemical_formula_structural   NdNp2(Ni3As2)3
_chemical_formula_sum   'Nd2 Np4 Ni18 As12'
_cell_volume   548.92686965
_cell_formula_units_Z   2
loop_
 _symmetry_equiv_pos_site_id
 _symmetry_equiv_pos_as_xyz
  1  'x, y, z'
loop_
 _atom_site_type_symbol
 _atom_site_label
 _atom_site_symmetry_multiplicity
 _atom_site_fract_x
 _atom_site_fract_y
 _atom_site_fract_z
 _atom_site_occupancy
  Nd  Nd0  1  0.000000  0.500000  0.519664  1
  Nd  Nd1  1  0.500000  0.000000  0.480336  1
  Np  Np2  1  0.500000  0.816221  0.205031  1
  Np  Np3  1  0.500000  0.183779  0.205031  1
  Np  Np4  1  0.000000  0.683779  0.794969  1
  Np  Np5  1  0.000000  0.316221  0.794969  1
  Ni  Ni6  1  0.500000  0.500000  0.151071  1
  Ni  Ni7  1  0.000000  0.000000  0.848929  1
  Ni  Ni8  1  0.500000  0.500000  0.702582  1
  Ni  Ni9  1  0.000000  0.000000  0.297418  1
  Ni  Ni10  1  0.000000  0.500000  0.981834  1
  Ni  Ni11  1  0.500000  0.000000  0.018166  1
  Ni  Ni12  1  0.500000  0.330758  0.998677  1
  Ni  Ni13  1  0.500000  0.669242  0.998677  1
  Ni  Ni14  1  0.000000  0.169242  0.001323  1
  Ni  Ni15  1  0.000000  0.830758  0.001323  1
  Ni  Ni16  1  0.500000  0.303359  0.424056  1
  Ni  Ni17  1  0.500000  0.696641  0.424056  1
  Ni  Ni18  1  0.000000  0.196641  0.575944  1
  Ni  Ni19  1  0.000000  0.803359  0.575944  1
  Ni  Ni20  1  0.500000  0.879028  0.707629  1
  Ni  Ni21  1  0.500000  0.120972  0.707629  1
  Ni  Ni22  1  0.000000  0.620972  0.292371  1
  Ni  Ni23  1  0.000000  0.379028  0.292371  1
  As  As24  1  0.500000  0.500000  0.879363  1
  As  As25  1  0.000000  0.000000  0.120637  1
  As  As26  1  0.500000  0.500000  0.336930  1
  As  As27  1  0.000000  0.000000  0.663070  1
  As  As28  1  0.500000  0.311640  0.614179  1
  As  As29  1  0.500000  0.688360  0.614179  1
  As  As30  1  0.000000  0.188360  0.385821  1
  As  As31  1  0.000000  0.811640  0.385821  1
  As  As32  1  0.500000  0.846433  0.890171  1
  As  As33  1  0.500000  0.153567  0.890171  1
  As  As34  1  0.000000  0.653567  0.109829  1
  As  As35  1  0.000000  0.346433  0.109829  1
