# generated using pymatgen
data_Pr4IrRhAu2
_symmetry_space_group_name_H-M   'P 1'
_cell_length_a   4.66791800
_cell_length_b   5.82694782
_cell_length_c   7.47946205
_cell_angle_alpha   88.37026478
_cell_angle_beta   90.00000000
_cell_angle_gamma   90.00000000
_symmetry_Int_Tables_number   1
_chemical_formula_structural   Pr4IrRhAu2
_chemical_formula_sum   'Pr4 Ir1 Rh1 Au2'
_cell_volume   203.35693982
_cell_formula_units_Z   1
loop_
 _symmetry_equiv_pos_site_id
 _symmetry_equiv_pos_as_xyz
  1  'x, y, z'
loop_
 _atom_site_type_symbol
 _atom_site_label
 _atom_site_symmetry_multiplicity
 _atom_site_fract_x
 _atom_site_fract_y
 _atom_site_fract_z
 _atom_site_occupancy
  Pr  Pr0  1  0.250000  0.356949  0.666627  1
  Pr  Pr1  1  0.250000  0.136798  0.203836  1
  Pr  Pr2  1  0.750000  0.644780  0.335897  1
  Pr  Pr3  1  0.750000  0.861025  0.794751  1
  Ir  Ir4  1  0.250000  0.837298  0.545453  1
  Rh  Rh5  1  0.750000  0.164589  0.452175  1
  Au  Au6  1  0.250000  0.648434  0.040441  1
  Au  Au7  1  0.750000  0.350127  0.960820  1
