# generated using pymatgen
data_Ho5BiPPb2
_symmetry_space_group_name_H-M   'P 1'
_cell_length_a   9.12686863
_cell_length_b   9.14097303
_cell_length_c   6.74736900
_cell_angle_alpha   90.00000000
_cell_angle_beta   90.00000000
_cell_angle_gamma   120.05114266
_symmetry_Int_Tables_number   1
_chemical_formula_structural   Ho5BiPPb2
_chemical_formula_sum   'Ho10 Bi2 P2 Pb4'
_cell_volume   487.25384744
_cell_formula_units_Z   2
loop_
 _symmetry_equiv_pos_site_id
 _symmetry_equiv_pos_as_xyz
  1  'x, y, z'
loop_
 _atom_site_type_symbol
 _atom_site_label
 _atom_site_symmetry_multiplicity
 _atom_site_fract_x
 _atom_site_fract_y
 _atom_site_fract_z
 _atom_site_occupancy
  Ho  Ho0  1  0.764492  0.762583  0.750000  1
  Ho  Ho1  1  0.235508  0.998090  0.750000  1
  Ho  Ho2  1  0.000000  0.236757  0.750000  1
  Ho  Ho3  1  0.236826  0.236602  0.250000  1
  Ho  Ho4  1  0.763174  0.999776  0.250000  1
  Ho  Ho5  1  0.000000  0.762864  0.250000  1
  Ho  Ho6  1  0.667830  0.334338  0.002112  1
  Ho  Ho7  1  0.332170  0.666509  0.002112  1
  Ho  Ho8  1  0.332170  0.666509  0.497888  1
  Ho  Ho9  1  0.667830  0.334338  0.497888  1
  Bi  Bi10  1  0.399820  0.399948  0.750000  1
  Bi  Bi11  1  0.600180  0.000128  0.750000  1
  P  P12  1  0.000000  0.000505  0.999277  1
  P  P13  1  0.000000  0.000505  0.500723  1
  Pb  Pb14  1  0.000000  0.599316  0.750000  1
  Pb  Pb15  1  0.600499  0.600828  0.250000  1
  Pb  Pb16  1  0.399501  0.000329  0.250000  1
  Pb  Pb17  1  0.000000  0.400077  0.250000  1
