# generated using pymatgen
data_Cs3RbCo2F12
_symmetry_space_group_name_H-M   'P 1'
_cell_length_a   6.38075000
_cell_length_b   8.94190600
_cell_length_c   6.38075000
_cell_angle_alpha   90.00000000
_cell_angle_beta   90.00000000
_cell_angle_gamma   90.00000000
_symmetry_Int_Tables_number   1
_chemical_formula_structural   Cs3RbCo2F12
_chemical_formula_sum   'Cs3 Rb1 Co2 F12'
_cell_volume   364.06049766
_cell_formula_units_Z   1
loop_
 _symmetry_equiv_pos_site_id
 _symmetry_equiv_pos_as_xyz
  1  'x, y, z'
loop_
 _atom_site_type_symbol
 _atom_site_label
 _atom_site_symmetry_multiplicity
 _atom_site_fract_x
 _atom_site_fract_y
 _atom_site_fract_z
 _atom_site_occupancy
  Cs  Cs0  1  0.000000  0.750000  0.500000  1
  Cs  Cs1  1  0.500000  0.750000  0.000000  1
  Cs  Cs2  1  0.000000  0.250000  0.500000  1
  Rb  Rb3  1  0.500000  0.250000  0.000000  1
  Co  Co4  1  0.000000  0.002076  0.000000  1
  Co  Co5  1  0.500000  0.497924  0.500000  1
  F  F6  1  0.000000  0.204214  0.000000  1
  F  F7  1  0.500000  0.700210  0.500000  1
  F  F8  1  0.298123  0.497991  0.297917  1
  F  F9  1  0.797917  0.002009  0.798123  1
  F  F10  1  0.298123  0.497991  0.702083  1
  F  F11  1  0.797917  0.002009  0.201877  1
  F  F12  1  0.000000  0.799790  0.000000  1
  F  F13  1  0.500000  0.295786  0.500000  1
  F  F14  1  0.701877  0.497991  0.702083  1
  F  F15  1  0.202083  0.002009  0.201877  1
  F  F16  1  0.701877  0.497991  0.297917  1
  F  F17  1  0.202083  0.002009  0.798123  1
