# generated using pymatgen
data_LiGaPdO4
_symmetry_space_group_name_H-M   'P 1'
_cell_length_a   5.93106315
_cell_length_b   6.03111905
_cell_length_c   10.49736028
_cell_angle_alpha   89.59626127
_cell_angle_beta   106.46904504
_cell_angle_gamma   60.59017171
_symmetry_Int_Tables_number   1
_chemical_formula_structural   LiGaPdO4
_chemical_formula_sum   'Li4 Ga4 Pd4 O16'
_cell_volume   308.84421433
_cell_formula_units_Z   4
loop_
 _symmetry_equiv_pos_site_id
 _symmetry_equiv_pos_as_xyz
  1  'x, y, z'
loop_
 _atom_site_type_symbol
 _atom_site_label
 _atom_site_symmetry_multiplicity
 _atom_site_fract_x
 _atom_site_fract_y
 _atom_site_fract_z
 _atom_site_occupancy
  Li  Li0  1  0.139281  0.914352  0.194868  1
  Li  Li1  1  0.138901  0.417164  0.694668  1
  Li  Li2  1  0.860870  0.084394  0.805149  1
  Li  Li3  1  0.860785  0.584084  0.305340  1
  Ga  Ga4  1  0.000137  0.498945  0.000012  1
  Ga  Ga5  1  0.999889  0.001075  0.499993  1
  Ga  Ga6  1  0.499866  0.001109  0.500160  1
  Ga  Ga7  1  0.500180  0.498920  0.999876  1
  Pd  Pd8  1  0.499883  0.750381  0.749959  1
  Pd  Pd9  1  0.500221  0.998919  0.000118  1
  Pd  Pd10  1  0.500169  0.249537  0.250064  1
  Pd  Pd11  1  0.499739  0.501150  0.499846  1
  O  O12  1  0.737668  0.907169  0.382677  1
  O  O13  1  0.737168  0.406983  0.882066  1
  O  O14  1  0.261812  0.871140  0.394682  1
  O  O15  1  0.262329  0.368925  0.894781  1
  O  O16  1  0.737725  0.131335  0.605255  1
  O  O17  1  0.738071  0.628800  0.105262  1
  O  O18  1  0.262697  0.093729  0.617871  1
  O  O19  1  0.262625  0.591987  0.117476  1
  O  O20  1  0.716618  0.644120  0.619102  1
  O  O21  1  0.717030  0.141760  0.119242  1
  O  O22  1  0.259266  0.643682  0.618782  1
  O  O23  1  0.259637  0.141532  0.119110  1
  O  O24  1  0.740061  0.357902  0.380740  1
  O  O25  1  0.741002  0.856826  0.881294  1
  O  O26  1  0.283138  0.357766  0.380773  1
  O  O27  1  0.283231  0.856313  0.880835  1
