# generated using pymatgen
data_Nd20Ir11Au
_symmetry_space_group_name_H-M   'P 1'
_cell_length_a   11.34574473
_cell_length_b   11.34574473
_cell_length_c   6.57090751
_cell_angle_alpha   89.92763352
_cell_angle_beta   89.92763352
_cell_angle_gamma   89.81133923
_symmetry_Int_Tables_number   1
_chemical_formula_structural   Nd20Ir11Au
_chemical_formula_sum   'Nd20 Ir11 Au1'
_cell_volume   845.84020630
_cell_formula_units_Z   1
loop_
 _symmetry_equiv_pos_site_id
 _symmetry_equiv_pos_as_xyz
  1  'x, y, z'
loop_
 _atom_site_type_symbol
 _atom_site_label
 _atom_site_symmetry_multiplicity
 _atom_site_fract_x
 _atom_site_fract_y
 _atom_site_fract_z
 _atom_site_occupancy
  Nd  Nd0  1  0.089088  0.290515  0.117946  1
  Nd  Nd1  1  0.791329  0.408970  0.117639  1
  Nd  Nd2  1  0.210564  0.580225  0.117686  1
  Nd  Nd3  1  0.902620  0.703957  0.116078  1
  Nd  Nd4  1  0.419775  0.789436  0.382314  1
  Nd  Nd5  1  0.591030  0.208671  0.382361  1
  Nd  Nd6  1  0.296043  0.097380  0.383922  1
  Nd  Nd7  1  0.709485  0.910912  0.382054  1
  Nd  Nd8  1  0.410361  0.209108  0.884426  1
  Nd  Nd9  1  0.705719  0.091240  0.880643  1
  Nd  Nd10  1  0.297232  0.913408  0.866699  1
  Nd  Nd11  1  0.592069  0.792677  0.883308  1
  Nd  Nd12  1  0.086592  0.702768  0.633301  1
  Nd  Nd13  1  0.908760  0.294281  0.619357  1
  Nd  Nd14  1  0.207323  0.407931  0.616692  1
  Nd  Nd15  1  0.790892  0.589639  0.615574  1
  Nd  Nd16  1  0.994921  0.003117  0.998546  1
  Nd  Nd17  1  0.501712  0.500500  0.998793  1
  Nd  Nd18  1  0.499500  0.498288  0.501207  1
  Nd  Nd19  1  0.996883  0.005079  0.501454  1
  Ir  Ir20  1  0.345832  0.348054  0.248934  1
  Ir  Ir21  1  0.651946  0.654168  0.251066  1
  Ir  Ir22  1  0.844768  0.155232  0.250000  1
  Ir  Ir23  1  0.345115  0.654885  0.750000  1
  Ir  Ir24  1  0.152195  0.151157  0.749562  1
  Ir  Ir25  1  0.848843  0.847805  0.750438  1
  Ir  Ir26  1  0.653742  0.346258  0.750000  1
  Ir  Ir27  1  0.999988  0.501414  0.377479  1
  Ir  Ir28  1  0.498586  0.000012  0.122521  1
  Ir  Ir29  1  0.500278  0.999490  0.617618  1
  Ir  Ir30  1  0.000510  0.499722  0.882382  1
  Au  Au31  1  0.156303  0.843697  0.250000  1
