# generated using pymatgen
data_Ca2Pr2Ru3RhO14
_symmetry_space_group_name_H-M   'P 1'
_cell_length_a   7.32052458
_cell_length_b   7.29434230
_cell_length_c   7.32052400
_cell_angle_alpha   60.61649555
_cell_angle_beta   60.94447157
_cell_angle_gamma   60.61649248
_symmetry_Int_Tables_number   1
_chemical_formula_structural   Ca2Pr2Ru3RhO14
_chemical_formula_sum   'Ca2 Pr2 Ru3 Rh1 O14'
_cell_volume   280.93246280
_cell_formula_units_Z   1
loop_
 _symmetry_equiv_pos_site_id
 _symmetry_equiv_pos_as_xyz
  1  'x, y, z'
loop_
 _atom_site_type_symbol
 _atom_site_label
 _atom_site_symmetry_multiplicity
 _atom_site_fract_x
 _atom_site_fract_y
 _atom_site_fract_z
 _atom_site_occupancy
  Ca  Ca0  1  0.625000  0.125000  0.625000  1
  Ca  Ca1  1  0.625000  0.625000  0.625000  1
  Pr  Pr2  1  0.625000  0.625000  0.125000  1
  Pr  Pr3  1  0.125000  0.625000  0.625000  1
  Ru  Ru4  1  0.625000  0.125000  0.125000  1
  Ru  Ru5  1  0.125000  0.625000  0.125000  1
  Ru  Ru6  1  0.125000  0.125000  0.625000  1
  Rh  Rh7  1  0.125000  0.125000  0.125000  1
  O  O8  1  0.202550  0.200647  0.795305  1
  O  O9  1  0.205941  0.791684  0.205941  1
  O  O10  1  0.454695  0.049353  0.047450  1
  O  O11  1  0.200631  0.801966  0.803399  1
  O  O12  1  0.049369  0.448034  0.446601  1
  O  O13  1  0.803399  0.801966  0.200631  1
  O  O14  1  0.446601  0.448034  0.049369  1
  O  O15  1  0.504349  0.495191  0.504349  1
  O  O16  1  0.047450  0.049353  0.454695  1
  O  O17  1  0.438723  0.058596  0.438723  1
  O  O18  1  0.044059  0.458316  0.044059  1
  O  O19  1  0.745651  0.754809  0.745651  1
  O  O20  1  0.811277  0.191404  0.811277  1
  O  O21  1  0.795305  0.200647  0.202550  1
