# generated using pymatgen
data_Mg4Ni3As6Ir3Ru
_symmetry_space_group_name_H-M   'P 1'
_cell_length_a   7.03429804
_cell_length_b   6.95285505
_cell_length_c   6.95285530
_cell_angle_alpha   109.23271504
_cell_angle_beta   109.70867749
_cell_angle_gamma   109.70869078
_symmetry_Int_Tables_number   1
_chemical_formula_structural   Mg4Ni3As6Ir3Ru
_chemical_formula_sum   'Mg4 Ni3 As6 Ir3 Ru1'
_cell_volume   261.00215839
_cell_formula_units_Z   1
loop_
 _symmetry_equiv_pos_site_id
 _symmetry_equiv_pos_as_xyz
  1  'x, y, z'
loop_
 _atom_site_type_symbol
 _atom_site_label
 _atom_site_symmetry_multiplicity
 _atom_site_fract_x
 _atom_site_fract_y
 _atom_site_fract_z
 _atom_site_occupancy
  Mg  Mg0  1  0.995226  0.990453  0.495226  1
  Mg  Mg1  1  0.500000  0.000000  0.000000  1
  Mg  Mg2  1  0.004774  0.504774  0.009547  1
  Mg  Mg3  1  0.500000  0.504774  0.495226  1
  Ni  Ni4  1  0.246822  0.493644  0.746822  1
  Ni  Ni5  1  0.753178  0.253178  0.506356  1
  Ni  Ni6  1  0.500000  0.253178  0.746822  1
  As  As7  1  0.680762  0.679868  0.988094  1
  As  As8  1  0.307332  0.308226  0.988094  1
  As  As9  1  0.999107  0.679868  0.691774  1
  As  As10  1  0.000893  0.308226  0.320132  1
  As  As11  1  0.692668  0.011906  0.691774  1
  As  As12  1  0.319238  0.011906  0.320132  1
  Ir  Ir13  1  0.500000  0.755838  0.244162  1
  Ir  Ir14  1  0.744162  0.488322  0.244162  1
  Ir  Ir15  1  0.255838  0.755838  0.511678  1
  Ru  Ru16  1  0.000000  0.000000  0.000000  1
