# generated using pymatgen
data_NaSrSiIrPt
_symmetry_space_group_name_H-M   'P 1'
_cell_length_a   4.22127700
_cell_length_b   4.22127700
_cell_length_c   11.69092800
_cell_angle_alpha   90.00000000
_cell_angle_beta   90.00000000
_cell_angle_gamma   90.00000000
_symmetry_Int_Tables_number   1
_chemical_formula_structural   NaSrSiIrPt
_chemical_formula_sum   'Na2 Sr2 Si2 Ir2 Pt2'
_cell_volume   208.32274468
_cell_formula_units_Z   2
loop_
 _symmetry_equiv_pos_site_id
 _symmetry_equiv_pos_as_xyz
  1  'x, y, z'
loop_
 _atom_site_type_symbol
 _atom_site_label
 _atom_site_symmetry_multiplicity
 _atom_site_fract_x
 _atom_site_fract_y
 _atom_site_fract_z
 _atom_site_occupancy
  Na  Na0  1  0.000000  0.000000  0.500000  1
  Na  Na1  1  0.500000  0.500000  0.500000  1
  Sr  Sr2  1  0.000000  0.500000  0.230125  1
  Sr  Sr3  1  0.500000  0.000000  0.769875  1
  Si  Si4  1  0.000000  0.500000  0.896785  1
  Si  Si5  1  0.500000  0.000000  0.103215  1
  Ir  Ir6  1  0.000000  0.000000  0.000000  1
  Ir  Ir7  1  0.500000  0.500000  0.000000  1
  Pt  Pt8  1  0.000000  0.500000  0.693395  1
  Pt  Pt9  1  0.500000  0.000000  0.306605  1
