# generated using pymatgen
data_Cs8Li4Tb3DySb8
_symmetry_space_group_name_H-M   'P 1'
_cell_length_a   11.57920309
_cell_length_b   11.57920372
_cell_length_c   7.33815800
_cell_angle_alpha   89.99346538
_cell_angle_beta   90.00653888
_cell_angle_gamma   101.30083010
_symmetry_Int_Tables_number   1
_chemical_formula_structural   Cs8Li4Tb3DySb8
_chemical_formula_sum   'Cs8 Li4 Tb3 Dy1 Sb8'
_cell_volume   964.80943825
_cell_formula_units_Z   1
loop_
 _symmetry_equiv_pos_site_id
 _symmetry_equiv_pos_as_xyz
  1  'x, y, z'
loop_
 _atom_site_type_symbol
 _atom_site_label
 _atom_site_symmetry_multiplicity
 _atom_site_fract_x
 _atom_site_fract_y
 _atom_site_fract_z
 _atom_site_occupancy
  Cs  Cs0  1  0.570212  0.929667  0.749926  1
  Cs  Cs1  1  0.929667  0.570212  0.250074  1
  Cs  Cs2  1  0.429683  0.070472  0.249974  1
  Cs  Cs3  1  0.070472  0.429683  0.750026  1
  Cs  Cs4  1  0.676934  0.322915  0.786328  1
  Cs  Cs5  1  0.822940  0.177130  0.286264  1
  Cs  Cs6  1  0.322915  0.676934  0.213672  1
  Cs  Cs7  1  0.177130  0.822940  0.713736  1
  Li  Li8  1  0.620242  0.620242  0.000000  1
  Li  Li9  1  0.879616  0.879616  0.500000  1
  Li  Li10  1  0.379582  0.379582  0.000000  1
  Li  Li11  1  0.120641  0.120641  0.500000  1
  Tb  Tb12  1  0.868955  0.868955  0.000000  1
  Tb  Tb13  1  0.630820  0.630820  0.500000  1
  Tb  Tb14  1  0.131239  0.131239  0.000000  1
  Dy  Dy15  1  0.369152  0.369152  0.500000  1
  Sb  Sb16  1  0.341382  0.159180  0.749103  1
  Sb  Sb17  1  0.159180  0.341382  0.250897  1
  Sb  Sb18  1  0.658445  0.841462  0.250008  1
  Sb  Sb19  1  0.841462  0.658445  0.749992  1
  Sb  Sb20  1  0.911415  0.088737  0.761532  1
  Sb  Sb21  1  0.588137  0.411041  0.261844  1
  Sb  Sb22  1  0.088737  0.911415  0.238468  1
  Sb  Sb23  1  0.411041  0.588137  0.738156  1
