# generated using pymatgen
data_Dy4Cr4Co16SiP11
_symmetry_space_group_name_H-M   'P 1'
_cell_length_a   3.66077000
_cell_length_b   10.29938971
_cell_length_c   11.78605222
_cell_angle_alpha   89.90284020
_cell_angle_beta   90.00000000
_cell_angle_gamma   90.00000000
_symmetry_Int_Tables_number   1
_chemical_formula_structural   Dy4Cr4Co16SiP11
_chemical_formula_sum   'Dy4 Cr4 Co16 Si1 P11'
_cell_volume   444.37710154
_cell_formula_units_Z   1
loop_
 _symmetry_equiv_pos_site_id
 _symmetry_equiv_pos_as_xyz
  1  'x, y, z'
loop_
 _atom_site_type_symbol
 _atom_site_label
 _atom_site_symmetry_multiplicity
 _atom_site_fract_x
 _atom_site_fract_y
 _atom_site_fract_z
 _atom_site_occupancy
  Dy  Dy0  1  0.250000  0.582166  0.702134  1
  Dy  Dy1  1  0.250000  0.918243  0.204221  1
  Dy  Dy2  1  0.750000  0.417735  0.298360  1
  Dy  Dy3  1  0.750000  0.083393  0.795823  1
  Cr  Cr4  1  0.250000  0.706888  0.989135  1
  Cr  Cr5  1  0.250000  0.790947  0.488648  1
  Cr  Cr6  1  0.750000  0.292246  0.011168  1
  Cr  Cr7  1  0.750000  0.208539  0.512508  1
  Co  Co8  1  0.250000  0.405713  0.489656  1
  Co  Co9  1  0.250000  0.093784  0.988906  1
  Co  Co10  1  0.750000  0.594275  0.510718  1
  Co  Co11  1  0.750000  0.905312  0.010455  1
  Co  Co12  1  0.250000  0.214753  0.178592  1
  Co  Co13  1  0.250000  0.278875  0.677840  1
  Co  Co14  1  0.750000  0.779457  0.822432  1
  Co  Co15  1  0.750000  0.721025  0.323534  1
  Co  Co16  1  0.250000  0.885498  0.698920  1
  Co  Co17  1  0.250000  0.618313  0.198938  1
  Co  Co18  1  0.750000  0.113961  0.302784  1
  Co  Co19  1  0.750000  0.384193  0.800848  1
  Co  Co20  1  0.250000  0.468582  0.929821  1
  Co  Co21  1  0.250000  0.033572  0.434440  1
  Co  Co22  1  0.750000  0.536082  0.063998  1
  Co  Co23  1  0.750000  0.966363  0.566716  1
  Si  Si24  1  0.250000  0.415796  0.112705  1
  P  P25  1  0.250000  0.082408  0.613458  1
  P  P26  1  0.750000  0.581390  0.884670  1
  P  P27  1  0.750000  0.917946  0.387142  1
  P  P28  1  0.250000  0.269836  0.869926  1
  P  P29  1  0.250000  0.229968  0.368811  1
  P  P30  1  0.750000  0.730322  0.132656  1
  P  P31  1  0.750000  0.769837  0.630964  1
  P  P32  1  0.250000  0.601082  0.392026  1
  P  P33  1  0.250000  0.900649  0.891293  1
  P  P34  1  0.750000  0.398318  0.607924  1
  P  P35  1  0.750000  0.102534  0.107829  1
