# generated using pymatgen
data_Dy2Sn4Ir3
_symmetry_space_group_name_H-M   'P 1'
_cell_length_a   7.06868935
_cell_length_b   7.65277005
_cell_length_c   4.15869900
_cell_angle_alpha   90.00000000
_cell_angle_beta   90.00000000
_cell_angle_gamma   122.77318423
_symmetry_Int_Tables_number   1
_chemical_formula_structural   Dy2Sn4Ir3
_chemical_formula_sum   'Dy2 Sn4 Ir3'
_cell_volume   189.15512117
_cell_formula_units_Z   1
loop_
 _symmetry_equiv_pos_site_id
 _symmetry_equiv_pos_as_xyz
  1  'x, y, z'
loop_
 _atom_site_type_symbol
 _atom_site_label
 _atom_site_symmetry_multiplicity
 _atom_site_fract_x
 _atom_site_fract_y
 _atom_site_fract_z
 _atom_site_occupancy
  Dy  Dy0  1  0.415879  0.405087  0.500000  1
  Dy  Dy1  1  0.584121  0.989209  0.500000  1
  Sn  Sn2  1  0.000000  0.609820  0.500000  1
  Sn  Sn3  1  0.720644  0.739956  0.000000  1
  Sn  Sn4  1  0.279356  0.019311  0.000000  1
  Sn  Sn5  1  0.000000  0.233338  0.000000  1
  Ir  Ir6  1  0.716683  0.368460  0.000000  1
  Ir  Ir7  1  0.283317  0.651779  0.000000  1
  Ir  Ir8  1  0.000000  0.983042  0.500000  1
