# generated using pymatgen
data_Sm5Eu(BiO7)2
_symmetry_space_group_name_H-M   'P 1'
_cell_length_a   6.64760254
_cell_length_b   6.65504759
_cell_length_c   7.82338900
_cell_angle_alpha   106.87480800
_cell_angle_beta   89.78559291
_cell_angle_gamma   98.68516949
_symmetry_Int_Tables_number   1
_chemical_formula_structural   Sm5Eu(BiO7)2
_chemical_formula_sum   'Sm5 Eu1 Bi2 O14'
_cell_volume   327.11255874
_cell_formula_units_Z   1
loop_
 _symmetry_equiv_pos_site_id
 _symmetry_equiv_pos_as_xyz
  1  'x, y, z'
loop_
 _atom_site_type_symbol
 _atom_site_label
 _atom_site_symmetry_multiplicity
 _atom_site_fract_x
 _atom_site_fract_y
 _atom_site_fract_z
 _atom_site_occupancy
  Sm  Sm0  1  0.539431  0.995196  0.747135  1
  Sm  Sm1  1  0.268856  0.538241  0.881733  1
  Sm  Sm2  1  0.732823  0.461255  0.115911  1
  Sm  Sm3  1  0.737894  0.478345  0.615512  1
  Sm  Sm4  1  0.258587  0.519282  0.385576  1
  Eu  Eu5  1  0.466597  0.003301  0.252603  1
  Bi  Bi6  1  0.000765  0.000279  0.500057  1
  Bi  Bi7  1  0.001529  0.000598  0.000395  1
  O  O8  1  0.442745  0.649003  0.169504  1
  O  O9  1  0.555334  0.355694  0.833972  1
  O  O10  1  0.298211  0.923119  0.950513  1
  O  O11  1  0.702673  0.077121  0.045091  1
  O  O12  1  0.293770  0.922935  0.512835  1
  O  O13  1  0.705881  0.077779  0.491293  1
  O  O14  1  0.545045  0.358013  0.342782  1
  O  O15  1  0.452917  0.635029  0.651803  1
  O  O16  1  0.925021  0.670340  0.958222  1
  O  O17  1  0.075296  0.331588  0.042735  1
  O  O18  1  0.070647  0.344850  0.619120  1
  O  O19  1  0.927074  0.655290  0.382151  1
  O  O20  1  0.882638  0.904609  0.725804  1
  O  O21  1  0.116264  0.098133  0.275256  1
