# generated using pymatgen
data_Li4InBi3Rh8
_symmetry_space_group_name_H-M   'P 1'
_cell_length_a   4.48304800
_cell_length_b   6.30209800
_cell_length_c   8.92353201
_cell_angle_alpha   90.00000000
_cell_angle_beta   90.00445817
_cell_angle_gamma   90.00000000
_symmetry_Int_Tables_number   1
_chemical_formula_structural   Li4InBi3Rh8
_chemical_formula_sum   'Li4 In1 Bi3 Rh8'
_cell_volume   252.11304971
_cell_formula_units_Z   1
loop_
 _symmetry_equiv_pos_site_id
 _symmetry_equiv_pos_as_xyz
  1  'x, y, z'
loop_
 _atom_site_type_symbol
 _atom_site_label
 _atom_site_symmetry_multiplicity
 _atom_site_fract_x
 _atom_site_fract_y
 _atom_site_fract_z
 _atom_site_occupancy
  Li  Li0  1  0.250014  0.749999  0.125004  1
  Li  Li1  1  0.750025  0.250000  0.370263  1
  Li  Li2  1  0.249991  0.749999  0.625018  1
  Li  Li3  1  0.749970  0.250000  0.879809  1
  In  In4  1  0.250048  0.250000  0.124770  1
  Bi  Bi5  1  0.750038  0.749999  0.372096  1
  Bi  Bi6  1  0.249975  0.250000  0.624980  1
  Bi  Bi7  1  0.749969  0.749999  0.877978  1
  Rh  Rh8  1  0.749993  0.497120  0.125022  1
  Rh  Rh9  1  0.749993  0.002880  0.125022  1
  Rh  Rh10  1  0.250039  0.999662  0.375531  1
  Rh  Rh11  1  0.250039  0.500339  0.375531  1
  Rh  Rh12  1  0.749985  0.500585  0.625030  1
  Rh  Rh13  1  0.749985  0.999415  0.625030  1
  Rh  Rh14  1  0.249972  0.999641  0.874458  1
  Rh  Rh15  1  0.249972  0.500360  0.874458  1
