# generated using pymatgen
data_Gd6AuO12
_symmetry_space_group_name_H-M   'P 1'
_cell_length_a   6.57143938
_cell_length_b   6.57143847
_cell_length_c   6.57143803
_cell_angle_alpha   98.83634375
_cell_angle_beta   98.83633497
_cell_angle_gamma   98.83634176
_symmetry_Int_Tables_number   1
_chemical_formula_structural   Gd6AuO12
_chemical_formula_sum   'Gd6 Au1 O12'
_cell_volume   272.48173866
_cell_formula_units_Z   1
loop_
 _symmetry_equiv_pos_site_id
 _symmetry_equiv_pos_as_xyz
  1  'x, y, z'
loop_
 _atom_site_type_symbol
 _atom_site_label
 _atom_site_symmetry_multiplicity
 _atom_site_fract_x
 _atom_site_fract_y
 _atom_site_fract_z
 _atom_site_occupancy
  Gd  Gd0  1  0.859784  0.391814  0.698260  1
  Gd  Gd1  1  0.608186  0.301740  0.140216  1
  Gd  Gd2  1  0.301740  0.140216  0.608186  1
  Gd  Gd3  1  0.698260  0.859784  0.391814  1
  Gd  Gd4  1  0.391814  0.698260  0.859784  1
  Gd  Gd5  1  0.140216  0.608186  0.301740  1
  Au  Au6  1  0.000000  0.000000  0.000000  1
  O  O7  1  0.938298  0.045902  0.694461  1
  O  O8  1  0.954098  0.305539  0.061702  1
  O  O9  1  0.590663  0.177080  0.437694  1
  O  O10  1  0.822920  0.562306  0.409337  1
  O  O11  1  0.305539  0.061702  0.954098  1
  O  O12  1  0.562306  0.409337  0.822920  1
  O  O13  1  0.437694  0.590663  0.177080  1
  O  O14  1  0.694461  0.938298  0.045902  1
  O  O15  1  0.177080  0.437694  0.590663  1
  O  O16  1  0.409337  0.822920  0.562306  1
  O  O17  1  0.045902  0.694461  0.938298  1
  O  O18  1  0.061702  0.954098  0.305539  1
