# generated using pymatgen
data_Dy3Tm9TlNi5
_symmetry_space_group_name_H-M   'P 1'
_cell_length_a   8.26884464
_cell_length_b   8.26884462
_cell_length_c   8.28704800
_cell_angle_alpha   109.33371546
_cell_angle_beta   111.73258236
_cell_angle_gamma   107.28416954
_symmetry_Int_Tables_number   1
_chemical_formula_structural   Dy3Tm9TlNi5
_chemical_formula_sum   'Dy3 Tm9 Tl1 Ni5'
_cell_volume   436.02648340
_cell_formula_units_Z   1
loop_
 _symmetry_equiv_pos_site_id
 _symmetry_equiv_pos_as_xyz
  1  'x, y, z'
loop_
 _atom_site_type_symbol
 _atom_site_label
 _atom_site_symmetry_multiplicity
 _atom_site_fract_x
 _atom_site_fract_y
 _atom_site_fract_z
 _atom_site_occupancy
  Dy  Dy0  1  0.295114  0.182711  0.477826  1
  Dy  Dy1  1  0.706580  0.818601  0.525182  1
  Dy  Dy2  1  0.294786  0.817354  0.112139  1
  Tm  Tm3  1  0.705663  0.182516  0.888181  1
  Tm  Tm4  1  0.627353  0.321335  0.304402  1
  Tm  Tm5  1  0.372686  0.678173  0.694456  1
  Tm  Tm6  1  0.016284  0.321771  0.694456  1
  Tm  Tm7  1  0.983067  0.677050  0.304402  1
  Tm  Tm8  1  0.209267  0.399913  0.189407  1
  Tm  Tm9  1  0.789093  0.596962  0.809212  1
  Tm  Tm10  1  0.212251  0.020119  0.809212  1
  Tm  Tm11  1  0.789492  0.980140  0.189407  1
  Tl  Tl12  1  0.499810  0.500097  0.999907  1
  Ni  Ni13  1  0.998873  0.366506  0.365379  1
  Ni  Ni14  1  0.999581  0.633456  0.633036  1
  Ni  Ni15  1  0.375955  0.877313  0.503067  1
  Ni  Ni16  1  0.625755  0.127112  0.503067  1
  Ni  Ni17  1  0.998390  0.998869  0.997258  1
