# generated using pymatgen
data_Cs16ScPaBi8
_symmetry_space_group_name_H-M   'P 1'
_cell_length_a   12.57818820
_cell_length_b   12.57818806
_cell_length_c   12.57818800
_cell_angle_alpha   59.99999490
_cell_angle_beta   59.99999528
_cell_angle_gamma   59.99999648
_symmetry_Int_Tables_number   1
_chemical_formula_structural   Cs16ScPaBi8
_chemical_formula_sum   'Cs16 Sc1 Pa1 Bi8'
_cell_volume   1407.14616837
_cell_formula_units_Z   1
loop_
 _symmetry_equiv_pos_site_id
 _symmetry_equiv_pos_as_xyz
  1  'x, y, z'
loop_
 _atom_site_type_symbol
 _atom_site_label
 _atom_site_symmetry_multiplicity
 _atom_site_fract_x
 _atom_site_fract_y
 _atom_site_fract_z
 _atom_site_occupancy
  Cs  Cs0  1  0.621841  0.134475  0.621841  1
  Cs  Cs1  1  0.621841  0.621841  0.134475  1
  Cs  Cs2  1  0.134475  0.621841  0.621841  1
  Cs  Cs3  1  0.621841  0.621841  0.621841  1
  Cs  Cs4  1  0.033667  0.033667  0.466333  1
  Cs  Cs5  1  0.775927  0.224073  0.224073  1
  Cs  Cs6  1  0.224073  0.775927  0.775927  1
  Cs  Cs7  1  0.775927  0.775927  0.224073  1
  Cs  Cs8  1  0.775927  0.224073  0.775927  1
  Cs  Cs9  1  0.224073  0.775927  0.224073  1
  Cs  Cs10  1  0.466333  0.033667  0.466333  1
  Cs  Cs11  1  0.466333  0.033667  0.033667  1
  Cs  Cs12  1  0.033667  0.466333  0.466333  1
  Cs  Cs13  1  0.033667  0.466333  0.033667  1
  Cs  Cs14  1  0.224073  0.224073  0.775927  1
  Cs  Cs15  1  0.466333  0.466333  0.033667  1
  Sc  Sc16  1  0.500000  0.500000  0.500000  1
  Pa  Pa17  1  0.750000  0.750000  0.750000  1
  Bi  Bi18  1  0.400659  0.798026  0.400659  1
  Bi  Bi19  1  0.849665  0.849665  0.451006  1
  Bi  Bi20  1  0.451006  0.849665  0.849665  1
  Bi  Bi21  1  0.849665  0.849665  0.849665  1
  Bi  Bi22  1  0.798026  0.400659  0.400659  1
  Bi  Bi23  1  0.400659  0.400659  0.400659  1
  Bi  Bi24  1  0.400659  0.400659  0.798026  1
  Bi  Bi25  1  0.849665  0.451006  0.849665  1
