# generated using pymatgen
data_V12ZnGa5(CuN2)2
_symmetry_space_group_name_H-M   'P 1'
_cell_length_a   6.56698600
_cell_length_b   6.56591172
_cell_length_c   6.56682140
_cell_angle_alpha   90.10547902
_cell_angle_beta   90.05359055
_cell_angle_gamma   90.05343743
_symmetry_Int_Tables_number   1
_chemical_formula_structural   V12ZnGa5(CuN2)2
_chemical_formula_sum   'V12 Zn1 Ga5 Cu2 N4'
_cell_volume   283.14912165
_cell_formula_units_Z   1
loop_
 _symmetry_equiv_pos_site_id
 _symmetry_equiv_pos_as_xyz
  1  'x, y, z'
loop_
 _atom_site_type_symbol
 _atom_site_label
 _atom_site_symmetry_multiplicity
 _atom_site_fract_x
 _atom_site_fract_y
 _atom_site_fract_z
 _atom_site_occupancy
  V  V0  1  0.788560  0.960133  0.377033  1
  V  V1  1  0.710425  0.039251  0.872947  1
  V  V2  1  0.211065  0.458427  0.125629  1
  V  V3  1  0.290501  0.540105  0.625680  1
  V  V4  1  0.959723  0.376650  0.789024  1
  V  V5  1  0.038893  0.873459  0.710905  1
  V  V6  1  0.459701  0.125843  0.210783  1
  V  V7  1  0.541257  0.625551  0.290097  1
  V  V8  1  0.376983  0.788712  0.959145  1
  V  V9  1  0.873096  0.710383  0.038562  1
  V  V10  1  0.125533  0.211006  0.459297  1
  V  V11  1  0.625937  0.290634  0.540951  1
  Zn  Zn12  1  0.179464  0.821645  0.318029  1
  Ga  Ga13  1  0.677836  0.677764  0.678570  1
  Ga  Ga14  1  0.570999  0.417997  0.934784  1
  Ga  Ga15  1  0.421841  0.936763  0.574888  1
  Ga  Ga16  1  0.930881  0.566758  0.419548  1
  Ga  Ga17  1  0.071648  0.077156  0.069417  1
  Cu  Cu18  1  0.318391  0.179915  0.822096  1
  Cu  Cu19  1  0.821289  0.318194  0.178975  1
  N  N20  1  0.878052  0.125993  0.624683  1
  N  N21  1  0.624958  0.878228  0.124937  1
  N  N22  1  0.125969  0.623634  0.877861  1
  N  N23  1  0.376994  0.375796  0.376156  1
