# generated using pymatgen
data_Er4Ga12Ru
_symmetry_space_group_name_H-M   'P 1'
_cell_length_a   7.44408861
_cell_length_b   7.44408744
_cell_length_c   7.44408800
_cell_angle_alpha   109.47122489
_cell_angle_beta   109.47122170
_cell_angle_gamma   109.47121506
_symmetry_Int_Tables_number   1
_chemical_formula_structural   Er4Ga12Ru
_chemical_formula_sum   'Er4 Ga12 Ru1'
_cell_volume   317.55035950
_cell_formula_units_Z   1
loop_
 _symmetry_equiv_pos_site_id
 _symmetry_equiv_pos_as_xyz
  1  'x, y, z'
loop_
 _atom_site_type_symbol
 _atom_site_label
 _atom_site_symmetry_multiplicity
 _atom_site_fract_x
 _atom_site_fract_y
 _atom_site_fract_z
 _atom_site_occupancy
  Er  Er0  1  0.000000  0.000000  0.500000  1
  Er  Er1  1  0.000000  0.500000  0.000000  1
  Er  Er2  1  0.500000  0.000000  0.000000  1
  Er  Er3  1  0.500000  0.500000  0.500000  1
  Ga  Ga4  1  0.750000  0.250000  0.500000  1
  Ga  Ga5  1  0.750000  0.500000  0.250000  1
  Ga  Ga6  1  0.500000  0.250000  0.750000  1
  Ga  Ga7  1  0.250000  0.500000  0.750000  1
  Ga  Ga8  1  0.250000  0.750000  0.500000  1
  Ga  Ga9  1  0.500000  0.750000  0.250000  1
  Ga  Ga10  1  0.710361  0.710361  0.000000  1
  Ga  Ga11  1  0.289639  0.000000  0.289639  1
  Ga  Ga12  1  0.000000  0.289639  0.289639  1
  Ga  Ga13  1  0.289639  0.289639  0.000000  1
  Ga  Ga14  1  0.710361  0.000000  0.710361  1
  Ga  Ga15  1  0.000000  0.710361  0.710361  1
  Ru  Ru16  1  0.000000  0.000000  0.000000  1
