# generated using pymatgen
data_YbPr3Ga24IrPd
_symmetry_space_group_name_H-M   'P 1'
_cell_length_a   6.14455800
_cell_length_b   6.14455800
_cell_length_c   15.68397200
_cell_angle_alpha   90.00000000
_cell_angle_beta   90.00000000
_cell_angle_gamma   90.00317038
_symmetry_Int_Tables_number   1
_chemical_formula_structural   YbPr3Ga24IrPd
_chemical_formula_sum   'Yb1 Pr3 Ga24 Ir1 Pd1'
_cell_volume   592.15766324
_cell_formula_units_Z   1
loop_
 _symmetry_equiv_pos_site_id
 _symmetry_equiv_pos_as_xyz
  1  'x, y, z'
loop_
 _atom_site_type_symbol
 _atom_site_label
 _atom_site_symmetry_multiplicity
 _atom_site_fract_x
 _atom_site_fract_y
 _atom_site_fract_z
 _atom_site_occupancy
  Yb  Yb0  1  0.750000  0.250000  0.245749  1
  Pr  Pr1  1  0.250000  0.750000  0.241249  1
  Pr  Pr2  1  0.250000  0.750000  0.756738  1
  Pr  Pr3  1  0.750000  0.250000  0.755051  1
  Ga  Ga4  1  0.250000  0.250000  0.188565  1
  Ga  Ga5  1  0.750000  0.750000  0.188565  1
  Ga  Ga6  1  0.750000  0.750000  0.811313  1
  Ga  Ga7  1  0.250000  0.250000  0.811313  1
  Ga  Ga8  1  0.250000  0.250000  0.346206  1
  Ga  Ga9  1  0.750000  0.750000  0.346206  1
  Ga  Ga10  1  0.750000  0.750000  0.653063  1
  Ga  Ga11  1  0.250000  0.250000  0.653063  1
  Ga  Ga12  1  0.500731  0.000731  0.912305  1
  Ga  Ga13  1  0.999312  0.000688  0.912326  1
  Ga  Ga14  1  0.500688  0.499312  0.912326  1
  Ga  Ga15  1  0.999269  0.499269  0.912305  1
  Ga  Ga16  1  0.504945  0.004945  0.089541  1
  Ga  Ga17  1  0.995238  0.004762  0.089503  1
  Ga  Ga18  1  0.504762  0.495238  0.089503  1
  Ga  Ga19  1  0.995055  0.495055  0.089541  1
  Ga  Ga20  1  0.581009  0.081009  0.430897  1
  Ga  Ga21  1  0.080408  0.919592  0.431411  1
  Ga  Ga22  1  0.419592  0.580408  0.431411  1
  Ga  Ga23  1  0.918991  0.418991  0.430897  1
  Ga  Ga24  1  0.416042  0.916042  0.568020  1
  Ga  Ga25  1  0.916800  0.083200  0.567797  1
  Ga  Ga26  1  0.583200  0.416800  0.567797  1
  Ga  Ga27  1  0.083958  0.583958  0.568020  1
  Ir  Ir28  1  0.750000  0.250000  0.998162  1
  Pd  Pd29  1  0.250000  0.750000  0.001156  1
