# generated using pymatgen
data_TmZr2(ScRe12)2
_symmetry_space_group_name_H-M   'P 1'
_cell_length_a   8.49437603
_cell_length_b   8.49437494
_cell_length_c   8.49455802
_cell_angle_alpha   109.47554456
_cell_angle_beta   109.47554097
_cell_angle_gamma   109.46171168
_symmetry_Int_Tables_number   1
_chemical_formula_structural   TmZr2(ScRe12)2
_chemical_formula_sum   'Tm1 Zr2 Sc2 Re24'
_cell_volume   471.83095910
_cell_formula_units_Z   1
loop_
 _symmetry_equiv_pos_site_id
 _symmetry_equiv_pos_as_xyz
  1  'x, y, z'
loop_
 _atom_site_type_symbol
 _atom_site_label
 _atom_site_symmetry_multiplicity
 _atom_site_fract_x
 _atom_site_fract_y
 _atom_site_fract_z
 _atom_site_occupancy
  Tm  Tm0  1  0.998118  0.998118  0.000000  1
  Zr  Zr1  1  0.000151  0.000151  0.629678  1
  Zr  Zr2  1  0.370473  0.370473  0.370322  1
  Sc  Sc3  1  0.629117  0.000057  0.000000  1
  Sc  Sc4  1  0.000057  0.629117  0.000000  1
  Re  Re5  1  0.397121  0.676700  0.000000  1
  Re  Re6  1  0.720744  0.322910  0.324057  1
  Re  Re7  1  0.396687  0.998853  0.675943  1
  Re  Re8  1  0.676700  0.397121  0.000000  1
  Re  Re9  1  0.998853  0.396687  0.675943  1
  Re  Re10  1  0.322910  0.720744  0.324057  1
  Re  Re11  1  0.323548  0.323548  0.720739  1
  Re  Re12  1  0.998977  0.676110  0.395902  1
  Re  Re13  1  0.676110  0.998977  0.395902  1
  Re  Re14  1  0.602810  0.602810  0.279261  1
  Re  Re15  1  0.280208  0.603076  0.604098  1
  Re  Re16  1  0.603076  0.280208  0.604098  1
  Re  Re17  1  0.379235  0.194306  0.000000  1
  Re  Re18  1  0.185283  0.806649  0.807604  1
  Re  Re19  1  0.377679  0.999045  0.192396  1
  Re  Re20  1  0.194306  0.379235  0.000000  1
  Re  Re21  1  0.999045  0.377679  0.192396  1
  Re  Re22  1  0.806649  0.185283  0.807604  1
  Re  Re23  1  0.807731  0.807731  0.184866  1
  Re  Re24  1  0.999311  0.194214  0.377751  1
  Re  Re25  1  0.194214  0.999311  0.377751  1
  Re  Re26  1  0.622865  0.622865  0.815134  1
  Re  Re27  1  0.816463  0.621560  0.622249  1
  Re  Re28  1  0.621560  0.816463  0.622249  1
