# generated using pymatgen
data_Rb2MnCoF6
_symmetry_space_group_name_H-M   'P 1'
_cell_length_a   6.00918965
_cell_length_b   6.00919029
_cell_length_c   6.01770280
_cell_angle_alpha   120.15103058
_cell_angle_beta   120.15102721
_cell_angle_gamma   59.52975960
_symmetry_Int_Tables_number   1
_chemical_formula_structural   Rb2MnCoF6
_chemical_formula_sum   'Rb2 Mn1 Co1 F6'
_cell_volume   152.75387004
_cell_formula_units_Z   1
loop_
 _symmetry_equiv_pos_site_id
 _symmetry_equiv_pos_as_xyz
  1  'x, y, z'
loop_
 _atom_site_type_symbol
 _atom_site_label
 _atom_site_symmetry_multiplicity
 _atom_site_fract_x
 _atom_site_fract_y
 _atom_site_fract_z
 _atom_site_occupancy
  Rb  Rb0  1  0.750249  0.750249  0.250544  1
  Rb  Rb1  1  0.249751  0.249751  0.749456  1
  Mn  Mn2  1  0.499999  0.499999  0.499999  1
  Co  Co3  1  0.000000  0.000000  0.000000  1
  F  F4  1  0.749268  0.239906  0.241214  1
  F  F5  1  0.239906  0.749268  0.241214  1
  F  F6  1  0.245328  0.245328  0.256204  1
  F  F7  1  0.754672  0.754672  0.743796  1
  F  F8  1  0.760094  0.250732  0.758786  1
  F  F9  1  0.250732  0.760094  0.758786  1
