# generated using pymatgen
data_YbDy5Y2(B6Ru)4
_symmetry_space_group_name_H-M   'P 1'
_cell_length_a   3.66643300
_cell_length_b   9.15316310
_cell_length_c   11.53748600
_cell_angle_alpha   89.90797452
_cell_angle_beta   90.00000000
_cell_angle_gamma   90.00000000
_symmetry_Int_Tables_number   1
_chemical_formula_structural   YbDy5Y2(B6Ru)4
_chemical_formula_sum   'Yb1 Dy5 Y2 B24 Ru4'
_cell_volume   387.19129185
_cell_formula_units_Z   1
loop_
 _symmetry_equiv_pos_site_id
 _symmetry_equiv_pos_as_xyz
  1  'x, y, z'
loop_
 _atom_site_type_symbol
 _atom_site_label
 _atom_site_symmetry_multiplicity
 _atom_site_fract_x
 _atom_site_fract_y
 _atom_site_fract_z
 _atom_site_occupancy
  Yb  Yb0  1  0.000000  0.324047  0.413683  1
  Dy  Dy1  1  0.000000  0.177377  0.914579  1
  Dy  Dy2  1  0.000000  0.944057  0.371171  1
  Dy  Dy3  1  0.000000  0.058176  0.628004  1
  Dy  Dy4  1  0.000000  0.442853  0.129792  1
  Dy  Dy5  1  0.000000  0.556110  0.872017  1
  Y  Y6  1  0.000000  0.675470  0.584874  1
  Y  Y7  1  0.000000  0.822854  0.086380  1
  B  B8  1  0.500000  0.553695  0.432474  1
  B  B9  1  0.500000  0.445641  0.567201  1
  B  B10  1  0.500000  0.053532  0.066787  1
  B  B11  1  0.500000  0.945983  0.932342  1
  B  B12  1  0.500000  0.747972  0.419187  1
  B  B13  1  0.500000  0.252560  0.580655  1
  B  B14  1  0.500000  0.247226  0.080620  1
  B  B15  1  0.500000  0.752081  0.919493  1
  B  B16  1  0.500000  0.791098  0.266342  1
  B  B17  1  0.500000  0.210054  0.733884  1
  B  B18  1  0.500000  0.289782  0.233661  1
  B  B19  1  0.500000  0.709443  0.766416  1
  B  B20  1  0.500000  0.632104  0.186225  1
  B  B21  1  0.500000  0.368092  0.814908  1
  B  B22  1  0.500000  0.131651  0.314017  1
  B  B23  1  0.500000  0.868433  0.685291  1
  B  B24  1  0.500000  0.983849  0.211914  1
  B  B25  1  0.500000  0.016327  0.787329  1
  B  B26  1  0.500000  0.484057  0.287971  1
  B  B27  1  0.500000  0.515883  0.712561  1
  B  B28  1  0.500000  0.608706  0.030352  1
  B  B29  1  0.500000  0.391266  0.970392  1
  B  B30  1  0.500000  0.105455  0.470742  1
  B  B31  1  0.500000  0.893823  0.529313  1
  Ru  Ru32  1  0.000000  0.639176  0.320793  1
  Ru  Ru33  1  0.000000  0.362041  0.679925  1
  Ru  Ru34  1  0.000000  0.136877  0.177603  1
  Ru  Ru35  1  0.000000  0.862249  0.821104  1
