# generated using pymatgen
data_PrTm3(WF7)4
_symmetry_space_group_name_H-M   'P 1'
_cell_length_a   5.67343902
_cell_length_b   9.06662201
_cell_length_c   12.22403000
_cell_angle_alpha   63.88972667
_cell_angle_beta   90.03431624
_cell_angle_gamma   90.06772439
_symmetry_Int_Tables_number   1
_chemical_formula_structural   PrTm3(WF7)4
_chemical_formula_sum   'Pr1 Tm3 W4 F28'
_cell_volume   564.62164024
_cell_formula_units_Z   1
loop_
 _symmetry_equiv_pos_site_id
 _symmetry_equiv_pos_as_xyz
  1  'x, y, z'
loop_
 _atom_site_type_symbol
 _atom_site_label
 _atom_site_symmetry_multiplicity
 _atom_site_fract_x
 _atom_site_fract_y
 _atom_site_fract_z
 _atom_site_occupancy
  Pr  Pr0  1  0.739908  0.815724  0.267089  1
  Tm  Tm1  1  0.759528  0.817074  0.765459  1
  Tm  Tm2  1  0.261062  0.185567  0.733444  1
  Tm  Tm3  1  0.236837  0.196930  0.230256  1
  W  W4  1  0.756924  0.276562  0.952888  1
  W  W5  1  0.254790  0.725186  0.551123  1
  W  W6  1  0.247725  0.726974  0.036888  1
  W  W7  1  0.744938  0.266690  0.458774  1
  F  F8  1  0.458180  0.706707  0.913545  1
  F  F9  1  0.961989  0.288895  0.580093  1
  F  F10  1  0.541305  0.293275  0.076916  1
  F  F11  1  0.045640  0.705148  0.425073  1
  F  F12  1  0.450263  0.273118  0.556868  1
  F  F13  1  0.945583  0.724328  0.942051  1
  F  F14  1  0.549746  0.716962  0.458653  1
  F  F15  1  0.051820  0.280980  0.051658  1
  F  F16  1  0.765757  0.519954  0.855763  1
  F  F17  1  0.261348  0.479207  0.646368  1
  F  F18  1  0.236145  0.482073  0.137818  1
  F  F19  1  0.730038  0.509771  0.360819  1
  F  F20  1  0.756376  0.033127  0.049407  1
  F  F21  1  0.253879  0.967210  0.454397  1
  F  F22  1  0.245983  0.970482  0.943006  1
  F  F23  1  0.745184  0.023598  0.555479  1
  F  F24  1  0.967616  0.733156  0.650386  1
  F  F25  1  0.473882  0.265141  0.850106  1
  F  F26  1  0.031604  0.268506  0.353795  1
  F  F27  1  0.536035  0.728339  0.137249  1
  F  F28  1  0.051565  0.747760  0.165658  1
  F  F29  1  0.533815  0.244244  0.333150  1
  F  F30  1  0.967963  0.248782  0.830084  1
  F  F31  1  0.464959  0.750177  0.675964  1
  F  F32  1  0.413322  0.986401  0.234422  1
  F  F33  1  0.934737  0.039991  0.265792  1
  F  F34  1  0.561797  0.020734  0.764182  1
  F  F35  1  0.061755  0.981223  0.735377  1
