# generated using pymatgen
data_Tm2Co4P6Ir5Rh
_symmetry_space_group_name_H-M   'P 1'
_cell_length_a   3.83687500
_cell_length_b   10.57473900
_cell_length_c   12.20205000
_cell_angle_alpha   90.00000000
_cell_angle_beta   90.00000000
_cell_angle_gamma   90.00000000
_symmetry_Int_Tables_number   1
_chemical_formula_structural   Tm2Co4P6Ir5Rh
_chemical_formula_sum   'Tm4 Co8 P12 Ir10 Rh2'
_cell_volume   495.08538735
_cell_formula_units_Z   2
loop_
 _symmetry_equiv_pos_site_id
 _symmetry_equiv_pos_as_xyz
  1  'x, y, z'
loop_
 _atom_site_type_symbol
 _atom_site_label
 _atom_site_symmetry_multiplicity
 _atom_site_fract_x
 _atom_site_fract_y
 _atom_site_fract_z
 _atom_site_occupancy
  Tm  Tm0  1  0.250000  0.583939  0.711514  1
  Tm  Tm1  1  0.250000  0.916061  0.211514  1
  Tm  Tm2  1  0.750000  0.417072  0.289546  1
  Tm  Tm3  1  0.750000  0.082928  0.789546  1
  Co  Co4  1  0.250000  0.883116  0.696682  1
  Co  Co5  1  0.250000  0.616884  0.196682  1
  Co  Co6  1  0.750000  0.116838  0.303328  1
  Co  Co7  1  0.750000  0.383162  0.803328  1
  Co  Co8  1  0.250000  0.461824  0.933719  1
  Co  Co9  1  0.250000  0.038176  0.433719  1
  Co  Co10  1  0.750000  0.535253  0.067312  1
  Co  Co11  1  0.750000  0.964747  0.567312  1
  P  P12  1  0.250000  0.433047  0.111658  1
  P  P13  1  0.250000  0.066953  0.611658  1
  P  P14  1  0.750000  0.568587  0.889291  1
  P  P15  1  0.750000  0.931413  0.389291  1
  P  P16  1  0.250000  0.273279  0.869492  1
  P  P17  1  0.250000  0.226721  0.369492  1
  P  P18  1  0.750000  0.726518  0.129548  1
  P  P19  1  0.750000  0.773482  0.629548  1
  P  P20  1  0.250000  0.599293  0.377294  1
  P  P21  1  0.250000  0.900707  0.877294  1
  P  P22  1  0.750000  0.402305  0.623635  1
  P  P23  1  0.750000  0.097695  0.123635  1
  Ir  Ir24  1  0.750000  0.277730  0.009242  1
  Ir  Ir25  1  0.750000  0.222270  0.509242  1
  Ir  Ir26  1  0.250000  0.410067  0.474165  1
  Ir  Ir27  1  0.250000  0.089933  0.974165  1
  Ir  Ir28  1  0.750000  0.589479  0.525138  1
  Ir  Ir29  1  0.750000  0.910521  0.025138  1
  Ir  Ir30  1  0.250000  0.227854  0.178751  1
  Ir  Ir31  1  0.250000  0.272146  0.678751  1
  Ir  Ir32  1  0.750000  0.773197  0.820201  1
  Ir  Ir33  1  0.750000  0.726803  0.320201  1
  Rh  Rh34  1  0.250000  0.720650  0.989486  1
  Rh  Rh35  1  0.250000  0.779350  0.489486  1
