# generated using pymatgen
data_AgHg(NO3)4
_symmetry_space_group_name_H-M   'P 1'
_cell_length_a   7.90507393
_cell_length_b   7.53475400
_cell_length_c   8.68999491
_cell_angle_alpha   90.00000000
_cell_angle_beta   87.42384181
_cell_angle_gamma   90.00000000
_symmetry_Int_Tables_number   1
_chemical_formula_structural   AgHg(NO3)4
_chemical_formula_sum   'Ag2 Hg2 N8 O24'
_cell_volume   517.07721169
_cell_formula_units_Z   2
loop_
 _symmetry_equiv_pos_site_id
 _symmetry_equiv_pos_as_xyz
  1  'x, y, z'
loop_
 _atom_site_type_symbol
 _atom_site_label
 _atom_site_symmetry_multiplicity
 _atom_site_fract_x
 _atom_site_fract_y
 _atom_site_fract_z
 _atom_site_occupancy
  Ag  Ag0  1  0.500000  0.500000  0.500000  1
  Ag  Ag1  1  0.500000  0.000000  0.000000  1
  Hg  Hg2  1  0.000000  0.500000  0.000000  1
  Hg  Hg3  1  0.000000  0.000000  0.500000  1
  N  N4  1  0.673545  0.174211  0.350718  1
  N  N5  1  0.673545  0.325789  0.850718  1
  N  N6  1  0.827903  0.835747  0.829135  1
  N  N7  1  0.827903  0.664253  0.329135  1
  N  N8  1  0.172097  0.164253  0.170865  1
  N  N9  1  0.172097  0.335747  0.670865  1
  N  N10  1  0.326455  0.674211  0.149282  1
  N  N11  1  0.326455  0.825789  0.649282  1
  O  O12  1  0.547355  0.220742  0.835017  1
  O  O13  1  0.547355  0.279258  0.335017  1
  O  O14  1  0.698666  0.448212  0.757401  1
  O  O15  1  0.698666  0.051788  0.257401  1
  O  O16  1  0.730586  0.680945  0.449505  1
  O  O17  1  0.730586  0.819055  0.949505  1
  O  O18  1  0.768411  0.298105  0.963722  1
  O  O19  1  0.768411  0.201895  0.463722  1
  O  O20  1  0.795321  0.947461  0.727198  1
  O  O21  1  0.795321  0.552539  0.227198  1
  O  O22  1  0.958121  0.737717  0.814076  1
  O  O23  1  0.958121  0.762283  0.314076  1
  O  O24  1  0.041879  0.237717  0.685924  1
  O  O25  1  0.041879  0.262283  0.185924  1
  O  O26  1  0.204679  0.447461  0.772802  1
  O  O27  1  0.204679  0.052539  0.272802  1
  O  O28  1  0.231589  0.701895  0.036278  1
  O  O29  1  0.231589  0.798105  0.536278  1
  O  O30  1  0.269414  0.180945  0.050495  1
  O  O31  1  0.269414  0.319055  0.550495  1
  O  O32  1  0.301334  0.551788  0.242599  1
  O  O33  1  0.301334  0.948212  0.742599  1
  O  O34  1  0.452645  0.720742  0.664983  1
  O  O35  1  0.452645  0.779258  0.164983  1
