# generated using pymatgen
data_La17Dy(MgIr6)2
_symmetry_space_group_name_H-M   'P 1'
_cell_length_a   11.37518400
_cell_length_b   11.37518400
_cell_length_c   6.45029500
_cell_angle_alpha   90.00000000
_cell_angle_beta   90.00000000
_cell_angle_gamma   90.00000000
_symmetry_Int_Tables_number   1
_chemical_formula_structural   La17Dy(MgIr6)2
_chemical_formula_sum   'La17 Dy1 Mg2 Ir12'
_cell_volume   834.63470264
_cell_formula_units_Z   1
loop_
 _symmetry_equiv_pos_site_id
 _symmetry_equiv_pos_as_xyz
  1  'x, y, z'
loop_
 _atom_site_type_symbol
 _atom_site_label
 _atom_site_symmetry_multiplicity
 _atom_site_fract_x
 _atom_site_fract_y
 _atom_site_fract_z
 _atom_site_occupancy
  La  La0  1  0.280768  0.086661  0.389535  1
  La  La1  1  0.285812  0.912649  0.885307  1
  La  La2  1  0.714188  0.087351  0.885307  1
  La  La3  1  0.719232  0.913339  0.389535  1
  La  La4  1  0.587265  0.783101  0.889386  1
  La  La5  1  0.588008  0.208883  0.383882  1
  La  La6  1  0.411992  0.791117  0.383882  1
  La  La7  1  0.412735  0.216899  0.889386  1
  La  La8  1  0.208883  0.411992  0.616118  1
  La  La9  1  0.216899  0.587265  0.110614  1
  La  La10  1  0.783101  0.412735  0.110614  1
  La  La11  1  0.791117  0.588008  0.616118  1
  La  La12  1  0.912649  0.714188  0.114693  1
  La  La13  1  0.913339  0.280768  0.610465  1
  La  La14  1  0.086661  0.719232  0.610465  1
  La  La15  1  0.087351  0.285812  0.114693  1
  La  La16  1  0.500000  0.500000  0.500000  1
  Dy  Dy17  1  0.000000  0.000000  0.000000  1
  Mg  Mg18  1  0.000000  0.000000  0.500000  1
  Mg  Mg19  1  0.500000  0.500000  0.000000  1
  Ir  Ir20  1  0.850660  0.149587  0.245570  1
  Ir  Ir21  1  0.850413  0.850660  0.754430  1
  Ir  Ir22  1  0.149587  0.149340  0.754430  1
  Ir  Ir23  1  0.149340  0.850413  0.245570  1
  Ir  Ir24  1  0.654507  0.346113  0.747002  1
  Ir  Ir25  1  0.653887  0.654507  0.252998  1
  Ir  Ir26  1  0.346113  0.345493  0.252998  1
  Ir  Ir27  1  0.345493  0.653887  0.747002  1
  Ir  Ir28  1  0.500000  0.000000  0.115420  1
  Ir  Ir29  1  0.500000  0.000000  0.617778  1
  Ir  Ir30  1  0.000000  0.500000  0.884580  1
  Ir  Ir31  1  0.000000  0.500000  0.382222  1
