# generated using pymatgen
data_Ce5IrPb3
_symmetry_space_group_name_H-M   'P 1'
_cell_length_a   9.65598600
_cell_length_b   9.65598721
_cell_length_c   6.51872400
_cell_angle_alpha   90.00000000
_cell_angle_beta   90.00000000
_cell_angle_gamma   120.00000269
_symmetry_Int_Tables_number   1
_chemical_formula_structural   Ce5IrPb3
_chemical_formula_sum   'Ce10 Ir2 Pb6'
_cell_volume   526.36441739
_cell_formula_units_Z   2
loop_
 _symmetry_equiv_pos_site_id
 _symmetry_equiv_pos_as_xyz
  1  'x, y, z'
loop_
 _atom_site_type_symbol
 _atom_site_label
 _atom_site_symmetry_multiplicity
 _atom_site_fract_x
 _atom_site_fract_y
 _atom_site_fract_z
 _atom_site_occupancy
  Ce  Ce0  1  0.242161  0.242161  0.750000  1
  Ce  Ce1  1  0.757839  0.757839  0.250000  1
  Ce  Ce2  1  0.242161  0.000000  0.250000  1
  Ce  Ce3  1  0.757839  0.000000  0.750000  1
  Ce  Ce4  1  0.333333  0.666667  0.500000  1
  Ce  Ce5  1  0.666667  0.333333  0.500000  1
  Ce  Ce6  1  0.000000  0.242161  0.250000  1
  Ce  Ce7  1  0.000000  0.757839  0.750000  1
  Ce  Ce8  1  0.333333  0.666667  0.000000  1
  Ce  Ce9  1  0.666667  0.333333  0.000000  1
  Ir  Ir10  1  0.000000  0.000000  0.000000  1
  Ir  Ir11  1  0.000000  0.000000  0.500000  1
  Pb  Pb12  1  0.397674  0.397674  0.250000  1
  Pb  Pb13  1  0.602326  0.602326  0.750000  1
  Pb  Pb14  1  0.000000  0.397674  0.750000  1
  Pb  Pb15  1  0.602326  0.000000  0.250000  1
  Pb  Pb16  1  0.397674  0.000000  0.750000  1
  Pb  Pb17  1  0.000000  0.602326  0.250000  1
