# generated using pymatgen
data_Pr3In2Pt3Pb
_symmetry_space_group_name_H-M   'P 1'
_cell_length_a   7.89059100
_cell_length_b   7.84420921
_cell_length_c   4.07718900
_cell_angle_alpha   90.00000000
_cell_angle_beta   90.00000000
_cell_angle_gamma   120.19579393
_symmetry_Int_Tables_number   1
_chemical_formula_structural   Pr3In2Pt3Pb
_chemical_formula_sum   'Pr3 In2 Pt3 Pb1'
_cell_volume   218.11721793
_cell_formula_units_Z   1
loop_
 _symmetry_equiv_pos_site_id
 _symmetry_equiv_pos_as_xyz
  1  'x, y, z'
loop_
 _atom_site_type_symbol
 _atom_site_label
 _atom_site_symmetry_multiplicity
 _atom_site_fract_x
 _atom_site_fract_y
 _atom_site_fract_z
 _atom_site_occupancy
  Pr  Pr0  1  0.593920  0.000000  0.000000  1
  Pr  Pr1  1  0.996968  0.587182  0.000000  1
  Pr  Pr2  1  0.409786  0.412818  0.000000  1
  In  In3  1  0.999631  0.254405  0.500000  1
  In  In4  1  0.745226  0.745595  0.500000  1
  Pt  Pt5  1  0.335607  0.660274  0.500000  1
  Pt  Pt6  1  0.675333  0.339726  0.500000  1
  Pt  Pt7  1  0.989527  0.000000  0.000000  1
  Pb  Pb8  1  0.254001  0.000000  0.500000  1
