# generated using pymatgen
data_TbY(LuZn6)2
_symmetry_space_group_name_H-M   'P 1'
_cell_length_a   4.36346100
_cell_length_b   6.63952908
_cell_length_c   10.05262800
_cell_angle_alpha   90.36548746
_cell_angle_beta   90.00000000
_cell_angle_gamma   90.00000000
_symmetry_Int_Tables_number   1
_chemical_formula_structural   TbY(LuZn6)2
_chemical_formula_sum   'Tb1 Y1 Lu2 Zn12'
_cell_volume   291.23203976
_cell_formula_units_Z   1
loop_
 _symmetry_equiv_pos_site_id
 _symmetry_equiv_pos_as_xyz
  1  'x, y, z'
loop_
 _atom_site_type_symbol
 _atom_site_label
 _atom_site_symmetry_multiplicity
 _atom_site_fract_x
 _atom_site_fract_y
 _atom_site_fract_z
 _atom_site_occupancy
  Tb  Tb0  1  0.750000  0.719917  0.335053  1
  Y  Y1  1  0.250000  0.280102  0.665280  1
  Lu  Lu2  1  0.250000  0.778981  0.836500  1
  Lu  Lu3  1  0.750000  0.220529  0.163569  1
  Zn  Zn4  1  0.250000  0.535273  0.102280  1
  Zn  Zn5  1  0.250000  0.034171  0.396480  1
  Zn  Zn6  1  0.750000  0.464597  0.897479  1
  Zn  Zn7  1  0.750000  0.966210  0.603577  1
  Zn  Zn8  1  0.250000  0.920455  0.149445  1
  Zn  Zn9  1  0.250000  0.414699  0.349222  1
  Zn  Zn10  1  0.750000  0.079404  0.850171  1
  Zn  Zn11  1  0.750000  0.585672  0.651047  1
  Zn  Zn12  1  0.250000  0.209920  0.959502  1
  Zn  Zn13  1  0.250000  0.719172  0.545377  1
  Zn  Zn14  1  0.750000  0.789778  0.040360  1
  Zn  Zn15  1  0.750000  0.281120  0.454656  1
