# generated using pymatgen
data_KGe2PdPt2
_symmetry_space_group_name_H-M   'P 1'
_cell_length_a   7.16446091
_cell_length_b   7.16446180
_cell_length_c   7.16446164
_cell_angle_alpha   120.13119561
_cell_angle_beta   81.62697846
_cell_angle_gamma   130.06344593
_symmetry_Int_Tables_number   1
_chemical_formula_structural   KGe2PdPt2
_chemical_formula_sum   'K2 Ge4 Pd2 Pt4'
_cell_volume   234.50671511
_cell_formula_units_Z   2
loop_
 _symmetry_equiv_pos_site_id
 _symmetry_equiv_pos_as_xyz
  1  'x, y, z'
loop_
 _atom_site_type_symbol
 _atom_site_label
 _atom_site_symmetry_multiplicity
 _atom_site_fract_x
 _atom_site_fract_y
 _atom_site_fract_z
 _atom_site_occupancy
  K  K0  1  0.478463  0.228463  0.250000  1
  K  K1  1  0.521538  0.771537  0.750000  1
  Ge  Ge2  1  0.774913  0.695398  0.079514  1
  Ge  Ge3  1  0.115884  0.695398  0.420485  1
  Ge  Ge4  1  0.884116  0.304602  0.579515  1
  Ge  Ge5  1  0.225087  0.304602  0.920486  1
  Pd  Pd6  1  0.000000  0.499999  0.000000  1
  Pd  Pd7  1  0.000000  0.000000  0.500000  1
  Pt  Pt8  1  0.000000  0.205145  0.205145  1
  Pt  Pt9  1  0.500000  0.794855  0.294855  1
  Pt  Pt10  1  0.500000  0.205145  0.705145  1
  Pt  Pt11  1  0.000000  0.794855  0.794855  1
