# generated using pymatgen
data_Ca3Nd2Si12Ir19
_symmetry_space_group_name_H-M   'P 1'
_cell_length_a   12.85596800
_cell_length_b   12.85596911
_cell_length_c   4.03189700
_cell_angle_alpha   90.00000000
_cell_angle_beta   90.00000000
_cell_angle_gamma   120.00000745
_symmetry_Int_Tables_number   1
_chemical_formula_structural   Ca3Nd2Si12Ir19
_chemical_formula_sum   'Ca3 Nd2 Si12 Ir19'
_cell_volume   577.09808198
_cell_formula_units_Z   1
loop_
 _symmetry_equiv_pos_site_id
 _symmetry_equiv_pos_as_xyz
  1  'x, y, z'
loop_
 _atom_site_type_symbol
 _atom_site_label
 _atom_site_symmetry_multiplicity
 _atom_site_fract_x
 _atom_site_fract_y
 _atom_site_fract_z
 _atom_site_occupancy
  Ca  Ca0  1  0.000000  0.182018  0.500000  1
  Ca  Ca1  1  0.817982  0.817982  0.500000  1
  Ca  Ca2  1  0.182018  0.000000  0.500000  1
  Nd  Nd3  1  0.666667  0.333333  0.000000  1
  Nd  Nd4  1  0.333333  0.666667  0.000000  1
  Si  Si5  1  0.478137  0.311430  0.500000  1
  Si  Si6  1  0.817336  0.000000  0.000000  1
  Si  Si7  1  0.182664  0.182664  0.000000  1
  Si  Si8  1  0.000000  0.817336  0.000000  1
  Si  Si9  1  0.367604  0.000000  0.000000  1
  Si  Si10  1  0.688570  0.166707  0.500000  1
  Si  Si11  1  0.833293  0.521863  0.500000  1
  Si  Si12  1  0.521863  0.833293  0.500000  1
  Si  Si13  1  0.166707  0.688570  0.500000  1
  Si  Si14  1  0.311430  0.478137  0.500000  1
  Si  Si15  1  0.000000  0.367604  0.000000  1
  Si  Si16  1  0.632396  0.632396  0.000000  1
  Ir  Ir17  1  0.805588  0.183162  0.000000  1
  Ir  Ir18  1  0.377573  0.194412  0.000000  1
  Ir  Ir19  1  0.638312  0.513001  0.500000  1
  Ir  Ir20  1  0.874688  0.361688  0.500000  1
  Ir  Ir21  1  0.361688  0.874688  0.500000  1
  Ir  Ir22  1  0.513001  0.638312  0.500000  1
  Ir  Ir23  1  0.125312  0.486999  0.500000  1
  Ir  Ir24  1  0.816838  0.622427  0.000000  1
  Ir  Ir25  1  0.622427  0.816838  0.000000  1
  Ir  Ir26  1  0.183162  0.805588  0.000000  1
  Ir  Ir27  1  0.194412  0.377573  0.000000  1
  Ir  Ir28  1  0.000000  0.717260  0.500000  1
  Ir  Ir29  1  0.282740  0.282740  0.500000  1
  Ir  Ir30  1  0.717260  0.000000  0.500000  1
  Ir  Ir31  1  0.000000  0.551648  0.000000  1
  Ir  Ir32  1  0.448352  0.448352  0.000000  1
  Ir  Ir33  1  0.551648  0.000000  0.000000  1
  Ir  Ir34  1  0.000000  0.000000  0.000000  1
  Ir  Ir35  1  0.486999  0.125312  0.500000  1
