# generated using pymatgen
data_Dy12Tc3Ru
_symmetry_space_group_name_H-M   'P 1'
_cell_length_a   6.25625529
_cell_length_b   7.38641532
_cell_length_c   9.18221100
_cell_angle_alpha   90.00000000
_cell_angle_beta   90.00000000
_cell_angle_gamma   89.96576990
_symmetry_Int_Tables_number   1
_chemical_formula_structural   Dy12Tc3Ru
_chemical_formula_sum   'Dy12 Tc3 Ru1'
_cell_volume   424.32183055
_cell_formula_units_Z   1
loop_
 _symmetry_equiv_pos_site_id
 _symmetry_equiv_pos_as_xyz
  1  'x, y, z'
loop_
 _atom_site_type_symbol
 _atom_site_label
 _atom_site_symmetry_multiplicity
 _atom_site_fract_x
 _atom_site_fract_y
 _atom_site_fract_z
 _atom_site_occupancy
  Dy  Dy0  1  0.334868  0.676575  0.063598  1
  Dy  Dy1  1  0.163178  0.175425  0.437635  1
  Dy  Dy2  1  0.662641  0.324141  0.562505  1
  Dy  Dy3  1  0.836105  0.824460  0.937778  1
  Dy  Dy4  1  0.662641  0.324141  0.937495  1
  Dy  Dy5  1  0.836105  0.824460  0.562222  1
  Dy  Dy6  1  0.334868  0.676575  0.436402  1
  Dy  Dy7  1  0.163178  0.175425  0.062365  1
  Dy  Dy8  1  0.874222  0.542397  0.250000  1
  Dy  Dy9  1  0.624988  0.040800  0.250000  1
  Dy  Dy10  1  0.131322  0.457152  0.750000  1
  Dy  Dy11  1  0.373189  0.955868  0.750000  1
  Tc  Tc12  1  0.038536  0.886243  0.250000  1
  Tc  Tc13  1  0.462784  0.388169  0.250000  1
  Tc  Tc14  1  0.962396  0.113811  0.750000  1
  Ru  Ru15  1  0.538982  0.614359  0.750000  1
