# generated using pymatgen
data_Li2OsO4
_symmetry_space_group_name_H-M   'P 1'
_cell_length_a   5.69160850
_cell_length_b   5.69160741
_cell_length_c   5.30052077
_cell_angle_alpha   89.92331398
_cell_angle_beta   89.92330950
_cell_angle_gamma   61.43812739
_symmetry_Int_Tables_number   1
_chemical_formula_structural   Li2OsO4
_chemical_formula_sum   'Li4 Os2 O8'
_cell_volume   150.81047524
_cell_formula_units_Z   2
loop_
 _symmetry_equiv_pos_site_id
 _symmetry_equiv_pos_as_xyz
  1  'x, y, z'
loop_
 _atom_site_type_symbol
 _atom_site_label
 _atom_site_symmetry_multiplicity
 _atom_site_fract_x
 _atom_site_fract_y
 _atom_site_fract_z
 _atom_site_occupancy
  Li  Li0  1  0.159255  0.463944  0.279240  1
  Li  Li1  1  0.536056  0.840745  0.220760  1
  Li  Li2  1  0.840745  0.536056  0.720760  1
  Li  Li3  1  0.463944  0.159255  0.779240  1
  Os  Os4  1  0.848370  0.151630  0.250000  1
  Os  Os5  1  0.151630  0.848370  0.750000  1
  O  O6  1  0.486168  0.784844  0.855827  1
  O  O7  1  0.784844  0.486168  0.355827  1
  O  O8  1  0.202338  0.992183  0.430872  1
  O  O9  1  0.007817  0.797662  0.069128  1
  O  O10  1  0.797662  0.007817  0.569128  1
  O  O11  1  0.992183  0.202338  0.930872  1
  O  O12  1  0.513832  0.215156  0.144173  1
  O  O13  1  0.215156  0.513832  0.644173  1
