# generated using pymatgen
data_Tb3Dy2P12Ir6Ru13
_symmetry_space_group_name_H-M   'P 1'
_cell_length_a   12.59257400
_cell_length_b   12.55146385
_cell_length_c   3.97443300
_cell_angle_alpha   90.00000000
_cell_angle_beta   90.00000000
_cell_angle_gamma   119.85253931
_symmetry_Int_Tables_number   1
_chemical_formula_structural   Tb3Dy2P12Ir6Ru13
_chemical_formula_sum   'Tb3 Dy2 P12 Ir6 Ru13'
_cell_volume   544.82635875
_cell_formula_units_Z   1
loop_
 _symmetry_equiv_pos_site_id
 _symmetry_equiv_pos_as_xyz
  1  'x, y, z'
loop_
 _atom_site_type_symbol
 _atom_site_label
 _atom_site_symmetry_multiplicity
 _atom_site_fract_x
 _atom_site_fract_y
 _atom_site_fract_z
 _atom_site_occupancy
  Tb  Tb0  1  0.666621  0.332940  0.000000  1
  Tb  Tb1  1  0.332963  0.666449  0.000000  1
  Tb  Tb2  1  0.813401  0.001574  0.500000  1
  Dy  Dy3  1  0.185870  0.186741  0.500000  1
  Dy  Dy4  1  0.000086  0.813313  0.500000  1
  P  P5  1  0.629962  0.003354  0.000000  1
  P  P6  1  0.372046  0.371648  0.000000  1
  P  P7  1  0.999915  0.628020  0.000000  1
  P  P8  1  0.688864  0.517803  0.500000  1
  P  P9  1  0.828476  0.307365  0.500000  1
  P  P10  1  0.312119  0.830509  0.500000  1
  P  P11  1  0.518475  0.687787  0.500000  1
  P  P12  1  0.181908  0.000660  0.000000  1
  P  P13  1  0.817053  0.817889  0.000000  1
  P  P14  1  0.997424  0.183481  0.000000  1
  P  P15  1  0.481413  0.168924  0.500000  1
  P  P16  1  0.170124  0.481982  0.500000  1
  Ir  Ir17  1  0.624399  0.807924  0.000000  1
  Ir  Ir18  1  0.184365  0.375160  0.000000  1
  Ir  Ir19  1  0.374786  0.182793  0.000000  1
  Ir  Ir20  1  0.191078  0.817492  0.000000  1
  Ir  Ir21  1  0.807936  0.624741  0.000000  1
  Ir  Ir22  1  0.999541  0.000388  0.000000  1
  Ru  Ru23  1  0.872862  0.509122  0.500000  1
  Ru  Ru24  1  0.490208  0.361686  0.500000  1
  Ru  Ru25  1  0.635940  0.124108  0.500000  1
  Ru  Ru26  1  0.128216  0.639048  0.500000  1
  Ru  Ru27  1  0.362358  0.489460  0.500000  1
  Ru  Ru28  1  0.509466  0.870851  0.500000  1
  Ru  Ru29  1  0.715809  0.715577  0.500000  1
  Ru  Ru30  1  0.002185  0.285609  0.500000  1
  Ru  Ru31  1  0.445733  0.997863  0.000000  1
  Ru  Ru32  1  0.552773  0.552297  0.000000  1
  Ru  Ru33  1  0.003400  0.449090  0.000000  1
  Ru  Ru34  1  0.818170  0.196176  0.000000  1
  Ru  Ru35  1  0.284060  0.000177  0.500000  1
