# generated using pymatgen
data_Pm4ZnCu3
_symmetry_space_group_name_H-M   'P 1'
_cell_length_a   7.40922425
_cell_length_b   5.59014032
_cell_length_c   4.57512700
_cell_angle_alpha   90.00000000
_cell_angle_beta   90.00000000
_cell_angle_gamma   89.46927876
_symmetry_Int_Tables_number   1
_chemical_formula_structural   Pm4ZnCu3
_chemical_formula_sum   'Pm4 Zn1 Cu3'
_cell_volume   189.48724054
_cell_formula_units_Z   1
loop_
 _symmetry_equiv_pos_site_id
 _symmetry_equiv_pos_as_xyz
  1  'x, y, z'
loop_
 _atom_site_type_symbol
 _atom_site_label
 _atom_site_symmetry_multiplicity
 _atom_site_fract_x
 _atom_site_fract_y
 _atom_site_fract_z
 _atom_site_occupancy
  Pm  Pm0  1  0.101819  0.498948  0.000000  1
  Pm  Pm1  1  0.592522  0.747649  0.000000  1
  Pm  Pm2  1  0.237904  0.010512  0.499999  1
  Pm  Pm3  1  0.731282  0.246162  0.499999  1
  Zn  Zn4  1  0.884788  0.746890  0.499999  1
  Cu  Cu5  1  0.451367  0.257551  0.000000  1
  Cu  Cu6  1  0.951687  0.992319  0.000000  1
  Cu  Cu7  1  0.381962  0.499972  0.499999  1
