# generated using pymatgen
data_Ac3CdGaS7
_symmetry_space_group_name_H-M   'P 1'
_cell_length_a   10.65916200
_cell_length_b   10.65908744
_cell_length_c   6.41685300
_cell_angle_alpha   90.00000000
_cell_angle_beta   90.00000000
_cell_angle_gamma   119.99930659
_symmetry_Int_Tables_number   1
_chemical_formula_structural   Ac3CdGaS7
_chemical_formula_sum   'Ac6 Cd2 Ga2 S14'
_cell_volume   631.39166441
_cell_formula_units_Z   2
loop_
 _symmetry_equiv_pos_site_id
 _symmetry_equiv_pos_as_xyz
  1  'x, y, z'
loop_
 _atom_site_type_symbol
 _atom_site_label
 _atom_site_symmetry_multiplicity
 _atom_site_fract_x
 _atom_site_fract_y
 _atom_site_fract_z
 _atom_site_occupancy
  Ac  Ac0  1  0.622811  0.764696  0.224689  1
  Ac  Ac1  1  0.235307  0.858117  0.224692  1
  Ac  Ac2  1  0.141885  0.377191  0.224696  1
  Ac  Ac3  1  0.377188  0.235303  0.724689  1
  Ac  Ac4  1  0.764693  0.141884  0.724692  1
  Ac  Ac5  1  0.858115  0.622809  0.724697  1
  Cd  Cd6  1  0.999996  0.000000  0.017132  1
  Cd  Cd7  1  0.000004  0.000000  0.517132  1
  Ga  Ga8  1  0.666660  0.333327  0.143136  1
  Ga  Ga9  1  0.333340  0.666674  0.643135  1
  S  S10  1  0.333334  0.666667  0.001216  1
  S  S11  1  0.904839  0.757983  0.284700  1
  S  S12  1  0.853147  0.095163  0.284702  1
  S  S13  1  0.242014  0.146855  0.284697  1
  S  S14  1  0.415831  0.521725  0.497448  1
  S  S15  1  0.478281  0.894114  0.497450  1
  S  S16  1  0.105901  0.584179  0.497443  1
  S  S17  1  0.666667  0.333333  0.501216  1
  S  S18  1  0.095161  0.242016  0.784700  1
  S  S19  1  0.146853  0.904837  0.784703  1
  S  S20  1  0.757987  0.853145  0.784697  1
  S  S21  1  0.584169  0.478276  0.997448  1
  S  S22  1  0.521719  0.105887  0.997451  1
  S  S23  1  0.894099  0.415821  0.997443  1
