# generated using pymatgen
data_Ce3Th4Tc2Ru
_symmetry_space_group_name_H-M   'P 1'
_cell_length_a   9.92984931
_cell_length_b   9.73792724
_cell_length_c   6.24067345
_cell_angle_alpha   90.59033849
_cell_angle_beta   89.57960420
_cell_angle_gamma   119.36538027
_symmetry_Int_Tables_number   1
_chemical_formula_structural   Ce3Th4Tc2Ru
_chemical_formula_sum   'Ce6 Th8 Tc4 Ru2'
_cell_volume   525.88236257
_cell_formula_units_Z   2
loop_
 _symmetry_equiv_pos_site_id
 _symmetry_equiv_pos_as_xyz
  1  'x, y, z'
loop_
 _atom_site_type_symbol
 _atom_site_label
 _atom_site_symmetry_multiplicity
 _atom_site_fract_x
 _atom_site_fract_y
 _atom_site_fract_z
 _atom_site_occupancy
  Ce  Ce0  1  0.467290  0.546562  0.298152  1
  Ce  Ce1  1  0.075552  0.538998  0.308087  1
  Ce  Ce2  1  0.919487  0.460834  0.810438  1
  Ce  Ce3  1  0.250049  0.127226  0.507227  1
  Ce  Ce4  1  0.537814  0.079727  0.797875  1
  Ce  Ce5  1  0.753768  0.877183  0.006605  1
  Th  Th6  1  0.669584  0.337119  0.286959  1
  Th  Th7  1  0.125966  0.874950  0.007533  1
  Th  Th8  1  0.462934  0.923764  0.293918  1
  Th  Th9  1  0.536953  0.459486  0.794928  1
  Th  Th10  1  0.871372  0.128055  0.510914  1
  Th  Th11  1  0.127798  0.253562  0.011092  1
  Th  Th12  1  0.875566  0.752255  0.509273  1
  Th  Th13  1  0.329720  0.666008  0.787672  1
  Tc  Tc14  1  0.820145  0.634210  0.040408  1
  Tc  Tc15  1  0.811555  0.176938  0.039136  1
  Tc  Tc16  1  0.620293  0.800204  0.545973  1
  Tc  Tc17  1  0.374068  0.181544  0.046415  1
  Ru  Ru18  1  0.187373  0.368073  0.539647  1
  Ru  Ru19  1  0.182713  0.813302  0.541743  1
