# generated using pymatgen
data_CdFe3(NO3)8
_symmetry_space_group_name_H-M   'P 1'
_cell_length_a   7.77658800
_cell_length_b   7.77658777
_cell_length_c   7.77658842
_cell_angle_alpha   88.99143983
_cell_angle_beta   88.99144071
_cell_angle_gamma   88.99144396
_symmetry_Int_Tables_number   1
_chemical_formula_structural   CdFe3(NO3)8
_chemical_formula_sum   'Cd1 Fe3 N8 O24'
_cell_volume   470.07562155
_cell_formula_units_Z   1
loop_
 _symmetry_equiv_pos_site_id
 _symmetry_equiv_pos_as_xyz
  1  'x, y, z'
loop_
 _atom_site_type_symbol
 _atom_site_label
 _atom_site_symmetry_multiplicity
 _atom_site_fract_x
 _atom_site_fract_y
 _atom_site_fract_z
 _atom_site_occupancy
  Cd  Cd0  1  0.000000  0.000000  0.000000  1
  Fe  Fe1  1  0.500000  0.500000  0.000000  1
  Fe  Fe2  1  0.000000  0.500000  0.500000  1
  Fe  Fe3  1  0.500000  0.000000  0.500000  1
  N  N4  1  0.338816  0.184023  0.829293  1
  N  N5  1  0.829293  0.338816  0.184023  1
  N  N6  1  0.184023  0.829293  0.338816  1
  N  N7  1  0.674128  0.674128  0.674128  1
  N  N8  1  0.661184  0.815977  0.170707  1
  N  N9  1  0.170707  0.661184  0.815977  1
  N  N10  1  0.815977  0.170707  0.661184  1
  N  N11  1  0.325872  0.325872  0.325872  1
  O  O12  1  0.457843  0.293603  0.822282  1
  O  O13  1  0.822282  0.457843  0.293603  1
  O  O14  1  0.293603  0.822282  0.457843  1
  O  O15  1  0.223263  0.194867  0.945198  1
  O  O16  1  0.335907  0.064980  0.721113  1
  O  O17  1  0.721113  0.335907  0.064980  1
  O  O18  1  0.680428  0.554820  0.786770  1
  O  O19  1  0.194867  0.945198  0.223263  1
  O  O20  1  0.786770  0.680428  0.554820  1
  O  O21  1  0.945198  0.223263  0.194867  1
  O  O22  1  0.554820  0.786770  0.680428  1
  O  O23  1  0.064980  0.721113  0.335907  1
  O  O24  1  0.542157  0.706397  0.177718  1
  O  O25  1  0.177718  0.542157  0.706397  1
  O  O26  1  0.706397  0.177718  0.542157  1
  O  O27  1  0.776737  0.805133  0.054802  1
  O  O28  1  0.664093  0.935020  0.278887  1
  O  O29  1  0.278887  0.664093  0.935020  1
  O  O30  1  0.319572  0.445180  0.213230  1
  O  O31  1  0.805133  0.054802  0.776737  1
  O  O32  1  0.213230  0.319572  0.445180  1
  O  O33  1  0.054802  0.776737  0.805133  1
  O  O34  1  0.445180  0.213230  0.319572  1
  O  O35  1  0.935020  0.278887  0.664093  1
