# generated using pymatgen
data_ScCu4Au
_symmetry_space_group_name_H-M   'P 1'
_cell_length_a   4.91969625
_cell_length_b   4.91969606
_cell_length_c   4.91969700
_cell_angle_alpha   60.00000039
_cell_angle_beta   60.00000166
_cell_angle_gamma   59.99999983
_symmetry_Int_Tables_number   1
_chemical_formula_structural   ScCu4Au
_chemical_formula_sum   'Sc1 Cu4 Au1'
_cell_volume   84.19764140
_cell_formula_units_Z   1
loop_
 _symmetry_equiv_pos_site_id
 _symmetry_equiv_pos_as_xyz
  1  'x, y, z'
loop_
 _atom_site_type_symbol
 _atom_site_label
 _atom_site_symmetry_multiplicity
 _atom_site_fract_x
 _atom_site_fract_y
 _atom_site_fract_z
 _atom_site_occupancy
  Sc  Sc0  1  0.250000  0.250000  0.250000  1
  Cu  Cu1  1  0.625061  0.625061  0.625061  1
  Cu  Cu2  1  0.625061  0.625061  0.124815  1
  Cu  Cu3  1  0.625061  0.124815  0.625061  1
  Cu  Cu4  1  0.124815  0.625061  0.625061  1
  Au  Au5  1  0.000000  0.000000  0.000000  1
