# generated using pymatgen
data_Ti2AlSiRu4
_symmetry_space_group_name_H-M   'P 1'
_cell_length_a   7.39483780
_cell_length_b   7.39483812
_cell_length_c   7.39483744
_cell_angle_alpha   33.67431817
_cell_angle_beta   33.67431355
_cell_angle_gamma   33.67432502
_symmetry_Int_Tables_number   1
_chemical_formula_structural   Ti2AlSiRu4
_chemical_formula_sum   'Ti2 Al1 Si1 Ru4'
_cell_volume   110.75695372
_cell_formula_units_Z   1
loop_
 _symmetry_equiv_pos_site_id
 _symmetry_equiv_pos_as_xyz
  1  'x, y, z'
loop_
 _atom_site_type_symbol
 _atom_site_label
 _atom_site_symmetry_multiplicity
 _atom_site_fract_x
 _atom_site_fract_y
 _atom_site_fract_z
 _atom_site_occupancy
  Ti  Ti0  1  0.250180  0.250180  0.250180  1
  Ti  Ti1  1  0.749820  0.749820  0.749820  1
  Al  Al2  1  0.000000  0.000000  0.000000  1
  Si  Si3  1  0.500000  0.500000  0.500000  1
  Ru  Ru4  1  0.873453  0.873453  0.873453  1
  Ru  Ru5  1  0.376738  0.376738  0.376738  1
  Ru  Ru6  1  0.126547  0.126547  0.126547  1
  Ru  Ru7  1  0.623262  0.623262  0.623262  1
