# generated using pymatgen
data_Zr4Ta3TiAs4
_symmetry_space_group_name_H-M   'P 1'
_cell_length_a   3.63262500
_cell_length_b   7.05197722
_cell_length_c   8.55068276
_cell_angle_alpha   90.12603836
_cell_angle_beta   90.00000000
_cell_angle_gamma   90.00000000
_symmetry_Int_Tables_number   1
_chemical_formula_structural   Zr4Ta3TiAs4
_chemical_formula_sum   'Zr4 Ta3 Ti1 As4'
_cell_volume   219.04392403
_cell_formula_units_Z   1
loop_
 _symmetry_equiv_pos_site_id
 _symmetry_equiv_pos_as_xyz
  1  'x, y, z'
loop_
 _atom_site_type_symbol
 _atom_site_label
 _atom_site_symmetry_multiplicity
 _atom_site_fract_x
 _atom_site_fract_y
 _atom_site_fract_z
 _atom_site_occupancy
  Zr  Zr0  1  0.250000  0.541385  0.831995  1
  Zr  Zr1  1  0.750000  0.958986  0.332601  1
  Zr  Zr2  1  0.250000  0.042298  0.668660  1
  Zr  Zr3  1  0.750000  0.460653  0.166987  1
  Ta  Ta4  1  0.750000  0.865619  0.940088  1
  Ta  Ta5  1  0.250000  0.633894  0.439831  1
  Ta  Ta6  1  0.750000  0.363911  0.559769  1
  Ti  Ti7  1  0.250000  0.132238  0.059713  1
  As  As8  1  0.750000  0.745101  0.642466  1
  As  As9  1  0.250000  0.757634  0.141252  1
  As  As10  1  0.750000  0.243268  0.864292  1
  As  As11  1  0.250000  0.255013  0.352347  1
