# generated using pymatgen
data_Co(AuF6)2
_symmetry_space_group_name_H-M   'P 1'
_cell_length_a   6.91303573
_cell_length_b   6.91294242
_cell_length_c   10.10644477
_cell_angle_alpha   69.10236846
_cell_angle_beta   69.03423666
_cell_angle_gamma   78.17370410
_symmetry_Int_Tables_number   1
_chemical_formula_structural   Co(AuF6)2
_chemical_formula_sum   'Co2 Au4 F24'
_cell_volume   419.67961441
_cell_formula_units_Z   2
loop_
 _symmetry_equiv_pos_site_id
 _symmetry_equiv_pos_as_xyz
  1  'x, y, z'
loop_
 _atom_site_type_symbol
 _atom_site_label
 _atom_site_symmetry_multiplicity
 _atom_site_fract_x
 _atom_site_fract_y
 _atom_site_fract_z
 _atom_site_occupancy
  Co  Co0  1  0.164414  0.835614  0.749863  1
  Co  Co1  1  0.835586  0.164386  0.250137  1
  Au  Au2  1  0.252790  0.240027  0.375269  1
  Au  Au3  1  0.239784  0.252835  0.875210  1
  Au  Au4  1  0.747210  0.759973  0.624731  1
  Au  Au5  1  0.760216  0.747165  0.124790  1
  F  F6  1  0.880614  0.871905  0.226739  1
  F  F7  1  0.119386  0.128095  0.773261  1
  F  F8  1  0.286573  0.959253  0.521987  1
  F  F9  1  0.977683  0.283775  0.505544  1
  F  F10  1  0.283690  0.977985  0.005281  1
  F  F11  1  0.372721  0.356215  0.471907  1
  F  F12  1  0.355876  0.372637  0.972004  1
  F  F13  1  0.871952  0.880553  0.726562  1
  F  F14  1  0.806537  0.460951  0.260935  1
  F  F15  1  0.041291  0.713631  0.977902  1
  F  F16  1  0.713427  0.040747  0.478013  1
  F  F17  1  0.958709  0.286369  0.022098  1
  F  F18  1  0.509697  0.223986  0.734861  1
  F  F19  1  0.627279  0.643785  0.528093  1
  F  F20  1  0.193463  0.539049  0.739065  1
  F  F21  1  0.644124  0.627363  0.027996  1
  F  F22  1  0.460822  0.806163  0.761188  1
  F  F23  1  0.776093  0.490391  0.764933  1
  F  F24  1  0.539178  0.193837  0.238812  1
  F  F25  1  0.490303  0.776014  0.265139  1
  F  F26  1  0.223907  0.509609  0.235067  1
  F  F27  1  0.716310  0.022015  0.994719  1
  F  F28  1  0.128048  0.119447  0.273438  1
  F  F29  1  0.022317  0.716225  0.494456  1
