# generated using pymatgen
data_ZnCoSi3Pb4SO15
_symmetry_space_group_name_H-M   'P 1'
_cell_length_a   5.33115400
_cell_length_b   11.50292307
_cell_length_c   12.80522800
_cell_angle_alpha   72.00341843
_cell_angle_beta   90.00000000
_cell_angle_gamma   90.00000000
_symmetry_Int_Tables_number   1
_chemical_formula_structural   ZnCoSi3Pb4SO15
_chemical_formula_sum   'Zn2 Co2 Si6 Pb8 S2 O30'
_cell_volume   746.84676252
_cell_formula_units_Z   2
loop_
 _symmetry_equiv_pos_site_id
 _symmetry_equiv_pos_as_xyz
  1  'x, y, z'
loop_
 _atom_site_type_symbol
 _atom_site_label
 _atom_site_symmetry_multiplicity
 _atom_site_fract_x
 _atom_site_fract_y
 _atom_site_fract_z
 _atom_site_occupancy
  Zn  Zn0  1  0.489986  0.078877  0.354253  1
  Zn  Zn1  1  0.518420  0.360701  0.613079  1
  Co  Co2  1  0.017509  0.638976  0.388043  1
  Co  Co3  1  0.987576  0.921270  0.645282  1
  Si  Si4  1  0.441061  0.361228  0.183787  1
  Si  Si5  1  0.978787  0.922874  0.375518  1
  Si  Si6  1  0.479614  0.077395  0.624564  1
  Si  Si7  1  0.940906  0.638618  0.816234  1
  Si  Si8  1  0.017404  0.485372  0.655656  1
  Si  Si9  1  0.517864  0.514558  0.344187  1
  Pb  Pb10  1  0.615595  0.731914  0.563200  1
  Pb  Pb11  1  0.115703  0.267894  0.436929  1
  Pb  Pb12  1  0.453636  0.456724  0.886934  1
  Pb  Pb13  1  0.979819  0.184606  0.128309  1
  Pb  Pb14  1  0.953676  0.543339  0.113086  1
  Pb  Pb15  1  0.496461  0.846873  0.217631  1
  Pb  Pb16  1  0.996625  0.152802  0.782571  1
  Pb  Pb17  1  0.479777  0.815604  0.871338  1
  S  S18  1  0.508766  0.147255  0.967305  1
  S  S19  1  0.008732  0.852735  0.032726  1
  O  O20  1  0.769031  0.783188  0.069518  1
  O  O21  1  0.365800  0.193192  0.661324  1
  O  O22  1  0.329883  0.949740  0.689924  1
  O  O23  1  0.736686  0.345756  0.159902  1
  O  O24  1  0.932282  0.599861  0.547359  1
  O  O25  1  0.865828  0.807092  0.338635  1
  O  O26  1  0.223688  0.763618  0.070422  1
  O  O27  1  0.907536  0.522593  0.763872  1
  O  O28  1  0.411186  0.113080  0.492392  1
  O  O29  1  0.378111  0.641904  0.345423  1
  O  O30  1  0.314412  0.238884  0.272749  1
  O  O31  1  0.236610  0.654173  0.840087  1
  O  O32  1  0.281477  0.937374  0.350871  1
  O  O33  1  0.531993  0.047130  0.918990  1
  O  O34  1  0.407360  0.477249  0.236046  1
  O  O35  1  0.782688  0.062856  0.649051  1
  O  O36  1  0.431677  0.400233  0.452453  1
  O  O37  1  0.828923  0.050636  0.310385  1
  O  O38  1  0.515390  0.103289  0.090579  1
  O  O39  1  0.320559  0.471263  0.670080  1
  O  O40  1  0.767030  0.596876  0.927585  1
  O  O41  1  0.723775  0.236408  0.929563  1
  O  O42  1  0.877176  0.358164  0.654010  1
  O  O43  1  0.821181  0.528759  0.329794  1
  O  O44  1  0.267084  0.402948  0.072439  1
  O  O45  1  0.268993  0.216822  0.930477  1
  O  O46  1  0.015379  0.896778  0.909362  1
  O  O47  1  0.031970  0.952935  0.080954  1
  O  O48  1  0.814785  0.760830  0.727205  1
  O  O49  1  0.912185  0.886753  0.507918  1
