# generated using pymatgen
data_K2YbTa5O15
_symmetry_space_group_name_H-M   'P 1'
_cell_length_a   9.26281247
_cell_length_b   9.26281307
_cell_length_c   3.95577200
_cell_angle_alpha   90.00000000
_cell_angle_beta   90.00000000
_cell_angle_gamma   111.17374724
_symmetry_Int_Tables_number   1
_chemical_formula_structural   K2YbTa5O15
_chemical_formula_sum   'K2 Yb1 Ta5 O15'
_cell_volume   316.49068067
_cell_formula_units_Z   1
loop_
 _symmetry_equiv_pos_site_id
 _symmetry_equiv_pos_as_xyz
  1  'x, y, z'
loop_
 _atom_site_type_symbol
 _atom_site_label
 _atom_site_symmetry_multiplicity
 _atom_site_fract_x
 _atom_site_fract_y
 _atom_site_fract_z
 _atom_site_occupancy
  K  K0  1  0.298381  0.701619  0.000000  1
  K  K1  1  0.701619  0.298381  0.000000  1
  Yb  Yb2  1  0.000000  0.000000  0.000000  1
  Ta  Ta3  1  0.316724  0.060421  0.500000  1
  Ta  Ta4  1  0.060421  0.316724  0.500000  1
  Ta  Ta5  1  0.683276  0.939579  0.500000  1
  Ta  Ta6  1  0.939579  0.683276  0.500000  1
  Ta  Ta7  1  0.500000  0.500000  0.500000  1
  O  O8  1  0.133547  0.133547  0.500000  1
  O  O9  1  0.160491  0.839509  0.500000  1
  O  O10  1  0.273961  0.458285  0.500000  1
  O  O11  1  0.839509  0.160491  0.500000  1
  O  O12  1  0.866453  0.866453  0.500000  1
  O  O13  1  0.287522  0.043558  0.000000  1
  O  O14  1  0.712478  0.956442  0.000000  1
  O  O15  1  0.541715  0.726039  0.500000  1
  O  O16  1  0.043558  0.287522  0.000000  1
  O  O17  1  0.500000  0.000000  0.500000  1
  O  O18  1  0.458285  0.273961  0.500000  1
  O  O19  1  0.956442  0.712478  0.000000  1
  O  O20  1  0.500000  0.500000  0.000000  1
  O  O21  1  0.726039  0.541715  0.500000  1
  O  O22  1  0.000000  0.500000  0.500000  1
