# generated using pymatgen
data_CeHo(SiPd)2
_symmetry_space_group_name_H-M   'P 1'
_cell_length_a   5.72417100
_cell_length_b   7.82472056
_cell_length_c   10.72207385
_cell_angle_alpha   88.47237734
_cell_angle_beta   90.00000000
_cell_angle_gamma   90.00000000
_symmetry_Int_Tables_number   1
_chemical_formula_structural   CeHo(SiPd)2
_chemical_formula_sum   'Ce4 Ho4 Si8 Pd8'
_cell_volume   480.07141715
_cell_formula_units_Z   4
loop_
 _symmetry_equiv_pos_site_id
 _symmetry_equiv_pos_as_xyz
  1  'x, y, z'
loop_
 _atom_site_type_symbol
 _atom_site_label
 _atom_site_symmetry_multiplicity
 _atom_site_fract_x
 _atom_site_fract_y
 _atom_site_fract_z
 _atom_site_occupancy
  Ce  Ce0  1  0.869822  0.823839  0.367737  1
  Ce  Ce1  1  0.130178  0.176161  0.632263  1
  Ce  Ce2  1  0.369822  0.676161  0.632263  1
  Ce  Ce3  1  0.630178  0.323839  0.367737  1
  Ho  Ho4  1  0.363498  0.963491  0.142815  1
  Ho  Ho5  1  0.636502  0.036509  0.857185  1
  Ho  Ho6  1  0.863498  0.536509  0.857185  1
  Ho  Ho7  1  0.136502  0.463491  0.142815  1
  Si  Si8  1  0.863645  0.535635  0.575783  1
  Si  Si9  1  0.136355  0.464365  0.424217  1
  Si  Si10  1  0.363645  0.964365  0.424217  1
  Si  Si11  1  0.636355  0.035635  0.575783  1
  Si  Si12  1  0.649892  0.617800  0.147467  1
  Si  Si13  1  0.350108  0.382200  0.852533  1
  Si  Si14  1  0.149892  0.882200  0.852533  1
  Si  Si15  1  0.850108  0.117800  0.147467  1
  Pd  Pd16  1  0.903604  0.831668  0.048908  1
  Pd  Pd17  1  0.096396  0.168332  0.951092  1
  Pd  Pd18  1  0.403604  0.668332  0.951092  1
  Pd  Pd19  1  0.596396  0.331668  0.048908  1
  Pd  Pd20  1  0.891398  0.819637  0.671739  1
  Pd  Pd21  1  0.108602  0.180363  0.328261  1
  Pd  Pd22  1  0.391398  0.680363  0.328261  1
  Pd  Pd23  1  0.608602  0.319637  0.671739  1
