# generated using pymatgen
data_Lu14Sc6HgBi11
_symmetry_space_group_name_H-M   'P 1'
_cell_length_a   7.96600651
_cell_length_b   9.24524629
_cell_length_c   11.69274104
_cell_angle_alpha   89.86141179
_cell_angle_beta   89.73512181
_cell_angle_gamma   89.91493128
_symmetry_Int_Tables_number   1
_chemical_formula_structural   Lu14Sc6HgBi11
_chemical_formula_sum   'Lu14 Sc6 Hg1 Bi11'
_cell_volume   861.13073558
_cell_formula_units_Z   1
loop_
 _symmetry_equiv_pos_site_id
 _symmetry_equiv_pos_as_xyz
  1  'x, y, z'
loop_
 _atom_site_type_symbol
 _atom_site_label
 _atom_site_symmetry_multiplicity
 _atom_site_fract_x
 _atom_site_fract_y
 _atom_site_fract_z
 _atom_site_occupancy
  Lu  Lu0  1  0.351806  0.248812  0.289139  1
  Lu  Lu1  1  0.651084  0.752066  0.719545  1
  Lu  Lu2  1  0.149065  0.748725  0.783546  1
  Lu  Lu3  1  0.852290  0.250772  0.214156  1
  Lu  Lu4  1  0.191845  0.250681  0.778194  1
  Lu  Lu5  1  0.810220  0.750000  0.216268  1
  Lu  Lu6  1  0.313977  0.751402  0.281307  1
  Lu  Lu7  1  0.678202  0.248546  0.713632  1
  Lu  Lu8  1  0.305028  0.943934  0.559259  1
  Lu  Lu9  1  0.808230  0.566526  0.942590  1
  Lu  Lu10  1  0.691024  0.071050  0.443745  1
  Lu  Lu11  1  0.191651  0.433267  0.058832  1
  Lu  Lu12  1  0.690028  0.428260  0.443824  1
  Lu  Lu13  1  0.305506  0.556251  0.558867  1
  Sc  Sc14  1  0.032027  0.250043  0.509744  1
  Sc  Sc15  1  0.981282  0.749590  0.488185  1
  Sc  Sc16  1  0.480437  0.752219  0.011018  1
  Sc  Sc17  1  0.520459  0.248004  0.990312  1
  Sc  Sc18  1  0.193912  0.069788  0.059737  1
  Sc  Sc19  1  0.805228  0.930233  0.942037  1
  Hg  Hg20  1  0.401082  0.249770  0.541889  1
  Bi  Bi21  1  0.600493  0.749678  0.457794  1
  Bi  Bi22  1  0.100909  0.758417  0.042872  1
  Bi  Bi23  1  0.900587  0.241565  0.953702  1
  Bi  Bi24  1  0.061460  0.003260  0.325169  1
  Bi  Bi25  1  0.936216  0.996338  0.673436  1
  Bi  Bi26  1  0.436851  0.996311  0.831621  1
  Bi  Bi27  1  0.935540  0.502781  0.672151  1
  Bi  Bi28  1  0.561889  0.004330  0.169911  1
  Bi  Bi29  1  0.061587  0.497873  0.326314  1
  Bi  Bi30  1  0.562357  0.495640  0.171000  1
  Bi  Bi31  1  0.437726  0.503867  0.830206  1
