# generated using pymatgen
data_Sm3TmSe3O4
_symmetry_space_group_name_H-M   'P 1'
_cell_length_a   6.66526137
_cell_length_b   6.66526058
_cell_length_c   8.35443900
_cell_angle_alpha   90.00000000
_cell_angle_beta   90.00000000
_cell_angle_gamma   145.71603700
_symmetry_Int_Tables_number   1
_chemical_formula_structural   Sm3TmSe3O4
_chemical_formula_sum   'Sm3 Tm1 Se3 O4'
_cell_volume   209.06789887
_cell_formula_units_Z   1
loop_
 _symmetry_equiv_pos_site_id
 _symmetry_equiv_pos_as_xyz
  1  'x, y, z'
loop_
 _atom_site_type_symbol
 _atom_site_label
 _atom_site_symmetry_multiplicity
 _atom_site_fract_x
 _atom_site_fract_y
 _atom_site_fract_z
 _atom_site_occupancy
  Sm  Sm0  1  0.318136  0.681864  0.239960  1
  Sm  Sm1  1  0.318136  0.681864  0.760040  1
  Sm  Sm2  1  0.999884  0.000116  0.000000  1
  Tm  Tm3  1  0.978473  0.021527  0.500000  1
  Se  Se4  1  0.687202  0.312798  0.000000  1
  Se  Se5  1  0.642158  0.357842  0.650478  1
  Se  Se6  1  0.642158  0.357842  0.349522  1
  O  O7  1  0.389613  0.610387  0.500000  1
  O  O8  1  0.915122  0.084878  0.749050  1
  O  O9  1  0.411426  0.588574  0.000000  1
  O  O10  1  0.915122  0.084878  0.250950  1
