# generated using pymatgen
data_CeTm7(Si4Mo3)4
_symmetry_space_group_name_H-M   'P 1'
_cell_length_a   6.72599301
_cell_length_b   6.90893346
_cell_length_c   12.87703890
_cell_angle_alpha   90.04926437
_cell_angle_beta   90.00929099
_cell_angle_gamma   89.98903192
_symmetry_Int_Tables_number   1
_chemical_formula_structural   CeTm7(Si4Mo3)4
_chemical_formula_sum   'Ce1 Tm7 Si16 Mo12'
_cell_volume   598.38852350
_cell_formula_units_Z   1
loop_
 _symmetry_equiv_pos_site_id
 _symmetry_equiv_pos_as_xyz
  1  'x, y, z'
loop_
 _atom_site_type_symbol
 _atom_site_label
 _atom_site_symmetry_multiplicity
 _atom_site_fract_x
 _atom_site_fract_y
 _atom_site_fract_z
 _atom_site_occupancy
  Ce  Ce0  1  0.998527  0.167658  0.093995  1
  Tm  Tm1  1  0.496279  0.332444  0.093498  1
  Tm  Tm2  1  0.996489  0.167206  0.406717  1
  Tm  Tm3  1  0.503092  0.667465  0.593937  1
  Tm  Tm4  1  0.003866  0.833689  0.905225  1
  Tm  Tm5  1  0.503269  0.667447  0.904915  1
  Tm  Tm6  1  0.002870  0.832354  0.594018  1
  Tm  Tm7  1  0.496944  0.332610  0.407658  1
  Si  Si8  1  0.659610  0.040707  0.546801  1
  Si  Si9  1  0.161286  0.461093  0.952313  1
  Si  Si10  1  0.343504  0.955767  0.045710  1
  Si  Si11  1  0.840571  0.540447  0.453412  1
  Si  Si12  1  0.340072  0.959073  0.453622  1
  Si  Si13  1  0.837959  0.545721  0.045422  1
  Si  Si14  1  0.658640  0.040867  0.951761  1
  Si  Si15  1  0.160067  0.458949  0.546980  1
  Si  Si16  1  0.534392  0.367545  0.749316  1
  Si  Si17  1  0.034973  0.133021  0.749540  1
  Si  Si18  1  0.465571  0.632267  0.250141  1
  Si  Si19  1  0.964547  0.864685  0.251708  1
  Si  Si20  1  0.801988  0.632326  0.749518  1
  Si  Si21  1  0.302538  0.868292  0.749445  1
  Si  Si22  1  0.200189  0.370929  0.252250  1
  Si  Si23  1  0.694118  0.130618  0.251959  1
  Mo  Mo24  1  0.831133  0.335201  0.624313  1
  Mo  Mo25  1  0.331558  0.164664  0.874532  1
  Mo  Mo26  1  0.169199  0.663479  0.125363  1
  Mo  Mo27  1  0.668489  0.833462  0.376260  1
  Mo  Mo28  1  0.169495  0.665184  0.376149  1
  Mo  Mo29  1  0.668789  0.835426  0.125839  1
  Mo  Mo30  1  0.830541  0.335592  0.874758  1
  Mo  Mo31  1  0.330277  0.165025  0.624290  1
  Mo  Mo32  1  0.666424  0.997698  0.749278  1
  Mo  Mo33  1  0.165651  0.503564  0.750074  1
  Mo  Mo34  1  0.333196  0.002090  0.249892  1
  Mo  Mo35  1  0.833887  0.495439  0.249392  1
