# generated using pymatgen
data_YEr2B7W
_symmetry_space_group_name_H-M   'P 1'
_cell_length_a   8.11925804
_cell_length_b   8.11925717
_cell_length_c   9.48223900
_cell_angle_alpha   90.00000000
_cell_angle_beta   90.00000000
_cell_angle_gamma   155.52031507
_symmetry_Int_Tables_number   1
_chemical_formula_structural   YEr2B7W
_chemical_formula_sum   'Y2 Er4 B14 W2'
_cell_volume   259.01949249
_cell_formula_units_Z   2
loop_
 _symmetry_equiv_pos_site_id
 _symmetry_equiv_pos_as_xyz
  1  'x, y, z'
loop_
 _atom_site_type_symbol
 _atom_site_label
 _atom_site_symmetry_multiplicity
 _atom_site_fract_x
 _atom_site_fract_y
 _atom_site_fract_z
 _atom_site_occupancy
  Y  Y0  1  0.753913  0.246087  0.250000  1
  Y  Y1  1  0.246087  0.753913  0.750000  1
  Er  Er2  1  0.892936  0.107064  0.940378  1
  Er  Er3  1  0.107064  0.892936  0.059622  1
  Er  Er4  1  0.892936  0.107064  0.559622  1
  Er  Er5  1  0.107064  0.892936  0.440378  1
  B  B6  1  0.545982  0.454018  0.250000  1
  B  B7  1  0.454018  0.545982  0.750000  1
  B  B8  1  0.519392  0.480608  0.908738  1
  B  B9  1  0.480608  0.519392  0.091262  1
  B  B10  1  0.480608  0.519392  0.408738  1
  B  B11  1  0.519392  0.480608  0.591262  1
  B  B12  1  0.634997  0.365003  0.853739  1
  B  B13  1  0.365003  0.634997  0.146261  1
  B  B14  1  0.727608  0.272392  0.967451  1
  B  B15  1  0.272392  0.727608  0.032549  1
  B  B16  1  0.272392  0.727608  0.467451  1
  B  B17  1  0.727608  0.272392  0.532549  1
  B  B18  1  0.634997  0.365003  0.646261  1
  B  B19  1  0.365003  0.634997  0.353739  1
  W  W20  1  0.052974  0.947026  0.750000  1
  W  W21  1  0.947026  0.052974  0.250000  1
