# generated using pymatgen
data_Np2GaRu3
_symmetry_space_group_name_H-M   'P 1'
_cell_length_a   5.59942176
_cell_length_b   5.01946372
_cell_length_c   5.59942100
_cell_angle_alpha   56.09823062
_cell_angle_beta   60.00001040
_cell_angle_gamma   56.09823849
_symmetry_Int_Tables_number   1
_chemical_formula_structural   Np2GaRu3
_chemical_formula_sum   'Np2 Ga1 Ru3'
_cell_volume   104.26112749
_cell_formula_units_Z   1
loop_
 _symmetry_equiv_pos_site_id
 _symmetry_equiv_pos_as_xyz
  1  'x, y, z'
loop_
 _atom_site_type_symbol
 _atom_site_label
 _atom_site_symmetry_multiplicity
 _atom_site_fract_x
 _atom_site_fract_y
 _atom_site_fract_z
 _atom_site_occupancy
  Np  Np0  1  0.253286  0.240143  0.253286  1
  Np  Np1  1  0.996714  0.009857  0.996714  1
  Ga  Ga2  1  0.625000  0.125000  0.625000  1
  Ru  Ru3  1  0.125000  0.625000  0.625000  1
  Ru  Ru4  1  0.625000  0.625000  0.125000  1
  Ru  Ru5  1  0.625000  0.625000  0.625000  1
