# generated using pymatgen
data_Dy4Sc4Re(TcB8)3
_symmetry_space_group_name_H-M   'P 1'
_cell_length_a   3.58555400
_cell_length_b   9.00482446
_cell_length_c   11.38464552
_cell_angle_alpha   90.01527051
_cell_angle_beta   90.00000000
_cell_angle_gamma   90.00000000
_symmetry_Int_Tables_number   1
_chemical_formula_structural   Dy4Sc4Re(TcB8)3
_chemical_formula_sum   'Dy4 Sc4 Re1 Tc3 B24'
_cell_volume   367.57927429
_cell_formula_units_Z   1
loop_
 _symmetry_equiv_pos_site_id
 _symmetry_equiv_pos_as_xyz
  1  'x, y, z'
loop_
 _atom_site_type_symbol
 _atom_site_label
 _atom_site_symmetry_multiplicity
 _atom_site_fract_x
 _atom_site_fract_y
 _atom_site_fract_z
 _atom_site_occupancy
  Dy  Dy0  1  0.000000  0.322018  0.414498  1
  Dy  Dy1  1  0.000000  0.677828  0.585281  1
  Dy  Dy2  1  0.000000  0.822048  0.085924  1
  Dy  Dy3  1  0.000000  0.178486  0.914645  1
  Sc  Sc4  1  0.000000  0.943790  0.369378  1
  Sc  Sc5  1  0.000000  0.056731  0.629838  1
  Sc  Sc6  1  0.000000  0.443576  0.130777  1
  Sc  Sc7  1  0.000000  0.555638  0.869715  1
  Re  Re8  1  0.000000  0.859538  0.818134  1
  Tc  Tc9  1  0.000000  0.640674  0.318089  1
  Tc  Tc10  1  0.000000  0.359344  0.681849  1
  Tc  Tc11  1  0.000000  0.140587  0.181926  1
  B  B12  1  0.500000  0.554475  0.432405  1
  B  B13  1  0.500000  0.445559  0.567564  1
  B  B14  1  0.500000  0.054596  0.067745  1
  B  B15  1  0.500000  0.945802  0.932695  1
  B  B16  1  0.500000  0.754383  0.418076  1
  B  B17  1  0.500000  0.245841  0.581843  1
  B  B18  1  0.500000  0.254319  0.081967  1
  B  B19  1  0.500000  0.745188  0.918465  1
  B  B20  1  0.500000  0.794928  0.264600  1
  B  B21  1  0.500000  0.205290  0.735192  1
  B  B22  1  0.500000  0.294801  0.235453  1
  B  B23  1  0.500000  0.704642  0.764548  1
  B  B24  1  0.500000  0.628843  0.182911  1
  B  B25  1  0.500000  0.371007  0.817076  1
  B  B26  1  0.500000  0.128976  0.317110  1
  B  B27  1  0.500000  0.871123  0.682572  1
  B  B28  1  0.500000  0.981492  0.213710  1
  B  B29  1  0.500000  0.019046  0.786156  1
  B  B30  1  0.500000  0.481378  0.286346  1
  B  B31  1  0.500000  0.518336  0.713682  1
  B  B32  1  0.500000  0.595196  0.026158  1
  B  B33  1  0.500000  0.404302  0.974091  1
  B  B34  1  0.500000  0.095576  0.473766  1
  B  B35  1  0.500000  0.904644  0.525813  1
