# generated using pymatgen
data_Dy7Ho5Rh4
_symmetry_space_group_name_H-M   'P 1'
_cell_length_a   6.27217342
_cell_length_b   7.16785818
_cell_length_c   9.46111768
_cell_angle_alpha   89.98078167
_cell_angle_beta   89.96118730
_cell_angle_gamma   89.98310592
_symmetry_Int_Tables_number   1
_chemical_formula_structural   Dy7Ho5Rh4
_chemical_formula_sum   'Dy7 Ho5 Rh4'
_cell_volume   425.35325778
_cell_formula_units_Z   1
loop_
 _symmetry_equiv_pos_site_id
 _symmetry_equiv_pos_as_xyz
  1  'x, y, z'
loop_
 _atom_site_type_symbol
 _atom_site_label
 _atom_site_symmetry_multiplicity
 _atom_site_fract_x
 _atom_site_fract_y
 _atom_site_fract_z
 _atom_site_occupancy
  Dy  Dy0  1  0.829487  0.822376  0.563003  1
  Dy  Dy1  1  0.329527  0.677596  0.436936  1
  Dy  Dy2  1  0.170627  0.177740  0.062851  1
  Dy  Dy3  1  0.866022  0.532840  0.249760  1
  Dy  Dy4  1  0.633984  0.032977  0.249900  1
  Dy  Dy5  1  0.133752  0.466920  0.750101  1
  Dy  Dy6  1  0.366362  0.967302  0.750173  1
  Ho  Ho7  1  0.329531  0.677606  0.062968  1
  Ho  Ho8  1  0.170506  0.177783  0.436879  1
  Ho  Ho9  1  0.670570  0.322232  0.563350  1
  Ho  Ho10  1  0.829412  0.822265  0.936941  1
  Ho  Ho11  1  0.670566  0.322456  0.936650  1
  Rh  Rh12  1  0.060384  0.881725  0.249737  1
  Rh  Rh13  1  0.439857  0.381746  0.249912  1
  Rh  Rh14  1  0.939082  0.118627  0.750049  1
  Rh  Rh15  1  0.560331  0.617810  0.750789  1
