# generated using pymatgen
data_Nd6Cd22AsPd
_symmetry_space_group_name_H-M   'P 1'
_cell_length_a   10.03873711
_cell_length_b   10.08201008
_cell_length_c   10.03873573
_cell_angle_alpha   59.85730258
_cell_angle_beta   59.62539867
_cell_angle_gamma   59.85730482
_symmetry_Int_Tables_number   1
_chemical_formula_structural   Nd6Cd22AsPd
_chemical_formula_sum   'Nd6 Cd22 As1 Pd1'
_cell_volume   714.84326876
_cell_formula_units_Z   1
loop_
 _symmetry_equiv_pos_site_id
 _symmetry_equiv_pos_as_xyz
  1  'x, y, z'
loop_
 _atom_site_type_symbol
 _atom_site_label
 _atom_site_symmetry_multiplicity
 _atom_site_fract_x
 _atom_site_fract_y
 _atom_site_fract_z
 _atom_site_occupancy
  Nd  Nd0  1  0.793318  0.790674  0.206682  1
  Nd  Nd1  1  0.209359  0.790641  0.209359  1
  Nd  Nd2  1  0.793318  0.209326  0.206682  1
  Nd  Nd3  1  0.206682  0.209326  0.793318  1
  Nd  Nd4  1  0.790641  0.209359  0.790641  1
  Nd  Nd5  1  0.206682  0.790674  0.793318  1
  Cd  Cd6  1  0.834916  0.833677  0.497732  1
  Cd  Cd7  1  0.838234  0.497723  0.838234  1
  Cd  Cd8  1  0.497732  0.833677  0.834916  1
  Cd  Cd9  1  0.838234  0.825810  0.838234  1
  Cd  Cd10  1  0.165084  0.166323  0.502268  1
  Cd  Cd11  1  0.161766  0.502277  0.161766  1
  Cd  Cd12  1  0.502268  0.166323  0.165084  1
  Cd  Cd13  1  0.161766  0.174190  0.161766  1
  Cd  Cd14  1  0.635458  0.616755  0.131031  1
  Cd  Cd15  1  0.622355  0.135012  0.622355  1
  Cd  Cd16  1  0.131031  0.616755  0.635458  1
  Cd  Cd17  1  0.622355  0.620278  0.622355  1
  Cd  Cd18  1  0.364542  0.383245  0.868969  1
  Cd  Cd19  1  0.377645  0.864988  0.377645  1
  Cd  Cd20  1  0.868969  0.383245  0.364542  1
  Cd  Cd21  1  0.377645  0.379722  0.377645  1
  Cd  Cd22  1  0.000000  0.000000  0.500000  1
  Cd  Cd23  1  0.500000  0.000000  0.500000  1
  Cd  Cd24  1  0.000000  0.500000  0.500000  1
  Cd  Cd25  1  0.500000  0.500000  0.000000  1
  Cd  Cd26  1  0.500000  0.000000  0.000000  1
  Cd  Cd27  1  0.500000  0.500000  0.500000  1
  As  As28  1  0.000000  0.000000  0.000000  1
  Pd  Pd29  1  0.000000  0.500000  0.000000  1
