# generated using pymatgen
data_CaTb(AlPd)2
_symmetry_space_group_name_H-M   'P 1'
_cell_length_a   4.35689800
_cell_length_b   7.10897993
_cell_length_c   7.89510093
_cell_angle_alpha   89.68231831
_cell_angle_beta   90.00000000
_cell_angle_gamma   90.00000000
_symmetry_Int_Tables_number   1
_chemical_formula_structural   CaTb(AlPd)2
_chemical_formula_sum   'Ca2 Tb2 Al4 Pd4'
_cell_volume   244.53199502
_cell_formula_units_Z   2
loop_
 _symmetry_equiv_pos_site_id
 _symmetry_equiv_pos_as_xyz
  1  'x, y, z'
loop_
 _atom_site_type_symbol
 _atom_site_label
 _atom_site_symmetry_multiplicity
 _atom_site_fract_x
 _atom_site_fract_y
 _atom_site_fract_z
 _atom_site_occupancy
  Ca  Ca0  1  0.250000  0.529413  0.821003  1
  Ca  Ca1  1  0.750000  0.470587  0.178997  1
  Tb  Tb2  1  0.250000  0.032492  0.679568  1
  Tb  Tb3  1  0.750000  0.967508  0.320432  1
  Al  Al4  1  0.250000  0.639495  0.438152  1
  Al  Al5  1  0.750000  0.360505  0.561848  1
  Al  Al6  1  0.250000  0.142563  0.064152  1
  Al  Al7  1  0.750000  0.857437  0.935848  1
  Pd  Pd8  1  0.750000  0.728029  0.617710  1
  Pd  Pd9  1  0.250000  0.271971  0.382290  1
  Pd  Pd10  1  0.750000  0.215955  0.879094  1
  Pd  Pd11  1  0.250000  0.784045  0.120906  1
