# generated using pymatgen
data_CsSrLa(H6Ir)2
_symmetry_space_group_name_H-M   'P 1'
_cell_length_a   5.38565000
_cell_length_b   5.38564975
_cell_length_c   9.52489800
_cell_angle_alpha   90.00000000
_cell_angle_beta   90.00000000
_cell_angle_gamma   119.99998928
_symmetry_Int_Tables_number   1
_chemical_formula_structural   CsSrLa(H6Ir)2
_chemical_formula_sum   'Cs1 Sr1 La1 H12 Ir2'
_cell_volume   239.25842764
_cell_formula_units_Z   1
loop_
 _symmetry_equiv_pos_site_id
 _symmetry_equiv_pos_as_xyz
  1  'x, y, z'
loop_
 _atom_site_type_symbol
 _atom_site_label
 _atom_site_symmetry_multiplicity
 _atom_site_fract_x
 _atom_site_fract_y
 _atom_site_fract_z
 _atom_site_occupancy
  Cs  Cs0  1  0.000000  0.000000  0.010285  1
  Sr  Sr1  1  0.666667  0.333333  0.360365  1
  La  La2  1  0.333333  0.666667  0.622208  1
  H  H3  1  0.181249  0.818751  0.394934  1
  H  H4  1  0.637502  0.818751  0.394934  1
  H  H5  1  0.181249  0.362498  0.394934  1
  H  H6  1  0.819376  0.180624  0.609102  1
  H  H7  1  0.361247  0.180624  0.609102  1
  H  H8  1  0.819376  0.638753  0.609102  1
  H  H9  1  0.525263  0.050524  0.813847  1
  H  H10  1  0.525263  0.474737  0.813847  1
  H  H11  1  0.949476  0.474737  0.813847  1
  H  H12  1  0.469795  0.939590  0.183687  1
  H  H13  1  0.469795  0.530205  0.183687  1
  H  H14  1  0.060410  0.530205  0.183687  1
  Ir  Ir15  1  0.666667  0.333333  0.705831  1
  Ir  Ir16  1  0.333333  0.666667  0.296604  1
