# generated using pymatgen
data_Ho2AlZnRh2
_symmetry_space_group_name_H-M   'P 1'
_cell_length_a   4.06937800
_cell_length_b   6.94334005
_cell_length_c   8.08488469
_cell_angle_alpha   90.18566787
_cell_angle_beta   90.00000000
_cell_angle_gamma   90.00000000
_symmetry_Int_Tables_number   1
_chemical_formula_structural   Ho2AlZnRh2
_chemical_formula_sum   'Ho4 Al2 Zn2 Rh4'
_cell_volume   228.43782578
_cell_formula_units_Z   2
loop_
 _symmetry_equiv_pos_site_id
 _symmetry_equiv_pos_as_xyz
  1  'x, y, z'
loop_
 _atom_site_type_symbol
 _atom_site_label
 _atom_site_symmetry_multiplicity
 _atom_site_fract_x
 _atom_site_fract_y
 _atom_site_fract_z
 _atom_site_occupancy
  Ho  Ho0  1  0.250000  0.540324  0.185616  1
  Ho  Ho1  1  0.750000  0.459676  0.814384  1
  Ho  Ho2  1  0.250000  0.039890  0.321658  1
  Ho  Ho3  1  0.750000  0.960110  0.678342  1
  Al  Al4  1  0.250000  0.136279  0.939110  1
  Al  Al5  1  0.750000  0.863721  0.060890  1
  Zn  Zn6  1  0.250000  0.636157  0.563031  1
  Zn  Zn7  1  0.750000  0.363843  0.436969  1
  Rh  Rh8  1  0.750000  0.747790  0.369781  1
  Rh  Rh9  1  0.250000  0.252210  0.630219  1
  Rh  Rh10  1  0.750000  0.235632  0.113501  1
  Rh  Rh11  1  0.250000  0.764368  0.886499  1
