# generated using pymatgen
data_Ho8Si11GePt4
_symmetry_space_group_name_H-M   'P 1'
_cell_length_a   8.19989123
_cell_length_b   8.19989152
_cell_length_c   7.89156447
_cell_angle_alpha   89.96566023
_cell_angle_beta   90.03434444
_cell_angle_gamma   120.05244052
_symmetry_Int_Tables_number   1
_chemical_formula_structural   Ho8Si11GePt4
_chemical_formula_sum   'Ho8 Si11 Ge1 Pt4'
_cell_volume   459.28271398
_cell_formula_units_Z   1
loop_
 _symmetry_equiv_pos_site_id
 _symmetry_equiv_pos_as_xyz
  1  'x, y, z'
loop_
 _atom_site_type_symbol
 _atom_site_label
 _atom_site_symmetry_multiplicity
 _atom_site_fract_x
 _atom_site_fract_y
 _atom_site_fract_z
 _atom_site_occupancy
  Ho  Ho0  1  0.999288  0.000712  0.248854  1
  Ho  Ho1  1  0.999021  0.000979  0.751136  1
  Ho  Ho2  1  0.510203  0.489797  0.249301  1
  Ho  Ho3  1  0.510928  0.020760  0.249425  1
  Ho  Ho4  1  0.979240  0.489072  0.249425  1
  Ho  Ho5  1  0.489737  0.510263  0.750471  1
  Ho  Ho6  1  0.491150  0.979935  0.750596  1
  Ho  Ho7  1  0.020065  0.508850  0.750596  1
  Si  Si8  1  0.164163  0.329660  0.499111  1
  Si  Si9  1  0.670340  0.835837  0.499111  1
  Si  Si10  1  0.834832  0.165168  0.501165  1
  Si  Si11  1  0.828332  0.666379  0.500792  1
  Si  Si12  1  0.333621  0.171668  0.500792  1
  Si  Si13  1  0.834682  0.165318  0.998965  1
  Si  Si14  1  0.834985  0.669700  0.998918  1
  Si  Si15  1  0.330300  0.165015  0.998918  1
  Si  Si16  1  0.165196  0.834804  0.001102  1
  Si  Si17  1  0.165380  0.330526  0.001026  1
  Si  Si18  1  0.669474  0.834620  0.001026  1
  Ge  Ge19  1  0.164179  0.835821  0.500111  1
  Pt  Pt20  1  0.337739  0.662261  0.463251  1
  Pt  Pt21  1  0.667336  0.332664  0.535843  1
  Pt  Pt22  1  0.666757  0.333243  0.964614  1
  Pt  Pt23  1  0.333053  0.666947  0.035450  1
