# generated using pymatgen
data_Nb4Co2Si3Ni2Ge
_symmetry_space_group_name_H-M   'P 1'
_cell_length_a   3.69474800
_cell_length_b   6.28392941
_cell_length_c   7.14215654
_cell_angle_alpha   89.90821470
_cell_angle_beta   90.00000000
_cell_angle_gamma   90.00000000
_symmetry_Int_Tables_number   1
_chemical_formula_structural   Nb4Co2Si3Ni2Ge
_chemical_formula_sum   'Nb4 Co2 Si3 Ni2 Ge1'
_cell_volume   165.82306095
_cell_formula_units_Z   1
loop_
 _symmetry_equiv_pos_site_id
 _symmetry_equiv_pos_as_xyz
  1  'x, y, z'
loop_
 _atom_site_type_symbol
 _atom_site_label
 _atom_site_symmetry_multiplicity
 _atom_site_fract_x
 _atom_site_fract_y
 _atom_site_fract_z
 _atom_site_occupancy
  Nb  Nb0  1  0.250000  0.022914  0.826926  1
  Nb  Nb1  1  0.250000  0.516957  0.683187  1
  Nb  Nb2  1  0.750000  0.980429  0.171091  1
  Nb  Nb3  1  0.750000  0.475535  0.317988  1
  Co  Co4  1  0.250000  0.637902  0.055299  1
  Co  Co5  1  0.750000  0.358445  0.938162  1
  Si  Si6  1  0.250000  0.277302  0.114935  1
  Si  Si7  1  0.750000  0.223356  0.622819  1
  Si  Si8  1  0.750000  0.722962  0.884018  1
  Ni  Ni9  1  0.250000  0.157714  0.435628  1
  Ni  Ni10  1  0.750000  0.851137  0.572624  1
  Ge  Ge11  1  0.250000  0.775348  0.377325  1
