# generated using pymatgen
data_HoLuFe7Co5P7
_symmetry_space_group_name_H-M   'P 1'
_cell_length_a   8.95288211
_cell_length_b   8.95453270
_cell_length_c   3.59319500
_cell_angle_alpha   90.00000000
_cell_angle_beta   90.00000000
_cell_angle_gamma   120.09612669
_symmetry_Int_Tables_number   1
_chemical_formula_structural   HoLuFe7Co5P7
_chemical_formula_sum   'Ho1 Lu1 Fe7 Co5 P7'
_cell_volume   249.22736289
_cell_formula_units_Z   1
loop_
 _symmetry_equiv_pos_site_id
 _symmetry_equiv_pos_as_xyz
  1  'x, y, z'
loop_
 _atom_site_type_symbol
 _atom_site_label
 _atom_site_symmetry_multiplicity
 _atom_site_fract_x
 _atom_site_fract_y
 _atom_site_fract_z
 _atom_site_occupancy
  Ho  Ho0  1  0.000161  0.000495  0.000000  1
  Lu  Lu1  1  0.332413  0.665679  0.500000  1
  Fe  Fe2  1  0.099838  0.393223  0.000000  1
  Fe  Fe3  1  0.785209  0.178484  0.000000  1
  Fe  Fe4  1  0.393596  0.214413  0.000000  1
  Fe  Fe5  1  0.821797  0.608796  0.000000  1
  Fe  Fe6  1  0.537242  0.100559  0.500000  1
  Fe  Fe7  1  0.564620  0.463081  0.500000  1
  Fe  Fe8  1  0.895319  0.435340  0.500000  1
  Co  Co9  1  0.293700  0.899135  0.000000  1
  Co  Co10  1  0.605660  0.706482  0.000000  1
  Co  Co11  1  0.717904  0.947827  0.500000  1
  Co  Co12  1  0.230665  0.281166  0.500000  1
  Co  Co13  1  0.053423  0.770245  0.500000  1
  P  P14  1  0.552742  0.924671  0.000000  1
  P  P15  1  0.370280  0.446394  0.000000  1
  P  P16  1  0.074567  0.625697  0.000000  1
  P  P17  1  0.956691  0.223522  0.500000  1
  P  P18  1  0.265813  0.045519  0.500000  1
  P  P19  1  0.780556  0.734803  0.500000  1
  P  P20  1  0.667804  0.334467  0.000000  1
