# generated using pymatgen
data_Ta12Al8CuRe(RuC2)2
_symmetry_space_group_name_H-M   'P 1'
_cell_length_a   8.29414653
_cell_length_b   8.29414655
_cell_length_c   8.32951300
_cell_angle_alpha   60.14035587
_cell_angle_beta   60.14035578
_cell_angle_gamma   59.99999324
_symmetry_Int_Tables_number   1
_chemical_formula_structural   Ta12Al8CuRe(RuC2)2
_chemical_formula_sum   'Ta12 Al8 Cu1 Re1 Ru2 C4'
_cell_volume   406.03745259
_cell_formula_units_Z   1
loop_
 _symmetry_equiv_pos_site_id
 _symmetry_equiv_pos_as_xyz
  1  'x, y, z'
loop_
 _atom_site_type_symbol
 _atom_site_label
 _atom_site_symmetry_multiplicity
 _atom_site_fract_x
 _atom_site_fract_y
 _atom_site_fract_z
 _atom_site_occupancy
  Ta  Ta0  1  0.552692  0.941866  0.563298  1
  Ta  Ta1  1  0.308134  0.697308  0.686702  1
  Ta  Ta2  1  0.682595  0.312594  0.314006  1
  Ta  Ta3  1  0.312594  0.682595  0.314006  1
  Ta  Ta4  1  0.688173  0.688173  0.312310  1
  Ta  Ta5  1  0.310561  0.310561  0.681009  1
  Ta  Ta6  1  0.561827  0.561827  0.937690  1
  Ta  Ta7  1  0.941866  0.552692  0.563298  1
  Ta  Ta8  1  0.567405  0.937406  0.935994  1
  Ta  Ta9  1  0.939439  0.939439  0.568991  1
  Ta  Ta10  1  0.697308  0.308134  0.686702  1
  Ta  Ta11  1  0.937406  0.567405  0.935994  1
  Al  Al12  1  0.915205  0.915205  0.922837  1
  Al  Al13  1  0.999700  0.334954  0.327508  1
  Al  Al14  1  0.334954  0.999700  0.327508  1
  Al  Al15  1  0.334963  0.334963  0.994637  1
  Al  Al16  1  0.915046  0.250300  0.922492  1
  Al  Al17  1  0.915037  0.915037  0.255363  1
  Al  Al18  1  0.250300  0.915046  0.922492  1
  Al  Al19  1  0.334795  0.334795  0.327163  1
  Cu  Cu20  1  0.125000  0.125000  0.125000  1
  Re  Re21  1  0.125000  0.125000  0.625000  1
  Ru  Ru22  1  0.625000  0.125000  0.125000  1
  Ru  Ru23  1  0.125000  0.625000  0.125000  1
  C  C24  1  0.625000  0.625000  0.625000  1
  C  C25  1  0.125000  0.625000  0.625000  1
  C  C26  1  0.625000  0.125000  0.625000  1
  C  C27  1  0.625000  0.625000  0.125000  1
