# generated using pymatgen
data_Tb8Ta9Ti2Si16Ir
_symmetry_space_group_name_H-M   'P 1'
_cell_length_a   7.05174974
_cell_length_b   7.04895032
_cell_length_c   12.97292580
_cell_angle_alpha   90.16841573
_cell_angle_beta   89.85108492
_cell_angle_gamma   89.75103677
_symmetry_Int_Tables_number   1
_chemical_formula_structural   Tb8Ta9Ti2Si16Ir
_chemical_formula_sum   'Tb8 Ta9 Ti2 Si16 Ir1'
_cell_volume   644.83977457
_cell_formula_units_Z   1
loop_
 _symmetry_equiv_pos_site_id
 _symmetry_equiv_pos_as_xyz
  1  'x, y, z'
loop_
 _atom_site_type_symbol
 _atom_site_label
 _atom_site_symmetry_multiplicity
 _atom_site_fract_x
 _atom_site_fract_y
 _atom_site_fract_z
 _atom_site_occupancy
  Tb  Tb0  1  0.341004  0.002795  0.468157  1
  Tb  Tb1  1  0.495948  0.841779  0.719739  1
  Tb  Tb2  1  0.501391  0.158229  0.216530  1
  Tb  Tb3  1  0.841448  0.495624  0.280752  1
  Tb  Tb4  1  0.158993  0.501977  0.783908  1
  Tb  Tb5  1  0.657409  0.997779  0.968905  1
  Tb  Tb6  1  0.003993  0.340207  0.531583  1
  Tb  Tb7  1  0.997257  0.659988  0.031309  1
  Ta  Ta8  1  0.174350  0.827218  0.247602  1
  Ta  Ta9  1  0.827921  0.175419  0.752546  1
  Ta  Ta10  1  0.670104  0.669719  0.499236  1
  Ta  Ta11  1  0.148463  0.003205  0.874967  1
  Ta  Ta12  1  0.495084  0.657899  0.124158  1
  Ta  Ta13  1  0.504645  0.347692  0.625914  1
  Ta  Ta14  1  0.658930  0.494457  0.876109  1
  Ta  Ta15  1  0.347729  0.506464  0.374615  1
  Ta  Ta16  1  0.848174  0.991439  0.375218  1
  Ti  Ti17  1  0.004791  0.148524  0.125022  1
  Ti  Ti18  1  0.991571  0.847500  0.625376  1
  Si  Si19  1  0.201880  0.132469  0.683896  1
  Si  Si20  1  0.369659  0.702239  0.933461  1
  Si  Si21  1  0.633974  0.294569  0.432640  1
  Si  Si22  1  0.702961  0.367985  0.066953  1
  Si  Si23  1  0.295852  0.635568  0.567543  1
  Si  Si24  1  0.797283  0.869392  0.182888  1
  Si  Si25  1  0.134092  0.201447  0.314854  1
  Si  Si26  1  0.866331  0.797332  0.816175  1
  Si  Si27  1  0.288386  0.954723  0.062026  1
  Si  Si28  1  0.545403  0.793704  0.313232  1
  Si  Si29  1  0.449394  0.209723  0.817403  1
  Si  Si30  1  0.795094  0.546394  0.685491  1
  Si  Si31  1  0.208511  0.448598  0.181692  1
  Si  Si32  1  0.707747  0.045250  0.565489  1
  Si  Si33  1  0.956048  0.290449  0.939686  1
  Si  Si34  1  0.046036  0.705834  0.435888  1
  Ir  Ir35  1  0.332142  0.336407  0.999037  1
