# generated using pymatgen
data_Zr3BeN
_symmetry_space_group_name_H-M   'P 1'
_cell_length_a   5.82297645
_cell_length_b   5.82297637
_cell_length_c   8.70750800
_cell_angle_alpha   90.00000000
_cell_angle_beta   90.00000000
_cell_angle_gamma   146.57647526
_symmetry_Int_Tables_number   1
_chemical_formula_structural   Zr3BeN
_chemical_formula_sum   'Zr6 Be2 N2'
_cell_volume   162.62839612
_cell_formula_units_Z   2
loop_
 _symmetry_equiv_pos_site_id
 _symmetry_equiv_pos_as_xyz
  1  'x, y, z'
loop_
 _atom_site_type_symbol
 _atom_site_label
 _atom_site_symmetry_multiplicity
 _atom_site_fract_x
 _atom_site_fract_y
 _atom_site_fract_z
 _atom_site_occupancy
  Zr  Zr0  1  0.630924  0.369076  0.943704  1
  Zr  Zr1  1  0.369076  0.630924  0.443704  1
  Zr  Zr2  1  0.369076  0.630924  0.056296  1
  Zr  Zr3  1  0.630924  0.369076  0.556296  1
  Zr  Zr4  1  0.939414  0.060586  0.750000  1
  Zr  Zr5  1  0.060586  0.939414  0.250000  1
  Be  Be6  1  0.256748  0.743252  0.750000  1
  Be  Be7  1  0.743252  0.256748  0.250000  1
  N  N8  1  0.000000  0.000000  0.000000  1
  N  N9  1  0.000000  0.000000  0.500000  1
