# generated using pymatgen
data_Ho9Tm(Ir2Ru)2
_symmetry_space_group_name_H-M   'P 1'
_cell_length_a   10.77626600
_cell_length_b   10.77626600
_cell_length_c   6.40198200
_cell_angle_alpha   90.00000000
_cell_angle_beta   90.00000000
_cell_angle_gamma   90.00000000
_symmetry_Int_Tables_number   1
_chemical_formula_structural   Ho9Tm(Ir2Ru)2
_chemical_formula_sum   'Ho18 Tm2 Ir8 Ru4'
_cell_volume   743.44878249
_cell_formula_units_Z   2
loop_
 _symmetry_equiv_pos_site_id
 _symmetry_equiv_pos_as_xyz
  1  'x, y, z'
loop_
 _atom_site_type_symbol
 _atom_site_label
 _atom_site_symmetry_multiplicity
 _atom_site_fract_x
 _atom_site_fract_y
 _atom_site_fract_z
 _atom_site_occupancy
  Ho  Ho0  1  0.293113  0.086410  0.377322  1
  Ho  Ho1  1  0.293113  0.913590  0.877322  1
  Ho  Ho2  1  0.706887  0.086410  0.877322  1
  Ho  Ho3  1  0.706887  0.913590  0.377322  1
  Ho  Ho4  1  0.586466  0.793467  0.877446  1
  Ho  Ho5  1  0.586466  0.206533  0.377446  1
  Ho  Ho6  1  0.413534  0.793467  0.377446  1
  Ho  Ho7  1  0.413534  0.206533  0.877446  1
  Ho  Ho8  1  0.206533  0.413534  0.622554  1
  Ho  Ho9  1  0.206533  0.586466  0.122554  1
  Ho  Ho10  1  0.793467  0.413534  0.122554  1
  Ho  Ho11  1  0.793467  0.586466  0.622554  1
  Ho  Ho12  1  0.913590  0.706887  0.122678  1
  Ho  Ho13  1  0.913590  0.293113  0.622678  1
  Ho  Ho14  1  0.086410  0.706887  0.622678  1
  Ho  Ho15  1  0.086410  0.293113  0.122678  1
  Ho  Ho16  1  0.500000  0.500000  0.000000  1
  Ho  Ho17  1  0.500000  0.500000  0.500000  1
  Tm  Tm18  1  0.000000  0.000000  0.500000  1
  Tm  Tm19  1  0.000000  0.000000  0.000000  1
  Ir  Ir20  1  0.848525  0.151475  0.250000  1
  Ir  Ir21  1  0.848525  0.848525  0.750000  1
  Ir  Ir22  1  0.151475  0.151475  0.750000  1
  Ir  Ir23  1  0.151475  0.848525  0.250000  1
  Ir  Ir24  1  0.652466  0.347534  0.750000  1
  Ir  Ir25  1  0.652466  0.652466  0.250000  1
  Ir  Ir26  1  0.347534  0.347534  0.250000  1
  Ir  Ir27  1  0.347534  0.652466  0.750000  1
  Ru  Ru28  1  0.500000  0.000000  0.122428  1
  Ru  Ru29  1  0.500000  0.000000  0.622428  1
  Ru  Ru30  1  0.000000  0.500000  0.877572  1
  Ru  Ru31  1  0.000000  0.500000  0.377572  1
