# generated using pymatgen
data_Pr7Nd(SeO5)4
_symmetry_space_group_name_H-M   'P 1'
_cell_length_a   8.87895461
_cell_length_b   8.94298915
_cell_length_c   11.30808288
_cell_angle_alpha   89.95009770
_cell_angle_beta   90.08367700
_cell_angle_gamma   142.81247157
_symmetry_Int_Tables_number   1
_chemical_formula_structural   Pr7Nd(SeO5)4
_chemical_formula_sum   'Pr7 Nd1 Se4 O20'
_cell_volume   542.72014862
_cell_formula_units_Z   1
loop_
 _symmetry_equiv_pos_site_id
 _symmetry_equiv_pos_as_xyz
  1  'x, y, z'
loop_
 _atom_site_type_symbol
 _atom_site_label
 _atom_site_symmetry_multiplicity
 _atom_site_fract_x
 _atom_site_fract_y
 _atom_site_fract_z
 _atom_site_occupancy
  Pr  Pr0  1  0.747915  0.265656  0.607962  1
  Pr  Pr1  1  0.247607  0.765507  0.391221  1
  Pr  Pr2  1  0.257681  0.745645  0.883116  1
  Pr  Pr3  1  0.756830  0.245998  0.117123  1
  Pr  Pr4  1  0.877009  0.074191  0.386678  1
  Pr  Pr5  1  0.068332  0.925601  0.606199  1
  Pr  Pr6  1  0.377866  0.574864  0.613333  1
  Nd  Nd7  1  0.566442  0.425497  0.394815  1
  Se  Se8  1  0.395923  0.572404  0.129971  1
  Se  Se9  1  0.575035  0.382914  0.864853  1
  Se  Se10  1  0.896709  0.073287  0.870497  1
  Se  Se11  1  0.075702  0.883215  0.135509  1
  O  O12  1  0.149834  0.454217  0.211573  1
  O  O13  1  0.438756  0.125714  0.785172  1
  O  O14  1  0.649810  0.953005  0.788599  1
  O  O15  1  0.936026  0.624561  0.215410  1
  O  O16  1  0.567257  0.918257  0.514411  1
  O  O17  1  0.899499  0.592055  0.498425  1
  O  O18  1  0.067426  0.418602  0.485682  1
  O  O19  1  0.402022  0.094220  0.499448  1
  O  O20  1  0.131933  0.583042  0.712428  1
  O  O21  1  0.631229  0.080567  0.287066  1
  O  O22  1  0.511381  0.820336  0.053675  1
  O  O23  1  0.822839  0.490014  0.936486  1
  O  O24  1  0.221701  0.095960  0.245411  1
  O  O25  1  0.113118  0.208247  0.762221  1
  O  O26  1  0.716331  0.593152  0.754270  1
  O  O27  1  0.611794  0.705340  0.238506  1
  O  O28  1  0.231077  0.254040  0.497973  1
  O  O29  1  0.729925  0.752997  0.501657  1
  O  O30  1  0.320823  0.985877  0.063846  1
  O  O31  1  0.009213  0.320064  0.946463  1
