# generated using pymatgen
data_PrFe3As12Ir
_symmetry_space_group_name_H-M   'P 1'
_cell_length_a   7.31154235
_cell_length_b   7.31154218
_cell_length_c   7.31154258
_cell_angle_alpha   109.53527191
_cell_angle_beta   109.53527518
_cell_angle_gamma   109.53526792
_symmetry_Int_Tables_number   1
_chemical_formula_structural   PrFe3As12Ir
_chemical_formula_sum   'Pr1 Fe3 As12 Ir1'
_cell_volume   300.17251535
_cell_formula_units_Z   1
loop_
 _symmetry_equiv_pos_site_id
 _symmetry_equiv_pos_as_xyz
  1  'x, y, z'
loop_
 _atom_site_type_symbol
 _atom_site_label
 _atom_site_symmetry_multiplicity
 _atom_site_fract_x
 _atom_site_fract_y
 _atom_site_fract_z
 _atom_site_occupancy
  Pr  Pr0  1  0.000000  0.000000  0.000000  1
  Fe  Fe1  1  0.000000  0.000000  0.500000  1
  Fe  Fe2  1  0.500000  0.000000  0.000000  1
  Fe  Fe3  1  0.000000  0.500000  0.000000  1
  As  As4  1  0.341314  0.185498  0.843526  1
  As  As5  1  0.658686  0.814502  0.156474  1
  As  As6  1  0.662197  0.501433  0.857623  1
  As  As7  1  0.337803  0.498567  0.142377  1
  As  As8  1  0.185498  0.843526  0.341314  1
  As  As9  1  0.814502  0.156474  0.658686  1
  As  As10  1  0.501433  0.857623  0.662197  1
  As  As11  1  0.498567  0.142377  0.337803  1
  As  As12  1  0.843526  0.341314  0.185498  1
  As  As13  1  0.156474  0.658686  0.814502  1
  As  As14  1  0.857623  0.662197  0.501433  1
  As  As15  1  0.142377  0.337803  0.498567  1
  Ir  Ir16  1  0.500000  0.500000  0.500000  1
