# generated using pymatgen
data_Pr6TmPI12
_symmetry_space_group_name_H-M   'P 1'
_cell_length_a   9.98427491
_cell_length_b   9.98427616
_cell_length_c   9.98427600
_cell_angle_alpha   107.72518082
_cell_angle_beta   107.72518310
_cell_angle_gamma   107.72517218
_symmetry_Int_Tables_number   1
_chemical_formula_structural   Pr6TmPI12
_chemical_formula_sum   'Pr6 Tm1 P1 I12'
_cell_volume   811.93213871
_cell_formula_units_Z   1
loop_
 _symmetry_equiv_pos_site_id
 _symmetry_equiv_pos_as_xyz
  1  'x, y, z'
loop_
 _atom_site_type_symbol
 _atom_site_label
 _atom_site_symmetry_multiplicity
 _atom_site_fract_x
 _atom_site_fract_y
 _atom_site_fract_z
 _atom_site_occupancy
  Pr  Pr0  1  0.805618  0.530121  0.600656  1
  Pr  Pr1  1  0.530121  0.600656  0.805618  1
  Pr  Pr2  1  0.194382  0.469879  0.399344  1
  Pr  Pr3  1  0.469879  0.399344  0.194382  1
  Pr  Pr4  1  0.600656  0.805618  0.530121  1
  Pr  Pr5  1  0.399344  0.194382  0.469879  1
  Tm  Tm6  1  0.000000  0.000000  0.000000  1
  P  P7  1  0.500000  0.500000  0.500000  1
  I  I8  1  0.730209  0.185849  0.576131  1
  I  I9  1  0.971723  0.894318  0.669428  1
  I  I10  1  0.576131  0.730209  0.185849  1
  I  I11  1  0.105682  0.330572  0.028277  1
  I  I12  1  0.669428  0.971723  0.894318  1
  I  I13  1  0.894318  0.669428  0.971723  1
  I  I14  1  0.028277  0.105682  0.330572  1
  I  I15  1  0.814151  0.423869  0.269791  1
  I  I16  1  0.330572  0.028277  0.105682  1
  I  I17  1  0.269791  0.814151  0.423869  1
  I  I18  1  0.185849  0.576131  0.730209  1
  I  I19  1  0.423869  0.269791  0.814151  1
