# generated using pymatgen
data_Rb4Ti6FeBr18
_symmetry_space_group_name_H-M   'P 1'
_cell_length_a   10.51260805
_cell_length_b   10.77189946
_cell_length_c   10.88527935
_cell_angle_alpha   118.37783256
_cell_angle_beta   100.30900132
_cell_angle_gamma   104.15320776
_symmetry_Int_Tables_number   1
_chemical_formula_structural   Rb4Ti6FeBr18
_chemical_formula_sum   'Rb4 Ti6 Fe1 Br18'
_cell_volume   986.66279917
_cell_formula_units_Z   1
loop_
 _symmetry_equiv_pos_site_id
 _symmetry_equiv_pos_as_xyz
  1  'x, y, z'
loop_
 _atom_site_type_symbol
 _atom_site_label
 _atom_site_symmetry_multiplicity
 _atom_site_fract_x
 _atom_site_fract_y
 _atom_site_fract_z
 _atom_site_occupancy
  Rb  Rb0  1  0.658266  0.538151  0.229423  1
  Rb  Rb1  1  0.341734  0.461849  0.770577  1
  Rb  Rb2  1  0.693770  0.227605  0.565422  1
  Rb  Rb3  1  0.306230  0.772395  0.434578  1
  Ti  Ti4  1  0.147494  0.054959  0.223488  1
  Ti  Ti5  1  0.852506  0.945041  0.776512  1
  Ti  Ti6  1  0.863579  0.120904  0.127292  1
  Ti  Ti7  1  0.136421  0.879096  0.872708  1
  Ti  Ti8  1  0.143123  0.232592  0.044530  1
  Ti  Ti9  1  0.856877  0.767408  0.955470  1
  Fe  Fe10  1  0.000000  0.000000  0.000000  1
  Br  Br11  1  0.007633  0.387751  0.185952  1
  Br  Br12  1  0.992367  0.612249  0.814048  1
  Br  Br13  1  0.316806  0.318007  0.296335  1
  Br  Br14  1  0.683194  0.681993  0.703665  1
  Br  Br15  1  0.311663  0.505449  0.097032  1
  Br  Br16  1  0.688337  0.494551  0.902968  1
  Br  Br17  1  0.003634  0.805978  0.198034  1
  Br  Br18  1  0.996366  0.194022  0.801966  1
  Br  Br19  1  0.709170  0.259505  0.272432  1
  Br  Br20  1  0.290830  0.740495  0.727568  1
  Br  Br21  1  0.304690  0.123845  0.910404  1
  Br  Br22  1  0.695310  0.876155  0.089596  1
  Br  Br23  1  0.014014  0.193316  0.385989  1
  Br  Br24  1  0.985986  0.806684  0.614011  1
  Br  Br25  1  0.308071  0.929369  0.106414  1
  Br  Br26  1  0.691929  0.070631  0.893586  1
  Br  Br27  1  0.323584  0.118568  0.485035  1
  Br  Br28  1  0.676416  0.881432  0.514965  1
