# generated using pymatgen
data_Sr3Pr5Mn7FeO24
_symmetry_space_group_name_H-M   'P 1'
_cell_length_a   5.57209806
_cell_length_b   7.79207202
_cell_length_c   11.12635604
_cell_angle_alpha   89.92888930
_cell_angle_beta   89.75592623
_cell_angle_gamma   89.99305524
_symmetry_Int_Tables_number   1
_chemical_formula_structural   Sr3Pr5Mn7FeO24
_chemical_formula_sum   'Sr3 Pr5 Mn7 Fe1 O24'
_cell_volume   483.08147512
_cell_formula_units_Z   1
loop_
 _symmetry_equiv_pos_site_id
 _symmetry_equiv_pos_as_xyz
  1  'x, y, z'
loop_
 _atom_site_type_symbol
 _atom_site_label
 _atom_site_symmetry_multiplicity
 _atom_site_fract_x
 _atom_site_fract_y
 _atom_site_fract_z
 _atom_site_occupancy
  Sr  Sr0  1  0.518116  0.249467  0.750589  1
  Sr  Sr1  1  0.523531  0.251245  0.246885  1
  Sr  Sr2  1  0.978342  0.749533  0.999214  1
  Pr  Pr3  1  0.034767  0.250609  0.506491  1
  Pr  Pr4  1  0.034087  0.250215  0.005705  1
  Pr  Pr5  1  0.464538  0.749043  0.757242  1
  Pr  Pr6  1  0.466429  0.750718  0.251137  1
  Pr  Pr7  1  0.970195  0.749674  0.495348  1
  Mn  Mn8  1  0.996429  0.999648  0.749483  1
  Mn  Mn9  1  0.999466  0.000769  0.249934  1
  Mn  Mn10  1  0.998760  0.499641  0.249612  1
  Mn  Mn11  1  0.502513  0.499924  0.999775  1
  Mn  Mn12  1  0.502704  0.999907  0.000255  1
  Mn  Mn13  1  0.501385  0.500033  0.501281  1
  Mn  Mn14  1  0.996050  0.498884  0.750045  1
  Fe  Fe15  1  0.501937  0.002007  0.501039  1
  O  O16  1  0.012374  0.750585  0.712205  1
  O  O17  1  0.019685  0.751603  0.222704  1
  O  O18  1  0.228035  0.533049  0.881005  1
  O  O19  1  0.225270  0.959486  0.386438  1
  O  O20  1  0.221968  0.964539  0.878411  1
  O  O21  1  0.228072  0.542101  0.387248  1
  O  O22  1  0.264837  0.031795  0.634343  1
  O  O23  1  0.265910  0.466612  0.633320  1
  O  O24  1  0.266580  0.034252  0.138975  1
  O  O25  1  0.267808  0.468044  0.135261  1
  O  O26  1  0.482746  0.247534  0.974022  1
  O  O27  1  0.484418  0.255203  0.471248  1
  O  O28  1  0.514947  0.745185  0.539296  1
  O  O29  1  0.503963  0.752280  0.034535  1
  O  O30  1  0.719863  0.536457  0.858135  1
  O  O31  1  0.721327  0.961498  0.854464  1
  O  O32  1  0.725586  0.546579  0.363195  1
  O  O33  1  0.727088  0.954564  0.361758  1
  O  O34  1  0.788181  0.032551  0.606964  1
  O  O35  1  0.785901  0.466307  0.606304  1
  O  O36  1  0.788288  0.037520  0.115369  1
  O  O37  1  0.781921  0.464133  0.112377  1
  O  O38  1  0.990894  0.247860  0.787385  1
  O  O39  1  0.995090  0.248946  0.291006  1
