# generated using pymatgen
data_Lu5Hg13
_symmetry_space_group_name_H-M   'P 1'
_cell_length_a   15.91195863
_cell_length_b   15.91195811
_cell_length_c   7.12923700
_cell_angle_alpha   95.06599235
_cell_angle_beta   95.06599219
_cell_angle_gamma   14.34502821
_symmetry_Int_Tables_number   1
_chemical_formula_structural   Lu5Hg13
_chemical_formula_sum   'Lu5 Hg13'
_cell_volume   445.44644231
_cell_formula_units_Z   1
loop_
 _symmetry_equiv_pos_site_id
 _symmetry_equiv_pos_as_xyz
  1  'x, y, z'
loop_
 _atom_site_type_symbol
 _atom_site_label
 _atom_site_symmetry_multiplicity
 _atom_site_fract_x
 _atom_site_fract_y
 _atom_site_fract_z
 _atom_site_occupancy
  Lu  Lu0  1  0.000000  0.000000  0.000000  1
  Lu  Lu1  1  0.673289  0.673289  0.320264  1
  Lu  Lu2  1  0.892461  0.892461  0.413698  1
  Lu  Lu3  1  0.107539  0.107539  0.586303  1
  Lu  Lu4  1  0.326711  0.326711  0.679736  1
  Hg  Hg5  1  0.112167  0.112167  0.084096  1
  Hg  Hg6  1  0.224466  0.224466  0.105541  1
  Hg  Hg7  1  0.334981  0.334981  0.167946  1
  Hg  Hg8  1  0.444138  0.444138  0.182126  1
  Hg  Hg9  1  0.556966  0.556966  0.301180  1
  Hg  Hg10  1  0.780703  0.780703  0.388349  1
  Hg  Hg11  1  0.000000  0.000000  0.500000  1
  Hg  Hg12  1  0.219297  0.219297  0.611652  1
  Hg  Hg13  1  0.443034  0.443034  0.698820  1
  Hg  Hg14  1  0.555862  0.555862  0.817873  1
  Hg  Hg15  1  0.665018  0.665018  0.832054  1
  Hg  Hg16  1  0.775533  0.775533  0.894458  1
  Hg  Hg17  1  0.887834  0.887834  0.915905  1
