# generated using pymatgen
data_Be5OsRu
_symmetry_space_group_name_H-M   'P 1'
_cell_length_a   5.64231011
_cell_length_b   5.64230930
_cell_length_c   5.88799033
_cell_angle_alpha   98.05380908
_cell_angle_beta   98.05380815
_cell_angle_gamma   45.48127457
_symmetry_Int_Tables_number   1
_chemical_formula_structural   Be5OsRu
_chemical_formula_sum   'Be10 Os2 Ru2'
_cell_volume   132.10326906
_cell_formula_units_Z   2
loop_
 _symmetry_equiv_pos_site_id
 _symmetry_equiv_pos_as_xyz
  1  'x, y, z'
loop_
 _atom_site_type_symbol
 _atom_site_label
 _atom_site_symmetry_multiplicity
 _atom_site_fract_x
 _atom_site_fract_y
 _atom_site_fract_z
 _atom_site_occupancy
  Be  Be0  1  0.048154  0.770215  0.917950  1
  Be  Be1  1  0.229785  0.951846  0.582050  1
  Be  Be2  1  0.950052  0.229847  0.083488  1
  Be  Be3  1  0.770153  0.049948  0.416512  1
  Be  Be4  1  0.071077  0.362305  0.814455  1
  Be  Be5  1  0.637695  0.928923  0.685545  1
  Be  Be6  1  0.928426  0.636938  0.187588  1
  Be  Be7  1  0.363062  0.071574  0.312412  1
  Be  Be8  1  0.781739  0.218261  0.750000  1
  Be  Be9  1  0.220412  0.779588  0.250000  1
  Os  Os10  1  0.243733  0.520796  0.559539  1
  Os  Os11  1  0.479204  0.756267  0.940461  1
  Ru  Ru12  1  0.756559  0.480051  0.443386  1
  Ru  Ru13  1  0.519949  0.243441  0.056614  1
