# generated using pymatgen
data_AcSm(Ni4B)2
_symmetry_space_group_name_H-M   'P 1'
_cell_length_a   5.09892900
_cell_length_b   5.09991601
_cell_length_c   7.03999300
_cell_angle_alpha   90.00000000
_cell_angle_beta   90.00000000
_cell_angle_gamma   119.99359164
_symmetry_Int_Tables_number   1
_chemical_formula_structural   AcSm(Ni4B)2
_chemical_formula_sum   'Ac1 Sm1 Ni8 B2'
_cell_volume   158.55242488
_cell_formula_units_Z   1
loop_
 _symmetry_equiv_pos_site_id
 _symmetry_equiv_pos_as_xyz
  1  'x, y, z'
loop_
 _atom_site_type_symbol
 _atom_site_label
 _atom_site_symmetry_multiplicity
 _atom_site_fract_x
 _atom_site_fract_y
 _atom_site_fract_z
 _atom_site_occupancy
  Ac  Ac0  1  0.999977  0.000000  0.000000  1
  Sm  Sm1  1  0.999985  0.000000  0.500000  1
  Ni  Ni2  1  0.333191  0.666431  0.000000  1
  Ni  Ni3  1  0.666762  0.333569  0.000000  1
  Ni  Ni4  1  0.499987  0.000000  0.297546  1
  Ni  Ni5  1  0.499986  0.500000  0.297471  1
  Ni  Ni6  1  0.999986  0.500000  0.297471  1
  Ni  Ni7  1  0.499987  0.000000  0.702454  1
  Ni  Ni8  1  0.499986  0.500000  0.702529  1
  Ni  Ni9  1  0.999986  0.500000  0.702529  1
  B  B10  1  0.333314  0.666666  0.500000  1
  B  B11  1  0.666648  0.333334  0.500000  1
