# generated using pymatgen
data_Y2U(GaIr)3
_symmetry_space_group_name_H-M   'P 1'
_cell_length_a   7.17538226
_cell_length_b   7.17538340
_cell_length_c   3.82642400
_cell_angle_alpha   90.00000000
_cell_angle_beta   90.00000000
_cell_angle_gamma   118.62200110
_symmetry_Int_Tables_number   1
_chemical_formula_structural   Y2U(GaIr)3
_chemical_formula_sum   'Y2 U1 Ga3 Ir3'
_cell_volume   172.93319910
_cell_formula_units_Z   1
loop_
 _symmetry_equiv_pos_site_id
 _symmetry_equiv_pos_as_xyz
  1  'x, y, z'
loop_
 _atom_site_type_symbol
 _atom_site_label
 _atom_site_symmetry_multiplicity
 _atom_site_fract_x
 _atom_site_fract_y
 _atom_site_fract_z
 _atom_site_occupancy
  Y  Y0  1  0.410651  0.003081  0.500000  1
  Y  Y1  1  0.003081  0.410651  0.500000  1
  U  U2  1  0.584008  0.584008  0.500000  1
  Ga  Ga3  1  0.748765  0.010893  0.000000  1
  Ga  Ga4  1  0.010893  0.748765  0.000000  1
  Ga  Ga5  1  0.235960  0.235960  0.000000  1
  Ir  Ir6  1  0.364041  0.661832  0.000000  1
  Ir  Ir7  1  0.661832  0.364041  0.000000  1
  Ir  Ir8  1  0.980767  0.980767  0.500000  1
