# generated using pymatgen
data_Sn12IrRh7Se12
_symmetry_space_group_name_H-M   'P 1'
_cell_length_a   9.08183201
_cell_length_b   9.08183200
_cell_length_c   9.08183201
_cell_angle_alpha   89.94192302
_cell_angle_beta   89.94192078
_cell_angle_gamma   89.94192714
_symmetry_Int_Tables_number   1
_chemical_formula_structural   Sn12IrRh7Se12
_chemical_formula_sum   'Sn12 Ir1 Rh7 Se12'
_cell_volume   749.06537679
_cell_formula_units_Z   1
loop_
 _symmetry_equiv_pos_site_id
 _symmetry_equiv_pos_as_xyz
  1  'x, y, z'
loop_
 _atom_site_type_symbol
 _atom_site_label
 _atom_site_symmetry_multiplicity
 _atom_site_fract_x
 _atom_site_fract_y
 _atom_site_fract_z
 _atom_site_occupancy
  Sn  Sn0  1  0.500804  0.349184  0.167174  1
  Sn  Sn1  1  0.167174  0.500804  0.349184  1
  Sn  Sn2  1  0.349184  0.167174  0.500804  1
  Sn  Sn3  1  0.498298  0.650763  0.833380  1
  Sn  Sn4  1  0.833380  0.498298  0.650763  1
  Sn  Sn5  1  0.650763  0.833380  0.498298  1
  Sn  Sn6  1  0.998458  0.848258  0.333373  1
  Sn  Sn7  1  0.333373  0.998458  0.848258  1
  Sn  Sn8  1  0.848258  0.333373  0.998458  1
  Sn  Sn9  1  0.001545  0.151962  0.666313  1
  Sn  Sn10  1  0.666313  0.001545  0.151962  1
  Sn  Sn11  1  0.151962  0.666313  0.001545  1
  Ir  Ir12  1  0.754550  0.754550  0.754550  1
  Rh  Rh13  1  0.245098  0.245098  0.245098  1
  Rh  Rh14  1  0.243927  0.745536  0.743591  1
  Rh  Rh15  1  0.743591  0.243927  0.745536  1
  Rh  Rh16  1  0.745536  0.743591  0.243927  1
  Rh  Rh17  1  0.755916  0.254345  0.256555  1
  Rh  Rh18  1  0.256555  0.755916  0.254345  1
  Rh  Rh19  1  0.254345  0.256555  0.755916  1
  Se  Se20  1  0.654061  0.997612  0.851330  1
  Se  Se21  1  0.851330  0.654061  0.997612  1
  Se  Se22  1  0.997612  0.851330  0.654061  1
  Se  Se23  1  0.346948  0.002190  0.148838  1
  Se  Se24  1  0.148838  0.346948  0.002190  1
  Se  Se25  1  0.002190  0.148838  0.346948  1
  Se  Se26  1  0.152702  0.499172  0.649826  1
  Se  Se27  1  0.649826  0.152702  0.499172  1
  Se  Se28  1  0.499172  0.649826  0.152702  1
  Se  Se29  1  0.847398  0.500741  0.350152  1
  Se  Se30  1  0.350152  0.847398  0.500741  1
  Se  Se31  1  0.500741  0.350152  0.847398  1
