# generated using pymatgen
data_Ta11TiAl8(CoN)4
_symmetry_space_group_name_H-M   'P 1'
_cell_length_a   8.15837468
_cell_length_b   8.14916848
_cell_length_c   8.15842318
_cell_angle_alpha   60.02970870
_cell_angle_beta   59.91816157
_cell_angle_gamma   60.02956595
_symmetry_Int_Tables_number   1
_chemical_formula_structural   Ta11TiAl8(CoN)4
_chemical_formula_sum   'Ta11 Ti1 Al8 Co4 N4'
_cell_volume   383.47142811
_cell_formula_units_Z   1
loop_
 _symmetry_equiv_pos_site_id
 _symmetry_equiv_pos_as_xyz
  1  'x, y, z'
loop_
 _atom_site_type_symbol
 _atom_site_label
 _atom_site_symmetry_multiplicity
 _atom_site_fract_x
 _atom_site_fract_y
 _atom_site_fract_z
 _atom_site_occupancy
  Ta  Ta0  1  0.312427  0.689107  0.688551  1
  Ta  Ta1  1  0.688544  0.309910  0.312431  1
  Ta  Ta2  1  0.310952  0.689045  0.310950  1
  Ta  Ta3  1  0.688552  0.689109  0.312425  1
  Ta  Ta4  1  0.312433  0.309910  0.688543  1
  Ta  Ta5  1  0.562265  0.560365  0.937645  1
  Ta  Ta6  1  0.937646  0.560365  0.562264  1
  Ta  Ta7  1  0.562264  0.939732  0.937640  1
  Ta  Ta8  1  0.937641  0.939732  0.562264  1
  Ta  Ta9  1  0.689121  0.310877  0.689120  1
  Ta  Ta10  1  0.938250  0.561751  0.938250  1
  Ti  Ti11  1  0.562227  0.937760  0.562256  1
  Al  Al12  1  0.918107  0.918326  0.918098  1
  Al  Al13  1  0.003793  0.331942  0.332228  1
  Al  Al14  1  0.332152  0.004539  0.332158  1
  Al  Al15  1  0.332224  0.331944  0.003789  1
  Al  Al16  1  0.918149  0.245446  0.918136  1
  Al  Al17  1  0.915927  0.918309  0.247550  1
  Al  Al18  1  0.247549  0.918315  0.915920  1
  Al  Al19  1  0.332190  0.331094  0.332201  1
  Co  Co20  1  0.124743  0.125057  0.124744  1
  Co  Co21  1  0.624982  0.124990  0.125037  1
  Co  Co22  1  0.124747  0.625461  0.124745  1
  Co  Co23  1  0.125036  0.124990  0.624982  1
  N  N24  1  0.624340  0.628977  0.624334  1
  N  N25  1  0.125318  0.625298  0.624082  1
  N  N26  1  0.624336  0.122348  0.624340  1
  N  N27  1  0.624084  0.625302  0.125317  1
