# generated using pymatgen
data_Yb8Mn2PdN8
_symmetry_space_group_name_H-M   'P 1'
_cell_length_a   9.20583958
_cell_length_b   4.88104350
_cell_length_c   7.09573690
_cell_angle_alpha   90.00000816
_cell_angle_beta   74.46073163
_cell_angle_gamma   74.62675546
_symmetry_Int_Tables_number   1
_chemical_formula_structural   Yb8Mn2PdN8
_chemical_formula_sum   'Yb8 Mn2 Pd1 N8'
_cell_volume   295.32781260
_cell_formula_units_Z   1
loop_
 _symmetry_equiv_pos_site_id
 _symmetry_equiv_pos_as_xyz
  1  'x, y, z'
loop_
 _atom_site_type_symbol
 _atom_site_label
 _atom_site_symmetry_multiplicity
 _atom_site_fract_x
 _atom_site_fract_y
 _atom_site_fract_z
 _atom_site_occupancy
  Yb  Yb0  1  0.058796  0.970602  0.745253  1
  Yb  Yb1  1  0.941204  0.029398  0.254747  1
  Yb  Yb2  1  0.672857  0.663572  0.463768  1
  Yb  Yb3  1  0.327143  0.336428  0.536232  1
  Yb  Yb4  1  0.819611  0.590195  0.974405  1
  Yb  Yb5  1  0.180389  0.409805  0.025595  1
  Yb  Yb6  1  0.400279  0.799860  0.191122  1
  Yb  Yb7  1  0.599721  0.200140  0.808878  1
  Mn  Mn8  1  0.376671  0.811665  0.791745  1
  Mn  Mn9  1  0.623329  0.188335  0.208255  1
  Pd  Pd10  1  0.000000  0.500000  0.500000  1
  N  N11  1  0.213697  0.893151  0.995525  1
  N  N12  1  0.786303  0.106849  0.004475  1
  N  N13  1  0.354800  0.822601  0.559061  1
  N  N14  1  0.645200  0.177399  0.440939  1
  N  N15  1  0.560518  0.719740  0.827347  1
  N  N16  1  0.439482  0.280260  0.172653  1
  N  N17  1  0.930567  0.534715  0.241531  1
  N  N18  1  0.069433  0.465285  0.758469  1
