# generated using pymatgen
data_La6Mg2HgAu9
_symmetry_space_group_name_H-M   'P 1'
_cell_length_a   8.26505418
_cell_length_b   8.26505300
_cell_length_c   8.26505423
_cell_angle_alpha   65.58719950
_cell_angle_beta   65.58720165
_cell_angle_gamma   65.58718573
_symmetry_Int_Tables_number   1
_chemical_formula_structural   La6Mg2HgAu9
_chemical_formula_sum   'La6 Mg2 Hg1 Au9'
_cell_volume   447.68328702
_cell_formula_units_Z   1
loop_
 _symmetry_equiv_pos_site_id
 _symmetry_equiv_pos_as_xyz
  1  'x, y, z'
loop_
 _atom_site_type_symbol
 _atom_site_label
 _atom_site_symmetry_multiplicity
 _atom_site_fract_x
 _atom_site_fract_y
 _atom_site_fract_z
 _atom_site_occupancy
  La  La0  1  0.897120  0.190017  0.621956  1
  La  La1  1  0.621956  0.897120  0.190017  1
  La  La2  1  0.190017  0.621956  0.897120  1
  La  La3  1  0.102880  0.809983  0.378044  1
  La  La4  1  0.378044  0.102880  0.809983  1
  La  La5  1  0.809983  0.378044  0.102880  1
  Mg  Mg6  1  0.657722  0.657722  0.657722  1
  Mg  Mg7  1  0.342278  0.342278  0.342278  1
  Hg  Hg8  1  0.500000  0.500000  0.500000  1
  Au  Au9  1  0.000000  0.000000  0.000000  1
  Au  Au10  1  0.799908  0.799908  0.799908  1
  Au  Au11  1  0.200092  0.200092  0.200092  1
  Au  Au12  1  0.939976  0.549272  0.320999  1
  Au  Au13  1  0.320999  0.939976  0.549272  1
  Au  Au14  1  0.549272  0.320999  0.939976  1
  Au  Au15  1  0.060024  0.450728  0.679001  1
  Au  Au16  1  0.679001  0.060024  0.450728  1
  Au  Au17  1  0.450728  0.679001  0.060024  1
