# generated using pymatgen
data_Dy12Si11Ni
_symmetry_space_group_name_H-M   'P 1'
_cell_length_a   3.85992600
_cell_length_b   5.71379111
_cell_length_c   23.78639110
_cell_angle_alpha   82.74785585
_cell_angle_beta   90.00000000
_cell_angle_gamma   90.00000000
_symmetry_Int_Tables_number   1
_chemical_formula_structural   Dy12Si11Ni
_chemical_formula_sum   'Dy12 Si11 Ni1'
_cell_volume   520.40764119
_cell_formula_units_Z   1
loop_
 _symmetry_equiv_pos_site_id
 _symmetry_equiv_pos_as_xyz
  1  'x, y, z'
loop_
 _atom_site_type_symbol
 _atom_site_label
 _atom_site_symmetry_multiplicity
 _atom_site_fract_x
 _atom_site_fract_y
 _atom_site_fract_z
 _atom_site_occupancy
  Dy  Dy0  1  0.750000  0.356531  0.066085  1
  Dy  Dy1  1  0.250000  0.660454  0.940828  1
  Dy  Dy2  1  0.750000  0.519383  0.220697  1
  Dy  Dy3  1  0.250000  0.469611  0.773722  1
  Dy  Dy4  1  0.750000  0.167315  0.392465  1
  Dy  Dy5  1  0.250000  0.828853  0.606507  1
  Dy  Dy6  1  0.750000  0.353036  0.559386  1
  Dy  Dy7  1  0.250000  0.643630  0.439039  1
  Dy  Dy8  1  0.750000  0.996363  0.726884  1
  Dy  Dy9  1  0.250000  0.994507  0.272040  1
  Dy  Dy10  1  0.750000  0.169568  0.893796  1
  Dy  Dy11  1  0.250000  0.837389  0.108206  1
  Si  Si12  1  0.750000  0.876935  0.013543  1
  Si  Si13  1  0.250000  0.148548  0.989321  1
  Si  Si14  1  0.750000  0.051334  0.178845  1
  Si  Si15  1  0.250000  0.956209  0.821477  1
  Si  Si16  1  0.750000  0.701973  0.344483  1
  Si  Si17  1  0.250000  0.291570  0.654008  1
  Si  Si18  1  0.750000  0.864009  0.511840  1
  Si  Si19  1  0.250000  0.133452  0.486738  1
  Si  Si20  1  0.750000  0.534884  0.679225  1
  Si  Si21  1  0.250000  0.461411  0.318446  1
  Si  Si22  1  0.750000  0.683032  0.846316  1
  Ni  Ni23  1  0.250000  0.300004  0.156103  1
