# generated using pymatgen
data_Rb2TbY5F20
_symmetry_space_group_name_H-M   'P 1'
_cell_length_a   8.31683495
_cell_length_b   8.31683487
_cell_length_c   8.31665500
_cell_angle_alpha   60.00071145
_cell_angle_beta   60.00071175
_cell_angle_gamma   59.99856641
_symmetry_Int_Tables_number   1
_chemical_formula_structural   Rb2TbY5F20
_chemical_formula_sum   'Rb2 Tb1 Y5 F20'
_cell_volume   406.77084281
_cell_formula_units_Z   1
loop_
 _symmetry_equiv_pos_site_id
 _symmetry_equiv_pos_as_xyz
  1  'x, y, z'
loop_
 _atom_site_type_symbol
 _atom_site_label
 _atom_site_symmetry_multiplicity
 _atom_site_fract_x
 _atom_site_fract_y
 _atom_site_fract_z
 _atom_site_occupancy
  Rb  Rb0  1  0.250001  0.250001  0.249999  1
  Rb  Rb1  1  0.750001  0.750001  0.749999  1
  Tb  Tb2  1  0.759577  0.759577  0.240423  1
  Y  Y3  1  0.759426  0.240555  0.240574  1
  Y  Y4  1  0.240555  0.759426  0.759445  1
  Y  Y5  1  0.240555  0.759426  0.240574  1
  Y  Y6  1  0.759426  0.240555  0.759445  1
  Y  Y7  1  0.240580  0.240580  0.759420  1
  F  F8  1  0.829319  0.499804  0.500196  1
  F  F9  1  0.170698  0.499995  0.500005  1
  F  F10  1  0.499804  0.829319  0.170681  1
  F  F11  1  0.499995  0.170698  0.829302  1
  F  F12  1  0.499804  0.829319  0.500196  1
  F  F13  1  0.170698  0.499995  0.829302  1
  F  F14  1  0.499995  0.170698  0.500005  1
  F  F15  1  0.829319  0.499804  0.170681  1
  F  F16  1  0.500004  0.500004  0.829286  1
  F  F17  1  0.500004  0.500004  0.170706  1
  F  F18  1  0.170714  0.829294  0.499996  1
  F  F19  1  0.829294  0.170714  0.499996  1
  F  F20  1  0.110485  0.110485  0.110476  1
  F  F21  1  0.889573  0.889573  0.889372  1
  F  F22  1  0.110485  0.110485  0.668553  1
  F  F23  1  0.110628  0.668517  0.110427  1
  F  F24  1  0.889573  0.889573  0.331483  1
  F  F25  1  0.889524  0.331447  0.889515  1
  F  F26  1  0.668517  0.110628  0.110427  1
  F  F27  1  0.331447  0.889524  0.889515  1
