# generated using pymatgen
data_TbPr3Y(Sn5Rh2)2
_symmetry_space_group_name_H-M   'P 1'
_cell_length_a   14.20862600
_cell_length_b   14.20862600
_cell_length_c   4.60101900
_cell_angle_alpha   90.00000000
_cell_angle_beta   90.00000000
_cell_angle_gamma   90.00104844
_symmetry_Int_Tables_number   1
_chemical_formula_structural   TbPr3Y(Sn5Rh2)2
_chemical_formula_sum   'Tb2 Pr6 Y2 Sn20 Rh8'
_cell_volume   928.87696371
_cell_formula_units_Z   2
loop_
 _symmetry_equiv_pos_site_id
 _symmetry_equiv_pos_as_xyz
  1  'x, y, z'
loop_
 _atom_site_type_symbol
 _atom_site_label
 _atom_site_symmetry_multiplicity
 _atom_site_fract_x
 _atom_site_fract_y
 _atom_site_fract_z
 _atom_site_occupancy
  Tb  Tb0  1  0.677139  0.177139  0.500000  1
  Tb  Tb1  1  0.322861  0.822861  0.500000  1
  Pr  Pr2  1  0.500000  0.500000  0.000000  1
  Pr  Pr3  1  0.000000  0.000000  0.000000  1
  Pr  Pr4  1  0.888143  0.388143  0.500000  1
  Pr  Pr5  1  0.111857  0.611857  0.500000  1
  Pr  Pr6  1  0.388119  0.111881  0.500000  1
  Pr  Pr7  1  0.611881  0.888119  0.500000  1
  Y  Y8  1  0.177100  0.322900  0.500000  1
  Y  Y9  1  0.822900  0.677100  0.500000  1
  Sn  Sn10  1  0.570126  0.070126  0.000000  1
  Sn  Sn11  1  0.429874  0.929874  0.000000  1
  Sn  Sn12  1  0.070177  0.429823  0.000000  1
  Sn  Sn13  1  0.929823  0.570177  0.000000  1
  Sn  Sn14  1  0.654582  0.698021  0.000000  1
  Sn  Sn15  1  0.345418  0.301979  0.000000  1
  Sn  Sn16  1  0.154534  0.801949  0.000000  1
  Sn  Sn17  1  0.845466  0.198051  0.000000  1
  Sn  Sn18  1  0.301949  0.654534  0.000000  1
  Sn  Sn19  1  0.698051  0.345466  0.000000  1
  Sn  Sn20  1  0.198021  0.154582  0.000000  1
  Sn  Sn21  1  0.801979  0.845418  0.000000  1
  Sn  Sn22  1  0.664182  0.505714  0.500000  1
  Sn  Sn23  1  0.335818  0.494286  0.500000  1
  Sn  Sn24  1  0.164175  0.994294  0.500000  1
  Sn  Sn25  1  0.835825  0.005706  0.500000  1
  Sn  Sn26  1  0.494294  0.664175  0.500000  1
  Sn  Sn27  1  0.505706  0.335825  0.500000  1
  Sn  Sn28  1  0.005714  0.164182  0.500000  1
  Sn  Sn29  1  0.994286  0.835818  0.500000  1
  Rh  Rh30  1  0.747038  0.529103  0.000000  1
  Rh  Rh31  1  0.252962  0.470897  0.000000  1
  Rh  Rh32  1  0.247001  0.970914  0.000000  1
  Rh  Rh33  1  0.752999  0.029086  0.000000  1
  Rh  Rh34  1  0.470914  0.747001  0.000000  1
  Rh  Rh35  1  0.529086  0.252999  0.000000  1
  Rh  Rh36  1  0.029103  0.247038  0.000000  1
  Rh  Rh37  1  0.970897  0.752962  0.000000  1
