# generated using pymatgen
data_Gd2Tl3In(TeO6)3
_symmetry_space_group_name_H-M   'P 1'
_cell_length_a   9.20043805
_cell_length_b   9.20043931
_cell_length_c   5.17308447
_cell_angle_alpha   90.06273876
_cell_angle_beta   89.93725873
_cell_angle_gamma   119.89086845
_symmetry_Int_Tables_number   1
_chemical_formula_structural   Gd2Tl3In(TeO6)3
_chemical_formula_sum   'Gd2 Tl3 In1 Te3 O18'
_cell_volume   379.64130778
_cell_formula_units_Z   1
loop_
 _symmetry_equiv_pos_site_id
 _symmetry_equiv_pos_as_xyz
  1  'x, y, z'
loop_
 _atom_site_type_symbol
 _atom_site_label
 _atom_site_symmetry_multiplicity
 _atom_site_fract_x
 _atom_site_fract_y
 _atom_site_fract_z
 _atom_site_occupancy
  Gd  Gd0  1  0.618976  0.999549  0.000199  1
  Gd  Gd1  1  0.999549  0.618976  0.999801  1
  Tl  Tl2  1  0.377323  0.377323  0.000000  1
  Tl  Tl3  1  0.283911  0.998412  0.501517  1
  Tl  Tl4  1  0.998412  0.283911  0.498483  1
  In  In5  1  0.711841  0.711841  0.500000  1
  Te  Te6  1  0.998184  0.998184  0.000000  1
  Te  Te7  1  0.336354  0.665146  0.504063  1
  Te  Te8  1  0.665146  0.336354  0.495937  1
  O  O9  1  0.083982  0.878660  0.797095  1
  O  O10  1  0.118625  0.198958  0.785373  1
  O  O11  1  0.798052  0.912565  0.783387  1
  O  O12  1  0.198958  0.118625  0.214627  1
  O  O13  1  0.912565  0.798052  0.216613  1
  O  O14  1  0.878660  0.083982  0.202905  1
  O  O15  1  0.466176  0.594933  0.721515  1
  O  O16  1  0.404834  0.860697  0.723895  1
  O  O17  1  0.136045  0.540747  0.715232  1
  O  O18  1  0.860697  0.404834  0.276105  1
  O  O19  1  0.540747  0.136045  0.284768  1
  O  O20  1  0.594933  0.466176  0.278485  1
  O  O21  1  0.229828  0.758723  0.283082  1
  O  O22  1  0.240749  0.465333  0.280001  1
  O  O23  1  0.542986  0.778410  0.300162  1
  O  O24  1  0.465333  0.240749  0.719999  1
  O  O25  1  0.778410  0.542986  0.699838  1
  O  O26  1  0.758723  0.229828  0.716918  1
