# generated using pymatgen
data_Ho3Tm3(Zn3C)2
_symmetry_space_group_name_H-M   'P 1'
_cell_length_a   9.07801249
_cell_length_b   9.07801260
_cell_length_c   9.07801300
_cell_angle_alpha   59.99999490
_cell_angle_beta   59.99999451
_cell_angle_gamma   59.99999883
_symmetry_Int_Tables_number   1
_chemical_formula_structural   Ho3Tm3(Zn3C)2
_chemical_formula_sum   'Ho6 Tm6 Zn12 C4'
_cell_volume   529.00200871
_cell_formula_units_Z   2
loop_
 _symmetry_equiv_pos_site_id
 _symmetry_equiv_pos_as_xyz
  1  'x, y, z'
loop_
 _atom_site_type_symbol
 _atom_site_label
 _atom_site_symmetry_multiplicity
 _atom_site_fract_x
 _atom_site_fract_y
 _atom_site_fract_z
 _atom_site_occupancy
  Ho  Ho0  1  0.447225  0.447225  0.052775  1
  Ho  Ho1  1  0.052775  0.447225  0.052775  1
  Ho  Ho2  1  0.447225  0.052775  0.052775  1
  Ho  Ho3  1  0.052775  0.052775  0.447225  1
  Ho  Ho4  1  0.447225  0.052775  0.447225  1
  Ho  Ho5  1  0.052775  0.447225  0.447225  1
  Tm  Tm6  1  0.803811  0.803811  0.196189  1
  Tm  Tm7  1  0.196189  0.803811  0.196189  1
  Tm  Tm8  1  0.803811  0.196189  0.196189  1
  Tm  Tm9  1  0.196189  0.196189  0.803811  1
  Tm  Tm10  1  0.803811  0.196189  0.803811  1
  Tm  Tm11  1  0.196189  0.803811  0.803811  1
  Zn  Zn12  1  0.827106  0.827106  0.518683  1
  Zn  Zn13  1  0.827106  0.518683  0.827106  1
  Zn  Zn14  1  0.518683  0.827106  0.827106  1
  Zn  Zn15  1  0.827106  0.827106  0.827106  1
  Zn  Zn16  1  0.423261  0.423261  0.730217  1
  Zn  Zn17  1  0.423261  0.730217  0.423261  1
  Zn  Zn18  1  0.730217  0.423261  0.423261  1
  Zn  Zn19  1  0.423261  0.423261  0.423261  1
  Zn  Zn20  1  0.625033  0.625033  0.124902  1
  Zn  Zn21  1  0.625033  0.124902  0.625033  1
  Zn  Zn22  1  0.124902  0.625033  0.625033  1
  Zn  Zn23  1  0.625033  0.625033  0.625033  1
  C  C24  1  0.123634  0.123634  0.629097  1
  C  C25  1  0.123634  0.629097  0.123634  1
  C  C26  1  0.629097  0.123634  0.123634  1
  C  C27  1  0.123634  0.123634  0.123634  1
