# generated using pymatgen
data_BaSrHo2(Ge4N7)2
_symmetry_space_group_name_H-M   'P 1'
_cell_length_a   6.31831200
_cell_length_b   6.31831487
_cell_length_c   10.32725700
_cell_angle_alpha   90.00003864
_cell_angle_beta   90.00003478
_cell_angle_gamma   119.99982208
_symmetry_Int_Tables_number   1
_chemical_formula_structural   BaSrHo2(Ge4N7)2
_chemical_formula_sum   'Ba1 Sr1 Ho2 Ge8 N14'
_cell_volume   357.04152440
_cell_formula_units_Z   1
loop_
 _symmetry_equiv_pos_site_id
 _symmetry_equiv_pos_as_xyz
  1  'x, y, z'
loop_
 _atom_site_type_symbol
 _atom_site_label
 _atom_site_symmetry_multiplicity
 _atom_site_fract_x
 _atom_site_fract_y
 _atom_site_fract_z
 _atom_site_occupancy
  Ba  Ba0  1  0.666666  0.333335  0.579871  1
  Sr  Sr1  1  0.333352  0.666703  0.083824  1
  Ho  Ho2  1  0.666668  0.333336  0.951211  1
  Ho  Ho3  1  0.333333  0.666663  0.449984  1
  Ge  Ge4  1  0.173772  0.347545  0.761117  1
  Ge  Ge5  1  0.826627  0.173375  0.259826  1
  Ge  Ge6  1  0.346752  0.173378  0.259828  1
  Ge  Ge7  1  0.652451  0.826224  0.761120  1
  Ge  Ge8  1  0.173774  0.826225  0.761122  1
  Ge  Ge9  1  0.826625  0.653248  0.259827  1
  Ge  Ge10  1  0.999998  0.999996  0.025471  1
  Ge  Ge11  1  0.000000  0.000001  0.526309  1
  N  N12  1  0.000001  0.000001  0.833803  1
  N  N13  1  0.999999  0.999997  0.333916  1
  N  N14  1  0.840927  0.681857  0.081743  1
  N  N15  1  0.159474  0.840523  0.582368  1
  N  N16  1  0.681050  0.840522  0.582368  1
  N  N17  1  0.318136  0.159065  0.081744  1
  N  N18  1  0.840924  0.159063  0.081741  1
  N  N19  1  0.159475  0.318948  0.582367  1
  N  N20  1  0.494146  0.505851  0.819461  1
  N  N21  1  0.991109  0.495551  0.315899  1
  N  N22  1  0.504446  0.008886  0.315898  1
  N  N23  1  0.494147  0.988296  0.819465  1
  N  N24  1  0.504444  0.495556  0.315899  1
  N  N25  1  0.011704  0.505853  0.819462  1
