# generated using pymatgen
data_BaErGe4N7
_symmetry_space_group_name_H-M   'P 1'
_cell_length_a   6.32367700
_cell_length_b   6.32367681
_cell_length_c   10.33526000
_cell_angle_alpha   90.00000000
_cell_angle_beta   90.00000000
_cell_angle_gamma   119.99999575
_symmetry_Int_Tables_number   1
_chemical_formula_structural   BaErGe4N7
_chemical_formula_sum   'Ba2 Er2 Ge8 N14'
_cell_volume   357.92447936
_cell_formula_units_Z   2
loop_
 _symmetry_equiv_pos_site_id
 _symmetry_equiv_pos_as_xyz
  1  'x, y, z'
loop_
 _atom_site_type_symbol
 _atom_site_label
 _atom_site_symmetry_multiplicity
 _atom_site_fract_x
 _atom_site_fract_y
 _atom_site_fract_z
 _atom_site_occupancy
  Ba  Ba0  1  0.333333  0.666667  0.363644  1
  Ba  Ba1  1  0.666667  0.333333  0.863644  1
  Er  Er2  1  0.333333  0.666667  0.736470  1
  Er  Er3  1  0.666667  0.333333  0.236470  1
  Ge  Ge4  1  0.826247  0.652493  0.547027  1
  Ge  Ge5  1  0.173753  0.826247  0.047027  1
  Ge  Ge6  1  0.652493  0.826247  0.047027  1
  Ge  Ge7  1  0.347507  0.173753  0.547027  1
  Ge  Ge8  1  0.826247  0.173753  0.547027  1
  Ge  Ge9  1  0.173753  0.347507  0.047027  1
  Ge  Ge10  1  0.000000  0.000000  0.812728  1
  Ge  Ge11  1  0.000000  0.000000  0.312728  1
  N  N12  1  0.000000  0.000000  0.620307  1
  N  N13  1  0.000000  0.000000  0.120307  1
  N  N14  1  0.159556  0.319111  0.868396  1
  N  N15  1  0.840444  0.159556  0.368396  1
  N  N16  1  0.319111  0.159556  0.368396  1
  N  N17  1  0.680889  0.840444  0.868396  1
  N  N18  1  0.159556  0.840444  0.868396  1
  N  N19  1  0.840444  0.680889  0.368396  1
  N  N20  1  0.989427  0.494714  0.604828  1
  N  N21  1  0.494714  0.989427  0.104828  1
  N  N22  1  0.494714  0.505286  0.104828  1
  N  N23  1  0.505286  0.494714  0.604828  1
  N  N24  1  0.010573  0.505286  0.104828  1
  N  N25  1  0.505286  0.010573  0.604828  1
