# generated using pymatgen
data_NaLuSnI6
_symmetry_space_group_name_H-M   'P 1'
_cell_length_a   8.59850590
_cell_length_b   8.59860043
_cell_length_c   8.59847593
_cell_angle_alpha   54.37330338
_cell_angle_beta   54.37249398
_cell_angle_gamma   54.37336271
_symmetry_Int_Tables_number   1
_chemical_formula_structural   NaLuSnI6
_chemical_formula_sum   'Na1 Lu1 Sn1 I6'
_cell_volume   390.52892927
_cell_formula_units_Z   1
loop_
 _symmetry_equiv_pos_site_id
 _symmetry_equiv_pos_as_xyz
  1  'x, y, z'
loop_
 _atom_site_type_symbol
 _atom_site_label
 _atom_site_symmetry_multiplicity
 _atom_site_fract_x
 _atom_site_fract_y
 _atom_site_fract_z
 _atom_site_occupancy
  Na  Na0  1  0.669882  0.669882  0.669885  1
  Lu  Lu1  1  0.999801  0.999838  0.999817  1
  Sn  Sn2  1  0.330986  0.330996  0.330976  1
  I  I3  1  0.232239  0.610107  0.918144  1
  I  I4  1  0.610112  0.918142  0.232237  1
  I  I5  1  0.918146  0.232230  0.610108  1
  I  I6  1  0.762298  0.385379  0.091152  1
  I  I7  1  0.385399  0.091142  0.762290  1
  I  I8  1  0.091138  0.762283  0.385393  1
