# generated using pymatgen
data_Th2Ga3Si2Pd3
_symmetry_space_group_name_H-M   'P 1'
_cell_length_a   8.50948482
_cell_length_b   8.50948359
_cell_length_c   8.50948400
_cell_angle_alpha   139.84535944
_cell_angle_beta   106.55039708
_cell_angle_gamma   87.18189673
_symmetry_Int_Tables_number   1
_chemical_formula_structural   Th2Ga3Si2Pd3
_chemical_formula_sum   'Th4 Ga6 Si4 Pd6'
_cell_volume   366.45121833
_cell_formula_units_Z   2
loop_
 _symmetry_equiv_pos_site_id
 _symmetry_equiv_pos_as_xyz
  1  'x, y, z'
loop_
 _atom_site_type_symbol
 _atom_site_label
 _atom_site_symmetry_multiplicity
 _atom_site_fract_x
 _atom_site_fract_y
 _atom_site_fract_z
 _atom_site_occupancy
  Th  Th0  1  0.865988  0.631543  0.234446  1
  Th  Th1  1  0.134013  0.368457  0.765554  1
  Th  Th2  1  0.397096  0.131543  0.265554  1
  Th  Th3  1  0.602904  0.868457  0.734446  1
  Ga  Ga4  1  0.500000  0.750000  0.250000  1
  Ga  Ga5  1  0.500000  0.250000  0.750000  1
  Ga  Ga6  1  0.224717  0.974717  0.750000  1
  Ga  Ga7  1  0.775283  0.525283  0.750000  1
  Ga  Ga8  1  0.775283  0.025283  0.250000  1
  Ga  Ga9  1  0.224717  0.474717  0.250000  1
  Si  Si10  1  0.040439  0.890683  0.149755  1
  Si  Si11  1  0.959561  0.109317  0.850245  1
  Si  Si12  1  0.740928  0.390683  0.350245  1
  Si  Si13  1  0.259072  0.609317  0.649755  1
  Pd  Pd14  1  0.000000  0.750000  0.750000  1
  Pd  Pd15  1  0.000000  0.250000  0.250000  1
  Pd  Pd16  1  0.243610  0.862609  0.381000  1
  Pd  Pd17  1  0.756390  0.137391  0.619000  1
  Pd  Pd18  1  0.481610  0.362609  0.119000  1
  Pd  Pd19  1  0.518390  0.637391  0.881000  1
