# generated using pymatgen
data_Tb7Ho(AlRu)8
_symmetry_space_group_name_H-M   'P 1'
_cell_length_a   4.12164200
_cell_length_b   6.98782554
_cell_length_c   15.97849024
_cell_angle_alpha   90.11782696
_cell_angle_beta   90.00000000
_cell_angle_gamma   90.00000000
_symmetry_Int_Tables_number   1
_chemical_formula_structural   Tb7Ho(AlRu)8
_chemical_formula_sum   'Tb7 Ho1 Al8 Ru8'
_cell_volume   460.20056102
_cell_formula_units_Z   1
loop_
 _symmetry_equiv_pos_site_id
 _symmetry_equiv_pos_as_xyz
  1  'x, y, z'
loop_
 _atom_site_type_symbol
 _atom_site_label
 _atom_site_symmetry_multiplicity
 _atom_site_fract_x
 _atom_site_fract_y
 _atom_site_fract_z
 _atom_site_occupancy
  Tb  Tb0  1  0.250000  0.156116  0.562212  1
  Tb  Tb1  1  0.750000  0.841564  0.437662  1
  Tb  Tb2  1  0.250000  0.657922  0.937758  1
  Tb  Tb3  1  0.750000  0.344558  0.062579  1
  Tb  Tb4  1  0.250000  0.028090  0.780000  1
  Tb  Tb5  1  0.750000  0.971525  0.220212  1
  Tb  Tb6  1  0.250000  0.527682  0.719976  1
  Ho  Ho7  1  0.750000  0.470975  0.280439  1
  Al  Al8  1  0.250000  0.139737  0.348744  1
  Al  Al9  1  0.750000  0.858171  0.651243  1
  Al  Al10  1  0.250000  0.642258  0.151092  1
  Al  Al11  1  0.750000  0.359278  0.848932  1
  Al  Al12  1  0.250000  0.003844  0.065747  1
  Al  Al13  1  0.750000  0.000019  0.934403  1
  Al  Al14  1  0.250000  0.499660  0.434101  1
  Al  Al15  1  0.750000  0.497769  0.565508  1
  Ru  Ru16  1  0.750000  0.267754  0.434701  1
  Ru  Ru17  1  0.250000  0.730607  0.564815  1
  Ru  Ru18  1  0.750000  0.770733  0.064510  1
  Ru  Ru19  1  0.250000  0.232562  0.935017  1
  Ru  Ru20  1  0.750000  0.740518  0.813200  1
  Ru  Ru21  1  0.250000  0.263068  0.187562  1
  Ru  Ru22  1  0.750000  0.240138  0.686680  1
  Ru  Ru23  1  0.250000  0.755451  0.312907  1
