# generated using pymatgen
data_Th3ScPt12
_symmetry_space_group_name_H-M   'P 1'
_cell_length_a   5.91438400
_cell_length_b   5.91438331
_cell_length_c   9.70500700
_cell_angle_alpha   90.00000000
_cell_angle_beta   90.00000000
_cell_angle_gamma   120.00000383
_symmetry_Int_Tables_number   1
_chemical_formula_structural   Th3ScPt12
_chemical_formula_sum   'Th3 Sc1 Pt12'
_cell_volume   293.99872985
_cell_formula_units_Z   1
loop_
 _symmetry_equiv_pos_site_id
 _symmetry_equiv_pos_as_xyz
  1  'x, y, z'
loop_
 _atom_site_type_symbol
 _atom_site_label
 _atom_site_symmetry_multiplicity
 _atom_site_fract_x
 _atom_site_fract_y
 _atom_site_fract_z
 _atom_site_occupancy
  Th  Th0  1  0.000000  0.000000  0.494875  1
  Th  Th1  1  0.000000  0.000000  0.005125  1
  Th  Th2  1  0.666667  0.333333  0.750000  1
  Sc  Sc3  1  0.333333  0.666667  0.250000  1
  Pt  Pt4  1  0.497613  0.502387  0.494701  1
  Pt  Pt5  1  0.497613  0.995225  0.494701  1
  Pt  Pt6  1  0.004775  0.502387  0.494701  1
  Pt  Pt7  1  0.497613  0.502387  0.005299  1
  Pt  Pt8  1  0.497613  0.995225  0.005299  1
  Pt  Pt9  1  0.004775  0.502387  0.005299  1
  Pt  Pt10  1  0.824436  0.648872  0.250000  1
  Pt  Pt11  1  0.351128  0.175564  0.250000  1
  Pt  Pt12  1  0.824436  0.175564  0.250000  1
  Pt  Pt13  1  0.174422  0.348846  0.750000  1
  Pt  Pt14  1  0.651154  0.825578  0.750000  1
  Pt  Pt15  1  0.174422  0.825578  0.750000  1
