# generated using pymatgen
data_Tb3YAl4IrPd3
_symmetry_space_group_name_H-M   'P 1'
_cell_length_a   4.44575100
_cell_length_b   6.89409788
_cell_length_c   7.81926602
_cell_angle_alpha   89.87347245
_cell_angle_beta   90.00000000
_cell_angle_gamma   90.00000000
_symmetry_Int_Tables_number   1
_chemical_formula_structural   Tb3YAl4IrPd3
_chemical_formula_sum   'Tb3 Y1 Al4 Ir1 Pd3'
_cell_volume   239.65555994
_cell_formula_units_Z   1
loop_
 _symmetry_equiv_pos_site_id
 _symmetry_equiv_pos_as_xyz
  1  'x, y, z'
loop_
 _atom_site_type_symbol
 _atom_site_label
 _atom_site_symmetry_multiplicity
 _atom_site_fract_x
 _atom_site_fract_y
 _atom_site_fract_z
 _atom_site_occupancy
  Tb  Tb0  1  0.250000  0.035712  0.321644  1
  Tb  Tb1  1  0.750000  0.977144  0.679587  1
  Tb  Tb2  1  0.750000  0.464083  0.817188  1
  Y  Y3  1  0.250000  0.531578  0.180646  1
  Al  Al4  1  0.250000  0.147005  0.935527  1
  Al  Al5  1  0.250000  0.639056  0.562587  1
  Al  Al6  1  0.750000  0.855094  0.060346  1
  Al  Al7  1  0.750000  0.353846  0.440633  1
  Ir  Ir8  1  0.250000  0.270067  0.619331  1
  Pd  Pd9  1  0.250000  0.774008  0.881764  1
  Pd  Pd10  1  0.750000  0.726573  0.380664  1
  Pd  Pd11  1  0.750000  0.225836  0.120082  1
