# generated using pymatgen
data_RbCrGaF6
_symmetry_space_group_name_H-M   'P 1'
_cell_length_a   7.19491700
_cell_length_b   7.52450500
_cell_length_c   10.32336900
_cell_angle_alpha   90.00000000
_cell_angle_beta   90.00000000
_cell_angle_gamma   90.00000000
_symmetry_Int_Tables_number   1
_chemical_formula_structural   RbCrGaF6
_chemical_formula_sum   'Rb4 Cr4 Ga4 F24'
_cell_volume   558.88850143
_cell_formula_units_Z   4
loop_
 _symmetry_equiv_pos_site_id
 _symmetry_equiv_pos_as_xyz
  1  'x, y, z'
loop_
 _atom_site_type_symbol
 _atom_site_label
 _atom_site_symmetry_multiplicity
 _atom_site_fract_x
 _atom_site_fract_y
 _atom_site_fract_z
 _atom_site_occupancy
  Rb  Rb0  1  0.011732  0.250000  0.623655  1
  Rb  Rb1  1  0.988268  0.750000  0.376345  1
  Rb  Rb2  1  0.488268  0.750000  0.123655  1
  Rb  Rb3  1  0.511732  0.250000  0.876345  1
  Cr  Cr4  1  0.201881  0.250000  0.253647  1
  Cr  Cr5  1  0.798119  0.750000  0.746353  1
  Cr  Cr6  1  0.298119  0.750000  0.753647  1
  Cr  Cr7  1  0.701881  0.250000  0.246353  1
  Ga  Ga8  1  0.000000  0.000000  0.000000  1
  Ga  Ga9  1  0.500000  0.000000  0.500000  1
  Ga  Ga10  1  0.000000  0.500000  0.000000  1
  Ga  Ga11  1  0.500000  0.500000  0.500000  1
  F  F12  1  0.278258  0.055770  0.409294  1
  F  F13  1  0.721742  0.944230  0.590706  1
  F  F14  1  0.221742  0.944230  0.909294  1
  F  F15  1  0.721742  0.555770  0.590706  1
  F  F16  1  0.778258  0.055770  0.090706  1
  F  F17  1  0.278258  0.444230  0.409294  1
  F  F18  1  0.778258  0.444230  0.090706  1
  F  F19  1  0.221742  0.555770  0.909294  1
  F  F20  1  0.572537  0.250000  0.514507  1
  F  F21  1  0.427463  0.750000  0.485493  1
  F  F22  1  0.927463  0.750000  0.014507  1
  F  F23  1  0.072537  0.250000  0.985493  1
  F  F24  1  0.135360  0.509864  0.159819  1
  F  F25  1  0.864640  0.490136  0.840181  1
  F  F26  1  0.364640  0.490136  0.659819  1
  F  F27  1  0.864640  0.009864  0.840181  1
  F  F28  1  0.635360  0.509864  0.340181  1
  F  F29  1  0.135360  0.990136  0.159819  1
  F  F30  1  0.635360  0.990136  0.340181  1
  F  F31  1  0.364640  0.009864  0.659819  1
  F  F32  1  0.449071  0.250000  0.164933  1
  F  F33  1  0.550929  0.750000  0.835067  1
  F  F34  1  0.050929  0.750000  0.664933  1
  F  F35  1  0.949071  0.250000  0.335067  1
