# generated using pymatgen
data_CuH5N8
_symmetry_space_group_name_H-M   'P 1'
_cell_length_a   5.47000973
_cell_length_b   6.61059591
_cell_length_c   7.62506498
_cell_angle_alpha   96.52021164
_cell_angle_beta   94.95114082
_cell_angle_gamma   102.42607397
_symmetry_Int_Tables_number   1
_chemical_formula_structural   CuH5N8
_chemical_formula_sum   'Cu1 H5 N8'
_cell_volume   265.77374949
_cell_formula_units_Z   1
loop_
 _symmetry_equiv_pos_site_id
 _symmetry_equiv_pos_as_xyz
  1  'x, y, z'
loop_
 _atom_site_type_symbol
 _atom_site_label
 _atom_site_symmetry_multiplicity
 _atom_site_fract_x
 _atom_site_fract_y
 _atom_site_fract_z
 _atom_site_occupancy
  Cu  Cu0  1  0.114585  0.958324  0.506392  1
  H  H1  1  0.735477  0.832559  0.306657  1
  H  H2  1  0.426006  0.810165  0.670555  1
  H  H3  1  0.487748  0.062294  0.731772  1
  H  H4  1  0.579675  0.967593  0.535468  1
  H  H5  1  0.818651  0.085274  0.318731  1
  N  N6  1  0.804553  0.965999  0.394883  1
  N  N7  1  0.431619  0.949944  0.623429  1
  N  N8  1  0.267186  0.890802  0.107601  1
  N  N9  1  0.694274  0.488573  0.955849  1
  N  N10  1  0.184942  0.477221  0.338939  1
  N  N11  1  0.331608  0.423529  0.420500  1
  N  N12  1  0.298912  0.030549  0.036024  1
  N  N13  1  0.547262  0.546296  0.878774  1
