# generated using pymatgen
data_LaTbGdTaO7
_symmetry_space_group_name_H-M   'P 1'
_cell_length_a   6.58215753
_cell_length_b   6.58215890
_cell_length_c   7.66878600
_cell_angle_alpha   90.00000000
_cell_angle_beta   90.00000000
_cell_angle_gamma   110.08894366
_symmetry_Int_Tables_number   1
_chemical_formula_structural   LaTbGdTaO7
_chemical_formula_sum   'La2 Tb2 Gd2 Ta2 O14'
_cell_volume   312.03484527
_cell_formula_units_Z   2
loop_
 _symmetry_equiv_pos_site_id
 _symmetry_equiv_pos_as_xyz
  1  'x, y, z'
loop_
 _atom_site_type_symbol
 _atom_site_label
 _atom_site_symmetry_multiplicity
 _atom_site_fract_x
 _atom_site_fract_y
 _atom_site_fract_z
 _atom_site_occupancy
  La  La0  1  0.999975  0.000025  0.000000  1
  La  La1  1  0.999975  0.000025  0.500000  1
  Tb  Tb2  1  0.054776  0.515290  0.250000  1
  Tb  Tb3  1  0.484710  0.945224  0.750000  1
  Gd  Gd4  1  0.516236  0.055412  0.250000  1
  Gd  Gd5  1  0.944588  0.483764  0.750000  1
  Ta  Ta6  1  0.500086  0.499914  0.000000  1
  Ta  Ta7  1  0.500086  0.499914  0.500000  1
  O  O8  1  0.883042  0.159025  0.250000  1
  O  O9  1  0.840975  0.116958  0.750000  1
  O  O10  1  0.816910  0.558589  0.035620  1
  O  O11  1  0.816910  0.558589  0.464380  1
  O  O12  1  0.441411  0.183090  0.964380  1
  O  O13  1  0.441411  0.183090  0.535620  1
  O  O14  1  0.571794  0.572982  0.750000  1
  O  O15  1  0.427018  0.428206  0.250000  1
  O  O16  1  0.558898  0.817541  0.031832  1
  O  O17  1  0.182459  0.441102  0.531832  1
  O  O18  1  0.558898  0.817541  0.468168  1
  O  O19  1  0.182459  0.441102  0.968168  1
  O  O20  1  0.119679  0.842297  0.750000  1
  O  O21  1  0.157703  0.880321  0.250000  1
