# generated using pymatgen
data_EuHo7(B6Os)4
_symmetry_space_group_name_H-M   'P 1'
_cell_length_a   3.64468500
_cell_length_b   9.13360303
_cell_length_c   11.51625563
_cell_angle_alpha   89.93896478
_cell_angle_beta   90.00000000
_cell_angle_gamma   90.00000000
_symmetry_Int_Tables_number   1
_chemical_formula_structural   EuHo7(B6Os)4
_chemical_formula_sum   'Eu1 Ho7 B24 Os4'
_cell_volume   383.36563616
_cell_formula_units_Z   1
loop_
 _symmetry_equiv_pos_site_id
 _symmetry_equiv_pos_as_xyz
  1  'x, y, z'
loop_
 _atom_site_type_symbol
 _atom_site_label
 _atom_site_symmetry_multiplicity
 _atom_site_fract_x
 _atom_site_fract_y
 _atom_site_fract_z
 _atom_site_occupancy
  Eu  Eu0  1  0.000000  0.322464  0.413349  1
  Ho  Ho1  1  0.000000  0.677617  0.585869  1
  Ho  Ho2  1  0.000000  0.821648  0.086060  1
  Ho  Ho3  1  0.000000  0.178655  0.914249  1
  Ho  Ho4  1  0.000000  0.943675  0.372146  1
  Ho  Ho5  1  0.000000  0.056807  0.627755  1
  Ho  Ho6  1  0.000000  0.443455  0.127491  1
  Ho  Ho7  1  0.000000  0.556491  0.873648  1
  B  B8  1  0.500000  0.555089  0.432807  1
  B  B9  1  0.500000  0.447033  0.568410  1
  B  B10  1  0.500000  0.052636  0.066011  1
  B  B11  1  0.500000  0.946192  0.932773  1
  B  B12  1  0.500000  0.748747  0.419554  1
  B  B13  1  0.500000  0.252077  0.582191  1
  B  B14  1  0.500000  0.247477  0.079666  1
  B  B15  1  0.500000  0.751990  0.919809  1
  B  B16  1  0.500000  0.791478  0.266002  1
  B  B17  1  0.500000  0.209367  0.734665  1
  B  B18  1  0.500000  0.289382  0.231954  1
  B  B19  1  0.500000  0.709259  0.766824  1
  B  B20  1  0.500000  0.632037  0.185101  1
  B  B21  1  0.500000  0.368667  0.815640  1
  B  B22  1  0.500000  0.129951  0.313184  1
  B  B23  1  0.500000  0.868494  0.685350  1
  B  B24  1  0.500000  0.981985  0.211700  1
  B  B25  1  0.500000  0.017043  0.787314  1
  B  B26  1  0.500000  0.484573  0.286486  1
  B  B27  1  0.500000  0.517395  0.713634  1
  B  B28  1  0.500000  0.608806  0.030218  1
  B  B29  1  0.500000  0.391549  0.970214  1
  B  B30  1  0.500000  0.103446  0.471226  1
  B  B31  1  0.500000  0.893834  0.529492  1
  Os  Os32  1  0.000000  0.639903  0.320437  1
  Os  Os33  1  0.000000  0.362615  0.680691  1
  Os  Os34  1  0.000000  0.135389  0.176612  1
  Os  Os35  1  0.000000  0.862776  0.821467  1
