# generated using pymatgen
data_Y2Si7(MoPt3)3
_symmetry_space_group_name_H-M   'P 1'
_cell_length_a   9.82299000
_cell_length_b   9.82299060
_cell_length_c   4.00715100
_cell_angle_alpha   90.00000000
_cell_angle_beta   90.00000000
_cell_angle_gamma   120.00000470
_symmetry_Int_Tables_number   1
_chemical_formula_structural   Y2Si7(MoPt3)3
_chemical_formula_sum   'Y2 Si7 Mo3 Pt9'
_cell_volume   334.85265729
_cell_formula_units_Z   1
loop_
 _symmetry_equiv_pos_site_id
 _symmetry_equiv_pos_as_xyz
  1  'x, y, z'
loop_
 _atom_site_type_symbol
 _atom_site_label
 _atom_site_symmetry_multiplicity
 _atom_site_fract_x
 _atom_site_fract_y
 _atom_site_fract_z
 _atom_site_occupancy
  Y  Y0  1  0.000000  0.000000  0.000000  1
  Y  Y1  1  0.333333  0.666667  0.500000  1
  Si  Si2  1  0.264059  0.219980  0.500000  1
  Si  Si3  1  0.780020  0.044080  0.500000  1
  Si  Si4  1  0.955920  0.735941  0.500000  1
  Si  Si5  1  0.552691  0.627780  0.000000  1
  Si  Si6  1  0.372220  0.924909  0.000000  1
  Si  Si7  1  0.075091  0.447309  0.000000  1
  Si  Si8  1  0.666667  0.333333  0.000000  1
  Mo  Mo9  1  0.879341  0.451956  0.500000  1
  Mo  Mo10  1  0.572614  0.120659  0.500000  1
  Mo  Mo11  1  0.548044  0.427386  0.500000  1
  Pt  Pt12  1  0.223679  0.946111  0.500000  1
  Pt  Pt13  1  0.053889  0.277569  0.500000  1
  Pt  Pt14  1  0.722431  0.776321  0.500000  1
  Pt  Pt15  1  0.299898  0.407856  0.000000  1
  Pt  Pt16  1  0.592144  0.892042  0.000000  1
  Pt  Pt17  1  0.107958  0.700102  0.000000  1
  Pt  Pt18  1  0.386104  0.176241  0.000000  1
  Pt  Pt19  1  0.823759  0.209863  0.000000  1
  Pt  Pt20  1  0.790137  0.613896  0.000000  1
