# generated using pymatgen
data_Rb2MnFeP6(HO10)2
_symmetry_space_group_name_H-M   'P 1'
_cell_length_a   7.56164652
_cell_length_b   7.56164629
_cell_length_c   9.32384800
_cell_angle_alpha   74.01583682
_cell_angle_beta   74.01583733
_cell_angle_gamma   68.70677101
_symmetry_Int_Tables_number   1
_chemical_formula_structural   Rb2MnFeP6(HO10)2
_chemical_formula_sum   'Rb2 Mn1 Fe1 P6 H2 O20'
_cell_volume   468.28258598
_cell_formula_units_Z   1
loop_
 _symmetry_equiv_pos_site_id
 _symmetry_equiv_pos_as_xyz
  1  'x, y, z'
loop_
 _atom_site_type_symbol
 _atom_site_label
 _atom_site_symmetry_multiplicity
 _atom_site_fract_x
 _atom_site_fract_y
 _atom_site_fract_z
 _atom_site_occupancy
  Rb  Rb0  1  0.437817  0.561547  0.750979  1
  Rb  Rb1  1  0.562183  0.438453  0.249021  1
  Mn  Mn2  1  0.500000  0.000000  0.000000  1
  Fe  Fe3  1  0.000000  0.500000  0.500000  1
  P  P4  1  0.876592  0.131540  0.748634  1
  P  P5  1  0.123408  0.868460  0.251366  1
  P  P6  1  0.272935  0.142840  0.706303  1
  P  P7  1  0.855904  0.734978  0.794406  1
  P  P8  1  0.727065  0.857160  0.293697  1
  P  P9  1  0.144096  0.265022  0.205594  1
  H  H10  1  0.000000  0.500000  0.000000  1
  H  H11  1  0.500000  0.000000  0.500000  1
  O  O12  1  0.860723  0.290145  0.606831  1
  O  O13  1  0.714378  0.161119  0.884355  1
  O  O14  1  0.139277  0.709855  0.393169  1
  O  O15  1  0.285622  0.838881  0.115645  1
  O  O16  1  0.370488  0.146127  0.827961  1
  O  O17  1  0.854870  0.634149  0.674843  1
  O  O18  1  0.629512  0.853873  0.172039  1
  O  O19  1  0.145130  0.365851  0.325157  1
  O  O20  1  0.094683  0.066866  0.300954  1
  O  O21  1  0.925017  0.906542  0.199161  1
  O  O22  1  0.905317  0.933134  0.699046  1
  O  O23  1  0.074983  0.093458  0.800839  1
  O  O24  1  0.349036  0.212960  0.106722  1
  O  O25  1  0.778113  0.654295  0.393428  1
  O  O26  1  0.650964  0.787040  0.893278  1
  O  O27  1  0.221887  0.345705  0.606572  1
  O  O28  1  0.983936  0.375566  0.112662  1
  O  O29  1  0.616932  0.020219  0.383670  1
  O  O30  1  0.016064  0.624434  0.887338  1
  O  O31  1  0.383068  0.979781  0.616330  1
