# generated using pymatgen
data_BeV10Si2As3
_symmetry_space_group_name_H-M   'P 1'
_cell_length_a   9.42973947
_cell_length_b   7.07693344
_cell_length_c   7.06475221
_cell_angle_alpha   83.65145368
_cell_angle_beta   48.24368619
_cell_angle_gamma   48.13799035
_symmetry_Int_Tables_number   1
_chemical_formula_structural   BeV10Si2As3
_chemical_formula_sum   'Be1 V10 Si2 As3'
_cell_volume   209.36567298
_cell_formula_units_Z   1
loop_
 _symmetry_equiv_pos_site_id
 _symmetry_equiv_pos_as_xyz
  1  'x, y, z'
loop_
 _atom_site_type_symbol
 _atom_site_label
 _atom_site_symmetry_multiplicity
 _atom_site_fract_x
 _atom_site_fract_y
 _atom_site_fract_z
 _atom_site_occupancy
  Be  Be0  1  0.249927  0.249979  0.250028  1
  V  V1  1  0.787125  0.420866  0.566497  1
  V  V2  1  0.226143  0.565168  0.422653  1
  V  V3  1  0.714403  0.932935  0.080984  1
  V  V4  1  0.274981  0.080377  0.931174  1
  V  V5  1  0.933704  0.713567  0.270863  1
  V  V6  1  0.079658  0.276035  0.714460  1
  V  V7  1  0.422046  0.785511  0.224078  1
  V  V8  1  0.564003  0.227506  0.787482  1
  V  V9  1  0.746171  0.250796  0.253810  1
  V  V10  1  0.250854  0.746250  0.749071  1
  Si  Si11  1  0.750178  0.750311  0.749527  1
  Si  Si12  1  0.334410  0.333814  0.665862  1
  As  As13  1  0.666254  0.666919  0.333760  1
  As  As14  1  0.165851  0.834090  0.166389  1
  As  As15  1  0.834293  0.165877  0.833362  1
