# generated using pymatgen
data_ErZr3Sc4(P3Ir4)4
_symmetry_space_group_name_H-M   'P 1'
_cell_length_a   12.83030800
_cell_length_b   12.83030692
_cell_length_c   3.92307000
_cell_angle_alpha   90.00000000
_cell_angle_beta   90.00000000
_cell_angle_gamma   119.99999762
_symmetry_Int_Tables_number   1
_chemical_formula_structural   ErZr3Sc4(P3Ir4)4
_chemical_formula_sum   'Er1 Zr3 Sc4 P12 Ir16'
_cell_volume   559.28198058
_cell_formula_units_Z   1
loop_
 _symmetry_equiv_pos_site_id
 _symmetry_equiv_pos_as_xyz
  1  'x, y, z'
loop_
 _atom_site_type_symbol
 _atom_site_label
 _atom_site_symmetry_multiplicity
 _atom_site_fract_x
 _atom_site_fract_y
 _atom_site_fract_z
 _atom_site_occupancy
  Er  Er0  1  0.333333  0.666667  0.000000  1
  Zr  Zr1  1  0.449827  0.000372  0.000000  1
  Zr  Zr2  1  0.999628  0.449456  0.000000  1
  Zr  Zr3  1  0.550544  0.550173  0.000000  1
  Sc  Sc4  1  0.666667  0.333333  0.000000  1
  Sc  Sc5  1  0.816370  0.999963  0.500000  1
  Sc  Sc6  1  0.000037  0.816407  0.500000  1
  Sc  Sc7  1  0.183593  0.183630  0.500000  1
  P  P8  1  0.173777  0.000208  0.000000  1
  P  P9  1  0.999792  0.173569  0.000000  1
  P  P10  1  0.826431  0.826223  0.000000  1
  P  P11  1  0.169514  0.482058  0.500000  1
  P  P12  1  0.517942  0.687456  0.500000  1
  P  P13  1  0.312544  0.830486  0.500000  1
  P  P14  1  0.687338  0.516165  0.500000  1
  P  P15  1  0.828827  0.312662  0.500000  1
  P  P16  1  0.483835  0.171173  0.500000  1
  P  P17  1  0.652876  0.000179  0.000000  1
  P  P18  1  0.999821  0.652697  0.000000  1
  P  P19  1  0.347303  0.347124  0.000000  1
  Ir  Ir20  1  0.357389  0.493222  0.500000  1
  Ir  Ir21  1  0.506778  0.864167  0.500000  1
  Ir  Ir22  1  0.135833  0.642611  0.500000  1
  Ir  Ir23  1  0.861896  0.504984  0.500000  1
  Ir  Ir24  1  0.643087  0.138104  0.500000  1
  Ir  Ir25  1  0.495016  0.356913  0.500000  1
  Ir  Ir26  1  0.177912  0.367760  0.000000  1
  Ir  Ir27  1  0.632240  0.810153  0.000000  1
  Ir  Ir28  1  0.189847  0.822088  0.000000  1
  Ir  Ir29  1  0.809888  0.631780  0.000000  1
  Ir  Ir30  1  0.821893  0.190112  0.000000  1
  Ir  Ir31  1  0.368220  0.178107  0.000000  1
  Ir  Ir32  1  0.276098  0.000094  0.500000  1
  Ir  Ir33  1  0.999906  0.276004  0.500000  1
  Ir  Ir34  1  0.723996  0.723902  0.500000  1
  Ir  Ir35  1  0.000000  0.000000  0.000000  1
