# generated using pymatgen
data_Ce3NdHf4O14
_symmetry_space_group_name_H-M   'P 1'
_cell_length_a   7.59985072
_cell_length_b   7.58778988
_cell_length_c   7.59985100
_cell_angle_alpha   59.94740876
_cell_angle_beta   60.00000315
_cell_angle_gamma   59.94740771
_symmetry_Int_Tables_number   1
_chemical_formula_structural   Ce3NdHf4O14
_chemical_formula_sum   'Ce3 Nd1 Hf4 O14'
_cell_volume   309.64549022
_cell_formula_units_Z   1
loop_
 _symmetry_equiv_pos_site_id
 _symmetry_equiv_pos_as_xyz
  1  'x, y, z'
loop_
 _atom_site_type_symbol
 _atom_site_label
 _atom_site_symmetry_multiplicity
 _atom_site_fract_x
 _atom_site_fract_y
 _atom_site_fract_z
 _atom_site_occupancy
  Ce  Ce0  1  0.625000  0.125000  0.125000  1
  Ce  Ce1  1  0.125000  0.125000  0.625000  1
  Ce  Ce2  1  0.125000  0.125000  0.125000  1
  Nd  Nd3  1  0.125000  0.625000  0.125000  1
  Hf  Hf4  1  0.125000  0.625000  0.625000  1
  Hf  Hf5  1  0.625000  0.125000  0.625000  1
  Hf  Hf6  1  0.625000  0.625000  0.125000  1
  Hf  Hf7  1  0.625000  0.625000  0.625000  1
  O  O8  1  0.707573  0.706815  0.292806  1
  O  O9  1  0.293619  0.293364  0.706509  1
  O  O10  1  0.706509  0.293364  0.706509  1
  O  O11  1  0.292806  0.706815  0.292806  1
  O  O12  1  0.292806  0.706815  0.707573  1
  O  O13  1  0.706509  0.293364  0.293619  1
  O  O14  1  0.542427  0.543185  0.957194  1
  O  O15  1  0.956381  0.956636  0.543491  1
  O  O16  1  0.543491  0.956636  0.543491  1
  O  O17  1  0.957194  0.543185  0.957194  1
  O  O18  1  0.957194  0.543185  0.542427  1
  O  O19  1  0.543491  0.956636  0.956381  1
  O  O20  1  0.250682  0.247953  0.250682  1
  O  O21  1  0.999318  0.002047  0.999318  1
