# generated using pymatgen
data_CsPr6(CI6)2
_symmetry_space_group_name_H-M   'P 1'
_cell_length_a   9.81981761
_cell_length_b   9.80217760
_cell_length_c   10.27595885
_cell_angle_alpha   72.21923962
_cell_angle_beta   71.12151958
_cell_angle_gamma   72.73441360
_symmetry_Int_Tables_number   1
_chemical_formula_structural   CsPr6(CI6)2
_chemical_formula_sum   'Cs1 Pr6 C2 I12'
_cell_volume   869.42055907
_cell_formula_units_Z   1
loop_
 _symmetry_equiv_pos_site_id
 _symmetry_equiv_pos_as_xyz
  1  'x, y, z'
loop_
 _atom_site_type_symbol
 _atom_site_label
 _atom_site_symmetry_multiplicity
 _atom_site_fract_x
 _atom_site_fract_y
 _atom_site_fract_z
 _atom_site_occupancy
  Cs  Cs0  1  0.000001  0.499998  0.000002  1
  Pr  Pr1  1  0.474997  0.108122  0.194358  1
  Pr  Pr2  1  0.770572  0.031651  0.410843  1
  Pr  Pr3  1  0.590004  0.731216  0.474879  1
  Pr  Pr4  1  0.410000  0.268783  0.525120  1
  Pr  Pr5  1  0.229424  0.968352  0.589156  1
  Pr  Pr6  1  0.524999  0.891881  0.805638  1
  C  C7  1  0.494029  0.024096  0.429837  1
  C  C8  1  0.505967  0.975904  0.570162  1
  I  I9  1  0.799353  0.158028  0.079685  1
  I  I10  1  0.585244  0.779002  0.142926  1
  I  I11  1  0.351844  0.434430  0.221779  1
  I  I12  1  0.135990  0.069886  0.291571  1
  I  I13  1  0.927083  0.719065  0.354425  1
  I  I14  1  0.717883  0.366282  0.430726  1
  I  I15  1  0.282119  0.633718  0.569275  1
  I  I16  1  0.072924  0.280935  0.645583  1
  I  I17  1  0.864008  0.930113  0.708428  1
  I  I18  1  0.648158  0.565570  0.778220  1
  I  I19  1  0.414756  0.220999  0.857073  1
  I  I20  1  0.200649  0.841968  0.920315  1
