# generated using pymatgen
data_Sr4FePtO7F
_symmetry_space_group_name_H-M   'P 1'
_cell_length_a   7.01241902
_cell_length_b   7.01241968
_cell_length_c   5.59530800
_cell_angle_alpha   90.00000000
_cell_angle_beta   90.00000000
_cell_angle_gamma   132.80113804
_symmetry_Int_Tables_number   1
_chemical_formula_structural   Sr4FePtO7F
_chemical_formula_sum   'Sr4 Fe1 Pt1 O7 F1'
_cell_volume   201.87752182
_cell_formula_units_Z   1
loop_
 _symmetry_equiv_pos_site_id
 _symmetry_equiv_pos_as_xyz
  1  'x, y, z'
loop_
 _atom_site_type_symbol
 _atom_site_label
 _atom_site_symmetry_multiplicity
 _atom_site_fract_x
 _atom_site_fract_y
 _atom_site_fract_z
 _atom_site_occupancy
  Sr  Sr0  1  0.635121  0.364879  0.000000  1
  Sr  Sr1  1  0.146196  0.853804  0.500000  1
  Sr  Sr2  1  0.860041  0.139959  0.500000  1
  Sr  Sr3  1  0.360914  0.639086  0.000000  1
  Fe  Fe4  1  0.020641  0.979359  0.000000  1
  Pt  Pt5  1  0.499379  0.500621  0.500000  1
  O  O6  1  0.751634  0.759479  0.245447  1
  O  O7  1  0.240521  0.248366  0.754553  1
  O  O8  1  0.240521  0.248366  0.245447  1
  O  O9  1  0.751634  0.759479  0.754553  1
  O  O10  1  0.337680  0.662320  0.500000  1
  O  O11  1  0.662820  0.337180  0.500000  1
  O  O12  1  0.169818  0.830182  0.000000  1
  F  F13  1  0.823082  0.176918  0.000000  1
