# generated using pymatgen
data_Pr2VO5
_symmetry_space_group_name_H-M   'P 1'
_cell_length_a   3.92078500
_cell_length_b   10.93372800
_cell_length_c   11.50513200
_cell_angle_alpha   90.00000000
_cell_angle_beta   90.00000000
_cell_angle_gamma   90.00000000
_symmetry_Int_Tables_number   1
_chemical_formula_structural   Pr2VO5
_chemical_formula_sum   'Pr8 V4 O20'
_cell_volume   493.21116513
_cell_formula_units_Z   4
loop_
 _symmetry_equiv_pos_site_id
 _symmetry_equiv_pos_as_xyz
  1  'x, y, z'
loop_
 _atom_site_type_symbol
 _atom_site_label
 _atom_site_symmetry_multiplicity
 _atom_site_fract_x
 _atom_site_fract_y
 _atom_site_fract_z
 _atom_site_occupancy
  Pr  Pr0  1  0.250000  0.137600  0.942894  1
  Pr  Pr1  1  0.250000  0.637600  0.557106  1
  Pr  Pr2  1  0.750000  0.862400  0.057106  1
  Pr  Pr3  1  0.750000  0.362400  0.442894  1
  Pr  Pr4  1  0.750000  0.394404  0.778408  1
  Pr  Pr5  1  0.750000  0.894404  0.721592  1
  Pr  Pr6  1  0.250000  0.605596  0.221592  1
  Pr  Pr7  1  0.250000  0.105596  0.278408  1
  V  V8  1  0.250000  0.185279  0.624347  1
  V  V9  1  0.250000  0.685279  0.875653  1
  V  V10  1  0.750000  0.814721  0.375653  1
  V  V11  1  0.750000  0.314721  0.124347  1
  O  O12  1  0.250000  0.225976  0.464940  1
  O  O13  1  0.250000  0.725976  0.035060  1
  O  O14  1  0.750000  0.774024  0.535060  1
  O  O15  1  0.750000  0.274024  0.964940  1
  O  O16  1  0.250000  0.490775  0.396500  1
  O  O17  1  0.250000  0.990775  0.103500  1
  O  O18  1  0.750000  0.509225  0.603500  1
  O  O19  1  0.750000  0.009225  0.896500  1
  O  O20  1  0.250000  0.262193  0.121503  1
  O  O21  1  0.250000  0.762193  0.378497  1
  O  O22  1  0.750000  0.737807  0.878497  1
  O  O23  1  0.750000  0.237807  0.621503  1
  O  O24  1  0.250000  0.031239  0.664540  1
  O  O25  1  0.250000  0.531239  0.835460  1
  O  O26  1  0.750000  0.968761  0.335460  1
  O  O27  1  0.750000  0.468761  0.164540  1
  O  O28  1  0.250000  0.274032  0.769350  1
  O  O29  1  0.250000  0.774032  0.730650  1
  O  O30  1  0.750000  0.725968  0.230650  1
  O  O31  1  0.750000  0.225968  0.269350  1
