# generated using pymatgen
data_Sm5Th3(Si3Pd)4
_symmetry_space_group_name_H-M   'P 1'
_cell_length_a   8.22663700
_cell_length_b   8.21879573
_cell_length_c   8.45867200
_cell_angle_alpha   90.00000000
_cell_angle_beta   90.00000000
_cell_angle_gamma   120.03157735
_symmetry_Int_Tables_number   1
_chemical_formula_structural   Sm5Th3(Si3Pd)4
_chemical_formula_sum   'Sm5 Th3 Si12 Pd4'
_cell_volume   495.13663339
_cell_formula_units_Z   1
loop_
 _symmetry_equiv_pos_site_id
 _symmetry_equiv_pos_as_xyz
  1  'x, y, z'
loop_
 _atom_site_type_symbol
 _atom_site_label
 _atom_site_symmetry_multiplicity
 _atom_site_fract_x
 _atom_site_fract_y
 _atom_site_fract_z
 _atom_site_occupancy
  Sm  Sm0  1  0.499154  0.500815  0.750000  1
  Sm  Sm1  1  0.500745  0.499315  0.250000  1
  Sm  Sm2  1  0.001661  0.500815  0.750000  1
  Sm  Sm3  1  0.998571  0.499316  0.250000  1
  Sm  Sm4  1  0.499172  0.998345  0.750000  1
  Th  Th5  1  0.500727  0.001454  0.250000  1
  Th  Th6  1  0.999974  0.999947  0.750000  1
  Th  Th7  1  0.000028  0.000056  0.250000  1
  Si  Si8  1  0.834185  0.166227  0.998568  1
  Si  Si9  1  0.165820  0.833784  0.000173  1
  Si  Si10  1  0.332042  0.166227  0.998568  1
  Si  Si11  1  0.165820  0.833784  0.499827  1
  Si  Si12  1  0.667964  0.833784  0.000173  1
  Si  Si13  1  0.834185  0.166227  0.501432  1
  Si  Si14  1  0.833796  0.667593  0.999277  1
  Si  Si15  1  0.667964  0.833784  0.499827  1
  Si  Si16  1  0.166188  0.332377  0.000794  1
  Si  Si17  1  0.332042  0.166227  0.501432  1
  Si  Si18  1  0.166188  0.332377  0.499206  1
  Si  Si19  1  0.833796  0.667593  0.500723  1
  Pd  Pd20  1  0.666658  0.333315  0.996983  1
  Pd  Pd21  1  0.333329  0.666658  0.001021  1
  Pd  Pd22  1  0.333329  0.666658  0.498979  1
  Pd  Pd23  1  0.666658  0.333315  0.503017  1
