# generated using pymatgen
data_Tb2Fe4P6(RuRh)3
_symmetry_space_group_name_H-M   'P 1'
_cell_length_a   3.81280000
_cell_length_b   10.57729700
_cell_length_c   12.18733100
_cell_angle_alpha   90.00000000
_cell_angle_beta   90.00000000
_cell_angle_gamma   90.00000000
_symmetry_Int_Tables_number   1
_chemical_formula_structural   Tb2Fe4P6(RuRh)3
_chemical_formula_sum   'Tb4 Fe8 P12 Ru6 Rh6'
_cell_volume   491.50431002
_cell_formula_units_Z   2
loop_
 _symmetry_equiv_pos_site_id
 _symmetry_equiv_pos_as_xyz
  1  'x, y, z'
loop_
 _atom_site_type_symbol
 _atom_site_label
 _atom_site_symmetry_multiplicity
 _atom_site_fract_x
 _atom_site_fract_y
 _atom_site_fract_z
 _atom_site_occupancy
  Tb  Tb0  1  0.250000  0.579048  0.708214  1
  Tb  Tb1  1  0.250000  0.920952  0.208214  1
  Tb  Tb2  1  0.750000  0.420928  0.292223  1
  Tb  Tb3  1  0.750000  0.079072  0.792223  1
  Fe  Fe4  1  0.250000  0.879124  0.697918  1
  Fe  Fe5  1  0.250000  0.620876  0.197918  1
  Fe  Fe6  1  0.750000  0.120727  0.300769  1
  Fe  Fe7  1  0.750000  0.379273  0.800769  1
  Fe  Fe8  1  0.250000  0.461499  0.935787  1
  Fe  Fe9  1  0.250000  0.038501  0.435787  1
  Fe  Fe10  1  0.750000  0.538340  0.062987  1
  Fe  Fe11  1  0.750000  0.961660  0.562987  1
  P  P12  1  0.250000  0.437614  0.112377  1
  P  P13  1  0.250000  0.062386  0.612377  1
  P  P14  1  0.750000  0.562077  0.886932  1
  P  P15  1  0.750000  0.937923  0.386932  1
  P  P16  1  0.250000  0.271715  0.869030  1
  P  P17  1  0.250000  0.228285  0.369030  1
  P  P18  1  0.750000  0.725188  0.132939  1
  P  P19  1  0.750000  0.774812  0.632939  1
  P  P20  1  0.250000  0.600865  0.385271  1
  P  P21  1  0.250000  0.899135  0.885271  1
  P  P22  1  0.750000  0.396575  0.612412  1
  P  P23  1  0.750000  0.103425  0.112412  1
  Ru  Ru24  1  0.250000  0.705483  0.987480  1
  Ru  Ru25  1  0.250000  0.794517  0.487480  1
  Ru  Ru26  1  0.750000  0.295034  0.011812  1
  Ru  Ru27  1  0.750000  0.204966  0.511812  1
  Ru  Ru28  1  0.250000  0.406097  0.486141  1
  Ru  Ru29  1  0.250000  0.093903  0.986141  1
  Rh  Rh30  1  0.750000  0.596471  0.517489  1
  Rh  Rh31  1  0.750000  0.903529  0.017489  1
  Rh  Rh32  1  0.250000  0.232817  0.177419  1
  Rh  Rh33  1  0.250000  0.267183  0.677419  1
  Rh  Rh34  1  0.750000  0.768039  0.822802  1
  Rh  Rh35  1  0.750000  0.731961  0.322802  1
