# generated using pymatgen
data_Tm2Ga9Ni2Ru
_symmetry_space_group_name_H-M   'P 1'
_cell_length_a   7.45482891
_cell_length_b   7.45482823
_cell_length_c   9.39629335
_cell_angle_alpha   89.71072232
_cell_angle_beta   89.71072024
_cell_angle_gamma   119.99567058
_symmetry_Int_Tables_number   1
_chemical_formula_structural   Tm2Ga9Ni2Ru
_chemical_formula_sum   'Tm4 Ga18 Ni4 Ru2'
_cell_volume   452.22995521
_cell_formula_units_Z   2
loop_
 _symmetry_equiv_pos_site_id
 _symmetry_equiv_pos_as_xyz
  1  'x, y, z'
loop_
 _atom_site_type_symbol
 _atom_site_label
 _atom_site_symmetry_multiplicity
 _atom_site_fract_x
 _atom_site_fract_y
 _atom_site_fract_z
 _atom_site_occupancy
  Tm  Tm0  1  0.997003  0.665897  0.250034  1
  Tm  Tm1  1  0.002997  0.334103  0.749966  1
  Tm  Tm2  1  0.665897  0.997003  0.250034  1
  Tm  Tm3  1  0.334103  0.002997  0.749966  1
  Ga  Ga4  1  0.118919  0.118919  0.248828  1
  Ga  Ga5  1  0.881081  0.881081  0.751172  1
  Ga  Ga6  1  0.998660  0.333451  0.075905  1
  Ga  Ga7  1  0.001340  0.666549  0.924095  1
  Ga  Ga8  1  0.998763  0.668683  0.576313  1
  Ga  Ga9  1  0.331317  0.001237  0.423687  1
  Ga  Ga10  1  0.001237  0.331317  0.423687  1
  Ga  Ga11  1  0.668683  0.998763  0.576313  1
  Ga  Ga12  1  0.666549  0.001340  0.924095  1
  Ga  Ga13  1  0.333451  0.998660  0.075905  1
  Ga  Ga14  1  0.330478  0.330478  0.562945  1
  Ga  Ga15  1  0.669522  0.669522  0.437055  1
  Ga  Ga16  1  0.668080  0.668080  0.065547  1
  Ga  Ga17  1  0.331920  0.331920  0.934453  1
  Ga  Ga18  1  0.336370  0.548136  0.247434  1
  Ga  Ga19  1  0.663630  0.451864  0.752566  1
  Ga  Ga20  1  0.548136  0.336370  0.247434  1
  Ga  Ga21  1  0.451864  0.663630  0.752566  1
  Ni  Ni22  1  0.670747  0.329253  0.000000  1
  Ni  Ni23  1  0.329253  0.670747  0.000000  1
  Ni  Ni24  1  0.000000  0.000000  0.000000  1
  Ni  Ni25  1  0.000000  0.000000  0.500000  1
  Ru  Ru26  1  0.327407  0.672593  0.500000  1
  Ru  Ru27  1  0.672593  0.327407  0.500000  1
