# generated using pymatgen
data_Dy4Lu4In3Ni
_symmetry_space_group_name_H-M   'P 1'
_cell_length_a   10.25889200
_cell_length_b   10.25889279
_cell_length_c   7.04421800
_cell_angle_alpha   90.00000000
_cell_angle_beta   90.00000000
_cell_angle_gamma   119.99999745
_symmetry_Int_Tables_number   1
_chemical_formula_structural   Dy4Lu4In3Ni
_chemical_formula_sum   'Dy8 Lu8 In6 Ni2'
_cell_volume   642.04339090
_cell_formula_units_Z   2
loop_
 _symmetry_equiv_pos_site_id
 _symmetry_equiv_pos_as_xyz
  1  'x, y, z'
loop_
 _atom_site_type_symbol
 _atom_site_label
 _atom_site_symmetry_multiplicity
 _atom_site_fract_x
 _atom_site_fract_y
 _atom_site_fract_z
 _atom_site_occupancy
  Dy  Dy0  1  0.464914  0.535086  0.211236  1
  Dy  Dy1  1  0.070170  0.535086  0.211236  1
  Dy  Dy2  1  0.464914  0.929830  0.211236  1
  Dy  Dy3  1  0.535086  0.464914  0.711236  1
  Dy  Dy4  1  0.929830  0.464914  0.711236  1
  Dy  Dy5  1  0.535086  0.070170  0.711236  1
  Dy  Dy6  1  0.000000  0.000000  0.230853  1
  Dy  Dy7  1  0.000000  0.000000  0.730853  1
  Lu  Lu8  1  0.177143  0.822857  0.510213  1
  Lu  Lu9  1  0.645713  0.822857  0.510213  1
  Lu  Lu10  1  0.177143  0.354287  0.510213  1
  Lu  Lu11  1  0.822857  0.177143  0.010213  1
  Lu  Lu12  1  0.354287  0.177143  0.010213  1
  Lu  Lu13  1  0.822857  0.645713  0.010213  1
  Lu  Lu14  1  0.333333  0.666667  0.819461  1
  Lu  Lu15  1  0.666667  0.333333  0.319461  1
  In  In16  1  0.164081  0.835919  0.958282  1
  In  In17  1  0.671837  0.835919  0.958282  1
  In  In18  1  0.164081  0.328163  0.958282  1
  In  In19  1  0.835919  0.164081  0.458282  1
  In  In20  1  0.328163  0.164081  0.458282  1
  In  In21  1  0.835919  0.671837  0.458282  1
  Ni  Ni22  1  0.333333  0.666667  0.447911  1
  Ni  Ni23  1  0.666667  0.333333  0.947911  1
