# generated using pymatgen
data_Tb2YMnB7
_symmetry_space_group_name_H-M   'P 1'
_cell_length_a   8.10368278
_cell_length_b   8.10368354
_cell_length_c   9.32746200
_cell_angle_alpha   90.00000000
_cell_angle_beta   90.00000000
_cell_angle_gamma   155.39754361
_symmetry_Int_Tables_number   1
_chemical_formula_structural   Tb2YMnB7
_chemical_formula_sum   'Tb4 Y2 Mn2 B14'
_cell_volume   255.00895474
_cell_formula_units_Z   2
loop_
 _symmetry_equiv_pos_site_id
 _symmetry_equiv_pos_as_xyz
  1  'x, y, z'
loop_
 _atom_site_type_symbol
 _atom_site_label
 _atom_site_symmetry_multiplicity
 _atom_site_fract_x
 _atom_site_fract_y
 _atom_site_fract_z
 _atom_site_occupancy
  Tb  Tb0  1  0.896063  0.103937  0.439239  1
  Tb  Tb1  1  0.103937  0.896063  0.560761  1
  Tb  Tb2  1  0.896063  0.103937  0.060761  1
  Tb  Tb3  1  0.103937  0.896063  0.939239  1
  Y  Y4  1  0.239916  0.760084  0.250000  1
  Y  Y5  1  0.760084  0.239916  0.750000  1
  Mn  Mn6  1  0.053391  0.946609  0.250000  1
  Mn  Mn7  1  0.946609  0.053391  0.750000  1
  B  B8  1  0.727511  0.272489  0.467709  1
  B  B9  1  0.272489  0.727511  0.532291  1
  B  B10  1  0.727511  0.272489  0.032291  1
  B  B11  1  0.272489  0.727511  0.967709  1
  B  B12  1  0.629605  0.370395  0.153326  1
  B  B13  1  0.370395  0.629605  0.846674  1
  B  B14  1  0.629605  0.370395  0.346674  1
  B  B15  1  0.370395  0.629605  0.653326  1
  B  B16  1  0.522148  0.477852  0.098629  1
  B  B17  1  0.477852  0.522148  0.901371  1
  B  B18  1  0.522148  0.477852  0.401371  1
  B  B19  1  0.477852  0.522148  0.598629  1
  B  B20  1  0.461309  0.538691  0.250000  1
  B  B21  1  0.538691  0.461309  0.750000  1
