# generated using pymatgen
data_Zr4V4Re3W
_symmetry_space_group_name_H-M   'P 1'
_cell_length_a   5.29403255
_cell_length_b   5.30660232
_cell_length_c   8.57436300
_cell_angle_alpha   90.00000000
_cell_angle_beta   90.00000000
_cell_angle_gamma   120.38152541
_symmetry_Int_Tables_number   1
_chemical_formula_structural   Zr4V4Re3W
_chemical_formula_sum   'Zr4 V4 Re3 W1'
_cell_volume   207.80363002
_cell_formula_units_Z   1
loop_
 _symmetry_equiv_pos_site_id
 _symmetry_equiv_pos_as_xyz
  1  'x, y, z'
loop_
 _atom_site_type_symbol
 _atom_site_label
 _atom_site_symmetry_multiplicity
 _atom_site_fract_x
 _atom_site_fract_y
 _atom_site_fract_z
 _atom_site_occupancy
  Zr  Zr0  1  0.332524  0.665520  0.440063  1
  Zr  Zr1  1  0.666773  0.334299  0.936631  1
  Zr  Zr2  1  0.666773  0.334299  0.563369  1
  Zr  Zr3  1  0.332524  0.665520  0.059937  1
  V  V4  1  0.665840  0.833529  0.750000  1
  V  V5  1  0.333385  0.167042  0.250000  1
  V  V6  1  0.001844  0.999033  0.501754  1
  V  V7  1  0.001844  0.999033  0.998246  1
  Re  Re8  1  0.169579  0.338258  0.750000  1
  Re  Re9  1  0.169720  0.831834  0.750000  1
  Re  Re10  1  0.829778  0.663186  0.250000  1
  W  W11  1  0.829416  0.168445  0.250000  1
