# generated using pymatgen
data_Li8Ho4Tm4Sn5Sb3
_symmetry_space_group_name_H-M   'P 1'
_cell_length_a   9.36311300
_cell_length_b   9.36317585
_cell_length_c   7.10226000
_cell_angle_alpha   90.00097074
_cell_angle_beta   90.00000000
_cell_angle_gamma   119.99978149
_symmetry_Int_Tables_number   1
_chemical_formula_structural   Li8Ho4Tm4Sn5Sb3
_chemical_formula_sum   'Li8 Ho4 Tm4 Sn5 Sb3'
_cell_volume   539.22696226
_cell_formula_units_Z   1
loop_
 _symmetry_equiv_pos_site_id
 _symmetry_equiv_pos_as_xyz
  1  'x, y, z'
loop_
 _atom_site_type_symbol
 _atom_site_label
 _atom_site_symmetry_multiplicity
 _atom_site_fract_x
 _atom_site_fract_y
 _atom_site_fract_z
 _atom_site_occupancy
  Li  Li0  1  0.166639  0.333281  0.284395  1
  Li  Li1  1  0.166702  0.833388  0.284332  1
  Li  Li2  1  0.666684  0.833388  0.284332  1
  Li  Li3  1  0.832950  0.665899  0.785647  1
  Li  Li4  1  0.832760  0.166895  0.785761  1
  Li  Li5  1  0.334137  0.166895  0.785761  1
  Li  Li6  1  0.333375  0.666752  0.675606  1
  Li  Li7  1  0.666571  0.333140  0.179617  1
  Ho  Ho8  1  0.489701  0.510276  0.995902  1
  Ho  Ho9  1  0.020574  0.510276  0.995902  1
  Ho  Ho10  1  0.000023  0.000045  0.497798  1
  Ho  Ho11  1  0.000041  0.000082  0.004054  1
  Tm  Tm12  1  0.512345  0.024689  0.490480  1
  Tm  Tm13  1  0.512323  0.487588  0.490508  1
  Tm  Tm14  1  0.975266  0.487588  0.490508  1
  Tm  Tm15  1  0.489779  0.979559  0.996419  1
  Sn  Sn16  1  0.832976  0.665951  0.233077  1
  Sn  Sn17  1  0.832482  0.166866  0.232591  1
  Sn  Sn18  1  0.334384  0.166866  0.232591  1
  Sn  Sn19  1  0.333580  0.667161  0.260057  1
  Sn  Sn20  1  0.666398  0.332796  0.758783  1
  Sb  Sb21  1  0.166956  0.333913  0.732266  1
  Sb  Sb22  1  0.167466  0.833354  0.732792  1
  Sb  Sb23  1  0.665886  0.833354  0.732792  1
