# generated using pymatgen
data_Zr3AlSn2Ir3
_symmetry_space_group_name_H-M   'P 1'
_cell_length_a   7.38486421
_cell_length_b   7.38486456
_cell_length_c   7.31170000
_cell_angle_alpha   90.00000000
_cell_angle_beta   90.00000000
_cell_angle_gamma   121.00711536
_symmetry_Int_Tables_number   1
_chemical_formula_structural   Zr3AlSn2Ir3
_chemical_formula_sum   'Zr6 Al2 Sn4 Ir6'
_cell_volume   341.77209194
_cell_formula_units_Z   2
loop_
 _symmetry_equiv_pos_site_id
 _symmetry_equiv_pos_as_xyz
  1  'x, y, z'
loop_
 _atom_site_type_symbol
 _atom_site_label
 _atom_site_symmetry_multiplicity
 _atom_site_fract_x
 _atom_site_fract_y
 _atom_site_fract_z
 _atom_site_occupancy
  Zr  Zr0  1  0.406579  0.028122  0.250000  1
  Zr  Zr1  1  0.583621  0.597227  0.750000  1
  Zr  Zr2  1  0.597227  0.583621  0.250000  1
  Zr  Zr3  1  0.006952  0.392379  0.250000  1
  Zr  Zr4  1  0.028122  0.406579  0.750000  1
  Zr  Zr5  1  0.392379  0.006952  0.750000  1
  Al  Al6  1  0.261570  0.261570  0.500000  1
  Al  Al7  1  0.261570  0.261570  0.000000  1
  Sn  Sn8  1  0.733710  0.003132  0.999922  1
  Sn  Sn9  1  0.003132  0.733710  0.499922  1
  Sn  Sn10  1  0.733710  0.003132  0.500078  1
  Sn  Sn11  1  0.003132  0.733710  0.000078  1
  Ir  Ir12  1  0.649635  0.329930  0.520865  1
  Ir  Ir13  1  0.649635  0.329930  0.979135  1
  Ir  Ir14  1  0.329930  0.649635  0.020865  1
  Ir  Ir15  1  0.329930  0.649635  0.479135  1
  Ir  Ir16  1  0.013763  0.015404  0.750000  1
  Ir  Ir17  1  0.015404  0.013763  0.250000  1
