# generated using pymatgen
data_Ca2Ac(ZnPt)4
_symmetry_space_group_name_H-M   'P 1'
_cell_length_a   8.28022431
_cell_length_b   8.28022436
_cell_length_c   8.28022400
_cell_angle_alpha   150.49188684
_cell_angle_beta   127.66939672
_cell_angle_gamma   61.22376223
_symmetry_Int_Tables_number   1
_chemical_formula_structural   Ca2Ac(ZnPt)4
_chemical_formula_sum   'Ca2 Ac1 Zn4 Pt4'
_cell_volume   219.47551022
_cell_formula_units_Z   1
loop_
 _symmetry_equiv_pos_site_id
 _symmetry_equiv_pos_as_xyz
  1  'x, y, z'
loop_
 _atom_site_type_symbol
 _atom_site_label
 _atom_site_symmetry_multiplicity
 _atom_site_fract_x
 _atom_site_fract_y
 _atom_site_fract_z
 _atom_site_occupancy
  Ca  Ca0  1  0.874338  0.874338  0.000000  1
  Ca  Ca1  1  0.125662  0.125662  0.000000  1
  Ac  Ac2  1  0.500000  0.000000  0.500000  1
  Zn  Zn3  1  0.478529  0.675888  0.802641  1
  Zn  Zn4  1  0.873247  0.675888  0.197359  1
  Zn  Zn5  1  0.126753  0.324112  0.802641  1
  Zn  Zn6  1  0.521471  0.324112  0.197359  1
  Pt  Pt7  1  0.279006  0.779006  0.500000  1
  Pt  Pt8  1  0.720994  0.220994  0.500000  1
  Pt  Pt9  1  0.812322  0.500000  0.312322  1
  Pt  Pt10  1  0.187678  0.500000  0.687678  1
