# generated using pymatgen
data_Mg2Mn12P7
_symmetry_space_group_name_H-M   'P 1'
_cell_length_a   9.40106100
_cell_length_b   9.40106019
_cell_length_c   3.39070300
_cell_angle_alpha   90.00000000
_cell_angle_beta   90.00000000
_cell_angle_gamma   119.99999934
_symmetry_Int_Tables_number   1
_chemical_formula_structural   Mg2Mn12P7
_chemical_formula_sum   'Mg2 Mn12 P7'
_cell_volume   259.52194594
_cell_formula_units_Z   1
loop_
 _symmetry_equiv_pos_site_id
 _symmetry_equiv_pos_as_xyz
  1  'x, y, z'
loop_
 _atom_site_type_symbol
 _atom_site_label
 _atom_site_symmetry_multiplicity
 _atom_site_fract_x
 _atom_site_fract_y
 _atom_site_fract_z
 _atom_site_occupancy
  Mg  Mg0  1  0.000000  0.000000  0.000000  1
  Mg  Mg1  1  0.666667  0.333333  0.500000  1
  Mn  Mn2  1  0.390047  0.289060  0.000000  1
  Mn  Mn3  1  0.899012  0.609953  0.000000  1
  Mn  Mn4  1  0.710940  0.100988  0.000000  1
  Mn  Mn5  1  0.608915  0.783081  0.000000  1
  Mn  Mn6  1  0.174168  0.391085  0.000000  1
  Mn  Mn7  1  0.216919  0.825832  0.000000  1
  Mn  Mn8  1  0.770117  0.719500  0.500000  1
  Mn  Mn9  1  0.949383  0.229883  0.500000  1
  Mn  Mn10  1  0.280500  0.050617  0.500000  1
  Mn  Mn11  1  0.431608  0.534548  0.500000  1
  Mn  Mn12  1  0.102941  0.568392  0.500000  1
  Mn  Mn13  1  0.465452  0.897059  0.500000  1
  P  P14  1  0.623093  0.538829  0.000000  1
  P  P15  1  0.915736  0.376907  0.000000  1
  P  P16  1  0.461171  0.084264  0.000000  1
  P  P17  1  0.751509  0.958563  0.500000  1
  P  P18  1  0.207055  0.248491  0.500000  1
  P  P19  1  0.041437  0.792945  0.500000  1
  P  P20  1  0.333333  0.666667  0.000000  1
