# generated using pymatgen
data_Er5Tm5(In2Rh)4
_symmetry_space_group_name_H-M   'P 1'
_cell_length_a   3.56487400
_cell_length_b   7.99537719
_cell_length_c   18.19284642
_cell_angle_alpha   89.97527093
_cell_angle_beta   90.00000000
_cell_angle_gamma   90.00000000
_symmetry_Int_Tables_number   1
_chemical_formula_structural   Er5Tm5(In2Rh)4
_chemical_formula_sum   'Er5 Tm5 In8 Rh4'
_cell_volume   518.54177978
_cell_formula_units_Z   1
loop_
 _symmetry_equiv_pos_site_id
 _symmetry_equiv_pos_as_xyz
  1  'x, y, z'
loop_
 _atom_site_type_symbol
 _atom_site_label
 _atom_site_symmetry_multiplicity
 _atom_site_fract_x
 _atom_site_fract_y
 _atom_site_fract_z
 _atom_site_occupancy
  Er  Er0  1  0.000000  0.500040  0.500018  1
  Er  Er1  1  0.000000  0.000037  0.999962  1
  Er  Er2  1  0.000000  0.745535  0.278644  1
  Er  Er3  1  0.000000  0.254438  0.721314  1
  Er  Er4  1  0.000000  0.754497  0.778656  1
  Tm  Tm5  1  0.000000  0.245568  0.221395  1
  Tm  Tm6  1  0.000000  0.617691  0.087006  1
  Tm  Tm7  1  0.000000  0.382213  0.913051  1
  Tm  Tm8  1  0.000000  0.882245  0.586962  1
  Tm  Tm9  1  0.000000  0.117861  0.413000  1
  In  In10  1  0.500000  0.707029  0.932374  1
  In  In11  1  0.500000  0.292935  0.067802  1
  In  In12  1  0.500000  0.793057  0.432333  1
  In  In13  1  0.500000  0.206994  0.567636  1
  In  In14  1  0.500000  0.571895  0.649820  1
  In  In15  1  0.500000  0.427903  0.350034  1
  In  In16  1  0.500000  0.928395  0.149904  1
  In  In17  1  0.500000  0.071875  0.850177  1
  Rh  Rh18  1  0.500000  0.524519  0.195267  1
  Rh  Rh19  1  0.500000  0.474626  0.804845  1
  Rh  Rh20  1  0.500000  0.974622  0.695169  1
  Rh  Rh21  1  0.500000  0.026026  0.304632  1
