# generated using pymatgen
data_Ho2Tm4TiAl23Os8
_symmetry_space_group_name_H-M   'P 1'
_cell_length_a   8.84371000
_cell_length_b   8.83478752
_cell_length_c   9.53945200
_cell_angle_alpha   90.00225678
_cell_angle_beta   90.00000000
_cell_angle_gamma   120.03341369
_symmetry_Int_Tables_number   1
_chemical_formula_structural   Ho2Tm4TiAl23Os8
_chemical_formula_sum   'Ho2 Tm4 Ti1 Al23 Os8'
_cell_volume   645.26533694
_cell_formula_units_Z   1
loop_
 _symmetry_equiv_pos_site_id
 _symmetry_equiv_pos_as_xyz
  1  'x, y, z'
loop_
 _atom_site_type_symbol
 _atom_site_label
 _atom_site_symmetry_multiplicity
 _atom_site_fract_x
 _atom_site_fract_y
 _atom_site_fract_z
 _atom_site_occupancy
  Ho  Ho0  1  0.194720  0.389438  0.249977  1
  Ho  Ho1  1  0.806874  0.613747  0.747871  1
  Tm  Tm2  1  0.609700  0.804916  0.249913  1
  Tm  Tm3  1  0.387046  0.193480  0.747711  1
  Tm  Tm4  1  0.195217  0.804916  0.249913  1
  Tm  Tm5  1  0.806434  0.193480  0.747711  1
  Ti  Ti6  1  0.333454  0.666910  0.993592  1
  Al  Al7  1  0.666550  0.333099  0.980068  1
  Al  Al8  1  0.666576  0.333152  0.517193  1
  Al  Al9  1  0.333438  0.666878  0.480967  1
  Al  Al10  1  0.162405  0.324809  0.575688  1
  Al  Al11  1  0.837362  0.674724  0.423607  1
  Al  Al12  1  0.675195  0.837788  0.575436  1
  Al  Al13  1  0.836890  0.673780  0.077490  1
  Al  Al14  1  0.325266  0.162440  0.423878  1
  Al  Al15  1  0.159590  0.319181  0.925134  1
  Al  Al16  1  0.162593  0.837788  0.575436  1
  Al  Al17  1  0.326273  0.162975  0.077272  1
  Al  Al18  1  0.837175  0.162440  0.423878  1
  Al  Al19  1  0.680773  0.840544  0.925422  1
  Al  Al20  1  0.836702  0.162975  0.077272  1
  Al  Al21  1  0.159771  0.840544  0.925422  1
  Al  Al22  1  0.561443  0.122886  0.253286  1
  Al  Al23  1  0.441281  0.882564  0.750558  1
  Al  Al24  1  0.876739  0.438590  0.253293  1
  Al  Al25  1  0.117809  0.558659  0.750547  1
  Al  Al26  1  0.561850  0.438590  0.253293  1
  Al  Al27  1  0.440850  0.558659  0.750547  1
  Al  Al28  1  0.999785  0.999570  0.250133  1
  Al  Al29  1  0.000209  0.000418  0.749606  1
  Os  Os30  1  0.499250  0.998501  0.002770  1
  Os  Os31  1  0.001544  0.500788  0.002772  1
  Os  Os32  1  0.499698  0.999395  0.503221  1
  Os  Os33  1  0.499243  0.500788  0.002772  1
  Os  Os34  1  0.000688  0.500289  0.503139  1
  Os  Os35  1  0.499601  0.500289  0.503139  1
  Os  Os36  1  0.000013  0.000025  0.000398  1
  Os  Os37  1  0.999992  0.999983  0.499678  1
