# generated using pymatgen
data_Pa3Ni(PO4)6
_symmetry_space_group_name_H-M   'P 1'
_cell_length_a   9.44318026
_cell_length_b   9.44317990
_cell_length_c   9.44318034
_cell_angle_alpha   58.29870823
_cell_angle_beta   58.29870553
_cell_angle_gamma   58.29870487
_symmetry_Int_Tables_number   1
_chemical_formula_structural   Pa3Ni(PO4)6
_chemical_formula_sum   'Pa3 Ni1 P6 O24'
_cell_volume   572.24275424
_cell_formula_units_Z   1
loop_
 _symmetry_equiv_pos_site_id
 _symmetry_equiv_pos_as_xyz
  1  'x, y, z'
loop_
 _atom_site_type_symbol
 _atom_site_label
 _atom_site_symmetry_multiplicity
 _atom_site_fract_x
 _atom_site_fract_y
 _atom_site_fract_z
 _atom_site_occupancy
  Pa  Pa0  1  0.141420  0.141420  0.141420  1
  Pa  Pa1  1  0.356247  0.356247  0.356247  1
  Pa  Pa2  1  0.640842  0.640842  0.640842  1
  Ni  Ni3  1  0.855600  0.855600  0.855600  1
  P  P4  1  0.748282  0.031625  0.480452  1
  P  P5  1  0.031625  0.480452  0.748282  1
  P  P6  1  0.480452  0.748282  0.031625  1
  P  P7  1  0.549403  0.230733  0.964939  1
  P  P8  1  0.964939  0.549403  0.230733  1
  P  P9  1  0.230733  0.964939  0.549403  1
  O  O10  1  0.268825  0.128810  0.507493  1
  O  O11  1  0.507493  0.268825  0.128810  1
  O  O12  1  0.910371  0.058612  0.305670  1
  O  O13  1  0.128810  0.507493  0.268825  1
  O  O14  1  0.582703  0.198500  0.445274  1
  O  O15  1  0.774890  0.005857  0.636767  1
  O  O16  1  0.058612  0.305670  0.910371  1
  O  O17  1  0.198500  0.445274  0.582702  1
  O  O18  1  0.445274  0.582702  0.198500  1
  O  O19  1  0.378184  0.211542  0.998531  1
  O  O20  1  0.713141  0.071301  0.940511  1
  O  O21  1  0.998531  0.378184  0.211542  1
  O  O22  1  0.005857  0.636767  0.774890  1
  O  O23  1  0.305670  0.910371  0.058612  1
  O  O24  1  0.636767  0.774890  0.005857  1
  O  O25  1  0.568840  0.402145  0.799752  1
  O  O26  1  0.799752  0.568840  0.402145  1
  O  O27  1  0.940511  0.713141  0.071301  1
  O  O28  1  0.211542  0.998531  0.378184  1
  O  O29  1  0.402145  0.799752  0.568840  1
  O  O30  1  0.871789  0.503266  0.717678  1
  O  O31  1  0.071301  0.940511  0.713141  1
  O  O32  1  0.503266  0.717678  0.871789  1
  O  O33  1  0.717678  0.871789  0.503266  1
