# generated using pymatgen
data_Er12Ga3Tc2
_symmetry_space_group_name_H-M   'P 1'
_cell_length_a   8.30214163
_cell_length_b   8.30222514
_cell_length_c   8.30214313
_cell_angle_alpha   110.26698331
_cell_angle_beta   110.23798751
_cell_angle_gamma   107.91934070
_symmetry_Int_Tables_number   1
_chemical_formula_structural   Er12Ga3Tc2
_chemical_formula_sum   'Er12 Ga3 Tc2'
_cell_volume   440.26781421
_cell_formula_units_Z   1
loop_
 _symmetry_equiv_pos_site_id
 _symmetry_equiv_pos_as_xyz
  1  'x, y, z'
loop_
 _atom_site_type_symbol
 _atom_site_label
 _atom_site_symmetry_multiplicity
 _atom_site_fract_x
 _atom_site_fract_y
 _atom_site_fract_z
 _atom_site_occupancy
  Er  Er0  1  0.443421  0.188523  0.254921  1
  Er  Er1  1  0.556579  0.811477  0.745079  1
  Er  Er2  1  0.933602  0.188523  0.745103  1
  Er  Er3  1  0.188551  0.933603  0.745053  1
  Er  Er4  1  0.066398  0.811477  0.254897  1
  Er  Er5  1  0.811449  0.066397  0.254947  1
  Er  Er6  1  0.188536  0.443481  0.254946  1
  Er  Er7  1  0.811464  0.556519  0.745054  1
  Er  Er8  1  0.318682  0.318715  0.637412  1
  Er  Er9  1  0.681318  0.681285  0.362588  1
  Er  Er10  1  0.318696  0.681285  0.999967  1
  Er  Er11  1  0.681304  0.318715  0.000033  1
  Ga  Ga12  1  0.500000  0.000000  0.500000  1
  Ga  Ga13  1  0.000000  0.500000  0.500000  1
  Ga  Ga14  1  0.000000  0.000000  0.000000  1
  Tc  Tc15  1  0.335711  0.335710  0.999999  1
  Tc  Tc16  1  0.664289  0.664290  0.000001  1
