# generated using pymatgen
data_Gd4Sc4Cr3CoB24
_symmetry_space_group_name_H-M   'P 1'
_cell_length_a   3.46953600
_cell_length_b   9.00201385
_cell_length_c   11.39741634
_cell_angle_alpha   89.92656213
_cell_angle_beta   90.00000000
_cell_angle_gamma   90.00000000
_symmetry_Int_Tables_number   1
_chemical_formula_structural   Gd4Sc4Cr3CoB24
_chemical_formula_sum   'Gd4 Sc4 Cr3 Co1 B24'
_cell_volume   355.97305942
_cell_formula_units_Z   1
loop_
 _symmetry_equiv_pos_site_id
 _symmetry_equiv_pos_as_xyz
  1  'x, y, z'
loop_
 _atom_site_type_symbol
 _atom_site_label
 _atom_site_symmetry_multiplicity
 _atom_site_fract_x
 _atom_site_fract_y
 _atom_site_fract_z
 _atom_site_occupancy
  Gd  Gd0  1  0.000000  0.820959  0.084625  1
  Gd  Gd1  1  0.000000  0.177833  0.913998  1
  Gd  Gd2  1  0.000000  0.323051  0.415760  1
  Gd  Gd3  1  0.000000  0.677870  0.585303  1
  Sc  Sc4  1  0.000000  0.444516  0.130444  1
  Sc  Sc5  1  0.000000  0.555829  0.870430  1
  Sc  Sc6  1  0.000000  0.942628  0.370100  1
  Sc  Sc7  1  0.000000  0.056062  0.629525  1
  Cr  Cr8  1  0.000000  0.858932  0.818194  1
  Cr  Cr9  1  0.000000  0.641987  0.316420  1
  Cr  Cr10  1  0.000000  0.358394  0.682502  1
  Co  Co11  1  0.000000  0.141348  0.182594  1
  B  B12  1  0.500000  0.056877  0.069039  1
  B  B13  1  0.500000  0.944998  0.931997  1
  B  B14  1  0.500000  0.555313  0.431181  1
  B  B15  1  0.500000  0.445136  0.568796  1
  B  B16  1  0.500000  0.251613  0.083706  1
  B  B17  1  0.500000  0.746525  0.916776  1
  B  B18  1  0.500000  0.753261  0.416518  1
  B  B19  1  0.500000  0.247002  0.583150  1
  B  B20  1  0.500000  0.292097  0.235127  1
  B  B21  1  0.500000  0.705757  0.765072  1
  B  B22  1  0.500000  0.795278  0.264089  1
  B  B23  1  0.500000  0.205422  0.734909  1
  B  B24  1  0.500000  0.129592  0.316723  1
  B  B25  1  0.500000  0.871045  0.683788  1
  B  B26  1  0.500000  0.629374  0.183095  1
  B  B27  1  0.500000  0.370116  0.816550  1
  B  B28  1  0.500000  0.482574  0.285824  1
  B  B29  1  0.500000  0.517185  0.714428  1
  B  B30  1  0.500000  0.985855  0.213726  1
  B  B31  1  0.500000  0.017604  0.786097  1
  B  B32  1  0.500000  0.096353  0.473069  1
  B  B33  1  0.500000  0.903702  0.525374  1
  B  B34  1  0.500000  0.595660  0.026189  1
  B  B35  1  0.500000  0.402252  0.974882  1
