# generated using pymatgen
data_Ho20CdIn5Co2
_symmetry_space_group_name_H-M   'P 1'
_cell_length_a   9.60881360
_cell_length_b   9.62835266
_cell_length_c   9.72290000
_cell_angle_alpha   90.00000000
_cell_angle_beta   90.00000000
_cell_angle_gamma   120.06705826
_symmetry_Int_Tables_number   1
_chemical_formula_structural   Ho20CdIn5Co2
_chemical_formula_sum   'Ho20 Cd1 In5 Co2'
_cell_volume   778.49234868
_cell_formula_units_Z   1
loop_
 _symmetry_equiv_pos_site_id
 _symmetry_equiv_pos_as_xyz
  1  'x, y, z'
loop_
 _atom_site_type_symbol
 _atom_site_label
 _atom_site_symmetry_multiplicity
 _atom_site_fract_x
 _atom_site_fract_y
 _atom_site_fract_z
 _atom_site_occupancy
  Ho  Ho0  1  0.997472  0.998737  0.502335  1
  Ho  Ho1  1  0.997472  0.998737  0.997665  1
  Ho  Ho2  1  0.541555  0.458275  0.250000  1
  Ho  Ho3  1  0.541552  0.083280  0.250000  1
  Ho  Ho4  1  0.916888  0.458442  0.250000  1
  Ho  Ho5  1  0.460655  0.544620  0.750000  1
  Ho  Ho6  1  0.460658  0.916038  0.750000  1
  Ho  Ho7  1  0.084189  0.542094  0.750000  1
  Ho  Ho8  1  0.211821  0.788469  0.436129  1
  Ho  Ho9  1  0.211819  0.423353  0.436130  1
  Ho  Ho10  1  0.576756  0.788379  0.435451  1
  Ho  Ho11  1  0.788406  0.211646  0.564621  1
  Ho  Ho12  1  0.788405  0.576757  0.564617  1
  Ho  Ho13  1  0.422881  0.211438  0.565047  1
  Ho  Ho14  1  0.788406  0.211646  0.935379  1
  Ho  Ho15  1  0.788405  0.576757  0.935383  1
  Ho  Ho16  1  0.422881  0.211438  0.934953  1
  Ho  Ho17  1  0.211821  0.788469  0.063871  1
  Ho  Ho18  1  0.211819  0.423353  0.063870  1
  Ho  Ho19  1  0.576756  0.788379  0.064549  1
  Cd  Cd20  1  0.768506  0.884253  0.750000  1
  In  In21  1  0.885322  0.115350  0.250000  1
  In  In22  1  0.885304  0.769956  0.250000  1
  In  In23  1  0.229580  0.114793  0.250000  1
  In  In24  1  0.115352  0.883833  0.750000  1
  In  In25  1  0.115355  0.231531  0.750000  1
  Co  Co26  1  0.332699  0.666349  0.250000  1
  Co  Co27  1  0.667267  0.333629  0.750000  1
