# generated using pymatgen
data_TbGd3C5
_symmetry_space_group_name_H-M   'P 1'
_cell_length_a   3.71467800
_cell_length_b   6.66618101
_cell_length_c   12.09409190
_cell_angle_alpha   88.70246690
_cell_angle_beta   90.00000000
_cell_angle_gamma   90.00000000
_symmetry_Int_Tables_number   1
_chemical_formula_structural   TbGd3C5
_chemical_formula_sum   'Tb2 Gd6 C10'
_cell_volume   299.40577056
_cell_formula_units_Z   2
loop_
 _symmetry_equiv_pos_site_id
 _symmetry_equiv_pos_as_xyz
  1  'x, y, z'
loop_
 _atom_site_type_symbol
 _atom_site_label
 _atom_site_symmetry_multiplicity
 _atom_site_fract_x
 _atom_site_fract_y
 _atom_site_fract_z
 _atom_site_occupancy
  Tb  Tb0  1  0.500000  0.609920  0.695554  1
  Tb  Tb1  1  0.500000  0.390080  0.304446  1
  Gd  Gd2  1  0.000000  0.254351  0.543407  1
  Gd  Gd3  1  0.000000  0.745649  0.456593  1
  Gd  Gd4  1  0.000000  0.753610  0.958450  1
  Gd  Gd5  1  0.000000  0.246390  0.041550  1
  Gd  Gd6  1  0.500000  0.103694  0.802696  1
  Gd  Gd7  1  0.500000  0.896306  0.197304  1
  C  C8  1  0.500000  0.500000  0.500000  1
  C  C9  1  0.500000  0.000000  0.000000  1
  C  C10  1  0.000000  0.357984  0.738567  1
  C  C11  1  0.000000  0.642016  0.261433  1
  C  C12  1  0.000000  0.861750  0.764159  1
  C  C13  1  0.000000  0.138250  0.235841  1
  C  C14  1  0.000000  0.425964  0.840746  1
  C  C15  1  0.000000  0.574036  0.159254  1
  C  C16  1  0.000000  0.115204  0.345760  1
  C  C17  1  0.000000  0.884796  0.654240  1
