# generated using pymatgen
data_SmHoNi2(SnH)2
_symmetry_space_group_name_H-M   'P 1'
_cell_length_a   4.27664600
_cell_length_b   7.13404310
_cell_length_c   8.34124711
_cell_angle_alpha   89.98143561
_cell_angle_beta   90.00000000
_cell_angle_gamma   90.00000000
_symmetry_Int_Tables_number   1
_chemical_formula_structural   SmHoNi2(SnH)2
_chemical_formula_sum   'Sm2 Ho2 Ni4 Sn4 H4'
_cell_volume   254.48957469
_cell_formula_units_Z   2
loop_
 _symmetry_equiv_pos_site_id
 _symmetry_equiv_pos_as_xyz
  1  'x, y, z'
loop_
 _atom_site_type_symbol
 _atom_site_label
 _atom_site_symmetry_multiplicity
 _atom_site_fract_x
 _atom_site_fract_y
 _atom_site_fract_z
 _atom_site_occupancy
  Sm  Sm0  1  0.250000  0.485154  0.187698  1
  Sm  Sm1  1  0.750000  0.514846  0.812302  1
  Ho  Ho2  1  0.750000  0.014945  0.685073  1
  Ho  Ho3  1  0.250000  0.985055  0.314927  1
  Ni  Ni4  1  0.750000  0.780025  0.109102  1
  Ni  Ni5  1  0.250000  0.219975  0.890898  1
  Ni  Ni6  1  0.250000  0.728438  0.602570  1
  Ni  Ni7  1  0.750000  0.271562  0.397430  1
  Sn  Sn8  1  0.750000  0.658191  0.429281  1
  Sn  Sn9  1  0.250000  0.341809  0.570719  1
  Sn  Sn10  1  0.250000  0.844514  0.928205  1
  Sn  Sn11  1  0.750000  0.155486  0.071795  1
  H  H12  1  0.250000  0.442629  0.919861  1
  H  H13  1  0.750000  0.557371  0.080139  1
  H  H14  1  0.750000  0.049486  0.422318  1
  H  H15  1  0.250000  0.950514  0.577682  1
