# generated using pymatgen
data_Ho4ErLu11(Ga3Co)2
_symmetry_space_group_name_H-M   'P 1'
_cell_length_a   9.81230502
_cell_length_b   9.81230505
_cell_length_c   6.84223400
_cell_angle_alpha   90.00217424
_cell_angle_beta   89.99782535
_cell_angle_gamma   119.99254254
_symmetry_Int_Tables_number   1
_chemical_formula_structural   Ho4ErLu11(Ga3Co)2
_chemical_formula_sum   'Ho4 Er1 Lu11 Ga6 Co2'
_cell_volume   570.56255520
_cell_formula_units_Z   1
loop_
 _symmetry_equiv_pos_site_id
 _symmetry_equiv_pos_as_xyz
  1  'x, y, z'
loop_
 _atom_site_type_symbol
 _atom_site_label
 _atom_site_symmetry_multiplicity
 _atom_site_fract_x
 _atom_site_fract_y
 _atom_site_fract_z
 _atom_site_occupancy
  Ho  Ho0  1  0.929843  0.464962  0.708042  1
  Ho  Ho1  1  0.535038  0.070157  0.708042  1
  Ho  Ho2  1  0.999983  0.000017  0.230615  1
  Ho  Ho3  1  0.999977  0.000023  0.730771  1
  Er  Er4  1  0.535135  0.464865  0.707980  1
  Lu  Lu5  1  0.174328  0.825672  0.509214  1
  Lu  Lu6  1  0.651365  0.825625  0.509250  1
  Lu  Lu7  1  0.174375  0.348635  0.509250  1
  Lu  Lu8  1  0.825897  0.174103  0.013094  1
  Lu  Lu9  1  0.348301  0.174188  0.013008  1
  Lu  Lu10  1  0.825812  0.651699  0.013008  1
  Lu  Lu11  1  0.333344  0.666656  0.828253  1
  Lu  Lu12  1  0.666624  0.333376  0.326956  1
  Lu  Lu13  1  0.463452  0.536548  0.207310  1
  Lu  Lu14  1  0.073116  0.536561  0.207312  1
  Lu  Lu15  1  0.463439  0.926884  0.207312  1
  Ga  Ga16  1  0.163922  0.836078  0.960139  1
  Ga  Ga17  1  0.672182  0.836090  0.960125  1
  Ga  Ga18  1  0.163910  0.327818  0.960125  1
  Ga  Ga19  1  0.836449  0.163551  0.458584  1
  Ga  Ga20  1  0.327188  0.163632  0.458634  1
  Ga  Ga21  1  0.836368  0.672812  0.458634  1
  Co  Co22  1  0.333339  0.666661  0.443267  1
  Co  Co23  1  0.666611  0.333389  0.945120  1
