# generated using pymatgen
data_CdBi3O8
_symmetry_space_group_name_H-M   'P 1'
_cell_length_a   6.15943590
_cell_length_b   6.15943519
_cell_length_c   6.15943543
_cell_angle_alpha   111.51515720
_cell_angle_beta   109.36697540
_cell_angle_gamma   107.55584070
_symmetry_Int_Tables_number   1
_chemical_formula_structural   CdBi3O8
_chemical_formula_sum   'Cd1 Bi3 O8'
_cell_volume   179.67183018
_cell_formula_units_Z   1
loop_
 _symmetry_equiv_pos_site_id
 _symmetry_equiv_pos_as_xyz
  1  'x, y, z'
loop_
 _atom_site_type_symbol
 _atom_site_label
 _atom_site_symmetry_multiplicity
 _atom_site_fract_x
 _atom_site_fract_y
 _atom_site_fract_z
 _atom_site_occupancy
  Cd  Cd0  1  0.501033  0.250000  0.251033  1
  Bi  Bi1  1  0.499711  0.750000  0.749711  1
  Bi  Bi2  1  0.000068  0.991284  0.491353  1
  Bi  Bi3  1  0.000068  0.508716  0.008784  1
  O  O4  1  0.303305  0.988664  0.791969  1
  O  O5  1  0.188574  0.439017  0.749558  1
  O  O6  1  0.303305  0.511336  0.314641  1
  O  O7  1  0.810541  0.060983  0.749558  1
  O  O8  1  0.188920  0.939186  0.249734  1
  O  O9  1  0.810549  0.560814  0.249734  1
  O  O10  1  0.696962  0.512255  0.709218  1
  O  O11  1  0.696962  0.987745  0.184707  1
