# generated using pymatgen
data_TbHoIn(AsRh2)6
_symmetry_space_group_name_H-M   'P 1'
_cell_length_a   10.05647700
_cell_length_b   10.05647714
_cell_length_c   3.98289000
_cell_angle_alpha   90.00000000
_cell_angle_beta   90.00000000
_cell_angle_gamma   119.99999626
_symmetry_Int_Tables_number   1
_chemical_formula_structural   TbHoIn(AsRh2)6
_chemical_formula_sum   'Tb1 Ho1 In1 As6 Rh12'
_cell_volume   348.83551606
_cell_formula_units_Z   1
loop_
 _symmetry_equiv_pos_site_id
 _symmetry_equiv_pos_as_xyz
  1  'x, y, z'
loop_
 _atom_site_type_symbol
 _atom_site_label
 _atom_site_symmetry_multiplicity
 _atom_site_fract_x
 _atom_site_fract_y
 _atom_site_fract_z
 _atom_site_occupancy
  Tb  Tb0  1  0.333333  0.666667  0.244750  1
  Ho  Ho1  1  0.666667  0.333333  0.755270  1
  In  In2  1  0.000000  0.000000  0.500073  1
  As  As3  1  0.405005  0.117235  0.254640  1
  As  As4  1  0.712229  0.594995  0.254640  1
  As  As5  1  0.882765  0.287771  0.254640  1
  As  As6  1  0.595417  0.883069  0.745311  1
  As  As7  1  0.287652  0.404583  0.745311  1
  As  As8  1  0.116931  0.712348  0.745311  1
  Rh  Rh9  1  0.450607  0.385085  0.251365  1
  Rh  Rh10  1  0.934478  0.549393  0.251365  1
  Rh  Rh11  1  0.614915  0.065522  0.251365  1
  Rh  Rh12  1  0.550084  0.614795  0.748707  1
  Rh  Rh13  1  0.064710  0.449916  0.748707  1
  Rh  Rh14  1  0.385205  0.935290  0.748707  1
  Rh  Rh15  1  0.159481  0.873382  0.241816  1
  Rh  Rh16  1  0.713901  0.840519  0.241816  1
  Rh  Rh17  1  0.126618  0.286099  0.241816  1
  Rh  Rh18  1  0.840471  0.126787  0.758131  1
  Rh  Rh19  1  0.286316  0.159529  0.758131  1
  Rh  Rh20  1  0.873213  0.713684  0.758131  1
