# generated using pymatgen
data_DyTm2(CuSi)4
_symmetry_space_group_name_H-M   'P 1'
_cell_length_a   7.79951781
_cell_length_b   7.79951789
_cell_length_c   7.79951783
_cell_angle_alpha   149.43150582
_cell_angle_beta   130.47682257
_cell_angle_gamma   59.32536050
_symmetry_Int_Tables_number   1
_chemical_formula_structural   DyTm2(CuSi)4
_chemical_formula_sum   'Dy1 Tm2 Cu4 Si4'
_cell_volume   182.08328836
_cell_formula_units_Z   1
loop_
 _symmetry_equiv_pos_site_id
 _symmetry_equiv_pos_as_xyz
  1  'x, y, z'
loop_
 _atom_site_type_symbol
 _atom_site_label
 _atom_site_symmetry_multiplicity
 _atom_site_fract_x
 _atom_site_fract_y
 _atom_site_fract_z
 _atom_site_occupancy
  Dy  Dy0  1  0.500000  0.500000  0.000000  1
  Tm  Tm1  1  0.871168  0.371168  0.500000  1
  Tm  Tm2  1  0.128832  0.628832  0.500000  1
  Cu  Cu3  1  0.522667  0.831103  0.691565  1
  Cu  Cu4  1  0.860462  0.168897  0.691565  1
  Cu  Cu5  1  0.139538  0.831103  0.308435  1
  Cu  Cu6  1  0.477333  0.168897  0.308435  1
  Si  Si7  1  0.816241  0.000000  0.816241  1
  Si  Si8  1  0.183759  0.000000  0.183759  1
  Si  Si9  1  0.283484  0.283484  0.000000  1
  Si  Si10  1  0.716516  0.716516  0.000000  1
