# generated using pymatgen
data_Rb3MnVBr9
_symmetry_space_group_name_H-M   'P 1'
_cell_length_a   7.56485600
_cell_length_b   7.56485682
_cell_length_c   19.16107700
_cell_angle_alpha   90.00000000
_cell_angle_beta   90.00000000
_cell_angle_gamma   119.99998765
_symmetry_Int_Tables_number   1
_chemical_formula_structural   Rb3MnVBr9
_chemical_formula_sum   'Rb6 Mn2 V2 Br18'
_cell_volume   949.62465155
_cell_formula_units_Z   2
loop_
 _symmetry_equiv_pos_site_id
 _symmetry_equiv_pos_as_xyz
  1  'x, y, z'
loop_
 _atom_site_type_symbol
 _atom_site_label
 _atom_site_symmetry_multiplicity
 _atom_site_fract_x
 _atom_site_fract_y
 _atom_site_fract_z
 _atom_site_occupancy
  Rb  Rb0  1  0.666667  0.333333  0.563987  1
  Rb  Rb1  1  0.333333  0.666667  0.065857  1
  Rb  Rb2  1  0.333333  0.666667  0.436013  1
  Rb  Rb3  1  0.666667  0.333333  0.934143  1
  Rb  Rb4  1  0.000000  0.000000  0.251359  1
  Rb  Rb5  1  0.000000  0.000000  0.748641  1
  Mn  Mn6  1  0.333333  0.666667  0.657537  1
  Mn  Mn7  1  0.666667  0.333333  0.342463  1
  V  V8  1  0.333333  0.666667  0.837488  1
  V  V9  1  0.666667  0.333333  0.162512  1
  Br  Br10  1  0.829764  0.659529  0.408269  1
  Br  Br11  1  0.170236  0.829764  0.591731  1
  Br  Br12  1  0.659529  0.829764  0.591731  1
  Br  Br13  1  0.829764  0.170236  0.408269  1
  Br  Br14  1  0.340471  0.170236  0.408269  1
  Br  Br15  1  0.174166  0.348332  0.908510  1
  Br  Br16  1  0.025316  0.512658  0.752288  1
  Br  Br17  1  0.651668  0.825834  0.908510  1
  Br  Br18  1  0.825834  0.651668  0.091490  1
  Br  Br19  1  0.170236  0.340471  0.591731  1
  Br  Br20  1  0.487342  0.974684  0.752288  1
  Br  Br21  1  0.512658  0.487342  0.247712  1
  Br  Br22  1  0.487342  0.512658  0.752288  1
  Br  Br23  1  0.174166  0.825834  0.908510  1
  Br  Br24  1  0.348332  0.174166  0.091490  1
  Br  Br25  1  0.974684  0.487342  0.247712  1
  Br  Br26  1  0.512658  0.025316  0.247712  1
  Br  Br27  1  0.825834  0.174166  0.091490  1
