# generated using pymatgen
data_Tm6Fe2Si5Rh
_symmetry_space_group_name_H-M   'P 1'
_cell_length_a   4.07002336
_cell_length_b   5.56693713
_cell_length_c   12.92108795
_cell_angle_alpha   94.79147080
_cell_angle_beta   99.06153214
_cell_angle_gamma   68.55838192
_symmetry_Int_Tables_number   1
_chemical_formula_structural   Tm6Fe2Si5Rh
_chemical_formula_sum   'Tm6 Fe2 Si5 Rh1'
_cell_volume   268.99042753
_cell_formula_units_Z   1
loop_
 _symmetry_equiv_pos_site_id
 _symmetry_equiv_pos_as_xyz
  1  'x, y, z'
loop_
 _atom_site_type_symbol
 _atom_site_label
 _atom_site_symmetry_multiplicity
 _atom_site_fract_x
 _atom_site_fract_y
 _atom_site_fract_z
 _atom_site_occupancy
  Tm  Tm0  1  0.400396  0.278835  0.079626  1
  Tm  Tm1  1  0.746890  0.735722  0.229505  1
  Tm  Tm2  1  0.526145  0.331918  0.384207  1
  Tm  Tm3  1  0.473445  0.670666  0.617555  1
  Tm  Tm4  1  0.250039  0.267930  0.768007  1
  Tm  Tm5  1  0.603228  0.715703  0.922156  1
  Fe  Fe6  1  0.246082  0.927135  0.419298  1
  Fe  Fe7  1  0.753528  0.077300  0.584354  1
  Si  Si8  1  0.058872  0.130298  0.248040  1
  Si  Si9  1  0.853261  0.748315  0.454839  1
  Si  Si10  1  0.144760  0.256497  0.546016  1
  Si  Si11  1  0.940115  0.872939  0.753171  1
  Si  Si12  1  0.889597  0.136971  0.916163  1
  Rh  Rh13  1  0.113647  0.849772  0.077063  1
