# generated using pymatgen
data_Ni5Mo2Pt
_symmetry_space_group_name_H-M   'P 1'
_cell_length_a   4.29929600
_cell_length_b   4.57663877
_cell_length_c   5.14797953
_cell_angle_alpha   90.43890219
_cell_angle_beta   90.00000000
_cell_angle_gamma   90.00000000
_symmetry_Int_Tables_number   1
_chemical_formula_structural   Ni5Mo2Pt
_chemical_formula_sum   'Ni5 Mo2 Pt1'
_cell_volume   101.29034526
_cell_formula_units_Z   1
loop_
 _symmetry_equiv_pos_site_id
 _symmetry_equiv_pos_as_xyz
  1  'x, y, z'
loop_
 _atom_site_type_symbol
 _atom_site_label
 _atom_site_symmetry_multiplicity
 _atom_site_fract_x
 _atom_site_fract_y
 _atom_site_fract_z
 _atom_site_occupancy
  Ni  Ni0  1  0.500000  0.158684  0.246615  1
  Ni  Ni1  1  0.000000  0.827275  0.751983  1
  Ni  Ni2  1  0.000000  0.840581  0.254092  1
  Ni  Ni3  1  0.000000  0.344198  0.492938  1
  Ni  Ni4  1  0.500000  0.664781  0.006070  1
  Mo  Mo5  1  0.500000  0.655997  0.487571  1
  Mo  Mo6  1  0.000000  0.350360  0.012092  1
  Pt  Pt7  1  0.500000  0.158123  0.748640  1
