# generated using pymatgen
data_Dy3HoLu(SiB4)2
_symmetry_space_group_name_H-M   'P 1'
_cell_length_a   7.20471307
_cell_length_b   7.20471307
_cell_length_c   8.02016100
_cell_angle_alpha   90.00000000
_cell_angle_beta   90.00000000
_cell_angle_gamma   90.01592099
_symmetry_Int_Tables_number   1
_chemical_formula_structural   Dy3HoLu(SiB4)2
_chemical_formula_sum   'Dy6 Ho2 Lu2 Si4 B16'
_cell_volume   416.30962222
_cell_formula_units_Z   2
loop_
 _symmetry_equiv_pos_site_id
 _symmetry_equiv_pos_as_xyz
  1  'x, y, z'
loop_
 _atom_site_type_symbol
 _atom_site_label
 _atom_site_symmetry_multiplicity
 _atom_site_fract_x
 _atom_site_fract_y
 _atom_site_fract_z
 _atom_site_occupancy
  Dy  Dy0  1  0.680183  0.180218  0.225649  1
  Dy  Dy1  1  0.319782  0.819817  0.774351  1
  Dy  Dy2  1  0.319782  0.819817  0.225649  1
  Dy  Dy3  1  0.819748  0.680252  0.225592  1
  Dy  Dy4  1  0.819748  0.680252  0.774408  1
  Dy  Dy5  1  0.680183  0.180218  0.774351  1
  Ho  Ho6  1  0.180274  0.319726  0.775040  1
  Ho  Ho7  1  0.180274  0.319726  0.224960  1
  Lu  Lu8  1  0.000080  0.000151  0.500000  1
  Lu  Lu9  1  0.499849  0.499920  0.500000  1
  Si  Si10  1  0.116124  0.615704  0.500000  1
  Si  Si11  1  0.884296  0.383876  0.500000  1
  Si  Si12  1  0.383757  0.116243  0.500000  1
  Si  Si13  1  0.615904  0.884096  0.500000  1
  B  B14  1  0.172602  0.039382  0.000000  1
  B  B15  1  0.827552  0.960936  0.000000  1
  B  B16  1  0.961118  0.172653  0.000000  1
  B  B17  1  0.327347  0.538882  0.000000  1
  B  B18  1  0.039139  0.827550  0.000000  1
  B  B19  1  0.672450  0.460861  0.000000  1
  B  B20  1  0.539064  0.672448  0.000000  1
  B  B21  1  0.460618  0.327398  0.000000  1
  B  B22  1  0.089702  0.589396  0.000000  1
  B  B23  1  0.910604  0.410298  0.000000  1
  B  B24  1  0.410264  0.089736  0.000000  1
  B  B25  1  0.589685  0.910315  0.000000  1
  B  B26  1  0.000139  0.000203  0.164250  1
  B  B27  1  0.000139  0.000203  0.835750  1
  B  B28  1  0.499797  0.499861  0.835750  1
  B  B29  1  0.499797  0.499861  0.164250  1
