# generated using pymatgen
data_Ho3Sn3IrRuRh
_symmetry_space_group_name_H-M   'P 1'
_cell_length_a   7.57468800
_cell_length_b   7.57468643
_cell_length_c   3.83557900
_cell_angle_alpha   90.00000000
_cell_angle_beta   90.00000000
_cell_angle_gamma   119.99999812
_symmetry_Int_Tables_number   1
_chemical_formula_structural   Ho3Sn3IrRuRh
_chemical_formula_sum   'Ho3 Sn3 Ir1 Ru1 Rh1'
_cell_volume   190.58599343
_cell_formula_units_Z   1
loop_
 _symmetry_equiv_pos_site_id
 _symmetry_equiv_pos_as_xyz
  1  'x, y, z'
loop_
 _atom_site_type_symbol
 _atom_site_label
 _atom_site_symmetry_multiplicity
 _atom_site_fract_x
 _atom_site_fract_y
 _atom_site_fract_z
 _atom_site_occupancy
  Ho  Ho0  1  0.405550  0.407859  0.500000  1
  Ho  Ho1  1  0.592141  0.997691  0.500000  1
  Ho  Ho2  1  0.002309  0.594450  0.500000  1
  Sn  Sn3  1  0.739348  0.738859  0.000000  1
  Sn  Sn4  1  0.261141  0.000489  0.000000  1
  Sn  Sn5  1  0.999511  0.260652  0.000000  1
  Ir  Ir6  1  0.333333  0.666667  0.000000  1
  Ru  Ru7  1  0.000000  0.000000  0.500000  1
  Rh  Rh8  1  0.666667  0.333333  0.000000  1
