# generated using pymatgen
data_La5YCoCl11
_symmetry_space_group_name_H-M   'P 1'
_cell_length_a   8.27582518
_cell_length_b   8.25634520
_cell_length_c   7.32000900
_cell_angle_alpha   86.65096882
_cell_angle_beta   86.70296685
_cell_angle_gamma   101.66346480
_symmetry_Int_Tables_number   1
_chemical_formula_structural   La5YCoCl11
_chemical_formula_sum   'La5 Y1 Co1 Cl11'
_cell_volume   487.76738043
_cell_formula_units_Z   1
loop_
 _symmetry_equiv_pos_site_id
 _symmetry_equiv_pos_as_xyz
  1  'x, y, z'
loop_
 _atom_site_type_symbol
 _atom_site_label
 _atom_site_symmetry_multiplicity
 _atom_site_fract_x
 _atom_site_fract_y
 _atom_site_fract_z
 _atom_site_occupancy
  La  La0  1  0.701379  0.017241  0.769229  1
  La  La1  1  0.184847  0.180131  0.772964  1
  La  La2  1  0.983303  0.294410  0.231397  1
  La  La3  1  0.020927  0.704885  0.767954  1
  La  La4  1  0.818557  0.818196  0.228163  1
  Y  Y5  1  0.285368  0.984932  0.220737  1
  Co  Co6  1  0.003155  0.999121  0.001955  1
  Cl  Cl7  1  0.999974  0.999615  0.501692  1
  Cl  Cl8  1  0.659638  0.097155  0.361311  1
  Cl  Cl9  1  0.485992  0.201049  0.954763  1
  Cl  Cl10  1  0.308948  0.294562  0.363663  1
  Cl  Cl11  1  0.904360  0.342664  0.639002  1
  Cl  Cl12  1  0.207640  0.489535  0.943386  1
  Cl  Cl13  1  0.793905  0.509554  0.056889  1
  Cl  Cl14  1  0.105880  0.667848  0.356373  1
  Cl  Cl15  1  0.692793  0.692182  0.632984  1
  Cl  Cl16  1  0.500432  0.801271  0.066846  1
  Cl  Cl17  1  0.342900  0.905646  0.630690  1
