# generated using pymatgen
data_Tb3Tm3Al17Si7Os8
_symmetry_space_group_name_H-M   'P 1'
_cell_length_a   8.70105704
_cell_length_b   8.68855313
_cell_length_c   9.47794000
_cell_angle_alpha   90.00000000
_cell_angle_beta   90.00000000
_cell_angle_gamma   120.11458787
_symmetry_Int_Tables_number   1
_chemical_formula_structural   Tb3Tm3Al17Si7Os8
_chemical_formula_sum   'Tb3 Tm3 Al17 Si7 Os8'
_cell_volume   619.81408449
_cell_formula_units_Z   1
loop_
 _symmetry_equiv_pos_site_id
 _symmetry_equiv_pos_as_xyz
  1  'x, y, z'
loop_
 _atom_site_type_symbol
 _atom_site_label
 _atom_site_symmetry_multiplicity
 _atom_site_fract_x
 _atom_site_fract_y
 _atom_site_fract_z
 _atom_site_occupancy
  Tb  Tb0  1  0.807699  0.615620  0.750000  1
  Tb  Tb1  1  0.386680  0.190207  0.750000  1
  Tb  Tb2  1  0.802664  0.190793  0.750000  1
  Tm  Tm3  1  0.193504  0.389643  0.250000  1
  Tm  Tm4  1  0.609391  0.806328  0.250000  1
  Tm  Tm5  1  0.196620  0.804191  0.250000  1
  Al  Al6  1  0.164798  0.330649  0.577136  1
  Al  Al7  1  0.834485  0.671635  0.420265  1
  Al  Al8  1  0.670563  0.834844  0.576586  1
  Al  Al9  1  0.834485  0.671635  0.079735  1
  Al  Al10  1  0.329405  0.165721  0.421681  1
  Al  Al11  1  0.164798  0.330649  0.922864  1
  Al  Al12  1  0.164147  0.834076  0.575332  1
  Al  Al13  1  0.329405  0.165721  0.078319  1
  Al  Al14  1  0.835687  0.163864  0.421181  1
  Al  Al15  1  0.670563  0.834844  0.923414  1
  Al  Al16  1  0.835687  0.163864  0.078819  1
  Al  Al17  1  0.164147  0.834076  0.924668  1
  Al  Al18  1  0.126008  0.565714  0.750000  1
  Al  Al19  1  0.564253  0.435092  0.250000  1
  Al  Al20  1  0.438532  0.566321  0.750000  1
  Al  Al21  1  0.999725  0.999033  0.250000  1
  Al  Al22  1  0.999907  0.001373  0.750000  1
  Si  Si23  1  0.333494  0.664755  0.041726  1
  Si  Si24  1  0.666534  0.335948  0.961658  1
  Si  Si25  1  0.666534  0.335948  0.538342  1
  Si  Si26  1  0.333494  0.664755  0.458274  1
  Si  Si27  1  0.564799  0.124044  0.250000  1
  Si  Si28  1  0.435514  0.871778  0.750000  1
  Si  Si29  1  0.874732  0.434398  0.250000  1
  Os  Os30  1  0.500498  0.000142  0.002545  1
  Os  Os31  1  0.999259  0.499867  0.008003  1
  Os  Os32  1  0.500498  0.000142  0.497455  1
  Os  Os33  1  0.500357  0.500634  0.001600  1
  Os  Os34  1  0.999259  0.499867  0.491997  1
  Os  Os35  1  0.500357  0.500634  0.498400  1
  Os  Os36  1  0.000761  0.000598  0.000030  1
  Os  Os37  1  0.000761  0.000598  0.499970  1
