# generated using pymatgen
data_Ho4Ga7Cu5
_symmetry_space_group_name_H-M   'P 1'
_cell_length_a   4.31561900
_cell_length_b   6.51298790
_cell_length_c   10.02248283
_cell_angle_alpha   90.33543777
_cell_angle_beta   90.00000000
_cell_angle_gamma   90.00000000
_symmetry_Int_Tables_number   1
_chemical_formula_structural   Ho4Ga7Cu5
_chemical_formula_sum   'Ho4 Ga7 Cu5'
_cell_volume   281.70285345
_cell_formula_units_Z   1
loop_
 _symmetry_equiv_pos_site_id
 _symmetry_equiv_pos_as_xyz
  1  'x, y, z'
loop_
 _atom_site_type_symbol
 _atom_site_label
 _atom_site_symmetry_multiplicity
 _atom_site_fract_x
 _atom_site_fract_y
 _atom_site_fract_z
 _atom_site_occupancy
  Ho  Ho0  1  0.500000  0.761579  0.166939  1
  Ho  Ho1  1  0.500000  0.264201  0.342093  1
  Ho  Ho2  1  0.000000  0.238288  0.842610  1
  Ho  Ho3  1  0.000000  0.744141  0.649220  1
  Ga  Ga4  1  0.500000  0.926420  0.843562  1
  Ga  Ga5  1  0.500000  0.433972  0.651372  1
  Ga  Ga6  1  0.000000  0.074133  0.152884  1
  Ga  Ga7  1  0.000000  0.577237  0.352526  1
  Ga  Ga8  1  0.500000  0.236486  0.044663  1
  Ga  Ga9  1  0.000000  0.261092  0.545307  1
  Ga  Ga10  1  0.000000  0.760435  0.954818  1
  Cu  Cu11  1  0.500000  0.547482  0.895301  1
  Cu  Cu12  1  0.500000  0.044697  0.602236  1
  Cu  Cu13  1  0.000000  0.453760  0.109913  1
  Cu  Cu14  1  0.000000  0.953402  0.392731  1
  Cu  Cu15  1  0.500000  0.722676  0.453825  1
