# generated using pymatgen
data_Tb7Er12MgIr12
_symmetry_space_group_name_H-M   'P 1'
_cell_length_a   10.83670611
_cell_length_b   10.82773123
_cell_length_c   6.30453607
_cell_angle_alpha   90.01646749
_cell_angle_beta   90.00062213
_cell_angle_gamma   89.98343359
_symmetry_Int_Tables_number   1
_chemical_formula_structural   Tb7Er12MgIr12
_chemical_formula_sum   'Tb7 Er12 Mg1 Ir12'
_cell_volume   739.75491580
_cell_formula_units_Z   1
loop_
 _symmetry_equiv_pos_site_id
 _symmetry_equiv_pos_as_xyz
  1  'x, y, z'
loop_
 _atom_site_type_symbol
 _atom_site_label
 _atom_site_symmetry_multiplicity
 _atom_site_fract_x
 _atom_site_fract_y
 _atom_site_fract_z
 _atom_site_occupancy
  Tb  Tb0  1  0.282182  0.086185  0.378571  1
  Tb  Tb1  1  0.288811  0.911074  0.878755  1
  Tb  Tb2  1  0.710760  0.089745  0.878828  1
  Tb  Tb3  1  0.717761  0.914597  0.378783  1
  Tb  Tb4  1  0.590247  0.790511  0.879640  1
  Tb  Tb5  1  0.588022  0.209961  0.377593  1
  Tb  Tb6  1  0.411475  0.790750  0.377686  1
  Er  Er7  1  0.409925  0.208172  0.880827  1
  Er  Er8  1  0.208042  0.412941  0.621768  1
  Er  Er9  1  0.207199  0.587766  0.119569  1
  Er  Er10  1  0.792869  0.412182  0.118634  1
  Er  Er11  1  0.792657  0.585816  0.621134  1
  Er  Er12  1  0.913039  0.707858  0.119426  1
  Er  Er13  1  0.917084  0.285327  0.619895  1
  Er  Er14  1  0.083112  0.714412  0.619724  1
  Er  Er15  1  0.087059  0.292008  0.118975  1
  Er  Er16  1  0.999964  0.000045  0.001727  1
  Er  Er17  1  0.499620  0.499265  0.002013  1
  Er  Er18  1  0.499931  0.500037  0.502123  1
  Mg  Mg19  1  0.999880  0.001181  0.500297  1
  Ir  Ir20  1  0.849548  0.156543  0.247723  1
  Ir  Ir21  1  0.848300  0.844860  0.753393  1
  Ir  Ir22  1  0.153301  0.154877  0.754891  1
  Ir  Ir23  1  0.150308  0.843794  0.248242  1
  Ir  Ir24  1  0.654672  0.348190  0.749819  1
  Ir  Ir25  1  0.655147  0.651751  0.252979  1
  Ir  Ir26  1  0.345112  0.347761  0.250750  1
  Ir  Ir27  1  0.344139  0.651009  0.748770  1
  Ir  Ir28  1  0.499721  0.000932  0.124195  1
  Ir  Ir29  1  0.499596  0.000871  0.621321  1
  Ir  Ir30  1  0.000303  0.499932  0.873612  1
  Ir  Ir31  1  0.000214  0.499646  0.378336  1
