# generated using pymatgen
data_Sr4Dy2TaRuO12
_symmetry_space_group_name_H-M   'P 1'
_cell_length_a   5.91107663
_cell_length_b   5.83777550
_cell_length_c   10.11398026
_cell_angle_alpha   55.05279496
_cell_angle_beta   89.78240490
_cell_angle_gamma   89.95220967
_symmetry_Int_Tables_number   1
_chemical_formula_structural   Sr4Dy2TaRuO12
_chemical_formula_sum   'Sr4 Dy2 Ta1 Ru1 O12'
_cell_volume   286.07296704
_cell_formula_units_Z   1
loop_
 _symmetry_equiv_pos_site_id
 _symmetry_equiv_pos_as_xyz
  1  'x, y, z'
loop_
 _atom_site_type_symbol
 _atom_site_label
 _atom_site_symmetry_multiplicity
 _atom_site_fract_x
 _atom_site_fract_y
 _atom_site_fract_z
 _atom_site_occupancy
  Sr  Sr0  1  0.534728  0.743484  0.746249  1
  Sr  Sr1  1  0.038570  0.261172  0.745764  1
  Sr  Sr2  1  0.961430  0.738828  0.254236  1
  Sr  Sr3  1  0.465272  0.256516  0.253751  1
  Dy  Dy4  1  0.000000  0.000000  0.500000  1
  Dy  Dy5  1  0.500000  0.000000  0.000000  1
  Ta  Ta6  1  0.000000  0.500000  0.000000  1
  Ru  Ru7  1  0.500000  0.500000  0.500000  1
  O  O8  1  0.521248  0.809767  0.266905  1
  O  O9  1  0.022076  0.185210  0.235686  1
  O  O10  1  0.478752  0.190233  0.733095  1
  O  O11  1  0.977924  0.814790  0.764314  1
  O  O12  1  0.770992  0.655060  0.541531  1
  O  O13  1  0.275477  0.349631  0.955739  1
  O  O14  1  0.229008  0.344940  0.458469  1
  O  O15  1  0.724523  0.650369  0.044261  1
  O  O16  1  0.197240  0.733240  0.040935  1
  O  O17  1  0.699482  0.269012  0.460728  1
  O  O18  1  0.802760  0.266760  0.959065  1
  O  O19  1  0.300518  0.730988  0.539272  1
