# generated using pymatgen
data_TbHo2Ni8Ir
_symmetry_space_group_name_H-M   'P 1'
_cell_length_a   4.96191655
_cell_length_b   4.96191781
_cell_length_c   8.76038382
_cell_angle_alpha   73.54859188
_cell_angle_beta   73.54860180
_cell_angle_gamma   60.00000192
_symmetry_Int_Tables_number   1
_chemical_formula_structural   TbHo2Ni8Ir
_chemical_formula_sum   'Tb1 Ho2 Ni8 Ir1'
_cell_volume   176.51988805
_cell_formula_units_Z   1
loop_
 _symmetry_equiv_pos_site_id
 _symmetry_equiv_pos_as_xyz
  1  'x, y, z'
loop_
 _atom_site_type_symbol
 _atom_site_label
 _atom_site_symmetry_multiplicity
 _atom_site_fract_x
 _atom_site_fract_y
 _atom_site_fract_z
 _atom_site_occupancy
  Tb  Tb0  1  0.000000  0.000000  0.000000  1
  Ho  Ho1  1  0.138464  0.138464  0.584609  1
  Ho  Ho2  1  0.861536  0.861536  0.415391  1
  Ni  Ni3  1  0.078002  0.581393  0.759209  1
  Ni  Ni4  1  0.581393  0.581393  0.759209  1
  Ni  Ni5  1  0.581393  0.078002  0.759209  1
  Ni  Ni6  1  0.921998  0.418607  0.240791  1
  Ni  Ni7  1  0.418607  0.418607  0.240791  1
  Ni  Ni8  1  0.418607  0.921998  0.240791  1
  Ni  Ni9  1  0.333271  0.333271  0.000187  1
  Ni  Ni10  1  0.666729  0.666729  0.999813  1
  Ir  Ir11  1  0.500000  0.500000  0.500000  1
