# generated using pymatgen
data_Hf6Sc2Ti9Si16Mo3
_symmetry_space_group_name_H-M   'P 1'
_cell_length_a   6.59367908
_cell_length_b   6.75709723
_cell_length_c   12.92260587
_cell_angle_alpha   90.02332827
_cell_angle_beta   89.90344838
_cell_angle_gamma   90.03672303
_symmetry_Int_Tables_number   1
_chemical_formula_structural   Hf6Sc2Ti9Si16Mo3
_chemical_formula_sum   'Hf6 Sc2 Ti9 Si16 Mo3'
_cell_volume   575.75448701
_cell_formula_units_Z   1
loop_
 _symmetry_equiv_pos_site_id
 _symmetry_equiv_pos_as_xyz
  1  'x, y, z'
loop_
 _atom_site_type_symbol
 _atom_site_label
 _atom_site_symmetry_multiplicity
 _atom_site_fract_x
 _atom_site_fract_y
 _atom_site_fract_z
 _atom_site_occupancy
  Hf  Hf0  1  0.500697  0.673203  0.906084  1
  Hf  Hf1  1  0.001811  0.826747  0.594409  1
  Hf  Hf2  1  0.498745  0.327675  0.093988  1
  Hf  Hf3  1  0.996360  0.173874  0.405674  1
  Hf  Hf4  1  0.497533  0.327578  0.406495  1
  Hf  Hf5  1  0.501961  0.673530  0.593651  1
  Sc  Sc6  1  0.997222  0.173822  0.095026  1
  Sc  Sc7  1  0.000352  0.826660  0.905300  1
  Ti  Ti8  1  0.164174  0.493170  0.748894  1
  Ti  Ti9  1  0.337107  0.170541  0.624814  1
  Ti  Ti10  1  0.664030  0.829526  0.375195  1
  Ti  Ti11  1  0.165565  0.670192  0.375422  1
  Ti  Ti12  1  0.664010  0.828730  0.124850  1
  Ti  Ti13  1  0.834560  0.328488  0.624232  1
  Ti  Ti14  1  0.337248  0.172442  0.874748  1
  Ti  Ti15  1  0.832679  0.328696  0.874258  1
  Ti  Ti16  1  0.167171  0.669897  0.125939  1
  Si  Si17  1  0.037639  0.118122  0.750038  1
  Si  Si18  1  0.963741  0.882908  0.249794  1
  Si  Si19  1  0.464031  0.616344  0.250295  1
  Si  Si20  1  0.536946  0.383658  0.749595  1
  Si  Si21  1  0.295918  0.862245  0.750230  1
  Si  Si22  1  0.702482  0.137566  0.249679  1
  Si  Si23  1  0.202405  0.361151  0.249785  1
  Si  Si24  1  0.798405  0.636589  0.750141  1
  Si  Si25  1  0.170281  0.461772  0.539112  1
  Si  Si26  1  0.829911  0.538893  0.460900  1
  Si  Si27  1  0.328812  0.961985  0.461261  1
  Si  Si28  1  0.830345  0.538041  0.039286  1
  Si  Si29  1  0.670773  0.038215  0.538875  1
  Si  Si30  1  0.170588  0.462430  0.961123  1
  Si  Si31  1  0.668060  0.036959  0.959961  1
  Si  Si32  1  0.331369  0.963778  0.039823  1
  Mo  Mo33  1  0.836753  0.506080  0.251565  1
  Mo  Mo34  1  0.337986  0.993462  0.250834  1
  Mo  Mo35  1  0.662334  0.005032  0.748723  1
