# generated using pymatgen
data_Nd2Ga3Ni4Ge
_symmetry_space_group_name_H-M   'P 1'
_cell_length_a   4.17014400
_cell_length_b   4.17014400
_cell_length_c   9.79815400
_cell_angle_alpha   90.00000000
_cell_angle_beta   90.00000000
_cell_angle_gamma   90.00000000
_symmetry_Int_Tables_number   1
_chemical_formula_structural   Nd2Ga3Ni4Ge
_chemical_formula_sum   'Nd2 Ga3 Ni4 Ge1'
_cell_volume   170.39088748
_cell_formula_units_Z   1
loop_
 _symmetry_equiv_pos_site_id
 _symmetry_equiv_pos_as_xyz
  1  'x, y, z'
loop_
 _atom_site_type_symbol
 _atom_site_label
 _atom_site_symmetry_multiplicity
 _atom_site_fract_x
 _atom_site_fract_y
 _atom_site_fract_z
 _atom_site_occupancy
  Nd  Nd0  1  0.000000  0.500000  0.245172  1
  Nd  Nd1  1  0.500000  0.000000  0.751454  1
  Ga  Ga2  1  0.000000  0.000000  0.498897  1
  Ga  Ga3  1  0.500000  0.500000  0.498897  1
  Ga  Ga4  1  0.000000  0.500000  0.875830  1
  Ni  Ni5  1  0.000000  0.000000  0.003028  1
  Ni  Ni6  1  0.500000  0.500000  0.003028  1
  Ni  Ni7  1  0.000000  0.500000  0.631342  1
  Ni  Ni8  1  0.500000  0.000000  0.366085  1
  Ge  Ge9  1  0.500000  0.000000  0.126269  1
