# generated using pymatgen
data_La9Pr(Bi3C)2
_symmetry_space_group_name_H-M   'P 1'
_cell_length_a   9.63043200
_cell_length_b   9.63043307
_cell_length_c   6.84934500
_cell_angle_alpha   90.00000000
_cell_angle_beta   90.00000000
_cell_angle_gamma   119.99999632
_symmetry_Int_Tables_number   1
_chemical_formula_structural   La9Pr(Bi3C)2
_chemical_formula_sum   'La9 Pr1 Bi6 C2'
_cell_volume   550.13753400
_cell_formula_units_Z   1
loop_
 _symmetry_equiv_pos_site_id
 _symmetry_equiv_pos_as_xyz
  1  'x, y, z'
loop_
 _atom_site_type_symbol
 _atom_site_label
 _atom_site_symmetry_multiplicity
 _atom_site_fract_x
 _atom_site_fract_y
 _atom_site_fract_z
 _atom_site_occupancy
  La  La0  1  0.666667  0.333333  0.000000  1
  La  La1  1  0.333333  0.666667  0.000000  1
  La  La2  1  0.333333  0.666667  0.500000  1
  La  La3  1  0.787914  0.787815  0.749847  1
  La  La4  1  0.212185  0.000098  0.749847  1
  La  La5  1  0.999902  0.212086  0.749847  1
  La  La6  1  0.212185  0.212086  0.250153  1
  La  La7  1  0.787914  0.000098  0.250153  1
  La  La8  1  0.999902  0.787815  0.250153  1
  Pr  Pr9  1  0.666667  0.333333  0.500000  1
  Bi  Bi10  1  0.402406  0.401999  0.749570  1
  Bi  Bi11  1  0.598001  0.000407  0.749570  1
  Bi  Bi12  1  0.999593  0.597594  0.749570  1
  Bi  Bi13  1  0.598001  0.597594  0.250430  1
  Bi  Bi14  1  0.402406  0.000407  0.250430  1
  Bi  Bi15  1  0.999593  0.401999  0.250430  1
  C  C16  1  0.000000  0.000000  0.000000  1
  C  C17  1  0.000000  0.000000  0.500000  1
