# generated using pymatgen
data_Hf4Ga2Re5W
_symmetry_space_group_name_H-M   'P 1'
_cell_length_a   5.27396000
_cell_length_b   5.27623838
_cell_length_c   8.59460100
_cell_angle_alpha   90.00000000
_cell_angle_beta   90.00000000
_cell_angle_gamma   119.98571655
_symmetry_Int_Tables_number   1
_chemical_formula_structural   Hf4Ga2Re5W
_chemical_formula_sum   'Hf4 Ga2 Re5 W1'
_cell_volume   207.14768382
_cell_formula_units_Z   1
loop_
 _symmetry_equiv_pos_site_id
 _symmetry_equiv_pos_as_xyz
  1  'x, y, z'
loop_
 _atom_site_type_symbol
 _atom_site_label
 _atom_site_symmetry_multiplicity
 _atom_site_fract_x
 _atom_site_fract_y
 _atom_site_fract_z
 _atom_site_occupancy
  Hf  Hf0  1  0.332921  0.665844  0.065390  1
  Hf  Hf1  1  0.666393  0.332784  0.567201  1
  Hf  Hf2  1  0.666393  0.332784  0.932799  1
  Hf  Hf3  1  0.332921  0.665844  0.434610  1
  Ga  Ga4  1  0.000342  0.000684  0.999413  1
  Ga  Ga5  1  0.000342  0.000684  0.500587  1
  Re  Re6  1  0.171805  0.828376  0.750000  1
  Re  Re7  1  0.656571  0.828376  0.750000  1
  Re  Re8  1  0.342504  0.171788  0.250000  1
  Re  Re9  1  0.829285  0.171788  0.250000  1
  Re  Re10  1  0.171961  0.343921  0.750000  1
  W  W11  1  0.828563  0.657127  0.250000  1
