# generated using pymatgen
data_Sc5Co19(As5P)2
_symmetry_space_group_name_H-M   'P 1'
_cell_length_a   12.25376653
_cell_length_b   12.25376676
_cell_length_c   3.69218900
_cell_angle_alpha   90.00000000
_cell_angle_beta   90.00000000
_cell_angle_gamma   119.98115482
_symmetry_Int_Tables_number   1
_chemical_formula_structural   Sc5Co19(As5P)2
_chemical_formula_sum   'Sc5 Co19 As10 P2'
_cell_volume   480.21553629
_cell_formula_units_Z   1
loop_
 _symmetry_equiv_pos_site_id
 _symmetry_equiv_pos_as_xyz
  1  'x, y, z'
loop_
 _atom_site_type_symbol
 _atom_site_label
 _atom_site_symmetry_multiplicity
 _atom_site_fract_x
 _atom_site_fract_y
 _atom_site_fract_z
 _atom_site_occupancy
  Sc  Sc0  1  0.667442  0.332320  0.000000  1
  Sc  Sc1  1  0.332320  0.667442  0.000000  1
  Sc  Sc2  1  0.177405  0.177405  0.500000  1
  Sc  Sc3  1  0.822086  0.005915  0.500000  1
  Sc  Sc4  1  0.005915  0.822086  0.500000  1
  Co  Co5  1  0.829249  0.195838  0.000000  1
  Co  Co6  1  0.801890  0.626086  0.000000  1
  Co  Co7  1  0.369037  0.171654  0.000000  1
  Co  Co8  1  0.195838  0.829249  0.000000  1
  Co  Co9  1  0.626086  0.801890  0.000000  1
  Co  Co10  1  0.171654  0.369037  0.000000  1
  Co  Co11  1  0.551490  0.551490  0.000000  1
  Co  Co12  1  0.446968  0.999745  0.000000  1
  Co  Co13  1  0.999745  0.446968  0.000000  1
  Co  Co14  1  0.648288  0.126994  0.500000  1
  Co  Co15  1  0.873789  0.520001  0.500000  1
  Co  Co16  1  0.478062  0.351113  0.500000  1
  Co  Co17  1  0.126994  0.648288  0.500000  1
  Co  Co18  1  0.520001  0.873789  0.500000  1
  Co  Co19  1  0.351113  0.478062  0.500000  1
  Co  Co20  1  0.716997  0.716997  0.500000  1
  Co  Co21  1  0.275626  0.000387  0.500000  1
  Co  Co22  1  0.000387  0.275626  0.500000  1
  Co  Co23  1  0.008892  0.008892  0.000000  1
  As  As24  1  0.357735  0.357735  0.000000  1
  As  As25  1  0.640716  0.999973  0.000000  1
  As  As26  1  0.999973  0.640716  0.000000  1
  As  As27  1  0.836456  0.318799  0.500000  1
  As  As28  1  0.680039  0.513861  0.500000  1
  As  As29  1  0.483685  0.163936  0.500000  1
  As  As30  1  0.318799  0.836456  0.500000  1
  As  As31  1  0.513861  0.680039  0.500000  1
  As  As32  1  0.163936  0.483685  0.500000  1
  As  As33  1  0.828042  0.828042  0.000000  1
  P  P34  1  0.177909  0.001576  0.000000  1
  P  P35  1  0.001576  0.177909  0.000000  1
