# generated using pymatgen
data_Na2ZnSn3
_symmetry_space_group_name_H-M   'P 1'
_cell_length_a   9.99664900
_cell_length_b   9.99664740
_cell_length_c   7.35837200
_cell_angle_alpha   90.00000000
_cell_angle_beta   90.00000000
_cell_angle_gamma   119.99999538
_symmetry_Int_Tables_number   1
_chemical_formula_structural   Na2ZnSn3
_chemical_formula_sum   'Na8 Zn4 Sn12'
_cell_volume   636.82661979
_cell_formula_units_Z   4
loop_
 _symmetry_equiv_pos_site_id
 _symmetry_equiv_pos_as_xyz
  1  'x, y, z'
loop_
 _atom_site_type_symbol
 _atom_site_label
 _atom_site_symmetry_multiplicity
 _atom_site_fract_x
 _atom_site_fract_y
 _atom_site_fract_z
 _atom_site_occupancy
  Na  Na0  1  0.529456  0.058911  0.250000  1
  Na  Na1  1  0.058911  0.529456  0.750000  1
  Na  Na2  1  0.470544  0.529456  0.750000  1
  Na  Na3  1  0.529456  0.470544  0.250000  1
  Na  Na4  1  0.470544  0.941089  0.750000  1
  Na  Na5  1  0.941089  0.470544  0.250000  1
  Na  Na6  1  0.000000  0.000000  0.750000  1
  Na  Na7  1  0.000000  0.000000  0.250000  1
  Zn  Zn8  1  0.333333  0.666667  0.431160  1
  Zn  Zn9  1  0.666667  0.333333  0.568840  1
  Zn  Zn10  1  0.666667  0.333333  0.931160  1
  Zn  Zn11  1  0.333333  0.666667  0.068840  1
  Sn  Sn12  1  0.173196  0.826804  0.045503  1
  Sn  Sn13  1  0.826804  0.653609  0.545503  1
  Sn  Sn14  1  0.346391  0.173196  0.545503  1
  Sn  Sn15  1  0.826804  0.173196  0.954497  1
  Sn  Sn16  1  0.826804  0.653609  0.954497  1
  Sn  Sn17  1  0.826804  0.173196  0.545503  1
  Sn  Sn18  1  0.346391  0.173196  0.954497  1
  Sn  Sn19  1  0.653609  0.826804  0.045503  1
  Sn  Sn20  1  0.653609  0.826804  0.454497  1
  Sn  Sn21  1  0.173196  0.346391  0.454497  1
  Sn  Sn22  1  0.173196  0.826804  0.454497  1
  Sn  Sn23  1  0.173196  0.346391  0.045503  1
