# generated using pymatgen
data_LaHo4Ta3(Co4P3)4
_symmetry_space_group_name_H-M   'P 1'
_cell_length_a   12.20754500
_cell_length_b   12.20754481
_cell_length_c   3.70834200
_cell_angle_alpha   90.00000000
_cell_angle_beta   90.00000000
_cell_angle_gamma   120.00000865
_symmetry_Int_Tables_number   1
_chemical_formula_structural   LaHo4Ta3(Co4P3)4
_chemical_formula_sum   'La1 Ho4 Ta3 Co16 P12'
_cell_volume   478.59376306
_cell_formula_units_Z   1
loop_
 _symmetry_equiv_pos_site_id
 _symmetry_equiv_pos_as_xyz
  1  'x, y, z'
loop_
 _atom_site_type_symbol
 _atom_site_label
 _atom_site_symmetry_multiplicity
 _atom_site_fract_x
 _atom_site_fract_y
 _atom_site_fract_z
 _atom_site_occupancy
  La  La0  1  0.666667  0.333333  0.000000  1
  Ho  Ho1  1  0.333333  0.666667  0.000000  1
  Ho  Ho2  1  0.817409  0.816149  0.500000  1
  Ho  Ho3  1  0.183851  0.001260  0.500000  1
  Ho  Ho4  1  0.998740  0.182591  0.500000  1
  Ta  Ta5  1  0.442345  0.445608  0.000000  1
  Ta  Ta6  1  0.554392  0.996737  0.000000  1
  Ta  Ta7  1  0.003263  0.557655  0.000000  1
  Co  Co8  1  0.877035  0.353216  0.500000  1
  Co  Co9  1  0.646784  0.523818  0.500000  1
  Co  Co10  1  0.476182  0.122965  0.500000  1
  Co  Co11  1  0.354890  0.872323  0.500000  1
  Co  Co12  1  0.517433  0.645110  0.500000  1
  Co  Co13  1  0.127677  0.482567  0.500000  1
  Co  Co14  1  0.802329  0.172776  0.000000  1
  Co  Co15  1  0.827224  0.629552  0.000000  1
  Co  Co16  1  0.370448  0.197671  0.000000  1
  Co  Co17  1  0.178493  0.803604  0.000000  1
  Co  Co18  1  0.625110  0.821507  0.000000  1
  Co  Co19  1  0.196396  0.374890  0.000000  1
  Co  Co20  1  0.277048  0.281096  0.500000  1
  Co  Co21  1  0.718904  0.995952  0.500000  1
  Co  Co22  1  0.004048  0.722952  0.500000  1
  Co  Co23  1  0.000000  0.000000  0.000000  1
  P  P24  1  0.688202  0.161651  0.500000  1
  P  P25  1  0.838349  0.526550  0.500000  1
  P  P26  1  0.473450  0.311798  0.500000  1
  P  P27  1  0.170012  0.689016  0.500000  1
  P  P28  1  0.519003  0.829988  0.500000  1
  P  P29  1  0.310984  0.480997  0.500000  1
  P  P30  1  0.175650  0.178413  0.000000  1
  P  P31  1  0.821587  0.997237  0.000000  1
  P  P32  1  0.002763  0.824350  0.000000  1
  P  P33  1  0.645363  0.644054  0.000000  1
  P  P34  1  0.355946  0.001309  0.000000  1
  P  P35  1  0.998691  0.354637  0.000000  1
