# generated using pymatgen
data_NaNd(Si7Ir3)2
_symmetry_space_group_name_H-M   'P 1'
_cell_length_a   8.03724454
_cell_length_b   8.03724493
_cell_length_c   8.03724340
_cell_angle_alpha   56.90446104
_cell_angle_beta   56.90445540
_cell_angle_gamma   56.90445861
_symmetry_Int_Tables_number   1
_chemical_formula_structural   NaNd(Si7Ir3)2
_chemical_formula_sum   'Na1 Nd1 Si14 Ir6'
_cell_volume   340.90286738
_cell_formula_units_Z   1
loop_
 _symmetry_equiv_pos_site_id
 _symmetry_equiv_pos_as_xyz
  1  'x, y, z'
loop_
 _atom_site_type_symbol
 _atom_site_label
 _atom_site_symmetry_multiplicity
 _atom_site_fract_x
 _atom_site_fract_y
 _atom_site_fract_z
 _atom_site_occupancy
  Na  Na0  1  0.500000  0.500000  0.500000  1
  Nd  Nd1  1  0.000000  0.000000  0.000000  1
  Si  Si2  1  0.750603  0.750603  0.750603  1
  Si  Si3  1  0.249397  0.249397  0.249397  1
  Si  Si4  1  0.846319  0.068077  0.670815  1
  Si  Si5  1  0.670815  0.846319  0.068077  1
  Si  Si6  1  0.068077  0.670815  0.846319  1
  Si  Si7  1  0.646616  0.823287  0.437382  1
  Si  Si8  1  0.437382  0.646616  0.823287  1
  Si  Si9  1  0.823287  0.437382  0.646616  1
  Si  Si10  1  0.176713  0.562618  0.353384  1
  Si  Si11  1  0.562618  0.353384  0.176713  1
  Si  Si12  1  0.353384  0.176713  0.562618  1
  Si  Si13  1  0.931923  0.329185  0.153681  1
  Si  Si14  1  0.329185  0.153681  0.931923  1
  Si  Si15  1  0.153681  0.931923  0.329185  1
  Ir  Ir16  1  0.067848  0.428147  0.751853  1
  Ir  Ir17  1  0.248147  0.932152  0.571853  1
  Ir  Ir18  1  0.571853  0.248147  0.932152  1
  Ir  Ir19  1  0.932152  0.571853  0.248147  1
  Ir  Ir20  1  0.428147  0.751853  0.067848  1
  Ir  Ir21  1  0.751853  0.067848  0.428147  1
