# generated using pymatgen
data_Tm4ReSi4Rh
_symmetry_space_group_name_H-M   'P 1'
_cell_length_a   5.65565297
_cell_length_b   5.65565233
_cell_length_c   9.95037317
_cell_angle_alpha   63.63036874
_cell_angle_beta   63.63037201
_cell_angle_gamma   43.71082404
_symmetry_Int_Tables_number   1
_chemical_formula_structural   Tm4ReSi4Rh
_chemical_formula_sum   'Tm4 Re1 Si4 Rh1'
_cell_volume   193.11568101
_cell_formula_units_Z   1
loop_
 _symmetry_equiv_pos_site_id
 _symmetry_equiv_pos_as_xyz
  1  'x, y, z'
loop_
 _atom_site_type_symbol
 _atom_site_label
 _atom_site_symmetry_multiplicity
 _atom_site_fract_x
 _atom_site_fract_y
 _atom_site_fract_z
 _atom_site_occupancy
  Tm  Tm0  1  0.004807  0.004807  0.321551  1
  Tm  Tm1  1  0.992108  0.992108  0.679350  1
  Tm  Tm2  1  0.815938  0.815938  0.109304  1
  Tm  Tm3  1  0.186413  0.186413  0.890098  1
  Re  Re4  1  0.271647  0.271647  0.372427  1
  Si  Si5  1  0.641854  0.641854  0.438762  1
  Si  Si6  1  0.360770  0.360770  0.562079  1
  Si  Si7  1  0.506531  0.506531  0.121138  1
  Si  Si8  1  0.490705  0.490705  0.877329  1
  Rh  Rh9  1  0.729226  0.729226  0.627962  1
