# generated using pymatgen
data_YNiI18
_symmetry_space_group_name_H-M   'P 1'
_cell_length_a   10.29972130
_cell_length_b   10.25449968
_cell_length_c   10.19333288
_cell_angle_alpha   88.54860395
_cell_angle_beta   87.28687098
_cell_angle_gamma   88.33568851
_symmetry_Int_Tables_number   1
_chemical_formula_structural   YNiI18
_chemical_formula_sum   'Y1 Ni1 I18'
_cell_volume   1074.63453805
_cell_formula_units_Z   1
loop_
 _symmetry_equiv_pos_site_id
 _symmetry_equiv_pos_as_xyz
  1  'x, y, z'
loop_
 _atom_site_type_symbol
 _atom_site_label
 _atom_site_symmetry_multiplicity
 _atom_site_fract_x
 _atom_site_fract_y
 _atom_site_fract_z
 _atom_site_occupancy
  Y  Y0  1  0.000000  0.000000  0.000000  1
  Ni  Ni1  1  0.500000  0.500000  0.500000  1
  I  I2  1  0.770431  0.464511  0.503254  1
  I  I3  1  0.502492  0.754482  0.470893  1
  I  I4  1  0.466207  0.503475  0.755426  1
  I  I5  1  0.229569  0.535489  0.496746  1
  I  I6  1  0.497508  0.245518  0.529107  1
  I  I7  1  0.533793  0.496525  0.244574  1
  I  I8  1  0.886274  0.377685  0.742088  1
  I  I9  1  0.743512  0.876146  0.383880  1
  I  I10  1  0.379905  0.747877  0.873106  1
  I  I11  1  0.113726  0.622315  0.257912  1
  I  I12  1  0.256488  0.123854  0.616120  1
  I  I13  1  0.620095  0.252123  0.126894  1
  I  I14  1  0.029476  0.964632  0.703896  1
  I  I15  1  0.705447  0.025144  0.966965  1
  I  I16  1  0.965046  0.707689  0.021062  1
  I  I17  1  0.970524  0.035368  0.296104  1
  I  I18  1  0.294553  0.974856  0.033035  1
  I  I19  1  0.034954  0.292311  0.978938  1
