# generated using pymatgen
data_Tb4Lu3ScSb20
_symmetry_space_group_name_H-M   'P 1'
_cell_length_a   4.20479000
_cell_length_b   13.13449354
_cell_length_c   14.43482100
_cell_angle_alpha   78.55472649
_cell_angle_beta   90.00000000
_cell_angle_gamma   90.00000000
_symmetry_Int_Tables_number   1
_chemical_formula_structural   Tb4Lu3ScSb20
_chemical_formula_sum   'Tb4 Lu3 Sc1 Sb20'
_cell_volume   781.35058382
_cell_formula_units_Z   1
loop_
 _symmetry_equiv_pos_site_id
 _symmetry_equiv_pos_as_xyz
  1  'x, y, z'
loop_
 _atom_site_type_symbol
 _atom_site_label
 _atom_site_symmetry_multiplicity
 _atom_site_fract_x
 _atom_site_fract_y
 _atom_site_fract_z
 _atom_site_occupancy
  Tb  Tb0  1  0.250000  0.669947  0.575601  1
  Tb  Tb1  1  0.750000  0.329836  0.423416  1
  Tb  Tb2  1  0.250000  0.954155  0.355039  1
  Tb  Tb3  1  0.750000  0.046799  0.644410  1
  Lu  Lu4  1  0.250000  0.396462  0.772851  1
  Lu  Lu5  1  0.750000  0.602666  0.228149  1
  Lu  Lu6  1  0.250000  0.659294  0.857765  1
  Sc  Sc7  1  0.750000  0.340636  0.142214  1
  Sb  Sb8  1  0.250000  0.146429  0.780327  1
  Sb  Sb9  1  0.750000  0.853556  0.219653  1
  Sb  Sb10  1  0.250000  0.141183  0.481271  1
  Sb  Sb11  1  0.750000  0.858664  0.517537  1
  Sb  Sb12  1  0.250000  0.161295  0.162922  1
  Sb  Sb13  1  0.750000  0.843739  0.835299  1
  Sb  Sb14  1  0.250000  0.419706  0.978981  1
  Sb  Sb15  1  0.750000  0.577176  0.024886  1
  Sb  Sb16  1  0.750000  0.029536  0.913492  1
  Sb  Sb17  1  0.250000  0.972286  0.088004  1
  Sb  Sb18  1  0.750000  0.142609  0.315630  1
  Sb  Sb19  1  0.250000  0.859353  0.682191  1
  Sb  Sb20  1  0.750000  0.278941  0.939876  1
  Sb  Sb21  1  0.250000  0.719585  0.063864  1
  Sb  Sb22  1  0.750000  0.286919  0.655867  1
  Sb  Sb23  1  0.250000  0.713198  0.344543  1
  Sb  Sb24  1  0.750000  0.575485  0.736941  1
  Sb  Sb25  1  0.250000  0.421445  0.259543  1
  Sb  Sb26  1  0.750000  0.570569  0.445763  1
  Sb  Sb27  1  0.250000  0.428528  0.553968  1
