# generated using pymatgen
data_Li8La8Si3Bi5
_symmetry_space_group_name_H-M   'P 1'
_cell_length_a   9.71447165
_cell_length_b   9.71853405
_cell_length_c   7.56175000
_cell_angle_alpha   89.99999410
_cell_angle_beta   89.91517519
_cell_angle_gamma   120.01383150
_symmetry_Int_Tables_number   1
_chemical_formula_structural   Li8La8Si3Bi5
_chemical_formula_sum   'Li8 La8 Si3 Bi5'
_cell_volume   618.17538893
_cell_formula_units_Z   1
loop_
 _symmetry_equiv_pos_site_id
 _symmetry_equiv_pos_as_xyz
  1  'x, y, z'
loop_
 _atom_site_type_symbol
 _atom_site_label
 _atom_site_symmetry_multiplicity
 _atom_site_fract_x
 _atom_site_fract_y
 _atom_site_fract_z
 _atom_site_occupancy
  Li  Li0  1  0.179804  0.344286  0.280043  1
  Li  Li1  1  0.179804  0.835519  0.280043  1
  Li  Li2  1  0.648559  0.824279  0.286858  1
  Li  Li3  1  0.823390  0.651328  0.784116  1
  Li  Li4  1  0.823390  0.172062  0.784116  1
  Li  Li5  1  0.351351  0.175675  0.790088  1
  Li  Li6  1  0.336664  0.668332  0.658543  1
  Li  Li7  1  0.654546  0.327272  0.163044  1
  La  La8  1  0.507119  0.035127  0.493598  1
  La  La9  1  0.507119  0.471993  0.493598  1
  La  La10  1  0.974037  0.487020  0.498549  1
  La  La11  1  0.481299  0.978254  0.003691  1
  La  La12  1  0.481299  0.503044  0.003691  1
  La  La13  1  0.025526  0.512762  0.000192  1
  La  La14  1  0.011599  0.005799  0.494271  1
  La  La15  1  0.016233  0.008117  0.005929  1
  Si  Si16  1  0.331683  0.165841  0.234938  1
  Si  Si17  1  0.331231  0.665616  0.254592  1
  Si  Si18  1  0.668094  0.334046  0.755767  1
  Bi  Bi19  1  0.165908  0.333197  0.735599  1
  Bi  Bi20  1  0.165908  0.832712  0.735599  1
  Bi  Bi21  1  0.667865  0.833933  0.734982  1
  Bi  Bi22  1  0.833785  0.667748  0.235064  1
  Bi  Bi23  1  0.833785  0.166035  0.235064  1
