# generated using pymatgen
data_Pa4TlTe12
_symmetry_space_group_name_H-M   'P 1'
_cell_length_a   7.48199536
_cell_length_b   7.48199504
_cell_length_c   12.81759475
_cell_angle_alpha   76.31764726
_cell_angle_beta   76.31764987
_cell_angle_gamma   68.42472255
_symmetry_Int_Tables_number   1
_chemical_formula_structural   Pa4TlTe12
_chemical_formula_sum   'Pa4 Tl1 Te12'
_cell_volume   639.37995793
_cell_formula_units_Z   1
loop_
 _symmetry_equiv_pos_site_id
 _symmetry_equiv_pos_as_xyz
  1  'x, y, z'
loop_
 _atom_site_type_symbol
 _atom_site_label
 _atom_site_symmetry_multiplicity
 _atom_site_fract_x
 _atom_site_fract_y
 _atom_site_fract_z
 _atom_site_occupancy
  Pa  Pa0  1  0.789874  0.789874  0.863905  1
  Pa  Pa1  1  0.292334  0.292334  0.859440  1
  Pa  Pa2  1  0.702098  0.204893  0.140998  1
  Pa  Pa3  1  0.204893  0.702098  0.140998  1
  Tl  Tl4  1  0.855517  0.855517  0.518820  1
  Te  Te5  1  0.045307  0.045307  0.270070  1
  Te  Te6  1  0.536546  0.536546  0.278837  1
  Te  Te7  1  0.452707  0.953991  0.726832  1
  Te  Te8  1  0.953991  0.452707  0.726832  1
  Te  Te9  1  0.289195  0.289195  0.278654  1
  Te  Te10  1  0.786144  0.786144  0.274018  1
  Te  Te11  1  0.203623  0.709226  0.725043  1
  Te  Te12  1  0.709226  0.203623  0.725043  1
  Te  Te13  1  0.012595  0.012595  0.954112  1
  Te  Te14  1  0.512363  0.512363  0.952795  1
  Te  Te15  1  0.480150  0.984735  0.049002  1
  Te  Te16  1  0.984735  0.480150  0.049002  1
