# generated using pymatgen
data_Dy4PtPb2Au3
_symmetry_space_group_name_H-M   'P 1'
_cell_length_a   8.19958114
_cell_length_b   8.19958163
_cell_length_c   3.59253100
_cell_angle_alpha   90.00000000
_cell_angle_beta   90.00000000
_cell_angle_gamma   89.84463619
_symmetry_Int_Tables_number   1
_chemical_formula_structural   Dy4PtPb2Au3
_chemical_formula_sum   'Dy4 Pt1 Pb2 Au3'
_cell_volume   241.53623317
_cell_formula_units_Z   1
loop_
 _symmetry_equiv_pos_site_id
 _symmetry_equiv_pos_as_xyz
  1  'x, y, z'
loop_
 _atom_site_type_symbol
 _atom_site_label
 _atom_site_symmetry_multiplicity
 _atom_site_fract_x
 _atom_site_fract_y
 _atom_site_fract_z
 _atom_site_occupancy
  Dy  Dy0  1  0.654399  0.170562  0.500000  1
  Dy  Dy1  1  0.177845  0.322155  0.500000  1
  Dy  Dy2  1  0.834780  0.665220  0.500000  1
  Dy  Dy3  1  0.329438  0.845601  0.500000  1
  Pt  Pt4  1  0.375509  0.124491  0.000000  1
  Pb  Pb5  1  0.999525  0.001396  0.000000  1
  Pb  Pb6  1  0.498604  0.500475  0.000000  1
  Au  Au7  1  0.127621  0.624586  0.000000  1
  Au  Au8  1  0.626865  0.873135  0.000000  1
  Au  Au9  1  0.875414  0.372379  0.000000  1
