# generated using pymatgen
data_Sc3FeB7
_symmetry_space_group_name_H-M   'P 1'
_cell_length_a   7.58240368
_cell_length_b   7.58240321
_cell_length_c   8.93394900
_cell_angle_alpha   90.00000000
_cell_angle_beta   90.00000000
_cell_angle_gamma   155.28974261
_symmetry_Int_Tables_number   1
_chemical_formula_structural   Sc3FeB7
_chemical_formula_sum   'Sc6 Fe2 B14'
_cell_volume   214.71599520
_cell_formula_units_Z   2
loop_
 _symmetry_equiv_pos_site_id
 _symmetry_equiv_pos_as_xyz
  1  'x, y, z'
loop_
 _atom_site_type_symbol
 _atom_site_label
 _atom_site_symmetry_multiplicity
 _atom_site_fract_x
 _atom_site_fract_y
 _atom_site_fract_z
 _atom_site_occupancy
  Sc  Sc0  1  0.893999  0.106001  0.442301  1
  Sc  Sc1  1  0.106001  0.893999  0.557699  1
  Sc  Sc2  1  0.893999  0.106001  0.057699  1
  Sc  Sc3  1  0.106001  0.893999  0.942301  1
  Sc  Sc4  1  0.245354  0.754646  0.250000  1
  Sc  Sc5  1  0.754646  0.245354  0.750000  1
  Fe  Fe6  1  0.051104  0.948896  0.250000  1
  Fe  Fe7  1  0.948896  0.051104  0.750000  1
  B  B8  1  0.728043  0.271957  0.467314  1
  B  B9  1  0.271957  0.728043  0.532686  1
  B  B10  1  0.728043  0.271957  0.032686  1
  B  B11  1  0.271957  0.728043  0.967314  1
  B  B12  1  0.631501  0.368499  0.151904  1
  B  B13  1  0.368499  0.631501  0.848096  1
  B  B14  1  0.631501  0.368499  0.348096  1
  B  B15  1  0.368499  0.631501  0.651904  1
  B  B16  1  0.517978  0.482022  0.095829  1
  B  B17  1  0.482022  0.517978  0.904171  1
  B  B18  1  0.517978  0.482022  0.404171  1
  B  B19  1  0.482022  0.517978  0.595829  1
  B  B20  1  0.448474  0.551526  0.250000  1
  B  B21  1  0.551526  0.448474  0.750000  1
