# generated using pymatgen
data_PrNd5IrBr10
_symmetry_space_group_name_H-M   'P 1'
_cell_length_a   7.66942694
_cell_length_b   9.51040041
_cell_length_c   9.62319399
_cell_angle_alpha   108.68344171
_cell_angle_beta   96.90290801
_cell_angle_gamma   106.53388920
_symmetry_Int_Tables_number   1
_chemical_formula_structural   PrNd5IrBr10
_chemical_formula_sum   'Pr1 Nd5 Ir1 Br10'
_cell_volume   619.92432094
_cell_formula_units_Z   1
loop_
 _symmetry_equiv_pos_site_id
 _symmetry_equiv_pos_as_xyz
  1  'x, y, z'
loop_
 _atom_site_type_symbol
 _atom_site_label
 _atom_site_symmetry_multiplicity
 _atom_site_fract_x
 _atom_site_fract_y
 _atom_site_fract_z
 _atom_site_occupancy
  Pr  Pr0  1  0.972786  0.299908  0.094260  1
  Nd  Nd1  1  0.130246  0.050494  0.752207  1
  Nd  Nd2  1  0.629895  0.854331  0.812890  1
  Nd  Nd3  1  0.868320  0.950212  0.247622  1
  Nd  Nd4  1  0.028875  0.703939  0.907144  1
  Nd  Nd5  1  0.369566  0.144145  0.186699  1
  Ir  Ir6  1  0.999530  0.000647  0.000102  1
  Br  Br7  1  0.201712  0.741719  0.650929  1
  Br  Br8  1  0.644408  0.538562  0.726639  1
  Br  Br9  1  0.249721  0.081920  0.452832  1
  Br  Br10  1  0.795102  0.255879  0.351311  1
  Br  Br11  1  0.548647  0.173089  0.918247  1
  Br  Br12  1  0.748929  0.916849  0.546858  1
  Br  Br13  1  0.909598  0.631270  0.169020  1
  Br  Br14  1  0.362458  0.461546  0.275375  1
  Br  Br15  1  0.091614  0.370893  0.827995  1
  Br  Br16  1  0.448590  0.824595  0.079868  1
