# generated using pymatgen
data_Tb2UAlGa2Ir3
_symmetry_space_group_name_H-M   'P 1'
_cell_length_a   7.15292569
_cell_length_b   7.31672928
_cell_length_c   3.87620800
_cell_angle_alpha   90.00000000
_cell_angle_beta   90.00000000
_cell_angle_gamma   120.82157978
_symmetry_Int_Tables_number   1
_chemical_formula_structural   Tb2UAlGa2Ir3
_chemical_formula_sum   'Tb2 U1 Al1 Ga2 Ir3'
_cell_volume   174.21402358
_cell_formula_units_Z   1
loop_
 _symmetry_equiv_pos_site_id
 _symmetry_equiv_pos_as_xyz
  1  'x, y, z'
loop_
 _atom_site_type_symbol
 _atom_site_label
 _atom_site_symmetry_multiplicity
 _atom_site_fract_x
 _atom_site_fract_y
 _atom_site_fract_z
 _atom_site_occupancy
  Tb  Tb0  1  0.404885  0.407571  0.500000  1
  Tb  Tb1  1  0.590903  0.005201  0.500000  1
  U  U2  1  0.002807  0.584197  0.500000  1
  Al  Al3  1  0.747509  0.753387  0.000000  1
  Ga  Ga4  1  0.257991  0.006439  0.000000  1
  Ga  Ga5  1  0.995935  0.234587  0.000000  1
  Ir  Ir6  1  0.702122  0.370510  0.000000  1
  Ir  Ir7  1  0.303903  0.662328  0.000000  1
  Ir  Ir8  1  0.993945  0.975778  0.500000  1
