# generated using pymatgen
data_Gd2TmPaCo3
_symmetry_space_group_name_H-M   'P 1'
_cell_length_a   5.89689500
_cell_length_b   5.89689485
_cell_length_c   14.06693100
_cell_angle_alpha   90.00000000
_cell_angle_beta   90.00000000
_cell_angle_gamma   143.59539791
_symmetry_Int_Tables_number   1
_chemical_formula_structural   Gd2TmPaCo3
_chemical_formula_sum   'Gd4 Tm2 Pa2 Co6'
_cell_volume   290.30519692
_cell_formula_units_Z   2
loop_
 _symmetry_equiv_pos_site_id
 _symmetry_equiv_pos_as_xyz
  1  'x, y, z'
loop_
 _atom_site_type_symbol
 _atom_site_label
 _atom_site_symmetry_multiplicity
 _atom_site_fract_x
 _atom_site_fract_y
 _atom_site_fract_z
 _atom_site_occupancy
  Gd  Gd0  1  0.781268  0.218732  0.384393  1
  Gd  Gd1  1  0.218732  0.781268  0.615607  1
  Gd  Gd2  1  0.781268  0.218732  0.115607  1
  Gd  Gd3  1  0.218732  0.781268  0.884393  1
  Tm  Tm4  1  0.508330  0.491670  0.250000  1
  Tm  Tm5  1  0.491670  0.508330  0.750000  1
  Pa  Pa6  1  0.500000  0.500000  0.500000  1
  Pa  Pa7  1  0.500000  0.500000  0.000000  1
  Co  Co8  1  0.076926  0.923074  0.397285  1
  Co  Co9  1  0.923074  0.076926  0.602715  1
  Co  Co10  1  0.076926  0.923074  0.102715  1
  Co  Co11  1  0.923074  0.076926  0.897285  1
  Co  Co12  1  0.201814  0.798186  0.250000  1
  Co  Co13  1  0.798186  0.201814  0.750000  1
