# generated using pymatgen
data_KMo2As3O13
_symmetry_space_group_name_H-M   'P 1'
_cell_length_a   9.29268482
_cell_length_b   9.26666281
_cell_length_c   9.26684045
_cell_angle_alpha   104.30178109
_cell_angle_beta   111.51750554
_cell_angle_gamma   111.51750067
_symmetry_Int_Tables_number   1
_chemical_formula_structural   KMo2As3O13
_chemical_formula_sum   'K2 Mo4 As6 O26'
_cell_volume   619.89172807
_cell_formula_units_Z   2
loop_
 _symmetry_equiv_pos_site_id
 _symmetry_equiv_pos_as_xyz
  1  'x, y, z'
loop_
 _atom_site_type_symbol
 _atom_site_label
 _atom_site_symmetry_multiplicity
 _atom_site_fract_x
 _atom_site_fract_y
 _atom_site_fract_z
 _atom_site_occupancy
  K  K0  1  0.999992  0.499995  0.999997  1
  K  K1  1  0.499990  0.999990  0.499993  1
  Mo  Mo2  1  0.675010  0.325408  0.163883  1
  Mo  Mo3  1  0.175010  0.163875  0.325411  1
  Mo  Mo4  1  0.824982  0.836108  0.674582  1
  Mo  Mo5  1  0.324979  0.674585  0.836101  1
  As  As6  1  0.249997  0.993012  0.006989  1
  As  As7  1  0.552975  0.641003  0.235727  1
  As  As8  1  0.947031  0.764272  0.359004  1
  As  As9  1  0.052976  0.235733  0.641000  1
  As  As10  1  0.447030  0.359004  0.764270  1
  As  As11  1  0.750001  0.006982  0.993015  1
  O  O12  1  0.569282  0.890556  0.009017  1
  O  O13  1  0.800736  0.219575  0.067329  1
  O  O14  1  0.376967  0.636831  0.089704  1
  O  O15  1  0.930710  0.990976  0.109446  1
  O  O16  1  0.530934  0.440840  0.192822  1
  O  O17  1  0.300740  0.067324  0.219578  1
  O  O18  1  0.750005  0.767899  0.232106  1
  O  O19  1  0.906065  0.558860  0.257431  1
  O  O20  1  0.227563  0.343674  0.290594  1
  O  O21  1  0.123038  0.910297  0.363175  1
  O  O22  1  0.727562  0.290595  0.343672  1
  O  O23  1  0.593938  0.742568  0.441136  1
  O  O24  1  0.030936  0.192822  0.440844  1
  O  O25  1  0.969074  0.807181  0.559166  1
  O  O26  1  0.406066  0.257434  0.558864  1
  O  O27  1  0.272440  0.709419  0.656329  1
  O  O28  1  0.876965  0.089705  0.636829  1
  O  O29  1  0.772441  0.656333  0.709410  1
  O  O30  1  0.093935  0.441141  0.742565  1
  O  O31  1  0.250003  0.232107  0.767896  1
  O  O32  1  0.699265  0.932669  0.780426  1
  O  O33  1  0.469069  0.559166  0.807176  1
  O  O34  1  0.069286  0.009019  0.890562  1
  O  O35  1  0.623039  0.363179  0.910298  1
  O  O36  1  0.199258  0.780417  0.932666  1
  O  O37  1  0.430709  0.109441  0.990985  1
