# generated using pymatgen
data_LaSm4Ga2Ru3
_symmetry_space_group_name_H-M   'P 1'
_cell_length_a   8.53910550
_cell_length_b   8.53764687
_cell_length_c   8.54813800
_cell_angle_alpha   109.06313183
_cell_angle_beta   109.86279854
_cell_angle_gamma   109.47351633
_symmetry_Int_Tables_number   1
_chemical_formula_structural   LaSm4Ga2Ru3
_chemical_formula_sum   'La2 Sm8 Ga4 Ru6'
_cell_volume   479.80028557
_cell_formula_units_Z   2
loop_
 _symmetry_equiv_pos_site_id
 _symmetry_equiv_pos_as_xyz
  1  'x, y, z'
loop_
 _atom_site_type_symbol
 _atom_site_label
 _atom_site_symmetry_multiplicity
 _atom_site_fract_x
 _atom_site_fract_y
 _atom_site_fract_z
 _atom_site_occupancy
  La  La0  1  0.941413  0.251603  0.192813  1
  La  La1  1  0.192162  0.938326  0.250051  1
  Sm  Sm2  1  0.784516  0.786341  0.783133  1
  Sm  Sm3  1  0.317600  0.567648  0.753820  1
  Sm  Sm4  1  0.752029  0.318042  0.569498  1
  Sm  Sm5  1  0.565429  0.748509  0.313856  1
  Sm  Sm6  1  0.715401  0.500696  0.999616  1
  Sm  Sm7  1  0.998621  0.715741  0.502007  1
  Sm  Sm8  1  0.501536  0.997842  0.715707  1
  Sm  Sm9  1  0.251604  0.185837  0.930954  1
  Ga  Ga10  1  0.421121  0.419821  0.419404  1
  Ga  Ga11  1  0.088108  0.496100  0.997446  1
  Ga  Ga12  1  0.997161  0.084049  0.500608  1
  Ga  Ga13  1  0.499531  0.002958  0.085251  1
  Ru  Ru14  1  0.874513  0.123971  0.744495  1
  Ru  Ru15  1  0.747261  0.882612  0.123572  1
  Ru  Ru16  1  0.126040  0.752023  0.884191  1
  Ru  Ru17  1  0.241135  0.612020  0.369406  1
  Ru  Ru18  1  0.366153  0.241764  0.613946  1
  Ru  Ru19  1  0.618669  0.374097  0.250224  1
