# generated using pymatgen
data_Tb5Ho(Er2Sn3)2
_symmetry_space_group_name_H-M   'P 1'
_cell_length_a   8.96499800
_cell_length_b   8.95950016
_cell_length_c   6.51918100
_cell_angle_alpha   90.00000000
_cell_angle_beta   90.00000000
_cell_angle_gamma   120.02030089
_symmetry_Int_Tables_number   1
_chemical_formula_structural   Tb5Ho(Er2Sn3)2
_chemical_formula_sum   'Tb5 Ho1 Er4 Sn6'
_cell_volume   453.38669497
_cell_formula_units_Z   1
loop_
 _symmetry_equiv_pos_site_id
 _symmetry_equiv_pos_as_xyz
  1  'x, y, z'
loop_
 _atom_site_type_symbol
 _atom_site_label
 _atom_site_symmetry_multiplicity
 _atom_site_fract_x
 _atom_site_fract_y
 _atom_site_fract_z
 _atom_site_occupancy
  Tb  Tb0  1  0.000136  0.761281  0.750000  1
  Tb  Tb1  1  0.000103  0.238823  0.250000  1
  Tb  Tb2  1  0.761280  0.761177  0.250000  1
  Tb  Tb3  1  0.760950  0.000000  0.750000  1
  Tb  Tb4  1  0.238856  0.238719  0.750000  1
  Ho  Ho5  1  0.238953  0.000000  0.250000  1
  Er  Er6  1  0.333331  0.666706  0.499941  1
  Er  Er7  1  0.666626  0.333294  0.000059  1
  Er  Er8  1  0.666626  0.333294  0.499941  1
  Er  Er9  1  0.333331  0.666706  0.000059  1
  Sn  Sn10  1  0.396168  0.000000  0.750000  1
  Sn  Sn11  1  0.395828  0.395343  0.250000  1
  Sn  Sn12  1  0.000485  0.604657  0.250000  1
  Sn  Sn13  1  0.000025  0.396125  0.750000  1
  Sn  Sn14  1  0.603900  0.603875  0.750000  1
  Sn  Sn15  1  0.603403  0.000000  0.250000  1
