# generated using pymatgen
data_Lu8Cd2InAu
_symmetry_space_group_name_H-M   'P 1'
_cell_length_a   10.30578500
_cell_length_b   10.31636193
_cell_length_c   6.78513101
_cell_angle_alpha   90.00427911
_cell_angle_beta   90.00000000
_cell_angle_gamma   119.96608732
_symmetry_Int_Tables_number   1
_chemical_formula_structural   Lu8Cd2InAu
_chemical_formula_sum   'Lu16 Cd4 In2 Au2'
_cell_volume   624.94935509
_cell_formula_units_Z   2
loop_
 _symmetry_equiv_pos_site_id
 _symmetry_equiv_pos_as_xyz
  1  'x, y, z'
loop_
 _atom_site_type_symbol
 _atom_site_label
 _atom_site_symmetry_multiplicity
 _atom_site_fract_x
 _atom_site_fract_y
 _atom_site_fract_z
 _atom_site_occupancy
  Lu  Lu0  1  0.525078  0.050155  0.527739  1
  Lu  Lu1  1  0.948039  0.476610  0.529399  1
  Lu  Lu2  1  0.528572  0.476610  0.529399  1
  Lu  Lu3  1  0.474754  0.949510  0.026697  1
  Lu  Lu4  1  0.053457  0.524174  0.026687  1
  Lu  Lu5  1  0.470716  0.524174  0.026687  1
  Lu  Lu6  1  0.169838  0.339677  0.728642  1
  Lu  Lu7  1  0.659602  0.830345  0.742283  1
  Lu  Lu8  1  0.170743  0.830345  0.742283  1
  Lu  Lu9  1  0.826801  0.653601  0.226675  1
  Lu  Lu10  1  0.344295  0.175608  0.233965  1
  Lu  Lu11  1  0.831313  0.175608  0.233965  1
  Lu  Lu12  1  0.666101  0.332201  0.884567  1
  Lu  Lu13  1  0.331509  0.663019  0.384290  1
  Lu  Lu14  1  0.997823  0.995646  0.506233  1
  Lu  Lu15  1  0.001091  0.002181  0.007082  1
  Cd  Cd16  1  0.834633  0.669267  0.768857  1
  Cd  Cd17  1  0.331395  0.166098  0.769342  1
  Cd  Cd18  1  0.834702  0.166098  0.769342  1
  Cd  Cd19  1  0.164417  0.328833  0.268309  1
  In  In20  1  0.670636  0.835858  0.267599  1
  In  In21  1  0.165223  0.835858  0.267599  1
  Au  Au22  1  0.666229  0.332456  0.294722  1
  Au  Au23  1  0.333033  0.666066  0.793319  1
