# generated using pymatgen
data_Cs3ThF7
_symmetry_space_group_name_H-M   'P 1'
_cell_length_a   6.49828549
_cell_length_b   6.49828427
_cell_length_c   7.62599300
_cell_angle_alpha   113.90024879
_cell_angle_beta   113.90024404
_cell_angle_gamma   87.77135567
_symmetry_Int_Tables_number   1
_chemical_formula_structural   Cs3ThF7
_chemical_formula_sum   'Cs3 Th1 F7'
_cell_volume   266.13017836
_cell_formula_units_Z   1
loop_
 _symmetry_equiv_pos_site_id
 _symmetry_equiv_pos_as_xyz
  1  'x, y, z'
loop_
 _atom_site_type_symbol
 _atom_site_label
 _atom_site_symmetry_multiplicity
 _atom_site_fract_x
 _atom_site_fract_y
 _atom_site_fract_z
 _atom_site_occupancy
  Cs  Cs0  1  0.497884  0.497884  0.998795  1
  Cs  Cs1  1  0.763392  0.239538  0.501419  1
  Cs  Cs2  1  0.239538  0.763392  0.501419  1
  Th  Th3  1  0.956704  0.956704  0.971426  1
  F  F4  1  0.865881  0.865881  0.195128  1
  F  F5  1  0.957109  0.308220  0.215360  1
  F  F6  1  0.308220  0.957109  0.215360  1
  F  F7  1  0.657009  0.657009  0.757532  1
  F  F8  1  0.660609  0.087516  0.772151  1
  F  F9  1  0.087516  0.660609  0.772151  1
  F  F10  1  0.131151  0.131151  0.849271  1
