# generated using pymatgen
data_Y8Tm2Ir5Os
_symmetry_space_group_name_H-M   'P 1'
_cell_length_a   10.88052700
_cell_length_b   10.88052700
_cell_length_c   6.39665700
_cell_angle_alpha   90.00000000
_cell_angle_beta   90.00000000
_cell_angle_gamma   90.00000000
_symmetry_Int_Tables_number   1
_chemical_formula_structural   Y8Tm2Ir5Os
_chemical_formula_sum   'Y16 Tm4 Ir10 Os2'
_cell_volume   757.27378995
_cell_formula_units_Z   2
loop_
 _symmetry_equiv_pos_site_id
 _symmetry_equiv_pos_as_xyz
  1  'x, y, z'
loop_
 _atom_site_type_symbol
 _atom_site_label
 _atom_site_symmetry_multiplicity
 _atom_site_fract_x
 _atom_site_fract_y
 _atom_site_fract_z
 _atom_site_occupancy
  Y  Y0  1  0.293321  0.086158  0.376856  1
  Y  Y1  1  0.293321  0.913842  0.876856  1
  Y  Y2  1  0.706679  0.086158  0.876856  1
  Y  Y3  1  0.706679  0.913842  0.376856  1
  Y  Y4  1  0.586158  0.793321  0.876856  1
  Y  Y5  1  0.586158  0.206679  0.376856  1
  Y  Y6  1  0.413842  0.793321  0.376856  1
  Y  Y7  1  0.413842  0.206679  0.876856  1
  Y  Y8  1  0.210080  0.412381  0.622259  1
  Y  Y9  1  0.210080  0.587619  0.122259  1
  Y  Y10  1  0.789920  0.412381  0.122259  1
  Y  Y11  1  0.789920  0.587619  0.622259  1
  Y  Y12  1  0.912381  0.710080  0.122259  1
  Y  Y13  1  0.912381  0.289920  0.622259  1
  Y  Y14  1  0.087619  0.710080  0.622259  1
  Y  Y15  1  0.087619  0.289920  0.122259  1
  Tm  Tm16  1  0.000000  0.000000  0.499648  1
  Tm  Tm17  1  0.000000  0.000000  0.999648  1
  Tm  Tm18  1  0.500000  0.500000  0.999648  1
  Tm  Tm19  1  0.500000  0.500000  0.499648  1
  Ir  Ir20  1  0.850446  0.151624  0.250410  1
  Ir  Ir21  1  0.850446  0.848376  0.750410  1
  Ir  Ir22  1  0.149554  0.151624  0.750410  1
  Ir  Ir23  1  0.149554  0.848376  0.250410  1
  Ir  Ir24  1  0.651624  0.350446  0.750410  1
  Ir  Ir25  1  0.651624  0.649554  0.250410  1
  Ir  Ir26  1  0.348376  0.350446  0.250410  1
  Ir  Ir27  1  0.348376  0.649554  0.750410  1
  Ir  Ir28  1  0.000000  0.500000  0.878162  1
  Ir  Ir29  1  0.000000  0.500000  0.378162  1
  Os  Os30  1  0.500000  0.000000  0.124444  1
  Os  Os31  1  0.500000  0.000000  0.624444  1
