# generated using pymatgen
data_Hg4RuPt3O14
_symmetry_space_group_name_H-M   'P 1'
_cell_length_a   7.33882926
_cell_length_b   7.33882842
_cell_length_c   7.33882835
_cell_angle_alpha   59.77961822
_cell_angle_beta   59.77962001
_cell_angle_gamma   59.77961540
_symmetry_Int_Tables_number   1
_chemical_formula_structural   Hg4RuPt3O14
_chemical_formula_sum   'Hg4 Ru1 Pt3 O14'
_cell_volume   278.09091757
_cell_formula_units_Z   1
loop_
 _symmetry_equiv_pos_site_id
 _symmetry_equiv_pos_as_xyz
  1  'x, y, z'
loop_
 _atom_site_type_symbol
 _atom_site_label
 _atom_site_symmetry_multiplicity
 _atom_site_fract_x
 _atom_site_fract_y
 _atom_site_fract_z
 _atom_site_occupancy
  Hg  Hg0  1  0.125000  0.125000  0.125000  1
  Hg  Hg1  1  0.625000  0.125000  0.125000  1
  Hg  Hg2  1  0.125000  0.625000  0.125000  1
  Hg  Hg3  1  0.125000  0.125000  0.625000  1
  Ru  Ru4  1  0.625000  0.625000  0.625000  1
  Pt  Pt5  1  0.625000  0.625000  0.125000  1
  Pt  Pt6  1  0.625000  0.125000  0.625000  1
  Pt  Pt7  1  0.125000  0.625000  0.625000  1
  O  O8  1  0.701253  0.293684  0.293684  1
  O  O9  1  0.693407  0.311003  0.693407  1
  O  O10  1  0.997271  0.997271  0.997271  1
  O  O11  1  0.293684  0.701253  0.293684  1
  O  O12  1  0.693407  0.693407  0.311003  1
  O  O13  1  0.938997  0.556593  0.556593  1
  O  O14  1  0.311003  0.693407  0.693407  1
  O  O15  1  0.252729  0.252729  0.252729  1
  O  O16  1  0.956316  0.548747  0.956316  1
  O  O17  1  0.556593  0.938997  0.556593  1
  O  O18  1  0.556593  0.556593  0.938997  1
  O  O19  1  0.956316  0.956316  0.548747  1
  O  O20  1  0.548747  0.956316  0.956316  1
  O  O21  1  0.293684  0.293684  0.701253  1
