# generated using pymatgen
data_HfNbCo2SiP
_symmetry_space_group_name_H-M   'P 1'
_cell_length_a   3.67437700
_cell_length_b   6.27303800
_cell_length_c   7.09806600
_cell_angle_alpha   90.00000000
_cell_angle_beta   90.00000000
_cell_angle_gamma   90.00000000
_symmetry_Int_Tables_number   1
_chemical_formula_structural   HfNbCo2SiP
_chemical_formula_sum   'Hf2 Nb2 Co4 Si2 P2'
_cell_volume   163.60691874
_cell_formula_units_Z   2
loop_
 _symmetry_equiv_pos_site_id
 _symmetry_equiv_pos_as_xyz
  1  'x, y, z'
loop_
 _atom_site_type_symbol
 _atom_site_label
 _atom_site_symmetry_multiplicity
 _atom_site_fract_x
 _atom_site_fract_y
 _atom_site_fract_z
 _atom_site_occupancy
  Hf  Hf0  1  0.250000  0.018665  0.818460  1
  Hf  Hf1  1  0.250000  0.518665  0.681540  1
  Nb  Nb2  1  0.750000  0.978089  0.180614  1
  Nb  Nb3  1  0.750000  0.478089  0.319386  1
  Co  Co4  1  0.250000  0.141785  0.443407  1
  Co  Co5  1  0.250000  0.641785  0.056593  1
  Co  Co6  1  0.750000  0.860606  0.568626  1
  Co  Co7  1  0.750000  0.360606  0.931374  1
  Si  Si8  1  0.250000  0.775265  0.378468  1
  Si  Si9  1  0.250000  0.275265  0.121532  1
  P  P10  1  0.750000  0.225592  0.610014  1
  P  P11  1  0.750000  0.725592  0.889986  1
