# generated using pymatgen
data_Tb2ErHg3Pd2
_symmetry_space_group_name_H-M   'P 1'
_cell_length_a   7.62334255
_cell_length_b   7.64999251
_cell_length_c   3.70730200
_cell_angle_alpha   90.00000000
_cell_angle_beta   90.00000000
_cell_angle_gamma   120.11571166
_symmetry_Int_Tables_number   1
_chemical_formula_structural   Tb2ErHg3Pd2
_chemical_formula_sum   'Tb2 Er1 Hg3 Pd2'
_cell_volume   187.01975263
_cell_formula_units_Z   1
loop_
 _symmetry_equiv_pos_site_id
 _symmetry_equiv_pos_as_xyz
  1  'x, y, z'
loop_
 _atom_site_type_symbol
 _atom_site_label
 _atom_site_symmetry_multiplicity
 _atom_site_fract_x
 _atom_site_fract_y
 _atom_site_fract_z
 _atom_site_occupancy
  Tb  Tb0  1  0.584139  0.999603  0.500000  1
  Tb  Tb1  1  0.415860  0.415464  0.500000  1
  Er  Er2  1  0.000000  0.583827  0.500000  1
  Hg  Hg3  1  0.234041  0.998616  0.000000  1
  Hg  Hg4  1  0.000000  0.236783  0.000000  1
  Hg  Hg5  1  0.765959  0.764575  0.000000  1
  Pd  Pd6  1  0.668925  0.335028  0.000000  1
  Pd  Pd7  1  0.331075  0.666103  0.000000  1
