# generated using pymatgen
data_Ho10Zn3Bi2Au
_symmetry_space_group_name_H-M   'P 1'
_cell_length_a   8.64357996
_cell_length_b   8.64358077
_cell_length_c   8.64374836
_cell_angle_alpha   123.91421542
_cell_angle_beta   123.91422047
_cell_angle_gamma   83.34308303
_symmetry_Int_Tables_number   1
_chemical_formula_structural   Ho10Zn3Bi2Au
_chemical_formula_sum   'Ho10 Zn3 Bi2 Au1'
_cell_volume   426.47355347
_cell_formula_units_Z   1
loop_
 _symmetry_equiv_pos_site_id
 _symmetry_equiv_pos_as_xyz
  1  'x, y, z'
loop_
 _atom_site_type_symbol
 _atom_site_label
 _atom_site_symmetry_multiplicity
 _atom_site_fract_x
 _atom_site_fract_y
 _atom_site_fract_z
 _atom_site_occupancy
  Ho  Ho0  1  0.999698  0.999468  0.999166  1
  Ho  Ho1  1  0.500532  0.500302  0.000834  1
  Ho  Ho2  1  0.009089  0.510626  0.804427  1
  Ho  Ho3  1  0.704662  0.206199  0.195573  1
  Ho  Ho4  1  0.511568  0.705323  0.500000  1
  Ho  Ho5  1  0.205668  0.010752  0.500000  1
  Ho  Ho6  1  0.989374  0.490911  0.195573  1
  Ho  Ho7  1  0.293801  0.795338  0.804427  1
  Ho  Ho8  1  0.489248  0.294332  0.500000  1
  Ho  Ho9  1  0.794677  0.988432  0.500000  1
  Zn  Zn10  1  0.638542  0.140056  0.778596  1
  Zn  Zn11  1  0.359944  0.861458  0.221404  1
  Zn  Zn12  1  0.140365  0.359635  0.500000  1
  Bi  Bi13  1  0.748993  0.751007  0.000000  1
  Bi  Bi14  1  0.248993  0.251007  0.000000  1
  Au  Au15  1  0.864845  0.635155  0.500000  1
