# generated using pymatgen
data_V12SiNi8P3N4
_symmetry_space_group_name_H-M   'P 1'
_cell_length_a   7.54290657
_cell_length_b   7.54290624
_cell_length_c   7.54290567
_cell_angle_alpha   59.86655793
_cell_angle_beta   59.86656073
_cell_angle_gamma   59.86656080
_symmetry_Int_Tables_number   1
_chemical_formula_structural   V12SiNi8P3N4
_chemical_formula_sum   'V12 Si1 Ni8 P3 N4'
_cell_volume   302.54090256
_cell_formula_units_Z   1
loop_
 _symmetry_equiv_pos_site_id
 _symmetry_equiv_pos_as_xyz
  1  'x, y, z'
loop_
 _atom_site_type_symbol
 _atom_site_label
 _atom_site_symmetry_multiplicity
 _atom_site_fract_x
 _atom_site_fract_y
 _atom_site_fract_z
 _atom_site_occupancy
  V  V0  1  0.814752  0.814752  0.185920  1
  V  V1  1  0.184843  0.184843  0.814532  1
  V  V2  1  0.814752  0.185920  0.814752  1
  V  V3  1  0.184843  0.814532  0.184843  1
  V  V4  1  0.185920  0.814752  0.814752  1
  V  V5  1  0.814532  0.184843  0.184843  1
  V  V6  1  0.435248  0.435248  0.064080  1
  V  V7  1  0.065157  0.065157  0.435468  1
  V  V8  1  0.435248  0.064080  0.435248  1
  V  V9  1  0.065157  0.435468  0.065157  1
  V  V10  1  0.064080  0.435248  0.435248  1
  V  V11  1  0.435468  0.065157  0.065157  1
  Si  Si12  1  0.625000  0.625000  0.625000  1
  Ni  Ni13  1  0.748688  0.415156  0.415156  1
  Ni  Ni14  1  0.415156  0.748688  0.415156  1
  Ni  Ni15  1  0.415156  0.415156  0.748688  1
  Ni  Ni16  1  0.416888  0.416888  0.416888  1
  Ni  Ni17  1  0.501312  0.834844  0.834844  1
  Ni  Ni18  1  0.834844  0.501312  0.834844  1
  Ni  Ni19  1  0.834844  0.834844  0.501312  1
  Ni  Ni20  1  0.833112  0.833112  0.833112  1
  P  P21  1  0.125000  0.625000  0.625000  1
  P  P22  1  0.625000  0.125000  0.625000  1
  P  P23  1  0.625000  0.625000  0.125000  1
  N  N24  1  0.625000  0.125000  0.125000  1
  N  N25  1  0.125000  0.625000  0.125000  1
  N  N26  1  0.125000  0.125000  0.625000  1
  N  N27  1  0.125000  0.125000  0.125000  1
