# generated using pymatgen
data_Pr5NdRhBr10
_symmetry_space_group_name_H-M   'P 1'
_cell_length_a   7.69848894
_cell_length_b   9.58391402
_cell_length_c   9.68380925
_cell_angle_alpha   109.41032255
_cell_angle_beta   106.42301052
_cell_angle_gamma   96.91416354
_symmetry_Int_Tables_number   1
_chemical_formula_structural   Pr5NdRhBr10
_chemical_formula_sum   'Pr5 Nd1 Rh1 Br10'
_cell_volume   627.98037450
_cell_formula_units_Z   1
loop_
 _symmetry_equiv_pos_site_id
 _symmetry_equiv_pos_as_xyz
  1  'x, y, z'
loop_
 _atom_site_type_symbol
 _atom_site_label
 _atom_site_symmetry_multiplicity
 _atom_site_fract_x
 _atom_site_fract_y
 _atom_site_fract_z
 _atom_site_occupancy
  Pr  Pr0  1  0.023973  0.897171  0.692707  1
  Pr  Pr1  1  0.127805  0.757528  0.046747  1
  Pr  Pr2  1  0.629233  0.808910  0.857053  1
  Pr  Pr3  1  0.873902  0.243133  0.954380  1
  Pr  Pr4  1  0.977417  0.103988  0.307890  1
  Nd  Nd5  1  0.368763  0.189191  0.141198  1
  Rh  Rh6  1  0.999943  0.999847  0.000154  1
  Br  Br7  1  0.450227  0.078680  0.829107  1
  Br  Br8  1  0.748360  0.542544  0.918585  1
  Br  Br9  1  0.254937  0.455756  0.083017  1
  Br  Br10  1  0.912123  0.167577  0.633677  1
  Br  Br11  1  0.633919  0.724053  0.539162  1
  Br  Br12  1  0.549020  0.924680  0.173249  1
  Br  Br13  1  0.087953  0.832979  0.366586  1
  Br  Br14  1  0.795892  0.354029  0.260099  1
  Br  Br15  1  0.198326  0.643304  0.738314  1
  Br  Br16  1  0.368205  0.276629  0.458076  1
