# generated using pymatgen
data_Ce7Np3Si8N3
_symmetry_space_group_name_H-M   'P 1'
_cell_length_a   10.59070300
_cell_length_b   10.59070512
_cell_length_c   4.38584600
_cell_angle_alpha   90.00000000
_cell_angle_beta   90.00000000
_cell_angle_gamma   119.99999651
_symmetry_Int_Tables_number   1
_chemical_formula_structural   Ce7Np3Si8N3
_chemical_formula_sum   'Ce7 Np3 Si8 N3'
_cell_volume   426.02363174
_cell_formula_units_Z   1
loop_
 _symmetry_equiv_pos_site_id
 _symmetry_equiv_pos_as_xyz
  1  'x, y, z'
loop_
 _atom_site_type_symbol
 _atom_site_label
 _atom_site_symmetry_multiplicity
 _atom_site_fract_x
 _atom_site_fract_y
 _atom_site_fract_z
 _atom_site_occupancy
  Ce  Ce0  1  0.213322  0.786678  0.000000  1
  Ce  Ce1  1  0.213322  0.426644  0.000000  1
  Ce  Ce2  1  0.786678  0.573356  0.000000  1
  Ce  Ce3  1  0.426644  0.213322  0.000000  1
  Ce  Ce4  1  0.000000  0.000000  0.000000  1
  Ce  Ce5  1  0.573356  0.786678  0.000000  1
  Ce  Ce6  1  0.786678  0.213322  0.000000  1
  Np  Np7  1  0.500000  0.000000  0.500000  1
  Np  Np8  1  0.000000  0.500000  0.500000  1
  Np  Np9  1  0.500000  0.500000  0.500000  1
  Si  Si10  1  0.666667  0.333333  0.500000  1
  Si  Si11  1  0.000000  0.776853  0.500000  1
  Si  Si12  1  0.333333  0.666667  0.500000  1
  Si  Si13  1  0.223147  0.223147  0.500000  1
  Si  Si14  1  0.776853  0.776853  0.500000  1
  Si  Si15  1  0.776853  0.000000  0.500000  1
  Si  Si16  1  0.223147  0.000000  0.500000  1
  Si  Si17  1  0.000000  0.223147  0.500000  1
  N  N18  1  0.500000  0.500000  0.000000  1
  N  N19  1  0.500000  0.000000  0.000000  1
  N  N20  1  0.000000  0.500000  0.000000  1
