# generated using pymatgen
data_Yb12Dy8Si15P
_symmetry_space_group_name_H-M   'P 1'
_cell_length_a   7.42921021
_cell_length_b   7.79985667
_cell_length_c   15.12546800
_cell_angle_alpha   89.92919432
_cell_angle_beta   90.05329923
_cell_angle_gamma   90.03809479
_symmetry_Int_Tables_number   1
_chemical_formula_structural   Yb12Dy8Si15P
_chemical_formula_sum   'Yb12 Dy8 Si15 P1'
_cell_volume   876.47084750
_cell_formula_units_Z   1
loop_
 _symmetry_equiv_pos_site_id
 _symmetry_equiv_pos_as_xyz
  1  'x, y, z'
loop_
 _atom_site_type_symbol
 _atom_site_label
 _atom_site_symmetry_multiplicity
 _atom_site_fract_x
 _atom_site_fract_y
 _atom_site_fract_z
 _atom_site_occupancy
  Yb  Yb0  1  0.972350  0.814863  0.404213  1
  Yb  Yb1  1  0.472716  0.683104  0.095835  1
  Yb  Yb2  1  0.529319  0.317704  0.596245  1
  Yb  Yb3  1  0.027059  0.183070  0.904281  1
  Yb  Yb4  1  0.027724  0.184561  0.595732  1
  Yb  Yb5  1  0.527094  0.316975  0.904022  1
  Yb  Yb6  1  0.465100  0.689227  0.402260  1
  Yb  Yb7  1  0.972703  0.817304  0.095378  1
  Yb  Yb8  1  0.353177  0.020777  0.750352  1
  Yb  Yb9  1  0.853979  0.478987  0.750525  1
  Yb  Yb10  1  0.145865  0.520403  0.248942  1
  Yb  Yb11  1  0.646752  0.979465  0.249821  1
  Dy  Dy12  1  0.313652  0.176887  0.121518  1
  Dy  Dy13  1  0.815264  0.324263  0.379997  1
  Dy  Dy14  1  0.186141  0.676392  0.878107  1
  Dy  Dy15  1  0.686573  0.819328  0.620167  1
  Dy  Dy16  1  0.313222  0.176334  0.379332  1
  Dy  Dy17  1  0.813587  0.323415  0.121771  1
  Dy  Dy18  1  0.185828  0.677753  0.621206  1
  Dy  Dy19  1  0.685963  0.823323  0.878177  1
  Si  Si20  1  0.357568  0.966747  0.961801  1
  Si  Si21  1  0.644419  0.032981  0.462842  1
  Si  Si22  1  0.141962  0.467380  0.038007  1
  Si  Si23  1  0.144929  0.469245  0.462328  1
  Si  Si24  1  0.642290  0.032761  0.038184  1
  Si  Si25  1  0.357571  0.966823  0.538861  1
  Si  Si26  1  0.857323  0.532682  0.961788  1
  Si  Si27  1  0.977677  0.883556  0.747488  1
  Si  Si28  1  0.479039  0.613580  0.748281  1
  Si  Si29  1  0.521115  0.385368  0.252184  1
  Si  Si30  1  0.021049  0.116287  0.250983  1
  Si  Si31  1  0.248316  0.393694  0.748820  1
  Si  Si32  1  0.749584  0.105578  0.748240  1
  Si  Si33  1  0.249715  0.894647  0.250762  1
  Si  Si34  1  0.750774  0.606155  0.252158  1
  P  P35  1  0.862604  0.528379  0.539389  1
