# generated using pymatgen
data_Ho10(PdPt5)3
_symmetry_space_group_name_H-M   'P 1'
_cell_length_a   9.75097548
_cell_length_b   9.75097548
_cell_length_c   5.77275149
_cell_angle_alpha   90.05836406
_cell_angle_beta   89.94163594
_cell_angle_gamma   89.97652314
_symmetry_Int_Tables_number   1
_chemical_formula_structural   Ho10(PdPt5)3
_chemical_formula_sum   'Ho10 Pd3 Pt15'
_cell_volume   548.88138624
_cell_formula_units_Z   1
loop_
 _symmetry_equiv_pos_site_id
 _symmetry_equiv_pos_as_xyz
  1  'x, y, z'
loop_
 _atom_site_type_symbol
 _atom_site_label
 _atom_site_symmetry_multiplicity
 _atom_site_fract_x
 _atom_site_fract_y
 _atom_site_fract_z
 _atom_site_occupancy
  Ho  Ho0  1  0.453365  0.811520  0.999518  1
  Ho  Ho1  1  0.547045  0.188657  0.000076  1
  Ho  Ho2  1  0.188480  0.546635  0.999518  1
  Ho  Ho3  1  0.811343  0.452955  0.000076  1
  Ho  Ho4  1  0.499868  0.500132  0.499855  1
  Ho  Ho5  1  0.311335  0.047050  0.500392  1
  Ho  Ho6  1  0.688794  0.952914  0.499938  1
  Ho  Ho7  1  0.952950  0.688665  0.500392  1
  Ho  Ho8  1  0.047086  0.311206  0.499938  1
  Ho  Ho9  1  0.999997  0.000003  0.999729  1
  Pd  Pd10  1  0.191021  0.808979  0.250409  1
  Pd  Pd11  1  0.999927  0.000073  0.500070  1
  Pd  Pd12  1  0.499809  0.500191  0.000005  1
  Pt  Pt13  1  0.808305  0.191695  0.749720  1
  Pt  Pt14  1  0.808275  0.191725  0.250681  1
  Pt  Pt15  1  0.192449  0.807551  0.749762  1
  Pt  Pt16  1  0.440102  0.780830  0.500223  1
  Pt  Pt17  1  0.559309  0.219201  0.500065  1
  Pt  Pt18  1  0.219170  0.559898  0.500223  1
  Pt  Pt19  1  0.780799  0.440691  0.500065  1
  Pt  Pt20  1  0.308258  0.308309  0.249295  1
  Pt  Pt21  1  0.691682  0.691247  0.750419  1
  Pt  Pt22  1  0.691691  0.691742  0.249295  1
  Pt  Pt23  1  0.308753  0.308318  0.750419  1
  Pt  Pt24  1  0.280750  0.059175  0.999998  1
  Pt  Pt25  1  0.719166  0.940555  0.999960  1
  Pt  Pt26  1  0.940825  0.719250  0.999998  1
  Pt  Pt27  1  0.059445  0.280834  0.999960  1
