# generated using pymatgen
data_SmHo11(SiPd)12
_symmetry_space_group_name_H-M   'P 1'
_cell_length_a   4.34960700
_cell_length_b   7.42069201
_cell_length_c   20.98889302
_cell_angle_alpha   90.00562078
_cell_angle_beta   90.00000000
_cell_angle_gamma   90.00000000
_symmetry_Int_Tables_number   1
_chemical_formula_structural   SmHo11(SiPd)12
_chemical_formula_sum   'Sm1 Ho11 Si12 Pd12'
_cell_volume   677.46046792
_cell_formula_units_Z   1
loop_
 _symmetry_equiv_pos_site_id
 _symmetry_equiv_pos_as_xyz
  1  'x, y, z'
loop_
 _atom_site_type_symbol
 _atom_site_label
 _atom_site_symmetry_multiplicity
 _atom_site_fract_x
 _atom_site_fract_y
 _atom_site_fract_z
 _atom_site_occupancy
  Sm  Sm0  1  0.250000  0.792113  0.501241  1
  Ho  Ho1  1  0.250000  0.704618  0.332368  1
  Ho  Ho2  1  0.750000  0.294310  0.667522  1
  Ho  Ho3  1  0.750000  0.205691  0.167042  1
  Ho  Ho4  1  0.250000  0.794482  0.833007  1
  Ho  Ho5  1  0.250000  0.792613  0.166389  1
  Ho  Ho6  1  0.750000  0.207395  0.833491  1
  Ho  Ho7  1  0.750000  0.292488  0.332868  1
  Ho  Ho8  1  0.250000  0.706796  0.667184  1
  Ho  Ho9  1  0.250000  0.710972  0.001108  1
  Ho  Ho10  1  0.750000  0.288875  0.998766  1
  Ho  Ho11  1  0.750000  0.213060  0.498706  1
  Si  Si12  1  0.250000  0.088979  0.071369  1
  Si  Si13  1  0.750000  0.911068  0.928644  1
  Si  Si14  1  0.750000  0.587241  0.427248  1
  Si  Si15  1  0.250000  0.410149  0.571466  1
  Si  Si16  1  0.250000  0.085069  0.271101  1
  Si  Si17  1  0.750000  0.914993  0.729074  1
  Si  Si18  1  0.750000  0.585227  0.228538  1
  Si  Si19  1  0.250000  0.415056  0.771697  1
  Si  Si20  1  0.250000  0.087299  0.394127  1
  Si  Si21  1  0.750000  0.913832  0.606009  1
  Si  Si22  1  0.750000  0.586809  0.104525  1
  Si  Si23  1  0.250000  0.413344  0.895436  1
  Pd  Pd24  1  0.250000  0.416591  0.236823  1
  Pd  Pd25  1  0.750000  0.583291  0.763032  1
  Pd  Pd26  1  0.750000  0.916667  0.262556  1
  Pd  Pd27  1  0.250000  0.083381  0.737485  1
  Pd  Pd28  1  0.250000  0.414283  0.436589  1
  Pd  Pd29  1  0.750000  0.579707  0.564632  1
  Pd  Pd30  1  0.750000  0.916853  0.062794  1
  Pd  Pd31  1  0.250000  0.083262  0.937129  1
  Pd  Pd32  1  0.250000  0.419526  0.093446  1
  Pd  Pd33  1  0.750000  0.580500  0.906454  1
  Pd  Pd34  1  0.750000  0.920494  0.405051  1
  Pd  Pd35  1  0.250000  0.082967  0.595087  1
