# generated using pymatgen
data_SrP2F12
_symmetry_space_group_name_H-M   'P 1'
_cell_length_a   5.40464300
_cell_length_b   5.40464300
_cell_length_c   7.68985400
_cell_angle_alpha   90.00000000
_cell_angle_beta   90.00000000
_cell_angle_gamma   90.00000000
_symmetry_Int_Tables_number   1
_chemical_formula_structural   SrP2F12
_chemical_formula_sum   'Sr1 P2 F12'
_cell_volume   224.62191153
_cell_formula_units_Z   1
loop_
 _symmetry_equiv_pos_site_id
 _symmetry_equiv_pos_as_xyz
  1  'x, y, z'
loop_
 _atom_site_type_symbol
 _atom_site_label
 _atom_site_symmetry_multiplicity
 _atom_site_fract_x
 _atom_site_fract_y
 _atom_site_fract_z
 _atom_site_occupancy
  Sr  Sr0  1  0.000000  0.000000  0.000000  1
  P  P1  1  0.000000  0.500000  0.260330  1
  P  P2  1  0.500000  0.000000  0.739670  1
  F  F3  1  0.283857  0.212190  0.752808  1
  F  F4  1  0.716143  0.787810  0.752808  1
  F  F5  1  0.212190  0.716143  0.247192  1
  F  F6  1  0.787810  0.283857  0.247192  1
  F  F7  1  0.000000  0.500000  0.465330  1
  F  F8  1  0.500000  0.000000  0.534670  1
  F  F9  1  0.000000  0.500000  0.034986  1
  F  F10  1  0.500000  0.000000  0.965014  1
  F  F11  1  0.212190  0.283857  0.247192  1
  F  F12  1  0.787810  0.716143  0.247192  1
  F  F13  1  0.283857  0.787810  0.752808  1
  F  F14  1  0.716143  0.212190  0.752808  1
