# generated using pymatgen
data_Ca3Fe5(P3Ir2)2
_symmetry_space_group_name_H-M   'P 1'
_cell_length_a   3.81292500
_cell_length_b   10.87288500
_cell_length_c   12.34567700
_cell_angle_alpha   90.00000000
_cell_angle_beta   90.00000000
_cell_angle_gamma   90.00000000
_symmetry_Int_Tables_number   1
_chemical_formula_structural   Ca3Fe5(P3Ir2)2
_chemical_formula_sum   'Ca6 Fe10 P12 Ir8'
_cell_volume   511.82084298
_cell_formula_units_Z   2
loop_
 _symmetry_equiv_pos_site_id
 _symmetry_equiv_pos_as_xyz
  1  'x, y, z'
loop_
 _atom_site_type_symbol
 _atom_site_label
 _atom_site_symmetry_multiplicity
 _atom_site_fract_x
 _atom_site_fract_y
 _atom_site_fract_z
 _atom_site_occupancy
  Ca  Ca0  1  0.000000  0.500000  0.526559  1
  Ca  Ca1  1  0.500000  0.000000  0.473441  1
  Ca  Ca2  1  0.500000  0.820638  0.197290  1
  Ca  Ca3  1  0.500000  0.179362  0.197290  1
  Ca  Ca4  1  0.000000  0.679362  0.802710  1
  Ca  Ca5  1  0.000000  0.320638  0.802710  1
  Fe  Fe6  1  0.000000  0.500000  0.994076  1
  Fe  Fe7  1  0.500000  0.000000  0.005924  1
  Fe  Fe8  1  0.500000  0.883200  0.716149  1
  Fe  Fe9  1  0.500000  0.116800  0.716149  1
  Fe  Fe10  1  0.000000  0.616800  0.283851  1
  Fe  Fe11  1  0.000000  0.383200  0.283851  1
  Fe  Fe12  1  0.500000  0.331262  0.997364  1
  Fe  Fe13  1  0.500000  0.668738  0.997364  1
  Fe  Fe14  1  0.000000  0.168738  0.002636  1
  Fe  Fe15  1  0.000000  0.831262  0.002636  1
  P  P16  1  0.500000  0.301489  0.627970  1
  P  P17  1  0.500000  0.698511  0.627970  1
  P  P18  1  0.000000  0.198511  0.372030  1
  P  P19  1  0.000000  0.801489  0.372030  1
  P  P20  1  0.500000  0.500000  0.894993  1
  P  P21  1  0.000000  0.000000  0.105007  1
  P  P22  1  0.500000  0.841602  0.898562  1
  P  P23  1  0.500000  0.158398  0.898562  1
  P  P24  1  0.000000  0.658398  0.101438  1
  P  P25  1  0.000000  0.341602  0.101438  1
  P  P26  1  0.500000  0.500000  0.336763  1
  P  P27  1  0.000000  0.000000  0.663237  1
  Ir  Ir28  1  0.500000  0.301589  0.427794  1
  Ir  Ir29  1  0.500000  0.698411  0.427794  1
  Ir  Ir30  1  0.000000  0.198411  0.572206  1
  Ir  Ir31  1  0.000000  0.801589  0.572206  1
  Ir  Ir32  1  0.500000  0.500000  0.152680  1
  Ir  Ir33  1  0.000000  0.000000  0.847320  1
  Ir  Ir34  1  0.500000  0.500000  0.702335  1
  Ir  Ir35  1  0.000000  0.000000  0.297665  1
