# generated using pymatgen
data_SmHo2Er3(SbO7)2
_symmetry_space_group_name_H-M   'P 1'
_cell_length_a   6.45124832
_cell_length_b   6.45217442
_cell_length_c   7.52927301
_cell_angle_alpha   90.03331157
_cell_angle_beta   89.96669774
_cell_angle_gamma   109.31616695
_symmetry_Int_Tables_number   1
_chemical_formula_structural   SmHo2Er3(SbO7)2
_chemical_formula_sum   'Sm1 Ho2 Er3 Sb2 O14'
_cell_volume   295.76056657
_cell_formula_units_Z   1
loop_
 _symmetry_equiv_pos_site_id
 _symmetry_equiv_pos_as_xyz
  1  'x, y, z'
loop_
 _atom_site_type_symbol
 _atom_site_label
 _atom_site_symmetry_multiplicity
 _atom_site_fract_x
 _atom_site_fract_y
 _atom_site_fract_z
 _atom_site_occupancy
  Sm  Sm0  1  0.500135  0.500048  0.000145  1
  Ho  Ho1  1  0.500160  0.500058  0.499881  1
  Ho  Ho2  1  0.999289  0.468345  0.748117  1
  Er  Er3  1  0.531529  0.001012  0.748044  1
  Er  Er4  1  0.000986  0.531569  0.251938  1
  Er  Er5  1  0.468467  0.998946  0.251939  1
  Sb  Sb6  1  0.999974  0.000036  0.499796  1
  Sb  Sb7  1  0.999977  0.000044  0.000207  1
  O  O8  1  0.676802  0.927695  0.470116  1
  O  O9  1  0.927257  0.677000  0.529294  1
  O  O10  1  0.676360  0.929552  0.030072  1
  O  O11  1  0.929150  0.676577  0.970523  1
  O  O12  1  0.323085  0.072326  0.529859  1
  O  O13  1  0.072593  0.323007  0.469621  1
  O  O14  1  0.323533  0.070467  0.969942  1
  O  O15  1  0.070701  0.323448  0.030550  1
  O  O16  1  0.929005  0.070387  0.750184  1
  O  O17  1  0.071006  0.929124  0.249817  1
  O  O18  1  0.367968  0.633780  0.743683  1
  O  O19  1  0.633239  0.366732  0.256293  1
  O  O20  1  0.638483  0.360129  0.744301  1
  O  O21  1  0.360300  0.639719  0.255678  1
