# generated using pymatgen
data_Lu12Tc2IrOs
_symmetry_space_group_name_H-M   'P 1'
_cell_length_a   7.31062502
_cell_length_b   8.87103500
_cell_length_c   6.14492002
_cell_angle_alpha   90.00000000
_cell_angle_beta   89.99177348
_cell_angle_gamma   90.00000000
_symmetry_Int_Tables_number   1
_chemical_formula_structural   Lu12Tc2IrOs
_chemical_formula_sum   'Lu12 Tc2 Ir1 Os1'
_cell_volume   398.51532869
_cell_formula_units_Z   1
loop_
 _symmetry_equiv_pos_site_id
 _symmetry_equiv_pos_as_xyz
  1  'x, y, z'
loop_
 _atom_site_type_symbol
 _atom_site_label
 _atom_site_symmetry_multiplicity
 _atom_site_fract_x
 _atom_site_fract_y
 _atom_site_fract_z
 _atom_site_occupancy
  Lu  Lu0  1  0.675006  0.061762  0.337068  1
  Lu  Lu1  1  0.175405  0.436770  0.164493  1
  Lu  Lu2  1  0.325675  0.560947  0.663648  1
  Lu  Lu3  1  0.823312  0.938921  0.835065  1
  Lu  Lu4  1  0.325675  0.939053  0.663648  1
  Lu  Lu5  1  0.823312  0.561079  0.835065  1
  Lu  Lu6  1  0.675006  0.438238  0.337068  1
  Lu  Lu7  1  0.175405  0.063230  0.164493  1
  Lu  Lu8  1  0.538821  0.250000  0.875922  1
  Lu  Lu9  1  0.039218  0.250000  0.624002  1
  Lu  Lu10  1  0.461117  0.750000  0.129258  1
  Lu  Lu11  1  0.959548  0.750000  0.370973  1
  Tc  Tc12  1  0.884138  0.250000  0.038311  1
  Tc  Tc13  1  0.383039  0.250000  0.460853  1
  Ir  Ir14  1  0.117452  0.750000  0.960236  1
  Os  Os15  1  0.617867  0.750000  0.539897  1
