# generated using pymatgen
data_Nd4Hg2Rh3Au
_symmetry_space_group_name_H-M   'P 1'
_cell_length_a   7.81307374
_cell_length_b   7.81307435
_cell_length_c   3.88137000
_cell_angle_alpha   90.00000000
_cell_angle_beta   90.00000000
_cell_angle_gamma   89.36669106
_symmetry_Int_Tables_number   1
_chemical_formula_structural   Nd4Hg2Rh3Au
_chemical_formula_sum   'Nd4 Hg2 Rh3 Au1'
_cell_volume   236.92036573
_cell_formula_units_Z   1
loop_
 _symmetry_equiv_pos_site_id
 _symmetry_equiv_pos_as_xyz
  1  'x, y, z'
loop_
 _atom_site_type_symbol
 _atom_site_label
 _atom_site_symmetry_multiplicity
 _atom_site_fract_x
 _atom_site_fract_y
 _atom_site_fract_z
 _atom_site_occupancy
  Nd  Nd0  1  0.835290  0.690150  0.500000  1
  Nd  Nd1  1  0.325186  0.825186  0.500000  1
  Nd  Nd2  1  0.654738  0.154738  0.500000  1
  Nd  Nd3  1  0.190150  0.335290  0.500000  1
  Hg  Hg4  1  0.003534  0.000519  0.000000  1
  Hg  Hg5  1  0.500519  0.503534  0.000000  1
  Rh  Rh6  1  0.364660  0.127072  0.000000  1
  Rh  Rh7  1  0.627072  0.864660  0.000000  1
  Rh  Rh8  1  0.127882  0.627882  0.000000  1
  Au  Au9  1  0.870971  0.370971  0.000000  1
