# generated using pymatgen
data_Hf12Zn9Pd3C3N
_symmetry_space_group_name_H-M   'P 1'
_cell_length_a   8.57067114
_cell_length_b   8.57067127
_cell_length_c   8.54093697
_cell_angle_alpha   60.04164651
_cell_angle_beta   60.04164614
_cell_angle_gamma   60.19298351
_symmetry_Int_Tables_number   1
_chemical_formula_structural   Hf12Zn9Pd3C3N
_chemical_formula_sum   'Hf12 Zn9 Pd3 C3 N1'
_cell_volume   444.55294101
_cell_formula_units_Z   1
loop_
 _symmetry_equiv_pos_site_id
 _symmetry_equiv_pos_as_xyz
  1  'x, y, z'
loop_
 _atom_site_type_symbol
 _atom_site_label
 _atom_site_symmetry_multiplicity
 _atom_site_fract_x
 _atom_site_fract_y
 _atom_site_fract_z
 _atom_site_occupancy
  Hf  Hf0  1  0.811074  0.188891  0.188515  1
  Hf  Hf1  1  0.188891  0.811074  0.188515  1
  Hf  Hf2  1  0.811741  0.811741  0.186848  1
  Hf  Hf3  1  0.186175  0.813164  0.811750  1
  Hf  Hf4  1  0.813164  0.186175  0.811750  1
  Hf  Hf5  1  0.188210  0.188210  0.811143  1
  Hf  Hf6  1  0.438926  0.061109  0.061485  1
  Hf  Hf7  1  0.061109  0.438926  0.061485  1
  Hf  Hf8  1  0.438259  0.438259  0.063152  1
  Hf  Hf9  1  0.063825  0.436836  0.438250  1
  Hf  Hf10  1  0.436836  0.063825  0.438250  1
  Hf  Hf11  1  0.061790  0.061790  0.438857  1
  Zn  Zn12  1  0.417808  0.417808  0.748492  1
  Zn  Zn13  1  0.417440  0.417440  0.418324  1
  Zn  Zn14  1  0.748314  0.417694  0.418417  1
  Zn  Zn15  1  0.417694  0.748314  0.418417  1
  Zn  Zn16  1  0.832192  0.832192  0.501508  1
  Zn  Zn17  1  0.832560  0.832560  0.831676  1
  Zn  Zn18  1  0.501686  0.832306  0.831583  1
  Zn  Zn19  1  0.832306  0.501686  0.831583  1
  Zn  Zn20  1  0.625000  0.625000  0.625000  1
  Pd  Pd21  1  0.625000  0.625000  0.125000  1
  Pd  Pd22  1  0.125000  0.625000  0.625000  1
  Pd  Pd23  1  0.625000  0.125000  0.625000  1
  C  C24  1  0.125000  0.125000  0.125000  1
  C  C25  1  0.625000  0.125000  0.125000  1
  C  C26  1  0.125000  0.625000  0.125000  1
  N  N27  1  0.125000  0.125000  0.625000  1
