# generated using pymatgen
data_CaPr6FeCl12
_symmetry_space_group_name_H-M   'P 1'
_cell_length_a   9.20043421
_cell_length_b   9.37352393
_cell_length_c   9.19386683
_cell_angle_alpha   107.01069433
_cell_angle_beta   106.68525674
_cell_angle_gamma   107.31223821
_symmetry_Int_Tables_number   1
_chemical_formula_structural   CaPr6FeCl12
_chemical_formula_sum   'Ca1 Pr6 Fe1 Cl12'
_cell_volume   660.25656006
_cell_formula_units_Z   1
loop_
 _symmetry_equiv_pos_site_id
 _symmetry_equiv_pos_as_xyz
  1  'x, y, z'
loop_
 _atom_site_type_symbol
 _atom_site_label
 _atom_site_symmetry_multiplicity
 _atom_site_fract_x
 _atom_site_fract_y
 _atom_site_fract_z
 _atom_site_occupancy
  Ca  Ca0  1  0.500001  0.499998  0.500002  1
  Pr  Pr1  1  0.313139  0.108764  0.023717  1
  Pr  Pr2  1  0.024002  0.324779  0.114810  1
  Pr  Pr3  1  0.108195  0.023528  0.311975  1
  Pr  Pr4  1  0.891809  0.976468  0.688029  1
  Pr  Pr5  1  0.975994  0.675217  0.885196  1
  Pr  Pr6  1  0.686866  0.891232  0.976291  1
  Fe  Fe7  1  0.999992  0.000024  0.999962  1
  Cl  Cl8  1  0.682791  0.210802  0.066747  1
  Cl  Cl9  1  0.374228  0.453425  0.171807  1
  Cl  Cl10  1  0.066958  0.685056  0.211670  1
  Cl  Cl11  1  0.786948  0.933251  0.316963  1
  Cl  Cl12  1  0.455310  0.174882  0.375590  1
  Cl  Cl13  1  0.171854  0.373606  0.455581  1
  Cl  Cl14  1  0.828147  0.626394  0.544417  1
  Cl  Cl15  1  0.544697  0.825122  0.624418  1
  Cl  Cl16  1  0.213052  0.066748  0.683045  1
  Cl  Cl17  1  0.933045  0.314942  0.788336  1
  Cl  Cl18  1  0.625768  0.546572  0.828194  1
  Cl  Cl19  1  0.317209  0.789196  0.933256  1
