# generated using pymatgen
data_HoEr3(Ga3Ag)2
_symmetry_space_group_name_H-M   'P 1'
_cell_length_a   7.06776600
_cell_length_b   8.97419711
_cell_length_c   8.97419800
_cell_angle_alpha   119.99999590
_cell_angle_beta   90.00000000
_cell_angle_gamma   90.00000000
_symmetry_Int_Tables_number   1
_chemical_formula_structural   HoEr3(Ga3Ag)2
_chemical_formula_sum   'Ho2 Er6 Ga12 Ag4'
_cell_volume   492.95135381
_cell_formula_units_Z   2
loop_
 _symmetry_equiv_pos_site_id
 _symmetry_equiv_pos_as_xyz
  1  'x, y, z'
loop_
 _atom_site_type_symbol
 _atom_site_label
 _atom_site_symmetry_multiplicity
 _atom_site_fract_x
 _atom_site_fract_y
 _atom_site_fract_z
 _atom_site_occupancy
  Ho  Ho0  1  0.750283  0.000000  0.000000  1
  Ho  Ho1  1  0.250304  0.000000  0.000000  1
  Er  Er2  1  0.749917  0.488181  0.511819  1
  Er  Er3  1  0.249867  0.511778  0.488222  1
  Er  Er4  1  0.749917  0.023638  0.511819  1
  Er  Er5  1  0.249867  0.976446  0.488222  1
  Er  Er6  1  0.749917  0.488181  0.976362  1
  Er  Er7  1  0.249867  0.511778  0.023554  1
  Ga  Ga8  1  0.967256  0.834922  0.165078  1
  Ga  Ga9  1  0.032872  0.165045  0.834955  1
  Ga  Ga10  1  0.967256  0.330157  0.165078  1
  Ga  Ga11  1  0.467343  0.165072  0.834928  1
  Ga  Ga12  1  0.032872  0.669909  0.834955  1
  Ga  Ga13  1  0.532957  0.834917  0.165083  1
  Ga  Ga14  1  0.967256  0.834922  0.669843  1
  Ga  Ga15  1  0.467343  0.669854  0.834928  1
  Ga  Ga16  1  0.032872  0.165045  0.330091  1
  Ga  Ga17  1  0.532957  0.330169  0.165083  1
  Ga  Ga18  1  0.467343  0.165072  0.330146  1
  Ga  Ga19  1  0.532957  0.834917  0.669831  1
  Ag  Ag20  1  0.531322  0.666667  0.333333  1
  Ag  Ag21  1  0.967650  0.666667  0.333333  1
  Ag  Ag22  1  0.031935  0.333333  0.666667  1
  Ag  Ag23  1  0.467868  0.333333  0.666667  1
