# generated using pymatgen
data_HoEr2Tm2CoSb2
_symmetry_space_group_name_H-M   'P 1'
_cell_length_a   7.78992800
_cell_length_b   8.73964700
_cell_length_c   12.09961200
_cell_angle_alpha   90.00000000
_cell_angle_beta   90.00000000
_cell_angle_gamma   90.00000000
_symmetry_Int_Tables_number   1
_chemical_formula_structural   HoEr2Tm2CoSb2
_chemical_formula_sum   'Ho4 Er8 Tm8 Co4 Sb8'
_cell_volume   823.75635708
_cell_formula_units_Z   4
loop_
 _symmetry_equiv_pos_site_id
 _symmetry_equiv_pos_as_xyz
  1  'x, y, z'
loop_
 _atom_site_type_symbol
 _atom_site_label
 _atom_site_symmetry_multiplicity
 _atom_site_fract_x
 _atom_site_fract_y
 _atom_site_fract_z
 _atom_site_occupancy
  Ho  Ho0  1  0.623107  0.750000  0.307979  1
  Ho  Ho1  1  0.123107  0.250000  0.192021  1
  Ho  Ho2  1  0.376893  0.250000  0.692021  1
  Ho  Ho3  1  0.876893  0.750000  0.807979  1
  Er  Er4  1  0.155996  0.750000  0.203825  1
  Er  Er5  1  0.655996  0.250000  0.296175  1
  Er  Er6  1  0.844004  0.250000  0.796175  1
  Er  Er7  1  0.344004  0.750000  0.703825  1
  Er  Er8  1  0.451643  0.750000  0.997899  1
  Er  Er9  1  0.951643  0.250000  0.502101  1
  Er  Er10  1  0.548357  0.250000  0.002101  1
  Er  Er11  1  0.048357  0.750000  0.497899  1
  Tm  Tm12  1  0.823645  0.963512  0.065469  1
  Tm  Tm13  1  0.323645  0.036488  0.434531  1
  Tm  Tm14  1  0.176355  0.463512  0.934531  1
  Tm  Tm15  1  0.676355  0.536488  0.565469  1
  Tm  Tm16  1  0.176355  0.036488  0.934531  1
  Tm  Tm17  1  0.676355  0.963512  0.565469  1
  Tm  Tm18  1  0.823645  0.536488  0.065469  1
  Tm  Tm19  1  0.323645  0.463512  0.434531  1
  Co  Co20  1  0.433216  0.750000  0.491109  1
  Co  Co21  1  0.933216  0.250000  0.008891  1
  Co  Co22  1  0.566784  0.250000  0.508891  1
  Co  Co23  1  0.066784  0.750000  0.991109  1
  Sb  Sb24  1  0.930938  0.991935  0.327322  1
  Sb  Sb25  1  0.430938  0.008065  0.172678  1
  Sb  Sb26  1  0.069062  0.491935  0.672678  1
  Sb  Sb27  1  0.569062  0.508065  0.827322  1
  Sb  Sb28  1  0.069062  0.008065  0.672678  1
  Sb  Sb29  1  0.569062  0.991935  0.827322  1
  Sb  Sb30  1  0.930938  0.508065  0.327322  1
  Sb  Sb31  1  0.430938  0.491935  0.172678  1
