# generated using pymatgen
data_DyNpB6W
_symmetry_space_group_name_H-M   'P 1'
_cell_length_a   3.59818700
_cell_length_b   9.36988500
_cell_length_c   11.44283300
_cell_angle_alpha   90.00000000
_cell_angle_beta   90.00000000
_cell_angle_gamma   90.00000000
_symmetry_Int_Tables_number   1
_chemical_formula_structural   DyNpB6W
_chemical_formula_sum   'Dy4 Np4 B24 W4'
_cell_volume   385.79051914
_cell_formula_units_Z   4
loop_
 _symmetry_equiv_pos_site_id
 _symmetry_equiv_pos_as_xyz
  1  'x, y, z'
loop_
 _atom_site_type_symbol
 _atom_site_label
 _atom_site_symmetry_multiplicity
 _atom_site_fract_x
 _atom_site_fract_y
 _atom_site_fract_z
 _atom_site_occupancy
  Dy  Dy0  1  0.000000  0.337692  0.407753  1
  Dy  Dy1  1  0.000000  0.662308  0.592247  1
  Dy  Dy2  1  0.000000  0.837692  0.092247  1
  Dy  Dy3  1  0.000000  0.162308  0.907753  1
  Np  Np4  1  0.000000  0.959237  0.400909  1
  Np  Np5  1  0.000000  0.040763  0.599091  1
  Np  Np6  1  0.000000  0.459237  0.099091  1
  Np  Np7  1  0.000000  0.540763  0.900909  1
  B  B8  1  0.500000  0.551956  0.432310  1
  B  B9  1  0.500000  0.448044  0.567690  1
  B  B10  1  0.500000  0.051956  0.067690  1
  B  B11  1  0.500000  0.948044  0.932310  1
  B  B12  1  0.500000  0.746795  0.424103  1
  B  B13  1  0.500000  0.253205  0.575897  1
  B  B14  1  0.500000  0.246795  0.075897  1
  B  B15  1  0.500000  0.753205  0.924103  1
  B  B16  1  0.500000  0.806773  0.275263  1
  B  B17  1  0.500000  0.193227  0.724737  1
  B  B18  1  0.500000  0.306773  0.224737  1
  B  B19  1  0.500000  0.693227  0.775263  1
  B  B20  1  0.500000  0.644383  0.186431  1
  B  B21  1  0.500000  0.355617  0.813569  1
  B  B22  1  0.500000  0.144383  0.313569  1
  B  B23  1  0.500000  0.855617  0.686431  1
  B  B24  1  0.500000  0.987844  0.221987  1
  B  B25  1  0.500000  0.012156  0.778013  1
  B  B26  1  0.500000  0.487844  0.278013  1
  B  B27  1  0.500000  0.512156  0.721987  1
  B  B28  1  0.500000  0.638271  0.038346  1
  B  B29  1  0.500000  0.361729  0.961654  1
  B  B30  1  0.500000  0.138271  0.461654  1
  B  B31  1  0.500000  0.861729  0.538346  1
  W  W32  1  0.000000  0.647512  0.317880  1
  W  W33  1  0.000000  0.352488  0.682120  1
  W  W34  1  0.000000  0.147512  0.182120  1
  W  W35  1  0.000000  0.852488  0.817880  1
