# generated using pymatgen
data_LiYb2ScSn2
_symmetry_space_group_name_H-M   'P 1'
_cell_length_a   4.78256900
_cell_length_b   7.81180400
_cell_length_c   8.61783800
_cell_angle_alpha   90.00000000
_cell_angle_beta   90.00000000
_cell_angle_gamma   90.00000000
_symmetry_Int_Tables_number   1
_chemical_formula_structural   LiYb2ScSn2
_chemical_formula_sum   'Li2 Yb4 Sc2 Sn4'
_cell_volume   321.96666459
_cell_formula_units_Z   2
loop_
 _symmetry_equiv_pos_site_id
 _symmetry_equiv_pos_as_xyz
  1  'x, y, z'
loop_
 _atom_site_type_symbol
 _atom_site_label
 _atom_site_symmetry_multiplicity
 _atom_site_fract_x
 _atom_site_fract_y
 _atom_site_fract_z
 _atom_site_occupancy
  Li  Li0  1  0.250000  0.144139  0.937852  1
  Li  Li1  1  0.250000  0.644139  0.562148  1
  Yb  Yb2  1  0.250000  0.013993  0.312850  1
  Yb  Yb3  1  0.250000  0.513993  0.187150  1
  Yb  Yb4  1  0.750000  0.985385  0.692106  1
  Yb  Yb5  1  0.750000  0.485385  0.807894  1
  Sc  Sc6  1  0.750000  0.853554  0.071443  1
  Sc  Sc7  1  0.750000  0.353554  0.428557  1
  Sn  Sn8  1  0.250000  0.274648  0.609412  1
  Sn  Sn9  1  0.250000  0.774648  0.890588  1
  Sn  Sn10  1  0.750000  0.728281  0.392924  1
  Sn  Sn11  1  0.750000  0.228281  0.107076  1
