# generated using pymatgen
data_Zr6Al24Fe7Pd
_symmetry_space_group_name_H-M   'P 1'
_cell_length_a   8.53246523
_cell_length_b   8.53246436
_cell_length_c   9.13798650
_cell_angle_alpha   89.86465806
_cell_angle_beta   90.13534233
_cell_angle_gamma   119.97077533
_symmetry_Int_Tables_number   1
_chemical_formula_structural   Zr6Al24Fe7Pd
_chemical_formula_sum   'Zr6 Al24 Fe7 Pd1'
_cell_volume   576.31026738
_cell_formula_units_Z   1
loop_
 _symmetry_equiv_pos_site_id
 _symmetry_equiv_pos_as_xyz
  1  'x, y, z'
loop_
 _atom_site_type_symbol
 _atom_site_label
 _atom_site_symmetry_multiplicity
 _atom_site_fract_x
 _atom_site_fract_y
 _atom_site_fract_z
 _atom_site_occupancy
  Zr  Zr0  1  0.804979  0.195021  0.746650  1
  Zr  Zr1  1  0.195021  0.804979  0.253350  1
  Zr  Zr2  1  0.388418  0.192100  0.750198  1
  Zr  Zr3  1  0.611582  0.807900  0.249802  1
  Zr  Zr4  1  0.807900  0.611582  0.750198  1
  Zr  Zr5  1  0.192100  0.388418  0.249802  1
  Al  Al6  1  0.672171  0.327829  0.972769  1
  Al  Al7  1  0.327829  0.672171  0.027231  1
  Al  Al8  1  0.333899  0.666101  0.473811  1
  Al  Al9  1  0.666101  0.333899  0.526189  1
  Al  Al10  1  0.837768  0.162232  0.425456  1
  Al  Al11  1  0.162232  0.837768  0.574544  1
  Al  Al12  1  0.323530  0.161742  0.426949  1
  Al  Al13  1  0.161443  0.838557  0.923489  1
  Al  Al14  1  0.676470  0.838258  0.573051  1
  Al  Al15  1  0.838557  0.161443  0.076511  1
  Al  Al16  1  0.838258  0.676470  0.426949  1
  Al  Al17  1  0.679441  0.847402  0.922560  1
  Al  Al18  1  0.161742  0.323530  0.573051  1
  Al  Al19  1  0.320559  0.152598  0.077440  1
  Al  Al20  1  0.152598  0.320559  0.922560  1
  Al  Al21  1  0.847402  0.679441  0.077440  1
  Al  Al22  1  0.441750  0.558250  0.741702  1
  Al  Al23  1  0.558250  0.441750  0.258298  1
  Al  Al24  1  0.112352  0.556162  0.750143  1
  Al  Al25  1  0.887648  0.443838  0.249857  1
  Al  Al26  1  0.443838  0.887648  0.750143  1
  Al  Al27  1  0.556162  0.112352  0.249857  1
  Al  Al28  1  0.999942  0.000058  0.749420  1
  Al  Al29  1  0.000058  0.999942  0.250580  1
  Fe  Fe30  1  0.000000  0.500000  0.000000  1
  Fe  Fe31  1  0.500000  0.500000  0.500000  1
  Fe  Fe32  1  0.500000  0.000000  0.000000  1
  Fe  Fe33  1  0.000000  0.500000  0.500000  1
  Fe  Fe34  1  0.500000  0.000000  0.500000  1
  Fe  Fe35  1  0.000000  0.000000  0.000000  1
  Fe  Fe36  1  0.000000  0.000000  0.500000  1
  Pd  Pd37  1  0.500000  0.500000  0.000000  1
