# generated using pymatgen
data_Ta4Zn2Fe5Co5B4
_symmetry_space_group_name_H-M   'P 1'
_cell_length_a   8.67657186
_cell_length_b   8.55774304
_cell_length_c   2.97619800
_cell_angle_alpha   90.00000000
_cell_angle_beta   90.00000000
_cell_angle_gamma   89.83480164
_symmetry_Int_Tables_number   1
_chemical_formula_structural   Ta4Zn2Fe5Co5B4
_chemical_formula_sum   'Ta4 Zn2 Fe5 Co5 B4'
_cell_volume   220.98735592
_cell_formula_units_Z   1
loop_
 _symmetry_equiv_pos_site_id
 _symmetry_equiv_pos_as_xyz
  1  'x, y, z'
loop_
 _atom_site_type_symbol
 _atom_site_label
 _atom_site_symmetry_multiplicity
 _atom_site_fract_x
 _atom_site_fract_y
 _atom_site_fract_z
 _atom_site_occupancy
  Ta  Ta0  1  0.823980  0.328312  0.000000  1
  Ta  Ta1  1  0.176594  0.675155  0.000000  1
  Ta  Ta2  1  0.323414  0.175038  0.000000  1
  Ta  Ta3  1  0.674218  0.821568  0.000000  1
  Zn  Zn4  1  0.499981  0.499308  0.000000  1
  Zn  Zn5  1  0.999043  0.000632  0.000000  1
  Fe  Fe6  1  0.502178  0.999134  0.500000  1
  Fe  Fe7  1  0.000335  0.501014  0.500000  1
  Fe  Fe8  1  0.720161  0.570995  0.500000  1
  Fe  Fe9  1  0.279875  0.427609  0.500000  1
  Fe  Fe10  1  0.220996  0.929891  0.500000  1
  Co  Co11  1  0.779657  0.071041  0.500000  1
  Co  Co12  1  0.429906  0.719345  0.500000  1
  Co  Co13  1  0.571881  0.279189  0.500000  1
  Co  Co14  1  0.068088  0.220343  0.500000  1
  Co  Co15  1  0.928812  0.781019  0.500000  1
  B  B16  1  0.622099  0.121857  0.000000  1
  B  B17  1  0.378617  0.877990  0.000000  1
  B  B18  1  0.121678  0.378628  0.000000  1
  B  B19  1  0.878484  0.621930  0.000000  1
