# generated using pymatgen
data_Pa4Ge6Os7
_symmetry_space_group_name_H-M   'P 1'
_cell_length_a   7.28378899
_cell_length_b   7.28378876
_cell_length_c   7.28378900
_cell_angle_alpha   109.47122408
_cell_angle_beta   109.47122344
_cell_angle_gamma   109.47121061
_symmetry_Int_Tables_number   1
_chemical_formula_structural   Pa4Ge6Os7
_chemical_formula_sum   'Pa4 Ge6 Os7'
_cell_volume   297.47480206
_cell_formula_units_Z   1
loop_
 _symmetry_equiv_pos_site_id
 _symmetry_equiv_pos_as_xyz
  1  'x, y, z'
loop_
 _atom_site_type_symbol
 _atom_site_label
 _atom_site_symmetry_multiplicity
 _atom_site_fract_x
 _atom_site_fract_y
 _atom_site_fract_z
 _atom_site_occupancy
  Pa  Pa0  1  0.000000  0.000000  0.500000  1
  Pa  Pa1  1  0.000000  0.500000  0.000000  1
  Pa  Pa2  1  0.500000  0.000000  0.000000  1
  Pa  Pa3  1  0.500000  0.500000  0.500000  1
  Ge  Ge4  1  0.688627  0.688627  0.000000  1
  Ge  Ge5  1  0.311373  0.000000  0.311373  1
  Ge  Ge6  1  0.000000  0.311373  0.311373  1
  Ge  Ge7  1  0.311373  0.311373  0.000000  1
  Ge  Ge8  1  0.688627  0.000000  0.688627  1
  Ge  Ge9  1  0.000000  0.688627  0.688627  1
  Os  Os10  1  0.750000  0.250000  0.500000  1
  Os  Os11  1  0.750000  0.500000  0.250000  1
  Os  Os12  1  0.500000  0.250000  0.750000  1
  Os  Os13  1  0.250000  0.500000  0.750000  1
  Os  Os14  1  0.250000  0.750000  0.500000  1
  Os  Os15  1  0.500000  0.750000  0.250000  1
  Os  Os16  1  0.000000  0.000000  0.000000  1
