# generated using pymatgen
data_Y12HoTh3TlCd3Ir4
_symmetry_space_group_name_H-M   'P 1'
_cell_length_a   9.75007754
_cell_length_b   9.75249695
_cell_length_c   9.75249800
_cell_angle_alpha   59.99999642
_cell_angle_beta   59.99178762
_cell_angle_gamma   59.99179376
_symmetry_Int_Tables_number   1
_chemical_formula_structural   Y12HoTh3TlCd3Ir4
_chemical_formula_sum   'Y12 Ho1 Th3 Tl1 Cd3 Ir4'
_cell_volume   655.64816945
_cell_formula_units_Z   1
loop_
 _symmetry_equiv_pos_site_id
 _symmetry_equiv_pos_as_xyz
  1  'x, y, z'
loop_
 _atom_site_type_symbol
 _atom_site_label
 _atom_site_symmetry_multiplicity
 _atom_site_fract_x
 _atom_site_fract_y
 _atom_site_fract_z
 _atom_site_occupancy
  Y  Y0  1  0.811434  0.189549  0.189549  1
  Y  Y1  1  0.187955  0.812145  0.812145  1
  Y  Y2  1  0.188115  0.812074  0.187296  1
  Y  Y3  1  0.811443  0.189352  0.809210  1
  Y  Y4  1  0.188115  0.187296  0.812074  1
  Y  Y5  1  0.811443  0.809210  0.189352  1
  Y  Y6  1  0.937594  0.563240  0.563240  1
  Y  Y7  1  0.563880  0.935959  0.935959  1
  Y  Y8  1  0.563412  0.937550  0.564316  1
  Y  Y9  1  0.936373  0.563645  0.936788  1
  Y  Y10  1  0.563412  0.564316  0.937550  1
  Y  Y11  1  0.936373  0.936788  0.563645  1
  Ho  Ho12  1  0.949234  0.350138  0.350138  1
  Th  Th13  1  0.347256  0.349959  0.349959  1
  Th  Th14  1  0.346965  0.349549  0.953301  1
  Th  Th15  1  0.346965  0.953301  0.349549  1
  Tl  Tl16  1  0.586306  0.581934  0.581934  1
  Cd  Cd17  1  0.584636  0.580992  0.251562  1
  Cd  Cd18  1  0.584636  0.251562  0.580992  1
  Cd  Cd19  1  0.250242  0.582765  0.582765  1
  Ir  Ir20  1  0.144580  0.142518  0.142518  1
  Ir  Ir21  1  0.145063  0.142476  0.570119  1
  Ir  Ir22  1  0.145063  0.570119  0.142476  1
  Ir  Ir23  1  0.569509  0.143563  0.143563  1
