# generated using pymatgen
data_NdYP7Ru12
_symmetry_space_group_name_H-M   'P 1'
_cell_length_a   9.44525400
_cell_length_b   9.44525271
_cell_length_c   3.96536700
_cell_angle_alpha   90.00000000
_cell_angle_beta   90.00000000
_cell_angle_gamma   119.99999750
_symmetry_Int_Tables_number   1
_chemical_formula_structural   NdYP7Ru12
_chemical_formula_sum   'Nd1 Y1 P7 Ru12'
_cell_volume   306.36648526
_cell_formula_units_Z   1
loop_
 _symmetry_equiv_pos_site_id
 _symmetry_equiv_pos_as_xyz
  1  'x, y, z'
loop_
 _atom_site_type_symbol
 _atom_site_label
 _atom_site_symmetry_multiplicity
 _atom_site_fract_x
 _atom_site_fract_y
 _atom_site_fract_z
 _atom_site_occupancy
  Nd  Nd0  1  0.333333  0.666667  0.000000  1
  Y  Y1  1  0.666667  0.333333  0.500000  1
  P  P2  1  0.604097  0.718335  0.500000  1
  P  P3  1  0.000000  0.000000  0.000000  1
  P  P4  1  0.281665  0.885762  0.500000  1
  P  P5  1  0.114238  0.395903  0.500000  1
  P  P6  1  0.886511  0.572763  0.000000  1
  P  P7  1  0.427237  0.313749  0.000000  1
  P  P8  1  0.686251  0.113489  0.000000  1
  Ru  Ru9  1  0.559264  0.953684  0.500000  1
  Ru  Ru10  1  0.394422  0.440736  0.500000  1
  Ru  Ru11  1  0.914625  0.119985  0.500000  1
  Ru  Ru12  1  0.205360  0.085375  0.500000  1
  Ru  Ru13  1  0.880015  0.794640  0.500000  1
  Ru  Ru14  1  0.729011  0.892817  0.000000  1
  Ru  Ru15  1  0.107183  0.836193  0.000000  1
  Ru  Ru16  1  0.163807  0.270989  0.000000  1
  Ru  Ru17  1  0.422359  0.068024  0.000000  1
  Ru  Ru18  1  0.931976  0.354337  0.000000  1
  Ru  Ru19  1  0.645663  0.577641  0.000000  1
  Ru  Ru20  1  0.046316  0.605578  0.500000  1
