# generated using pymatgen
data_TbHo(CoB)8
_symmetry_space_group_name_H-M   'P 1'
_cell_length_a   6.92758600
_cell_length_b   6.92758600
_cell_length_c   3.80824800
_cell_angle_alpha   90.00000000
_cell_angle_beta   90.00000000
_cell_angle_gamma   90.00000000
_symmetry_Int_Tables_number   1
_chemical_formula_structural   TbHo(CoB)8
_chemical_formula_sum   'Tb1 Ho1 Co8 B8'
_cell_volume   182.76333505
_cell_formula_units_Z   1
loop_
 _symmetry_equiv_pos_site_id
 _symmetry_equiv_pos_as_xyz
  1  'x, y, z'
loop_
 _atom_site_type_symbol
 _atom_site_label
 _atom_site_symmetry_multiplicity
 _atom_site_fract_x
 _atom_site_fract_y
 _atom_site_fract_z
 _atom_site_occupancy
  Tb  Tb0  1  0.500000  0.500000  0.500000  1
  Ho  Ho1  1  0.000000  0.000000  0.000000  1
  Co  Co2  1  0.381167  0.140915  0.890893  1
  Co  Co3  1  0.618833  0.859085  0.890893  1
  Co  Co4  1  0.358058  0.882715  0.390987  1
  Co  Co5  1  0.641942  0.117285  0.390987  1
  Co  Co6  1  0.117285  0.358058  0.609013  1
  Co  Co7  1  0.882715  0.641942  0.609013  1
  Co  Co8  1  0.140915  0.618833  0.109107  1
  Co  Co9  1  0.859085  0.381167  0.109107  1
  B  B10  1  0.800141  0.662702  0.105114  1
  B  B11  1  0.199859  0.337298  0.105114  1
  B  B12  1  0.837773  0.296692  0.605806  1
  B  B13  1  0.162227  0.703308  0.605806  1
  B  B14  1  0.703308  0.837773  0.394194  1
  B  B15  1  0.296692  0.162227  0.394194  1
  B  B16  1  0.662702  0.199859  0.894886  1
  B  B17  1  0.337298  0.800141  0.894886  1
