# generated using pymatgen
data_Ac12Si(SnI4)3
_symmetry_space_group_name_H-M   'P 1'
_cell_length_a   11.73218302
_cell_length_b   11.60234716
_cell_length_c   11.60234781
_cell_angle_alpha   109.24342063
_cell_angle_beta   109.69806827
_cell_angle_gamma   109.69806989
_symmetry_Int_Tables_number   1
_chemical_formula_structural   Ac12Si(SnI4)3
_chemical_formula_sum   'Ac12 Si1 Sn3 I12'
_cell_volume   1212.34203270
_cell_formula_units_Z   1
loop_
 _symmetry_equiv_pos_site_id
 _symmetry_equiv_pos_as_xyz
  1  'x, y, z'
loop_
 _atom_site_type_symbol
 _atom_site_label
 _atom_site_symmetry_multiplicity
 _atom_site_fract_x
 _atom_site_fract_y
 _atom_site_fract_z
 _atom_site_occupancy
  Ac  Ac0  1  0.468760  0.492847  0.227946  1
  Ac  Ac1  1  0.750000  0.240378  0.259622  1
  Ac  Ac2  1  0.750000  0.009063  0.490937  1
  Ac  Ac3  1  0.240937  0.481874  0.490937  1
  Ac  Ac4  1  0.259187  0.735099  0.227946  1
  Ac  Ac5  1  0.031240  0.272054  0.007153  1
  Ac  Ac6  1  0.009622  0.019243  0.259622  1
  Ac  Ac7  1  0.475913  0.735099  0.007153  1
  Ac  Ac8  1  0.490378  0.240378  0.480757  1
  Ac  Ac9  1  0.024087  0.492847  0.764901  1
  Ac  Ac10  1  0.259063  0.009063  0.018126  1
  Ac  Ac11  1  0.240813  0.272054  0.764901  1
  Si  Si12  1  0.250000  0.500000  0.000000  1
  Sn  Sn13  1  0.250000  0.250150  0.249850  1
  Sn  Sn14  1  0.499850  0.999700  0.249850  1
  Sn  Sn15  1  0.000150  0.250150  0.500300  1
  I  I16  1  0.250000  0.756600  0.743400  1
  I  I17  1  0.512727  0.506559  0.757228  1
  I  I18  1  0.987273  0.742772  0.993441  1
  I  I19  1  0.744501  0.250669  0.757228  1
  I  I20  1  0.993400  0.986799  0.743400  1
  I  I21  1  0.250000  0.994663  0.505337  1
  I  I22  1  0.755337  0.510674  0.505337  1
  I  I23  1  0.506168  0.250669  0.993441  1
  I  I24  1  0.755499  0.742772  0.249331  1
  I  I25  1  0.744663  0.994663  0.989326  1
  I  I26  1  0.993832  0.506559  0.249331  1
  I  I27  1  0.506600  0.756600  0.513201  1
