# generated using pymatgen
data_YHo5Nb2(Co4P3)4
_symmetry_space_group_name_H-M   'P 1'
_cell_length_a   3.70348000
_cell_length_b   10.62490600
_cell_length_c   12.32436900
_cell_angle_alpha   90.00000000
_cell_angle_beta   90.00000000
_cell_angle_gamma   90.00000000
_symmetry_Int_Tables_number   1
_chemical_formula_structural   YHo5Nb2(Co4P3)4
_chemical_formula_sum   'Y1 Ho5 Nb2 Co16 P12'
_cell_volume   484.95315941
_cell_formula_units_Z   1
loop_
 _symmetry_equiv_pos_site_id
 _symmetry_equiv_pos_as_xyz
  1  'x, y, z'
loop_
 _atom_site_type_symbol
 _atom_site_label
 _atom_site_symmetry_multiplicity
 _atom_site_fract_x
 _atom_site_fract_y
 _atom_site_fract_z
 _atom_site_occupancy
  Y  Y0  1  0.000000  0.500000  0.526502  1
  Ho  Ho1  1  0.500000  0.000000  0.473349  1
  Ho  Ho2  1  0.500000  0.820404  0.205256  1
  Ho  Ho3  1  0.500000  0.179596  0.205256  1
  Ho  Ho4  1  0.000000  0.679566  0.794907  1
  Ho  Ho5  1  0.000000  0.320434  0.794907  1
  Nb  Nb6  1  0.500000  0.500000  0.156731  1
  Nb  Nb7  1  0.000000  0.000000  0.842912  1
  Co  Co8  1  0.000000  0.500000  0.985712  1
  Co  Co9  1  0.500000  0.000000  0.014296  1
  Co  Co10  1  0.500000  0.294697  0.432341  1
  Co  Co11  1  0.500000  0.705303  0.432341  1
  Co  Co12  1  0.000000  0.204249  0.567530  1
  Co  Co13  1  0.000000  0.795751  0.567530  1
  Co  Co14  1  0.500000  0.877310  0.704438  1
  Co  Co15  1  0.500000  0.122690  0.704438  1
  Co  Co16  1  0.000000  0.623042  0.295295  1
  Co  Co17  1  0.000000  0.376958  0.295295  1
  Co  Co18  1  0.500000  0.332359  0.991512  1
  Co  Co19  1  0.500000  0.667641  0.991512  1
  Co  Co20  1  0.000000  0.167543  0.008507  1
  Co  Co21  1  0.000000  0.832457  0.008507  1
  Co  Co22  1  0.500000  0.500000  0.703025  1
  Co  Co23  1  0.000000  0.000000  0.297931  1
  P  P24  1  0.500000  0.310687  0.616015  1
  P  P25  1  0.500000  0.689313  0.616015  1
  P  P26  1  0.000000  0.188631  0.384273  1
  P  P27  1  0.000000  0.811369  0.384273  1
  P  P28  1  0.500000  0.500000  0.882081  1
  P  P29  1  0.000000  0.000000  0.118282  1
  P  P30  1  0.500000  0.841111  0.893084  1
  P  P31  1  0.500000  0.158889  0.893084  1
  P  P32  1  0.000000  0.658916  0.106902  1
  P  P33  1  0.000000  0.341084  0.106902  1
  P  P34  1  0.500000  0.500000  0.355323  1
  P  P35  1  0.000000  0.000000  0.643736  1
