# generated using pymatgen
data_Ho13Er7Bi12
_symmetry_space_group_name_H-M   'P 1'
_cell_length_a   8.21955600
_cell_length_b   9.49315900
_cell_length_c   11.98786601
_cell_angle_alpha   89.99976586
_cell_angle_beta   90.00348240
_cell_angle_gamma   89.99871291
_symmetry_Int_Tables_number   1
_chemical_formula_structural   Ho13Er7Bi12
_chemical_formula_sum   'Ho13 Er7 Bi12'
_cell_volume   935.40781264
_cell_formula_units_Z   1
loop_
 _symmetry_equiv_pos_site_id
 _symmetry_equiv_pos_as_xyz
  1  'x, y, z'
loop_
 _atom_site_type_symbol
 _atom_site_label
 _atom_site_symmetry_multiplicity
 _atom_site_fract_x
 _atom_site_fract_y
 _atom_site_fract_z
 _atom_site_occupancy
  Ho  Ho0  1  0.353782  0.750028  0.216173  1
  Ho  Ho1  1  0.853731  0.750015  0.283797  1
  Ho  Ho2  1  0.646254  0.250005  0.783806  1
  Ho  Ho3  1  0.146262  0.250010  0.716184  1
  Ho  Ho4  1  0.192012  0.564202  0.441012  1
  Ho  Ho5  1  0.476966  0.249993  0.489010  1
  Ho  Ho6  1  0.976947  0.250008  0.010990  1
  Ho  Ho7  1  0.523094  0.750025  0.511000  1
  Ho  Ho8  1  0.023054  0.750003  0.989005  1
  Ho  Ho9  1  0.314641  0.250002  0.218100  1
  Ho  Ho10  1  0.814659  0.250001  0.281905  1
  Ho  Ho11  1  0.685347  0.749998  0.781903  1
  Ho  Ho12  1  0.185357  0.750013  0.718113  1
  Er  Er13  1  0.692016  0.564265  0.058989  1
  Er  Er14  1  0.191980  0.935768  0.441012  1
  Er  Er15  1  0.307982  0.064255  0.941008  1
  Er  Er16  1  0.807999  0.435714  0.558991  1
  Er  Er17  1  0.307985  0.435736  0.941006  1
  Er  Er18  1  0.807999  0.064269  0.558987  1
  Er  Er19  1  0.692010  0.935734  0.058991  1
  Bi  Bi20  1  0.405459  0.749998  0.957477  1
  Bi  Bi21  1  0.905413  0.750047  0.542538  1
  Bi  Bi22  1  0.594545  0.250003  0.042520  1
  Bi  Bi23  1  0.094509  0.249872  0.457492  1
  Bi  Bi24  1  0.565934  0.996262  0.325691  1
  Bi  Bi25  1  0.065918  0.503747  0.174287  1
  Bi  Bi26  1  0.434067  0.496263  0.674323  1
  Bi  Bi27  1  0.934064  0.003747  0.825698  1
  Bi  Bi28  1  0.434076  0.003749  0.674309  1
  Bi  Bi29  1  0.934054  0.496259  0.825702  1
  Bi  Bi30  1  0.565959  0.503746  0.325683  1
  Bi  Bi31  1  0.065925  0.996263  0.174298  1
