# generated using pymatgen
data_DyCuNi3Pt
_symmetry_space_group_name_H-M   'P 1'
_cell_length_a   5.12052327
_cell_length_b   4.82291793
_cell_length_c   4.02780300
_cell_angle_alpha   90.00000000
_cell_angle_beta   90.00000000
_cell_angle_gamma   118.09532287
_symmetry_Int_Tables_number   1
_chemical_formula_structural   DyCuNi3Pt
_chemical_formula_sum   'Dy1 Cu1 Ni3 Pt1'
_cell_volume   87.74904792
_cell_formula_units_Z   1
loop_
 _symmetry_equiv_pos_site_id
 _symmetry_equiv_pos_as_xyz
  1  'x, y, z'
loop_
 _atom_site_type_symbol
 _atom_site_label
 _atom_site_symmetry_multiplicity
 _atom_site_fract_x
 _atom_site_fract_y
 _atom_site_fract_z
 _atom_site_occupancy
  Dy  Dy0  1  0.335404  0.667703  0.000000  1
  Cu  Cu1  1  0.696860  0.348429  0.000000  1
  Ni  Ni2  1  0.970057  0.985028  0.000000  1
  Ni  Ni3  1  0.833075  0.165466  0.500000  1
  Ni  Ni4  1  0.833075  0.667609  0.500000  1
  Pt  Pt5  1  0.331529  0.165765  0.500000  1
