# generated using pymatgen
data_Tb5Mg3(Ni4P3)4
_symmetry_space_group_name_H-M   'P 1'
_cell_length_a   12.24625500
_cell_length_b   12.24625581
_cell_length_c   3.80263900
_cell_angle_alpha   90.00000000
_cell_angle_beta   90.00000000
_cell_angle_gamma   120.00000592
_symmetry_Int_Tables_number   1
_chemical_formula_structural   Tb5Mg3(Ni4P3)4
_chemical_formula_sum   'Tb5 Mg3 Ni16 P12'
_cell_volume   493.88101190
_cell_formula_units_Z   1
loop_
 _symmetry_equiv_pos_site_id
 _symmetry_equiv_pos_as_xyz
  1  'x, y, z'
loop_
 _atom_site_type_symbol
 _atom_site_label
 _atom_site_symmetry_multiplicity
 _atom_site_fract_x
 _atom_site_fract_y
 _atom_site_fract_z
 _atom_site_occupancy
  Tb  Tb0  1  0.186160  0.186160  0.500000  1
  Tb  Tb1  1  0.813840  0.000000  0.500000  1
  Tb  Tb2  1  0.000000  0.813840  0.500000  1
  Tb  Tb3  1  0.333333  0.666667  0.000000  1
  Tb  Tb4  1  0.666667  0.333333  0.000000  1
  Mg  Mg5  1  0.563302  0.563302  0.000000  1
  Mg  Mg6  1  0.436698  0.000000  0.000000  1
  Mg  Mg7  1  0.000000  0.436698  0.000000  1
  Ni  Ni8  1  0.719458  0.719458  0.500000  1
  Ni  Ni9  1  0.280542  0.000000  0.500000  1
  Ni  Ni10  1  0.000000  0.280542  0.500000  1
  Ni  Ni11  1  0.183848  0.379253  0.000000  1
  Ni  Ni12  1  0.620747  0.804595  0.000000  1
  Ni  Ni13  1  0.195405  0.816152  0.000000  1
  Ni  Ni14  1  0.804595  0.620747  0.000000  1
  Ni  Ni15  1  0.816152  0.195405  0.000000  1
  Ni  Ni16  1  0.379253  0.183848  0.000000  1
  Ni  Ni17  1  0.363923  0.485188  0.500000  1
  Ni  Ni18  1  0.514812  0.878736  0.500000  1
  Ni  Ni19  1  0.121264  0.636077  0.500000  1
  Ni  Ni20  1  0.878736  0.514812  0.500000  1
  Ni  Ni21  1  0.636077  0.121264  0.500000  1
  Ni  Ni22  1  0.485188  0.363923  0.500000  1
  Ni  Ni23  1  0.000000  0.000000  0.000000  1
  P  P24  1  0.822450  0.822450  0.000000  1
  P  P25  1  0.177550  0.000000  0.000000  1
  P  P26  1  0.000000  0.177550  0.000000  1
  P  P27  1  0.172670  0.476581  0.500000  1
  P  P28  1  0.523419  0.696089  0.500000  1
  P  P29  1  0.303911  0.827330  0.500000  1
  P  P30  1  0.696089  0.523419  0.500000  1
  P  P31  1  0.827330  0.303911  0.500000  1
  P  P32  1  0.476581  0.172670  0.500000  1
  P  P33  1  0.358634  0.358634  0.000000  1
  P  P34  1  0.641366  0.000000  0.000000  1
  P  P35  1  0.000000  0.641366  0.000000  1
