# generated using pymatgen
data_Ba8Dy3Y(CoO5)4
_symmetry_space_group_name_H-M   'P 1'
_cell_length_a   6.17034705
_cell_length_b   7.96473781
_cell_length_c   12.51237715
_cell_angle_alpha   91.41648511
_cell_angle_beta   90.00922997
_cell_angle_gamma   89.98810445
_symmetry_Int_Tables_number   1
_chemical_formula_structural   Ba8Dy3Y(CoO5)4
_chemical_formula_sum   'Ba8 Dy3 Y1 Co4 O20'
_cell_volume   614.73530316
_cell_formula_units_Z   1
loop_
 _symmetry_equiv_pos_site_id
 _symmetry_equiv_pos_as_xyz
  1  'x, y, z'
loop_
 _atom_site_type_symbol
 _atom_site_label
 _atom_site_symmetry_multiplicity
 _atom_site_fract_x
 _atom_site_fract_y
 _atom_site_fract_z
 _atom_site_occupancy
  Ba  Ba0  1  0.759630  0.491165  0.359964  1
  Ba  Ba1  1  0.740375  0.991031  0.860099  1
  Ba  Ba2  1  0.240229  0.508984  0.639872  1
  Ba  Ba3  1  0.259534  0.008745  0.139812  1
  Ba  Ba4  1  0.754283  0.993097  0.383131  1
  Ba  Ba5  1  0.745732  0.493336  0.883227  1
  Ba  Ba6  1  0.245709  0.006747  0.616777  1
  Ba  Ba7  1  0.254415  0.506866  0.116728  1
  Dy  Dy8  1  0.751968  0.762539  0.128804  1
  Dy  Dy9  1  0.251975  0.737380  0.371241  1
  Dy  Dy10  1  0.247930  0.237418  0.871212  1
  Y  Y11  1  0.747891  0.262708  0.628656  1
  Co  Co12  1  0.740267  0.745613  0.591941  1
  Co  Co13  1  0.759561  0.245617  0.091927  1
  Co  Co14  1  0.259681  0.254289  0.407861  1
  Co  Co15  1  0.240238  0.754349  0.907959  1
  O  O16  1  0.757656  0.969994  0.634069  1
  O  O17  1  0.741126  0.470441  0.134091  1
  O  O18  1  0.242496  0.029480  0.366078  1
  O  O19  1  0.257436  0.529422  0.866292  1
  O  O20  1  0.736729  0.054202  0.170037  1
  O  O21  1  0.764662  0.554551  0.669974  1
  O  O22  1  0.264620  0.946061  0.830381  1
  O  O23  1  0.235552  0.445971  0.330285  1
  O  O24  1  0.544746  0.746762  0.272245  1
  O  O25  1  0.955249  0.246571  0.772473  1
  O  O26  1  0.454693  0.253463  0.727828  1
  O  O27  1  0.044996  0.753262  0.227660  1
  O  O28  1  0.534435  0.230701  0.986018  1
  O  O29  1  0.966093  0.730070  0.486167  1
  O  O30  1  0.466140  0.769965  0.013717  1
  O  O31  1  0.034221  0.269892  0.513752  1
  O  O32  1  0.033408  0.234275  0.020753  1
  O  O33  1  0.466353  0.734983  0.520751  1
  O  O34  1  0.966453  0.765004  0.979208  1
  O  O35  1  0.533517  0.265043  0.479010  1
