# generated using pymatgen
data_Ho5MnV2(Co4P3)4
_symmetry_space_group_name_H-M   'P 1'
_cell_length_a   12.05401302
_cell_length_b   12.01842794
_cell_length_c   3.66357200
_cell_angle_alpha   90.00000000
_cell_angle_beta   90.00000000
_cell_angle_gamma   119.90239577
_symmetry_Int_Tables_number   1
_chemical_formula_structural   Ho5MnV2(Co4P3)4
_chemical_formula_sum   'Ho5 Mn1 V2 Co16 P12'
_cell_volume   460.08808115
_cell_formula_units_Z   1
loop_
 _symmetry_equiv_pos_site_id
 _symmetry_equiv_pos_as_xyz
  1  'x, y, z'
loop_
 _atom_site_type_symbol
 _atom_site_label
 _atom_site_symmetry_multiplicity
 _atom_site_fract_x
 _atom_site_fract_y
 _atom_site_fract_z
 _atom_site_occupancy
  Ho  Ho0  1  0.665198  0.332659  0.000000  1
  Ho  Ho1  1  0.334802  0.667462  0.000000  1
  Ho  Ho2  1  0.813677  0.814078  0.500000  1
  Ho  Ho3  1  0.186323  0.000402  0.500000  1
  Ho  Ho4  1  0.000000  0.187090  0.500000  1
  Mn  Mn5  1  0.000000  0.555566  0.000000  1
  V  V6  1  0.443287  0.443941  0.000000  1
  V  V7  1  0.556713  0.000654  0.000000  1
  Co  Co8  1  0.872664  0.355799  0.500000  1
  Co  Co9  1  0.643907  0.518926  0.500000  1
  Co  Co10  1  0.481787  0.126549  0.500000  1
  Co  Co11  1  0.356093  0.875019  0.500000  1
  Co  Co12  1  0.518213  0.644761  0.500000  1
  Co  Co13  1  0.127336  0.483134  0.500000  1
  Co  Co14  1  0.801311  0.177771  0.000000  1
  Co  Co15  1  0.822630  0.622094  0.000000  1
  Co  Co16  1  0.375673  0.199063  0.000000  1
  Co  Co17  1  0.177370  0.799465  0.000000  1
  Co  Co18  1  0.624327  0.823391  0.000000  1
  Co  Co19  1  0.198689  0.376461  0.000000  1
  Co  Co20  1  0.281486  0.281579  0.500000  1
  Co  Co21  1  0.718514  0.000094  0.500000  1
  Co  Co22  1  0.000000  0.715903  0.500000  1
  Co  Co23  1  0.000000  0.998791  0.000000  1
  P  P24  1  0.684234  0.164667  0.500000  1
  P  P25  1  0.834391  0.519233  0.500000  1
  P  P26  1  0.479791  0.316029  0.500000  1
  P  P27  1  0.165609  0.684843  0.500000  1
  P  P28  1  0.520209  0.836237  0.500000  1
  P  P29  1  0.315766  0.480432  0.500000  1
  P  P30  1  0.178922  0.179163  0.000000  1
  P  P31  1  0.821078  0.000241  0.000000  1
  P  P32  1  0.000000  0.818955  0.000000  1
  P  P33  1  0.636894  0.636308  0.000000  1
  P  P34  1  0.363106  0.999414  0.000000  1
  P  P35  1  0.000000  0.363827  0.000000  1
