# generated using pymatgen
data_Lu5CoRh
_symmetry_space_group_name_H-M   'P 1'
_cell_length_a   6.21695236
_cell_length_b   6.96464582
_cell_length_c   8.36805671
_cell_angle_alpha   96.80080639
_cell_angle_beta   112.49365878
_cell_angle_gamma   89.54340321
_symmetry_Int_Tables_number   1
_chemical_formula_structural   Lu5CoRh
_chemical_formula_sum   'Lu10 Co2 Rh2'
_cell_volume   332.13140679
_cell_formula_units_Z   2
loop_
 _symmetry_equiv_pos_site_id
 _symmetry_equiv_pos_as_xyz
  1  'x, y, z'
loop_
 _atom_site_type_symbol
 _atom_site_label
 _atom_site_symmetry_multiplicity
 _atom_site_fract_x
 _atom_site_fract_y
 _atom_site_fract_z
 _atom_site_occupancy
  Lu  Lu0  1  0.526216  0.090160  0.812870  1
  Lu  Lu1  1  0.473784  0.909840  0.187130  1
  Lu  Lu2  1  0.699627  0.420337  0.188400  1
  Lu  Lu3  1  0.300373  0.579663  0.811600  1
  Lu  Lu4  1  0.291535  0.321571  0.436040  1
  Lu  Lu5  1  0.708465  0.678429  0.563960  1
  Lu  Lu6  1  0.850625  0.189369  0.563825  1
  Lu  Lu7  1  0.149375  0.810631  0.436175  1
  Lu  Lu8  1  0.076488  0.262153  0.001428  1
  Lu  Lu9  1  0.923512  0.737847  0.998572  1
  Co  Co10  1  0.323916  0.576791  0.224162  1
  Co  Co11  1  0.676084  0.423209  0.775838  1
  Rh  Rh12  1  0.103642  0.928153  0.783981  1
  Rh  Rh13  1  0.896358  0.071847  0.216019  1
