# generated using pymatgen
data_Yb2PaAs3
_symmetry_space_group_name_H-M   'P 1'
_cell_length_a   7.22817583
_cell_length_b   7.22817480
_cell_length_c   7.22817438
_cell_angle_alpha   146.06623537
_cell_angle_beta   132.26998906
_cell_angle_gamma   59.84715437
_symmetry_Int_Tables_number   1
_chemical_formula_structural   Yb2PaAs3
_chemical_formula_sum   'Yb2 Pa1 As3'
_cell_volume   154.57230963
_cell_formula_units_Z   1
loop_
 _symmetry_equiv_pos_site_id
 _symmetry_equiv_pos_as_xyz
  1  'x, y, z'
loop_
 _atom_site_type_symbol
 _atom_site_label
 _atom_site_symmetry_multiplicity
 _atom_site_fract_x
 _atom_site_fract_y
 _atom_site_fract_z
 _atom_site_occupancy
  Yb  Yb0  1  0.669123  0.669123  0.000000  1
  Yb  Yb1  1  0.330877  0.330877  0.000000  1
  Pa  Pa2  1  0.000000  0.000000  0.000000  1
  As  As3  1  0.500000  0.000000  0.500000  1
  As  As4  1  0.153162  0.653162  0.500000  1
  As  As5  1  0.846838  0.346838  0.500000  1
