# generated using pymatgen
data_Li2Ca20Zn9Cd
_symmetry_space_group_name_H-M   'P 1'
_cell_length_a   8.03448500
_cell_length_b   8.03448500
_cell_length_c   15.25618700
_cell_angle_alpha   90.00000000
_cell_angle_beta   90.00000000
_cell_angle_gamma   90.00000000
_symmetry_Int_Tables_number   1
_chemical_formula_structural   Li2Ca20Zn9Cd
_chemical_formula_sum   'Li2 Ca20 Zn9 Cd1'
_cell_volume   984.83186463
_cell_formula_units_Z   1
loop_
 _symmetry_equiv_pos_site_id
 _symmetry_equiv_pos_as_xyz
  1  'x, y, z'
loop_
 _atom_site_type_symbol
 _atom_site_label
 _atom_site_symmetry_multiplicity
 _atom_site_fract_x
 _atom_site_fract_y
 _atom_site_fract_z
 _atom_site_occupancy
  Li  Li0  1  0.500000  0.500000  0.500000  1
  Li  Li1  1  0.500000  0.500000  0.000000  1
  Ca  Ca2  1  0.675332  0.163146  0.104081  1
  Ca  Ca3  1  0.167801  0.670814  0.606672  1
  Ca  Ca4  1  0.324668  0.836854  0.104081  1
  Ca  Ca5  1  0.832199  0.329186  0.606672  1
  Ca  Ca6  1  0.836854  0.675332  0.104081  1
  Ca  Ca7  1  0.329186  0.167801  0.606672  1
  Ca  Ca8  1  0.163146  0.324668  0.104081  1
  Ca  Ca9  1  0.670814  0.832199  0.606672  1
  Ca  Ca10  1  0.836854  0.324668  0.895919  1
  Ca  Ca11  1  0.329186  0.832199  0.393328  1
  Ca  Ca12  1  0.163146  0.675332  0.895919  1
  Ca  Ca13  1  0.670814  0.167801  0.393328  1
  Ca  Ca14  1  0.675332  0.836854  0.895919  1
  Ca  Ca15  1  0.167801  0.329186  0.393328  1
  Ca  Ca16  1  0.324668  0.163146  0.895919  1
  Ca  Ca17  1  0.832199  0.670814  0.393328  1
  Ca  Ca18  1  0.500000  0.500000  0.753945  1
  Ca  Ca19  1  0.000000  0.000000  0.250093  1
  Ca  Ca20  1  0.000000  0.000000  0.749907  1
  Ca  Ca21  1  0.500000  0.500000  0.246055  1
  Zn  Zn22  1  0.617855  0.119455  0.751592  1
  Zn  Zn23  1  0.119455  0.617855  0.248408  1
  Zn  Zn24  1  0.880545  0.382145  0.248408  1
  Zn  Zn25  1  0.382145  0.880545  0.751592  1
  Zn  Zn26  1  0.880545  0.617855  0.751592  1
  Zn  Zn27  1  0.382145  0.119455  0.248408  1
  Zn  Zn28  1  0.119455  0.382145  0.751592  1
  Zn  Zn29  1  0.617855  0.880545  0.248408  1
  Zn  Zn30  1  0.000000  0.000000  0.000000  1
  Cd  Cd31  1  0.000000  0.000000  0.500000  1
