# generated using pymatgen
data_Pr3(GaRh)2
_symmetry_space_group_name_H-M   'P 1'
_cell_length_a   5.74384600
_cell_length_b   8.25998800
_cell_length_c   13.70097200
_cell_angle_alpha   90.00000000
_cell_angle_beta   90.00000000
_cell_angle_gamma   90.00000000
_symmetry_Int_Tables_number   1
_chemical_formula_structural   Pr3(GaRh)2
_chemical_formula_sum   'Pr12 Ga8 Rh8'
_cell_volume   650.03027243
_cell_formula_units_Z   4
loop_
 _symmetry_equiv_pos_site_id
 _symmetry_equiv_pos_as_xyz
  1  'x, y, z'
loop_
 _atom_site_type_symbol
 _atom_site_label
 _atom_site_symmetry_multiplicity
 _atom_site_fract_x
 _atom_site_fract_y
 _atom_site_fract_z
 _atom_site_occupancy
  Pr  Pr0  1  0.633650  0.255081  0.250000  1
  Pr  Pr1  1  0.366350  0.744919  0.750000  1
  Pr  Pr2  1  0.366350  0.755081  0.250000  1
  Pr  Pr3  1  0.633650  0.244919  0.750000  1
  Pr  Pr4  1  0.146580  0.396541  0.097568  1
  Pr  Pr5  1  0.853420  0.603459  0.902432  1
  Pr  Pr6  1  0.853420  0.603459  0.597568  1
  Pr  Pr7  1  0.853420  0.896541  0.402432  1
  Pr  Pr8  1  0.146580  0.396541  0.402432  1
  Pr  Pr9  1  0.146580  0.103459  0.597568  1
  Pr  Pr10  1  0.146580  0.103459  0.902432  1
  Pr  Pr11  1  0.853420  0.896541  0.097568  1
  Ga  Ga12  1  0.135436  0.106854  0.250000  1
  Ga  Ga13  1  0.864564  0.893146  0.750000  1
  Ga  Ga14  1  0.864564  0.606854  0.250000  1
  Ga  Ga15  1  0.135436  0.393146  0.750000  1
  Ga  Ga16  1  0.633038  0.250000  0.000000  1
  Ga  Ga17  1  0.366962  0.750000  0.000000  1
  Ga  Ga18  1  0.366962  0.750000  0.500000  1
  Ga  Ga19  1  0.633038  0.250000  0.500000  1
  Rh  Rh20  1  0.360715  0.032370  0.091615  1
  Rh  Rh21  1  0.639285  0.967630  0.908385  1
  Rh  Rh22  1  0.639285  0.967630  0.591615  1
  Rh  Rh23  1  0.639285  0.532370  0.408385  1
  Rh  Rh24  1  0.360715  0.032370  0.408385  1
  Rh  Rh25  1  0.360715  0.467630  0.591615  1
  Rh  Rh26  1  0.360715  0.467630  0.908385  1
  Rh  Rh27  1  0.639285  0.532370  0.091615  1
