# generated using pymatgen
data_Hf8Fe6Co2Si13P
_symmetry_space_group_name_H-M   'P 1'
_cell_length_a   9.42689242
_cell_length_b   9.42859497
_cell_length_c   9.43866526
_cell_angle_alpha   94.11976105
_cell_angle_beta   94.11015246
_cell_angle_gamma   148.90566089
_symmetry_Int_Tables_number   1
_chemical_formula_structural   Hf8Fe6Co2Si13P
_chemical_formula_sum   'Hf8 Fe6 Co2 Si13 P1'
_cell_volume   417.44897235
_cell_formula_units_Z   1
loop_
 _symmetry_equiv_pos_site_id
 _symmetry_equiv_pos_as_xyz
  1  'x, y, z'
loop_
 _atom_site_type_symbol
 _atom_site_label
 _atom_site_symmetry_multiplicity
 _atom_site_fract_x
 _atom_site_fract_y
 _atom_site_fract_z
 _atom_site_occupancy
  Hf  Hf0  1  0.139462  0.139462  0.278924  1
  Hf  Hf1  1  0.860657  0.860657  0.721314  1
  Hf  Hf2  1  0.137743  0.861929  0.999587  1
  Hf  Hf3  1  0.861845  0.137658  0.999587  1
  Hf  Hf4  1  0.305585  0.499940  0.801521  1
  Hf  Hf5  1  0.696953  0.501262  0.195708  1
  Hf  Hf6  1  0.498755  0.694447  0.195708  1
  Hf  Hf7  1  0.495937  0.301582  0.801521  1
  Fe  Fe8  1  0.102374  0.602374  0.204747  1
  Fe  Fe9  1  0.397377  0.897377  0.794756  1
  Fe  Fe10  1  0.905659  0.102082  0.502290  1
  Fe  Fe11  1  0.596631  0.400208  0.502290  1
  Fe  Fe12  1  0.601228  0.101228  0.202456  1
  Fe  Fe13  1  0.898831  0.398831  0.797664  1
  Co  Co14  1  0.102116  0.899552  0.501257  1
  Co  Co15  1  0.399141  0.601705  0.501257  1
  Si  Si16  1  0.708230  0.708230  0.416459  1
  Si  Si17  1  0.289872  0.708881  0.998410  1
  Si  Si18  1  0.708537  0.289528  0.998410  1
  Si  Si19  1  0.085417  0.493820  0.591493  1
  Si  Si20  1  0.900941  0.495449  0.410068  1
  Si  Si21  1  0.509127  0.914619  0.410068  1
  Si  Si22  1  0.506076  0.097673  0.591493  1
  Si  Si23  1  0.248958  0.249044  0.999179  1
  Si  Si24  1  0.750221  0.750135  0.999179  1
  Si  Si25  1  0.303536  0.004534  0.302452  1
  Si  Si26  1  0.702576  0.002319  0.698348  1
  Si  Si27  1  0.995772  0.696029  0.698348  1
  Si  Si28  1  0.998915  0.297917  0.302452  1
  P  P29  1  0.291526  0.291526  0.583053  1
