# generated using pymatgen
data_TbYbAl8SiIr3
_symmetry_space_group_name_H-M   'P 1'
_cell_length_a   7.54765951
_cell_length_b   7.55307190
_cell_length_c   9.39050700
_cell_angle_alpha   90.00000000
_cell_angle_beta   90.00000000
_cell_angle_gamma   119.61838301
_symmetry_Int_Tables_number   1
_chemical_formula_structural   TbYbAl8SiIr3
_chemical_formula_sum   'Tb2 Yb2 Al16 Si2 Ir6'
_cell_volume   465.38547839
_cell_formula_units_Z   2
loop_
 _symmetry_equiv_pos_site_id
 _symmetry_equiv_pos_as_xyz
  1  'x, y, z'
loop_
 _atom_site_type_symbol
 _atom_site_label
 _atom_site_symmetry_multiplicity
 _atom_site_fract_x
 _atom_site_fract_y
 _atom_site_fract_z
 _atom_site_occupancy
  Tb  Tb0  1  0.676061  0.996282  0.250000  1
  Tb  Tb1  1  0.323939  0.003718  0.750000  1
  Yb  Yb2  1  0.994748  0.674342  0.250000  1
  Yb  Yb3  1  0.005252  0.325658  0.750000  1
  Al  Al4  1  0.002295  0.337640  0.073840  1
  Al  Al5  1  0.997705  0.662360  0.926160  1
  Al  Al6  1  0.997705  0.662360  0.573840  1
  Al  Al7  1  0.335049  0.000581  0.424174  1
  Al  Al8  1  0.002295  0.337640  0.426160  1
  Al  Al9  1  0.664951  0.999419  0.575826  1
  Al  Al10  1  0.664951  0.999419  0.924174  1
  Al  Al11  1  0.335049  0.000581  0.075826  1
  Al  Al12  1  0.335009  0.336067  0.554461  1
  Al  Al13  1  0.664991  0.663933  0.445539  1
  Al  Al14  1  0.664991  0.663933  0.054461  1
  Al  Al15  1  0.335009  0.336067  0.945539  1
  Al  Al16  1  0.334884  0.547406  0.250000  1
  Al  Al17  1  0.665116  0.452594  0.750000  1
  Al  Al18  1  0.547358  0.334498  0.250000  1
  Al  Al19  1  0.452642  0.665502  0.750000  1
  Si  Si20  1  0.129878  0.131539  0.250000  1
  Si  Si21  1  0.870122  0.868461  0.750000  1
  Ir  Ir22  1  0.669965  0.327329  0.000125  1
  Ir  Ir23  1  0.330035  0.672671  0.999875  1
  Ir  Ir24  1  0.330035  0.672671  0.500125  1
  Ir  Ir25  1  0.669965  0.327329  0.499875  1
  Ir  Ir26  1  0.000000  0.000000  0.000000  1
  Ir  Ir27  1  0.000000  0.000000  0.500000  1
