# generated using pymatgen
data_Tb9Dy(Sn3Bi)2
_symmetry_space_group_name_H-M   'P 1'
_cell_length_a   8.20534200
_cell_length_b   8.23185300
_cell_length_c   15.55044200
_cell_angle_alpha   90.00104404
_cell_angle_beta   90.00000000
_cell_angle_gamma   90.00000000
_symmetry_Int_Tables_number   1
_chemical_formula_structural   Tb9Dy(Sn3Bi)2
_chemical_formula_sum   'Tb18 Dy2 Sn12 Bi4'
_cell_volume   1050.35723538
_cell_formula_units_Z   2
loop_
 _symmetry_equiv_pos_site_id
 _symmetry_equiv_pos_as_xyz
  1  'x, y, z'
loop_
 _atom_site_type_symbol
 _atom_site_label
 _atom_site_symmetry_multiplicity
 _atom_site_fract_x
 _atom_site_fract_y
 _atom_site_fract_z
 _atom_site_occupancy
  Tb  Tb0  1  0.616538  0.161219  0.377413  1
  Tb  Tb1  1  0.116535  0.338762  0.122608  1
  Tb  Tb2  1  0.624841  0.162711  0.121622  1
  Tb  Tb3  1  0.124839  0.337266  0.378387  1
  Tb  Tb4  1  0.375359  0.837631  0.621616  1
  Tb  Tb5  1  0.875336  0.662391  0.878397  1
  Tb  Tb6  1  0.548292  0.326451  0.893668  1
  Tb  Tb7  1  0.048314  0.173530  0.606326  1
  Tb  Tb8  1  0.451477  0.673465  0.393691  1
  Tb  Tb9  1  0.951368  0.826532  0.106318  1
  Tb  Tb10  1  0.469819  0.673707  0.104089  1
  Tb  Tb11  1  0.969817  0.826325  0.395912  1
  Tb  Tb12  1  0.530507  0.327385  0.604856  1
  Tb  Tb13  1  0.030557  0.172609  0.895126  1
  Tb  Tb14  1  0.209395  0.500534  0.746898  1
  Tb  Tb15  1  0.709405  0.999402  0.753112  1
  Tb  Tb16  1  0.790612  0.499696  0.247319  1
  Tb  Tb17  1  0.290563  0.000339  0.252672  1
  Dy  Dy18  1  0.383159  0.839501  0.875949  1
  Dy  Dy19  1  0.883155  0.660508  0.624051  1
  Sn  Sn20  1  0.718161  0.969128  0.956828  1
  Sn  Sn21  1  0.218177  0.530876  0.543153  1
  Sn  Sn22  1  0.280895  0.030187  0.456881  1
  Sn  Sn23  1  0.780898  0.469838  0.043108  1
  Sn  Sn24  1  0.575757  0.623774  0.748553  1
  Sn  Sn25  1  0.075748  0.876222  0.751441  1
  Sn  Sn26  1  0.424129  0.376389  0.248470  1
  Sn  Sn27  1  0.924154  0.123617  0.251551  1
  Sn  Sn28  1  0.344729  0.145352  0.751219  1
  Sn  Sn29  1  0.844715  0.354665  0.748752  1
  Sn  Sn30  1  0.655349  0.854832  0.251310  1
  Sn  Sn31  1  0.155374  0.645153  0.248702  1
  Bi  Bi32  1  0.276936  0.025503  0.042898  1
  Bi  Bi33  1  0.776932  0.474502  0.457104  1
  Bi  Bi34  1  0.724078  0.972321  0.543976  1
  Bi  Bi35  1  0.224080  0.527676  0.956022  1
