# generated using pymatgen
data_Yb3Pr16LuGa12
_symmetry_space_group_name_H-M   'P 1'
_cell_length_a   7.86281700
_cell_length_b   7.86281700
_cell_length_c   14.70476400
_cell_angle_alpha   90.00000000
_cell_angle_beta   90.00000000
_cell_angle_gamma   90.00000000
_symmetry_Int_Tables_number   1
_chemical_formula_structural   Yb3Pr16LuGa12
_chemical_formula_sum   'Yb3 Pr16 Lu1 Ga12'
_cell_volume   909.10572930
_cell_formula_units_Z   1
loop_
 _symmetry_equiv_pos_site_id
 _symmetry_equiv_pos_as_xyz
  1  'x, y, z'
loop_
 _atom_site_type_symbol
 _atom_site_label
 _atom_site_symmetry_multiplicity
 _atom_site_fract_x
 _atom_site_fract_y
 _atom_site_fract_z
 _atom_site_occupancy
  Yb  Yb0  1  0.000000  0.500000  0.241249  1
  Yb  Yb1  1  0.500000  0.000000  0.258365  1
  Yb  Yb2  1  0.500000  0.000000  0.758959  1
  Pr  Pr3  1  0.823336  0.829746  0.602718  1
  Pr  Pr4  1  0.176954  0.830433  0.102225  1
  Pr  Pr5  1  0.170012  0.823596  0.397865  1
  Pr  Pr6  1  0.829988  0.176404  0.397865  1
  Pr  Pr7  1  0.676404  0.670012  0.397865  1
  Pr  Pr8  1  0.670254  0.323336  0.602718  1
  Pr  Pr9  1  0.329746  0.676664  0.602718  1
  Pr  Pr10  1  0.669567  0.676954  0.102225  1
  Pr  Pr11  1  0.678235  0.330874  0.897121  1
  Pr  Pr12  1  0.830874  0.821765  0.897121  1
  Pr  Pr13  1  0.323596  0.329988  0.397865  1
  Pr  Pr14  1  0.176664  0.170254  0.602718  1
  Pr  Pr15  1  0.823046  0.169567  0.102225  1
  Pr  Pr16  1  0.321765  0.669126  0.897121  1
  Pr  Pr17  1  0.330433  0.323046  0.102225  1
  Pr  Pr18  1  0.169126  0.178235  0.897121  1
  Lu  Lu19  1  0.000000  0.500000  0.739585  1
  Ga  Ga20  1  0.616806  0.383460  0.250069  1
  Ga  Ga21  1  0.113870  0.876443  0.750004  1
  Ga  Ga22  1  0.376443  0.386130  0.750004  1
  Ga  Ga23  1  0.383194  0.616540  0.250069  1
  Ga  Ga24  1  0.883460  0.883194  0.250069  1
  Ga  Ga25  1  0.623557  0.613870  0.750004  1
  Ga  Ga26  1  0.000000  0.500000  0.507081  1
  Ga  Ga27  1  0.886130  0.123557  0.750004  1
  Ga  Ga28  1  0.500000  0.000000  0.495823  1
  Ga  Ga29  1  0.500000  0.000000  0.996287  1
  Ga  Ga30  1  0.116540  0.116806  0.250069  1
  Ga  Ga31  1  0.000000  0.500000  0.002640  1
