# generated using pymatgen
data_PrNd5Cd23Te
_symmetry_space_group_name_H-M   'P 1'
_cell_length_a   10.15151424
_cell_length_b   10.14628608
_cell_length_c   10.14628600
_cell_angle_alpha   60.03409692
_cell_angle_beta   59.98295684
_cell_angle_gamma   59.98294867
_symmetry_Int_Tables_number   1
_chemical_formula_structural   PrNd5Cd23Te
_chemical_formula_sum   'Pr1 Nd5 Cd23 Te1'
_cell_volume   738.97510971
_cell_formula_units_Z   1
loop_
 _symmetry_equiv_pos_site_id
 _symmetry_equiv_pos_as_xyz
  1  'x, y, z'
loop_
 _atom_site_type_symbol
 _atom_site_label
 _atom_site_symmetry_multiplicity
 _atom_site_fract_x
 _atom_site_fract_y
 _atom_site_fract_z
 _atom_site_occupancy
  Pr  Pr0  1  0.217698  0.781388  0.781394  1
  Nd  Nd1  1  0.782003  0.781886  0.217092  1
  Nd  Nd2  1  0.218161  0.782764  0.218038  1
  Nd  Nd3  1  0.781796  0.219122  0.219111  1
  Nd  Nd4  1  0.218108  0.217989  0.782799  1
  Nd  Nd5  1  0.781971  0.217129  0.781826  1
  Cd  Cd6  1  0.833830  0.834261  0.494761  1
  Cd  Cd7  1  0.833836  0.494688  0.834279  1
  Cd  Cd8  1  0.496254  0.833561  0.833586  1
  Cd  Cd9  1  0.835099  0.835405  0.835389  1
  Cd  Cd10  1  0.166411  0.166711  0.503774  1
  Cd  Cd11  1  0.166411  0.503835  0.166697  1
  Cd  Cd12  1  0.505355  0.166170  0.166149  1
  Cd  Cd13  1  0.163960  0.164338  0.164349  1
  Cd  Cd14  1  0.623471  0.623802  0.130724  1
  Cd  Cd15  1  0.623364  0.130743  0.623806  1
  Cd  Cd16  1  0.129750  0.623249  0.623367  1
  Cd  Cd17  1  0.625554  0.623779  0.623687  1
  Cd  Cd18  1  0.376636  0.374871  0.870286  1
  Cd  Cd19  1  0.376745  0.870273  0.374868  1
  Cd  Cd20  1  0.869232  0.376596  0.376491  1
  Cd  Cd21  1  0.375792  0.376076  0.376153  1
  Cd  Cd22  1  0.999837  0.000193  0.499833  1
  Cd  Cd23  1  0.500152  0.000169  0.499832  1
  Cd  Cd24  1  0.999790  0.500183  0.500182  1
  Cd  Cd25  1  0.500155  0.499829  0.000168  1
  Cd  Cd26  1  0.999835  0.499832  0.000196  1
  Cd  Cd27  1  0.499860  0.000153  0.000155  1
  Cd  Cd28  1  0.499403  0.500568  0.500567  1
  Te  Te29  1  0.999531  0.000437  0.000441  1
