# generated using pymatgen
data_Dy6Ho10MgCd2AgPt4
_symmetry_space_group_name_H-M   'P 1'
_cell_length_a   9.69398603
_cell_length_b   9.69398510
_cell_length_c   9.71260800
_cell_angle_alpha   59.93642407
_cell_angle_beta   59.93642724
_cell_angle_gamma   59.86358603
_symmetry_Int_Tables_number   1
_chemical_formula_structural   Dy6Ho10MgCd2AgPt4
_chemical_formula_sum   'Dy6 Ho10 Mg1 Cd2 Ag1 Pt4'
_cell_volume   644.10805611
_cell_formula_units_Z   1
loop_
 _symmetry_equiv_pos_site_id
 _symmetry_equiv_pos_as_xyz
  1  'x, y, z'
loop_
 _atom_site_type_symbol
 _atom_site_label
 _atom_site_symmetry_multiplicity
 _atom_site_fract_x
 _atom_site_fract_y
 _atom_site_fract_z
 _atom_site_occupancy
  Dy  Dy0  1  0.933362  0.563741  0.563511  1
  Dy  Dy1  1  0.564301  0.936094  0.933898  1
  Dy  Dy2  1  0.563741  0.933362  0.563511  1
  Dy  Dy3  1  0.936094  0.564300  0.933898  1
  Dy  Dy4  1  0.565315  0.565315  0.931014  1
  Dy  Dy5  1  0.936084  0.936084  0.562875  1
  Ho  Ho6  1  0.350633  0.350633  0.349123  1
  Ho  Ho7  1  0.352531  0.352531  0.944103  1
  Ho  Ho8  1  0.352294  0.944394  0.352238  1
  Ho  Ho9  1  0.944394  0.352294  0.352238  1
  Ho  Ho10  1  0.811803  0.189283  0.188781  1
  Ho  Ho11  1  0.190557  0.810074  0.808444  1
  Ho  Ho12  1  0.189283  0.811803  0.188781  1
  Ho  Ho13  1  0.810074  0.190557  0.808444  1
  Ho  Ho14  1  0.191663  0.191663  0.808567  1
  Ho  Ho15  1  0.812242  0.812242  0.187443  1
  Mg  Mg16  1  0.575171  0.575171  0.275364  1
  Cd  Cd17  1  0.581863  0.253578  0.583067  1
  Cd  Cd18  1  0.253578  0.581863  0.583067  1
  Ag  Ag19  1  0.584208  0.584208  0.583352  1
  Pt  Pt20  1  0.143785  0.143785  0.143205  1
  Pt  Pt21  1  0.143124  0.143124  0.570203  1
  Pt  Pt22  1  0.142546  0.571359  0.142438  1
  Pt  Pt23  1  0.571359  0.142546  0.142438  1
