# generated using pymatgen
data_Tm20(Rh3Au)3
_symmetry_space_group_name_H-M   'P 1'
_cell_length_a   10.81923142
_cell_length_b   10.81923089
_cell_length_c   6.27533700
_cell_angle_alpha   89.98410750
_cell_angle_beta   89.98410750
_cell_angle_gamma   90.19625591
_symmetry_Int_Tables_number   1
_chemical_formula_structural   Tm20(Rh3Au)3
_chemical_formula_sum   'Tm20 Rh9 Au3'
_cell_volume   734.55999299
_cell_formula_units_Z   1
loop_
 _symmetry_equiv_pos_site_id
 _symmetry_equiv_pos_as_xyz
  1  'x, y, z'
loop_
 _atom_site_type_symbol
 _atom_site_label
 _atom_site_symmetry_multiplicity
 _atom_site_fract_x
 _atom_site_fract_y
 _atom_site_fract_z
 _atom_site_occupancy
  Tm  Tm0  1  0.295001  0.085459  0.364247  1
  Tm  Tm1  1  0.293407  0.906007  0.875310  1
  Tm  Tm2  1  0.703303  0.090526  0.867330  1
  Tm  Tm3  1  0.700598  0.909209  0.367486  1
  Tm  Tm4  1  0.582189  0.789448  0.878524  1
  Tm  Tm5  1  0.583124  0.210498  0.378795  1
  Tm  Tm6  1  0.409525  0.790204  0.378508  1
  Tm  Tm7  1  0.416116  0.210384  0.877805  1
  Tm  Tm8  1  0.210552  0.417811  0.621476  1
  Tm  Tm9  1  0.209796  0.590475  0.121492  1
  Tm  Tm10  1  0.789502  0.416876  0.121205  1
  Tm  Tm11  1  0.789616  0.583884  0.622195  1
  Tm  Tm12  1  0.914541  0.704999  0.135753  1
  Tm  Tm13  1  0.909474  0.296697  0.632670  1
  Tm  Tm14  1  0.093993  0.706593  0.624690  1
  Tm  Tm15  1  0.090791  0.299402  0.132514  1
  Tm  Tm16  1  0.003840  0.995097  0.499506  1
  Tm  Tm17  1  0.004903  0.996160  0.000494  1
  Tm  Tm18  1  0.499358  0.499782  0.001020  1
  Tm  Tm19  1  0.500218  0.500642  0.498980  1
  Rh  Rh20  1  0.154129  0.845871  0.250000  1
  Rh  Rh21  1  0.654589  0.345411  0.750000  1
  Rh  Rh22  1  0.655407  0.654488  0.248885  1
  Rh  Rh23  1  0.345512  0.344593  0.251115  1
  Rh  Rh24  1  0.346380  0.653620  0.750000  1
  Rh  Rh25  1  0.499606  0.999775  0.121415  1
  Rh  Rh26  1  0.499646  0.000122  0.623288  1
  Rh  Rh27  1  0.999878  0.500354  0.876712  1
  Rh  Rh28  1  0.000225  0.500394  0.378585  1
  Au  Au29  1  0.845051  0.154949  0.250000  1
  Au  Au30  1  0.843186  0.843452  0.750533  1
  Au  Au31  1  0.156548  0.156814  0.749467  1
