# generated using pymatgen
data_Zr10Sn4GeBi2
_symmetry_space_group_name_H-M   'P 1'
_cell_length_a   5.92118690
_cell_length_b   8.67662501
_cell_length_c   8.67289812
_cell_angle_alpha   119.98882732
_cell_angle_beta   89.93933035
_cell_angle_gamma   90.02991928
_symmetry_Int_Tables_number   1
_chemical_formula_structural   Zr10Sn4GeBi2
_chemical_formula_sum   'Zr10 Sn4 Ge1 Bi2'
_cell_volume   385.92517912
_cell_formula_units_Z   1
loop_
 _symmetry_equiv_pos_site_id
 _symmetry_equiv_pos_as_xyz
  1  'x, y, z'
loop_
 _atom_site_type_symbol
 _atom_site_label
 _atom_site_symmetry_multiplicity
 _atom_site_fract_x
 _atom_site_fract_y
 _atom_site_fract_z
 _atom_site_occupancy
  Zr  Zr0  1  0.497447  0.331068  0.666128  1
  Zr  Zr1  1  0.497448  0.668935  0.335076  1
  Zr  Zr2  1  0.003582  0.669368  0.335572  1
  Zr  Zr3  1  0.003574  0.330626  0.666216  1
  Zr  Zr4  1  0.761432  0.250560  0.995141  1
  Zr  Zr5  1  0.761409  0.749436  0.744584  1
  Zr  Zr6  1  0.760449  0.000012  0.256993  1
  Zr  Zr7  1  0.239995  0.744452  0.000428  1
  Zr  Zr8  1  0.240015  0.255560  0.255977  1
  Zr  Zr9  1  0.239051  0.000000  0.743223  1
  Sn  Sn10  1  0.747246  0.999974  0.606986  1
  Sn  Sn11  1  0.252020  0.389530  0.000686  1
  Sn  Sn12  1  0.251882  0.610469  0.611142  1
  Sn  Sn13  1  0.251983  0.999988  0.390914  1
  Ge  Ge14  1  0.498416  0.000003  0.000394  1
  Bi  Bi15  1  0.747022  0.608122  0.999313  1
  Bi  Bi16  1  0.747028  0.391897  0.391225  1
