# generated using pymatgen
data_LaNdNi5Ir2Pt3
_symmetry_space_group_name_H-M   'P 1'
_cell_length_a   4.07602700
_cell_length_b   5.36581490
_cell_length_c   8.92625801
_cell_angle_alpha   90.49861978
_cell_angle_beta   90.00000000
_cell_angle_gamma   90.00000000
_symmetry_Int_Tables_number   1
_chemical_formula_structural   LaNdNi5Ir2Pt3
_chemical_formula_sum   'La1 Nd1 Ni5 Ir2 Pt3'
_cell_volume   195.22063867
_cell_formula_units_Z   1
loop_
 _symmetry_equiv_pos_site_id
 _symmetry_equiv_pos_as_xyz
  1  'x, y, z'
loop_
 _atom_site_type_symbol
 _atom_site_label
 _atom_site_symmetry_multiplicity
 _atom_site_fract_x
 _atom_site_fract_y
 _atom_site_fract_z
 _atom_site_occupancy
  La  La0  1  0.000000  0.995343  0.999951  1
  Nd  Nd1  1  0.000000  0.503785  0.499991  1
  Ni  Ni2  1  0.000000  0.998830  0.352167  1
  Ni  Ni3  1  0.000000  0.493491  0.830896  1
  Ni  Ni4  1  0.000000  0.498791  0.159485  1
  Ni  Ni5  1  0.000000  0.016274  0.655445  1
  Ni  Ni6  1  0.500000  0.007215  0.502392  1
  Ir  Ir7  1  0.500000  0.485671  0.997652  1
  Ir  Ir8  1  0.500000  0.247328  0.744945  1
  Pt  Pt9  1  0.500000  0.248483  0.257447  1
  Pt  Pt10  1  0.500000  0.752731  0.744423  1
  Pt  Pt11  1  0.500000  0.752058  0.255207  1
