# generated using pymatgen
data_Ce5CdSn3
_symmetry_space_group_name_H-M   'P 1'
_cell_length_a   6.58843500
_cell_length_b   9.57861618
_cell_length_c   9.57861600
_cell_angle_alpha   119.99999937
_cell_angle_beta   90.00000000
_cell_angle_gamma   90.00000000
_symmetry_Int_Tables_number   1
_chemical_formula_structural   Ce5CdSn3
_chemical_formula_sum   'Ce10 Cd2 Sn6'
_cell_volume   523.50210760
_cell_formula_units_Z   2
loop_
 _symmetry_equiv_pos_site_id
 _symmetry_equiv_pos_as_xyz
  1  'x, y, z'
loop_
 _atom_site_type_symbol
 _atom_site_label
 _atom_site_symmetry_multiplicity
 _atom_site_fract_x
 _atom_site_fract_y
 _atom_site_fract_z
 _atom_site_occupancy
  Ce  Ce0  1  0.750000  0.700509  0.700509  1
  Ce  Ce1  1  0.250000  0.299491  0.299491  1
  Ce  Ce2  1  0.750000  0.000000  0.299491  1
  Ce  Ce3  1  0.250000  0.000000  0.700509  1
  Ce  Ce4  1  0.750000  0.299491  0.000000  1
  Ce  Ce5  1  0.250000  0.700509  0.000000  1
  Ce  Ce6  1  0.000000  0.666667  0.333333  1
  Ce  Ce7  1  0.000000  0.333333  0.666667  1
  Ce  Ce8  1  0.500000  0.333333  0.666667  1
  Ce  Ce9  1  0.500000  0.666667  0.333333  1
  Cd  Cd10  1  0.000000  0.000000  0.000000  1
  Cd  Cd11  1  0.500000  0.000000  0.000000  1
  Sn  Sn12  1  0.750000  0.361310  0.361310  1
  Sn  Sn13  1  0.250000  0.638690  0.638690  1
  Sn  Sn14  1  0.750000  0.000000  0.638690  1
  Sn  Sn15  1  0.250000  0.000000  0.361310  1
  Sn  Sn16  1  0.750000  0.638690  0.000000  1
  Sn  Sn17  1  0.250000  0.361310  0.000000  1
