# generated using pymatgen
data_ErLuFe4(PRh)6
_symmetry_space_group_name_H-M   'P 1'
_cell_length_a   3.79206500
_cell_length_b   10.52707800
_cell_length_c   12.25991300
_cell_angle_alpha   90.00000000
_cell_angle_beta   90.00000000
_cell_angle_gamma   90.00000000
_symmetry_Int_Tables_number   1
_chemical_formula_structural   ErLuFe4(PRh)6
_chemical_formula_sum   'Er2 Lu2 Fe8 P12 Rh12'
_cell_volume   489.40793010
_cell_formula_units_Z   2
loop_
 _symmetry_equiv_pos_site_id
 _symmetry_equiv_pos_as_xyz
  1  'x, y, z'
loop_
 _atom_site_type_symbol
 _atom_site_label
 _atom_site_symmetry_multiplicity
 _atom_site_fract_x
 _atom_site_fract_y
 _atom_site_fract_z
 _atom_site_occupancy
  Er  Er0  1  0.750000  0.421745  0.289247  1
  Er  Er1  1  0.750000  0.078255  0.789247  1
  Lu  Lu2  1  0.250000  0.578186  0.710787  1
  Lu  Lu3  1  0.250000  0.921814  0.210787  1
  Fe  Fe4  1  0.250000  0.875230  0.698200  1
  Fe  Fe5  1  0.250000  0.624770  0.198200  1
  Fe  Fe6  1  0.750000  0.124084  0.301575  1
  Fe  Fe7  1  0.750000  0.375916  0.801575  1
  Fe  Fe8  1  0.250000  0.458862  0.934251  1
  Fe  Fe9  1  0.250000  0.041138  0.434251  1
  Fe  Fe10  1  0.750000  0.541319  0.065377  1
  Fe  Fe11  1  0.750000  0.958681  0.565377  1
  P  P12  1  0.250000  0.441026  0.111912  1
  P  P13  1  0.250000  0.058974  0.611912  1
  P  P14  1  0.750000  0.559094  0.887587  1
  P  P15  1  0.750000  0.940906  0.387587  1
  P  P16  1  0.250000  0.271628  0.863862  1
  P  P17  1  0.250000  0.228372  0.363862  1
  P  P18  1  0.750000  0.728803  0.136317  1
  P  P19  1  0.750000  0.771197  0.636317  1
  P  P20  1  0.250000  0.601312  0.380281  1
  P  P21  1  0.250000  0.898688  0.880281  1
  P  P22  1  0.750000  0.399217  0.619958  1
  P  P23  1  0.750000  0.100783  0.119958  1
  Rh  Rh24  1  0.250000  0.713783  0.990215  1
  Rh  Rh25  1  0.250000  0.786217  0.490215  1
  Rh  Rh26  1  0.750000  0.286258  0.009751  1
  Rh  Rh27  1  0.750000  0.213742  0.509751  1
  Rh  Rh28  1  0.250000  0.408372  0.477773  1
  Rh  Rh29  1  0.250000  0.091629  0.977773  1
  Rh  Rh30  1  0.750000  0.591681  0.523047  1
  Rh  Rh31  1  0.750000  0.908319  0.023047  1
  Rh  Rh32  1  0.250000  0.232168  0.174162  1
  Rh  Rh33  1  0.250000  0.267832  0.674162  1
  Rh  Rh34  1  0.750000  0.767127  0.825698  1
  Rh  Rh35  1  0.750000  0.732873  0.325698  1
