# generated using pymatgen
data_ThAl10ReRh
_symmetry_space_group_name_H-M   'P 1'
_cell_length_a   6.92570903
_cell_length_b   6.92570779
_cell_length_c   9.24040857
_cell_angle_alpha   90.73769628
_cell_angle_beta   90.73769756
_cell_angle_gamma   97.29829376
_symmetry_Int_Tables_number   1
_chemical_formula_structural   ThAl10ReRh
_chemical_formula_sum   'Th2 Al20 Re2 Rh2'
_cell_volume   439.54587824
_cell_formula_units_Z   2
loop_
 _symmetry_equiv_pos_site_id
 _symmetry_equiv_pos_as_xyz
  1  'x, y, z'
loop_
 _atom_site_type_symbol
 _atom_site_label
 _atom_site_symmetry_multiplicity
 _atom_site_fract_x
 _atom_site_fract_y
 _atom_site_fract_z
 _atom_site_occupancy
  Th  Th0  1  0.872514  0.127486  0.750000  1
  Th  Th1  1  0.127486  0.872514  0.250000  1
  Al  Al2  1  0.518051  0.776416  0.745926  1
  Al  Al3  1  0.481949  0.223584  0.254074  1
  Al  Al4  1  0.592868  0.859068  0.249742  1
  Al  Al5  1  0.773876  0.774843  0.999115  1
  Al  Al6  1  0.160337  0.840077  0.602716  1
  Al  Al7  1  0.226124  0.225157  0.000885  1
  Al  Al8  1  0.140932  0.407132  0.250258  1
  Al  Al9  1  0.621891  0.380699  0.948244  1
  Al  Al10  1  0.840077  0.160337  0.102716  1
  Al  Al11  1  0.380699  0.621891  0.448244  1
  Al  Al12  1  0.159923  0.839663  0.897284  1
  Al  Al13  1  0.223584  0.481949  0.754074  1
  Al  Al14  1  0.378109  0.619301  0.051756  1
  Al  Al15  1  0.839663  0.159923  0.397284  1
  Al  Al16  1  0.619301  0.378109  0.551756  1
  Al  Al17  1  0.407132  0.140932  0.750258  1
  Al  Al18  1  0.776416  0.518051  0.245926  1
  Al  Al19  1  0.774843  0.773876  0.499115  1
  Al  Al20  1  0.225157  0.226124  0.500885  1
  Al  Al21  1  0.859068  0.592868  0.749742  1
  Re  Re22  1  0.000000  0.500000  0.000000  1
  Re  Re23  1  0.500000  0.000000  0.500000  1
  Rh  Rh24  1  0.000000  0.500000  0.500000  1
  Rh  Rh25  1  0.500000  0.000000  0.000000  1
