# generated using pymatgen
data_Ba2ErUSe6
_symmetry_space_group_name_H-M   'P 1'
_cell_length_a   7.48254908
_cell_length_b   7.80924900
_cell_length_c   13.13953224
_cell_angle_alpha   90.00694664
_cell_angle_beta   124.83424174
_cell_angle_gamma   89.99949622
_symmetry_Int_Tables_number   1
_chemical_formula_structural   Ba2ErUSe6
_chemical_formula_sum   'Ba4 Er2 U2 Se12'
_cell_volume   630.20278620
_cell_formula_units_Z   2
loop_
 _symmetry_equiv_pos_site_id
 _symmetry_equiv_pos_as_xyz
  1  'x, y, z'
loop_
 _atom_site_type_symbol
 _atom_site_label
 _atom_site_symmetry_multiplicity
 _atom_site_fract_x
 _atom_site_fract_y
 _atom_site_fract_z
 _atom_site_occupancy
  Ba  Ba0  1  0.767694  0.932102  0.249295  1
  Ba  Ba1  1  0.232417  0.432130  0.250780  1
  Ba  Ba2  1  0.767583  0.567871  0.749220  1
  Ba  Ba3  1  0.232306  0.067898  0.750705  1
  Er  Er4  1  0.500000  0.500001  0.000000  1
  Er  Er5  1  0.500000  0.000000  0.500000  1
  U  U6  1  0.000000  0.000000  0.000000  1
  U  U7  1  0.000000  0.500001  0.500000  1
  Se  Se8  1  0.849710  0.704475  0.044614  1
  Se  Se9  1  0.745979  0.198060  0.043950  1
  Se  Se10  1  0.331218  0.016065  0.246849  1
  Se  Se11  1  0.668635  0.516029  0.253030  1
  Se  Se12  1  0.253970  0.698192  0.456009  1
  Se  Se13  1  0.150402  0.204464  0.455369  1
  Se  Se14  1  0.849599  0.795535  0.544631  1
  Se  Se15  1  0.746030  0.301808  0.543992  1
  Se  Se16  1  0.331365  0.483971  0.746970  1
  Se  Se17  1  0.668782  0.983935  0.753150  1
  Se  Se18  1  0.254020  0.801940  0.956050  1
  Se  Se19  1  0.150289  0.295526  0.955386  1
