# generated using pymatgen
data_Ca10ZnRe3N14
_symmetry_space_group_name_H-M   'P 1'
_cell_length_a   6.27640272
_cell_length_b   8.91896736
_cell_length_c   9.14039900
_cell_angle_alpha   113.89819709
_cell_angle_beta   98.63486345
_cell_angle_gamma   89.68268266
_symmetry_Int_Tables_number   1
_chemical_formula_structural   Ca10ZnRe3N14
_chemical_formula_sum   'Ca10 Zn1 Re3 N14'
_cell_volume   461.63515076
_cell_formula_units_Z   1
loop_
 _symmetry_equiv_pos_site_id
 _symmetry_equiv_pos_as_xyz
  1  'x, y, z'
loop_
 _atom_site_type_symbol
 _atom_site_label
 _atom_site_symmetry_multiplicity
 _atom_site_fract_x
 _atom_site_fract_y
 _atom_site_fract_z
 _atom_site_occupancy
  Ca  Ca0  1  0.875057  0.546942  0.341264  1
  Ca  Ca1  1  0.255435  0.981092  0.547233  1
  Ca  Ca2  1  0.693259  0.416344  0.852722  1
  Ca  Ca3  1  0.295369  0.578090  0.128408  1
  Ca  Ca4  1  0.395598  0.794852  0.920518  1
  Ca  Ca5  1  0.604518  0.208069  0.097709  1
  Ca  Ca6  1  0.155977  0.378938  0.641449  1
  Ca  Ca7  1  0.890527  0.842803  0.760099  1
  Ca  Ca8  1  0.119277  0.145707  0.251122  1
  Ca  Ca9  1  0.727501  0.029696  0.452987  1
  Zn  Zn10  1  0.595046  0.336575  0.469152  1
  Re  Re11  1  0.426173  0.646487  0.531036  1
  Re  Re12  1  0.125620  0.215674  0.916142  1
  Re  Re13  1  0.868122  0.783671  0.081099  1
  N  N14  1  0.538604  0.580612  0.692310  1
  N  N15  1  0.435885  0.475433  0.330766  1
  N  N16  1  0.152438  0.714834  0.568137  1
  N  N17  1  0.876982  0.309231  0.402814  1
  N  N18  1  0.399710  0.180718  0.489247  1
  N  N19  1  0.591645  0.823702  0.544474  1
  N  N20  1  0.969284  0.139930  0.707843  1
  N  N21  1  0.029057  0.870849  0.285292  1
  N  N22  1  0.230823  0.048554  0.974303  1
  N  N23  1  0.757661  0.948507  0.023292  1
  N  N24  1  0.372047  0.330042  0.918297  1
  N  N25  1  0.961645  0.351753  0.064260  1
  N  N26  1  0.031728  0.653940  0.926763  1
  N  N27  1  0.625011  0.666957  0.081265  1
