# generated using pymatgen
data_PdI16
_symmetry_space_group_name_H-M   'P 1'
_cell_length_a   8.60923569
_cell_length_b   10.75484214
_cell_length_c   11.79818133
_cell_angle_alpha   109.82154103
_cell_angle_beta   91.42783281
_cell_angle_gamma   118.76494345
_symmetry_Int_Tables_number   1
_chemical_formula_structural   PdI16
_chemical_formula_sum   'Pd1 I16'
_cell_volume   877.12287157
_cell_formula_units_Z   1
loop_
 _symmetry_equiv_pos_site_id
 _symmetry_equiv_pos_as_xyz
  1  'x, y, z'
loop_
 _atom_site_type_symbol
 _atom_site_label
 _atom_site_symmetry_multiplicity
 _atom_site_fract_x
 _atom_site_fract_y
 _atom_site_fract_z
 _atom_site_occupancy
  Pd  Pd0  1  0.500000  0.500000  0.500000  1
  I  I1  1  0.541369  0.254291  0.481455  1
  I  I2  1  0.458631  0.745709  0.518545  1
  I  I3  1  0.215931  0.310501  0.299062  1
  I  I4  1  0.784069  0.689499  0.700938  1
  I  I5  1  0.708303  0.553910  0.324161  1
  I  I6  1  0.291697  0.446090  0.675839  1
  I  I7  1  0.083781  0.966199  0.189756  1
  I  I8  1  0.916219  0.033801  0.810244  1
  I  I9  1  0.081073  0.356132  0.937703  1
  I  I10  1  0.918927  0.643868  0.062297  1
  I  I11  1  0.597148  0.997159  0.112309  1
  I  I12  1  0.402852  0.002841  0.887691  1
  I  I13  1  0.073453  0.645942  0.419463  1
  I  I14  1  0.926547  0.354058  0.580537  1
  I  I15  1  0.448867  0.126836  0.710888  1
  I  I16  1  0.551133  0.873164  0.289112  1
