# generated using pymatgen
data_Yb8GeSbPd23
_symmetry_space_group_name_H-M   'P 1'
_cell_length_a   8.18326100
_cell_length_b   8.37242700
_cell_length_c   8.41249100
_cell_angle_alpha   90.00000000
_cell_angle_beta   90.00000000
_cell_angle_gamma   90.00000000
_symmetry_Int_Tables_number   1
_chemical_formula_structural   Yb8GeSbPd23
_chemical_formula_sum   'Yb8 Ge1 Sb1 Pd23'
_cell_volume   576.37135021
_cell_formula_units_Z   1
loop_
 _symmetry_equiv_pos_site_id
 _symmetry_equiv_pos_as_xyz
  1  'x, y, z'
loop_
 _atom_site_type_symbol
 _atom_site_label
 _atom_site_symmetry_multiplicity
 _atom_site_fract_x
 _atom_site_fract_y
 _atom_site_fract_z
 _atom_site_occupancy
  Yb  Yb0  1  0.252099  0.239819  0.269531  1
  Yb  Yb1  1  0.747931  0.745454  0.750384  1
  Yb  Yb2  1  0.747931  0.745454  0.249616  1
  Yb  Yb3  1  0.747931  0.254546  0.750384  1
  Yb  Yb4  1  0.252099  0.239819  0.730469  1
  Yb  Yb5  1  0.252099  0.760181  0.269531  1
  Yb  Yb6  1  0.252099  0.760181  0.730469  1
  Yb  Yb7  1  0.747931  0.254546  0.249616  1
  Ge  Ge8  1  0.989041  0.000000  0.000000  1
  Sb  Sb9  1  0.276908  0.500000  0.000000  1
  Pd  Pd10  1  0.745108  0.500000  0.000000  1
  Pd  Pd11  1  0.993409  0.259943  0.500000  1
  Pd  Pd12  1  0.491899  0.258251  0.000000  1
  Pd  Pd13  1  0.993409  0.740057  0.500000  1
  Pd  Pd14  1  0.491899  0.741749  0.000000  1
  Pd  Pd15  1  0.500097  0.000000  0.259809  1
  Pd  Pd16  1  0.258814  0.000000  0.500000  1
  Pd  Pd17  1  0.500097  0.000000  0.740191  1
  Pd  Pd18  1  0.737554  0.000000  0.500000  1
  Pd  Pd19  1  0.007923  0.500000  0.260210  1
  Pd  Pd20  1  0.007923  0.500000  0.739790  1
  Pd  Pd21  1  0.251881  0.500000  0.500000  1
  Pd  Pd22  1  0.747271  0.500000  0.500000  1
  Pd  Pd23  1  0.505404  0.253266  0.500000  1
  Pd  Pd24  1  0.505404  0.746734  0.500000  1
  Pd  Pd25  1  0.492308  0.500000  0.257199  1
  Pd  Pd26  1  0.492308  0.500000  0.742801  1
  Pd  Pd27  1  0.283695  0.000000  0.000000  1
  Pd  Pd28  1  0.699319  0.000000  0.000000  1
  Pd  Pd29  1  0.019496  0.288762  0.000000  1
  Pd  Pd30  1  0.019496  0.711238  0.000000  1
  Pd  Pd31  1  0.994608  0.000000  0.288609  1
  Pd  Pd32  1  0.994608  0.000000  0.711391  1
