# generated using pymatgen
data_MnCr4Co3P4
_symmetry_space_group_name_H-M   'P 1'
_cell_length_a   3.53879300
_cell_length_b   5.74950054
_cell_length_c   6.63334763
_cell_angle_alpha   89.59555757
_cell_angle_beta   90.00000000
_cell_angle_gamma   90.00000000
_symmetry_Int_Tables_number   1
_chemical_formula_structural   MnCr4Co3P4
_chemical_formula_sum   'Mn1 Cr4 Co3 P4'
_cell_volume   134.96066710
_cell_formula_units_Z   1
loop_
 _symmetry_equiv_pos_site_id
 _symmetry_equiv_pos_as_xyz
  1  'x, y, z'
loop_
 _atom_site_type_symbol
 _atom_site_label
 _atom_site_symmetry_multiplicity
 _atom_site_fract_x
 _atom_site_fract_y
 _atom_site_fract_z
 _atom_site_occupancy
  Mn  Mn0  1  0.750000  0.640143  0.561006  1
  Cr  Cr1  1  0.750000  0.527658  0.176800  1
  Cr  Cr2  1  0.750000  0.023587  0.332286  1
  Cr  Cr3  1  0.250000  0.479304  0.822168  1
  Cr  Cr4  1  0.250000  0.970133  0.670203  1
  Co  Co5  1  0.750000  0.144272  0.938200  1
  Co  Co6  1  0.250000  0.355050  0.435670  1
  Co  Co7  1  0.250000  0.857466  0.064275  1
  P  P8  1  0.750000  0.260271  0.624102  1
  P  P9  1  0.750000  0.764006  0.877633  1
  P  P10  1  0.250000  0.738255  0.376204  1
  P  P11  1  0.250000  0.239855  0.121453  1
