# generated using pymatgen
data_TbDy3LuSn3
_symmetry_space_group_name_H-M   'P 1'
_cell_length_a   8.95394119
_cell_length_b   8.95394149
_cell_length_c   6.51427500
_cell_angle_alpha   89.99984851
_cell_angle_beta   89.99984403
_cell_angle_gamma   119.97610157
_symmetry_Int_Tables_number   1
_chemical_formula_structural   TbDy3LuSn3
_chemical_formula_sum   'Tb2 Dy6 Lu2 Sn6'
_cell_volume   452.40744680
_cell_formula_units_Z   2
loop_
 _symmetry_equiv_pos_site_id
 _symmetry_equiv_pos_as_xyz
  1  'x, y, z'
loop_
 _atom_site_type_symbol
 _atom_site_label
 _atom_site_symmetry_multiplicity
 _atom_site_fract_x
 _atom_site_fract_y
 _atom_site_fract_z
 _atom_site_occupancy
  Tb  Tb0  1  0.760278  0.000056  0.250863  1
  Tb  Tb1  1  0.000056  0.760278  0.250863  1
  Dy  Dy2  1  0.666624  0.333328  0.999945  1
  Dy  Dy3  1  0.333328  0.666624  0.999945  1
  Dy  Dy4  1  0.760171  0.760171  0.749109  1
  Dy  Dy5  1  0.239748  0.000060  0.749117  1
  Dy  Dy6  1  0.000060  0.239748  0.749117  1
  Dy  Dy7  1  0.239851  0.239851  0.250896  1
  Lu  Lu8  1  0.333326  0.666639  0.500048  1
  Lu  Lu9  1  0.666639  0.333326  0.500048  1
  Sn  Sn10  1  0.395563  0.395563  0.746424  1
  Sn  Sn11  1  0.604459  0.000010  0.746440  1
  Sn  Sn12  1  0.000010  0.604459  0.746440  1
  Sn  Sn13  1  0.604061  0.604061  0.253579  1
  Sn  Sn14  1  0.395665  0.000161  0.253582  1
  Sn  Sn15  1  0.000161  0.395665  0.253582  1
