# generated using pymatgen
data_Dy2Y2Zr4IrRh3
_symmetry_space_group_name_H-M   'P 1'
_cell_length_a   4.61124100
_cell_length_b   7.09170484
_cell_length_c   8.30008162
_cell_angle_alpha   90.20005955
_cell_angle_beta   90.00000000
_cell_angle_gamma   90.00000000
_symmetry_Int_Tables_number   1
_chemical_formula_structural   Dy2Y2Zr4IrRh3
_chemical_formula_sum   'Dy2 Y2 Zr4 Ir1 Rh3'
_cell_volume   271.42396320
_cell_formula_units_Z   1
loop_
 _symmetry_equiv_pos_site_id
 _symmetry_equiv_pos_as_xyz
  1  'x, y, z'
loop_
 _atom_site_type_symbol
 _atom_site_label
 _atom_site_symmetry_multiplicity
 _atom_site_fract_x
 _atom_site_fract_y
 _atom_site_fract_z
 _atom_site_occupancy
  Dy  Dy0  1  0.250000  0.983644  0.323195  1
  Dy  Dy1  1  0.250000  0.483705  0.176171  1
  Y  Y2  1  0.750000  0.013708  0.676081  1
  Y  Y3  1  0.750000  0.517167  0.821667  1
  Zr  Zr4  1  0.250000  0.357103  0.575996  1
  Zr  Zr5  1  0.250000  0.857392  0.923262  1
  Zr  Zr6  1  0.750000  0.642213  0.424974  1
  Zr  Zr7  1  0.750000  0.142983  0.076123  1
  Ir  Ir8  1  0.250000  0.731524  0.590498  1
  Rh  Rh9  1  0.250000  0.230817  0.912339  1
  Rh  Rh10  1  0.750000  0.770331  0.090403  1
  Rh  Rh11  1  0.750000  0.269409  0.409292  1
