# generated using pymatgen
data_LiY3Mg2Si2Ag
_symmetry_space_group_name_H-M   'P 1'
_cell_length_a   7.25909573
_cell_length_b   7.25909540
_cell_length_c   4.28140600
_cell_angle_alpha   90.00000000
_cell_angle_beta   90.00000000
_cell_angle_gamma   120.51996344
_symmetry_Int_Tables_number   1
_chemical_formula_structural   LiY3Mg2Si2Ag
_chemical_formula_sum   'Li1 Y3 Mg2 Si2 Ag1'
_cell_volume   194.34915613
_cell_formula_units_Z   1
loop_
 _symmetry_equiv_pos_site_id
 _symmetry_equiv_pos_as_xyz
  1  'x, y, z'
loop_
 _atom_site_type_symbol
 _atom_site_label
 _atom_site_symmetry_multiplicity
 _atom_site_fract_x
 _atom_site_fract_y
 _atom_site_fract_z
 _atom_site_occupancy
  Li  Li0  1  0.747859  0.747859  0.000000  1
  Y  Y1  1  0.433669  0.433669  0.500000  1
  Y  Y2  1  0.997768  0.575435  0.500000  1
  Y  Y3  1  0.575435  0.997768  0.500000  1
  Mg  Mg4  1  0.245666  0.998168  0.000000  1
  Mg  Mg5  1  0.998168  0.245666  0.000000  1
  Si  Si6  1  0.668506  0.336460  0.000000  1
  Si  Si7  1  0.336460  0.668506  0.000000  1
  Ag  Ag8  1  0.996468  0.996468  0.500000  1
