# generated using pymatgen
data_Ta5Nb5(AlSi2)2
_symmetry_space_group_name_H-M   'P 1'
_cell_length_a   7.63359151
_cell_length_b   7.62763302
_cell_length_c   7.62702211
_cell_angle_alpha   128.26458125
_cell_angle_beta   128.28627066
_cell_angle_gamma   76.21367158
_symmetry_Int_Tables_number   1
_chemical_formula_structural   Ta5Nb5(AlSi2)2
_chemical_formula_sum   'Ta5 Nb5 Al2 Si4'
_cell_volume   265.96356054
_cell_formula_units_Z   1
loop_
 _symmetry_equiv_pos_site_id
 _symmetry_equiv_pos_as_xyz
  1  'x, y, z'
loop_
 _atom_site_type_symbol
 _atom_site_label
 _atom_site_symmetry_multiplicity
 _atom_site_fract_x
 _atom_site_fract_y
 _atom_site_fract_z
 _atom_site_occupancy
  Ta  Ta0  1  0.312107  0.483843  0.500000  1
  Ta  Ta1  1  0.483241  0.983570  0.170687  1
  Ta  Ta2  1  0.812554  0.312883  0.829313  1
  Ta  Ta3  1  0.000498  0.000517  0.000409  1
  Ta  Ta4  1  0.500089  0.500108  0.999591  1
  Nb  Nb5  1  0.016437  0.187659  0.500000  1
  Nb  Nb6  1  0.687529  0.516479  0.500000  1
  Nb  Nb7  1  0.517895  0.017219  0.830559  1
  Nb  Nb8  1  0.187336  0.686659  0.169441  1
  Nb  Nb9  1  0.982547  0.811621  0.500000  1
  Al  Al10  1  0.750177  0.749973  0.000070  1
  Al  Al11  1  0.250107  0.249903  0.999930  1
  Si  Si12  1  0.370021  0.129610  0.500000  1
  Si  Si13  1  0.629618  0.870250  0.500000  1
  Si  Si14  1  0.870117  0.370047  0.240390  1
  Si  Si15  1  0.129728  0.629659  0.759610  1
