# generated using pymatgen
data_Li3DyAs6Ir7
_symmetry_space_group_name_H-M   'P 1'
_cell_length_a   6.94968841
_cell_length_b   7.09875125
_cell_length_c   7.09874974
_cell_angle_alpha   109.89266497
_cell_angle_beta   109.04640309
_cell_angle_gamma   109.04640993
_symmetry_Int_Tables_number   1
_chemical_formula_structural   Li3DyAs6Ir7
_chemical_formula_sum   'Li3 Dy1 As6 Ir7'
_cell_volume   270.99258522
_cell_formula_units_Z   1
loop_
 _symmetry_equiv_pos_site_id
 _symmetry_equiv_pos_as_xyz
  1  'x, y, z'
loop_
 _atom_site_type_symbol
 _atom_site_label
 _atom_site_symmetry_multiplicity
 _atom_site_fract_x
 _atom_site_fract_y
 _atom_site_fract_z
 _atom_site_occupancy
  Li  Li0  1  0.000000  0.000000  0.500000  1
  Li  Li1  1  0.000000  0.500000  0.000000  1
  Li  Li2  1  0.500000  0.500000  0.500000  1
  Dy  Dy3  1  0.500000  0.000000  0.000000  1
  As  As4  1  0.694234  0.679834  0.000000  1
  As  As5  1  0.305766  0.320166  0.000000  1
  As  As6  1  0.985601  0.679834  0.679834  1
  As  As7  1  0.014399  0.320166  0.320166  1
  As  As8  1  0.694234  0.000000  0.679834  1
  As  As9  1  0.305766  0.000000  0.320166  1
  Ir  Ir10  1  0.000000  0.000000  0.000000  1
  Ir  Ir11  1  0.247551  0.495102  0.747551  1
  Ir  Ir12  1  0.752449  0.252449  0.504898  1
  Ir  Ir13  1  0.500000  0.252449  0.747551  1
  Ir  Ir14  1  0.500000  0.747551  0.252449  1
  Ir  Ir15  1  0.752449  0.504898  0.252449  1
  Ir  Ir16  1  0.247551  0.747551  0.495102  1
