# generated using pymatgen
data_AcNi2BIr
_symmetry_space_group_name_H-M   'P 1'
_cell_length_a   6.25966368
_cell_length_b   6.25966363
_cell_length_c   6.25966398
_cell_angle_alpha   132.78296261
_cell_angle_beta   106.01809229
_cell_angle_gamma   92.56977584
_symmetry_Int_Tables_number   1
_chemical_formula_structural   AcNi2BIr
_chemical_formula_sum   'Ac2 Ni4 B2 Ir2'
_cell_volume   163.37874162
_cell_formula_units_Z   2
loop_
 _symmetry_equiv_pos_site_id
 _symmetry_equiv_pos_as_xyz
  1  'x, y, z'
loop_
 _atom_site_type_symbol
 _atom_site_label
 _atom_site_symmetry_multiplicity
 _atom_site_fract_x
 _atom_site_fract_y
 _atom_site_fract_z
 _atom_site_occupancy
  Ac  Ac0  1  0.823126  0.573126  0.250000  1
  Ac  Ac1  1  0.176874  0.426874  0.750000  1
  Ni  Ni2  1  0.331983  0.500000  0.331983  1
  Ni  Ni3  1  0.668017  0.500000  0.668017  1
  Ni  Ni4  1  0.668017  0.000000  0.168017  1
  Ni  Ni5  1  0.331983  0.000000  0.831983  1
  B  B6  1  0.382416  0.132416  0.250000  1
  B  B7  1  0.617584  0.867584  0.750000  1
  Ir  Ir8  1  0.000000  0.000000  0.000000  1
  Ir  Ir9  1  0.500000  0.000000  0.500000  1
