# generated using pymatgen
data_La2TmThPd4
_symmetry_space_group_name_H-M   'P 1'
_cell_length_a   4.74884700
_cell_length_b   5.69412659
_cell_length_c   7.31255900
_cell_angle_alpha   90.23913029
_cell_angle_beta   90.00000000
_cell_angle_gamma   90.00000000
_symmetry_Int_Tables_number   1
_chemical_formula_structural   La2TmThPd4
_chemical_formula_sum   'La2 Tm1 Th1 Pd4'
_cell_volume   197.73379263
_cell_formula_units_Z   1
loop_
 _symmetry_equiv_pos_site_id
 _symmetry_equiv_pos_as_xyz
  1  'x, y, z'
loop_
 _atom_site_type_symbol
 _atom_site_label
 _atom_site_symmetry_multiplicity
 _atom_site_fract_x
 _atom_site_fract_y
 _atom_site_fract_z
 _atom_site_occupancy
  La  La0  1  0.250000  0.141909  0.179688  1
  La  La1  1  0.750000  0.642028  0.316965  1
  Tm  Tm2  1  0.750000  0.855644  0.815584  1
  Th  Th3  1  0.250000  0.354896  0.686995  1
  Pd  Pd4  1  0.250000  0.847198  0.566648  1
  Pd  Pd5  1  0.250000  0.658506  0.015759  1
  Pd  Pd6  1  0.750000  0.150885  0.480836  1
  Pd  Pd7  1  0.750000  0.348935  0.937526  1
