# generated using pymatgen
data_Er2Tm2VRe3B16
_symmetry_space_group_name_H-M   'P 1'
_cell_length_a   3.56425300
_cell_length_b   5.94775587
_cell_length_c   11.49534711
_cell_angle_alpha   89.92630253
_cell_angle_beta   90.00000000
_cell_angle_gamma   90.00000000
_symmetry_Int_Tables_number   1
_chemical_formula_structural   Er2Tm2VRe3B16
_chemical_formula_sum   'Er2 Tm2 V1 Re3 B16'
_cell_volume   243.69318742
_cell_formula_units_Z   1
loop_
 _symmetry_equiv_pos_site_id
 _symmetry_equiv_pos_as_xyz
  1  'x, y, z'
loop_
 _atom_site_type_symbol
 _atom_site_label
 _atom_site_symmetry_multiplicity
 _atom_site_fract_x
 _atom_site_fract_y
 _atom_site_fract_z
 _atom_site_occupancy
  Er  Er0  1  0.500000  0.626586  0.650790  1
  Er  Er1  1  0.500000  0.372914  0.347681  1
  Tm  Tm2  1  0.500000  0.126049  0.851567  1
  Tm  Tm3  1  0.500000  0.874965  0.148961  1
  V  V4  1  0.500000  0.371186  0.082988  1
  Re  Re5  1  0.500000  0.133570  0.587683  1
  Re  Re6  1  0.500000  0.866345  0.413378  1
  Re  Re7  1  0.500000  0.627784  0.915823  1
  B  B8  1  0.000000  0.286430  0.686210  1
  B  B9  1  0.000000  0.713648  0.313975  1
  B  B10  1  0.000000  0.787302  0.815353  1
  B  B11  1  0.000000  0.212914  0.184836  1
  B  B12  1  0.000000  0.364680  0.531367  1
  B  B13  1  0.000000  0.635436  0.468570  1
  B  B14  1  0.000000  0.865482  0.968207  1
  B  B15  1  0.000000  0.134367  0.032252  1
  B  B16  1  0.000000  0.023659  0.306567  1
  B  B17  1  0.000000  0.976489  0.693337  1
  B  B18  1  0.000000  0.523140  0.192747  1
  B  B19  1  0.000000  0.476565  0.807318  1
  B  B20  1  0.000000  0.114782  0.452150  1
  B  B21  1  0.000000  0.885775  0.547800  1
  B  B22  1  0.000000  0.615020  0.047771  1
  B  B23  1  0.000000  0.384914  0.952671  1
