# generated using pymatgen
data_Nd2BeB3Ir5
_symmetry_space_group_name_H-M   'P 1'
_cell_length_a   7.64480282
_cell_length_b   6.43986698
_cell_length_c   5.66061300
_cell_angle_alpha   77.26688535
_cell_angle_beta   55.50640203
_cell_angle_gamma   46.42384147
_symmetry_Int_Tables_number   1
_chemical_formula_structural   Nd2BeB3Ir5
_chemical_formula_sum   'Nd2 Be1 B3 Ir5'
_cell_volume   159.51421694
_cell_formula_units_Z   1
loop_
 _symmetry_equiv_pos_site_id
 _symmetry_equiv_pos_as_xyz
  1  'x, y, z'
loop_
 _atom_site_type_symbol
 _atom_site_label
 _atom_site_symmetry_multiplicity
 _atom_site_fract_x
 _atom_site_fract_y
 _atom_site_fract_z
 _atom_site_occupancy
  Nd  Nd0  1  0.865132  0.862093  0.137907  1
  Nd  Nd1  1  0.142734  0.141674  0.858326  1
  Be  Be2  1  0.782399  0.486043  0.513957  1
  B  B3  1  0.204541  0.531381  0.468619  1
  B  B4  1  0.534734  0.207092  0.792908  1
  B  B5  1  0.472799  0.786618  0.213382  1
  Ir  Ir6  1  0.751238  0.751873  0.756513  1
  Ir  Ir7  1  0.498369  0.500087  0.003005  1
  Ir  Ir8  1  0.486966  0.492658  0.507342  1
  Ir  Ir9  1  0.001461  0.996995  0.499913  1
  Ir  Ir10  1  0.259624  0.243487  0.248127  1
