# generated using pymatgen
data_Sr9V6Pb(O12F)2
_symmetry_space_group_name_H-M   'P 1'
_cell_length_a   10.23701817
_cell_length_b   10.23125956
_cell_length_c   7.49513400
_cell_angle_alpha   90.00000000
_cell_angle_beta   90.00000000
_cell_angle_gamma   120.17209084
_symmetry_Int_Tables_number   1
_chemical_formula_structural   Sr9V6Pb(O12F)2
_chemical_formula_sum   'Sr9 V6 Pb1 O24 F2'
_cell_volume   678.66723763
_cell_formula_units_Z   1
loop_
 _symmetry_equiv_pos_site_id
 _symmetry_equiv_pos_as_xyz
  1  'x, y, z'
loop_
 _atom_site_type_symbol
 _atom_site_label
 _atom_site_symmetry_multiplicity
 _atom_site_fract_x
 _atom_site_fract_y
 _atom_site_fract_z
 _atom_site_occupancy
  Sr  Sr0  1  0.335364  0.668377  0.501875  1
  Sr  Sr1  1  0.666993  0.333125  0.499125  1
  Sr  Sr2  1  0.666993  0.333125  0.000875  1
  Sr  Sr3  1  0.335364  0.668377  0.998125  1
  Sr  Sr4  1  0.242016  0.244934  0.750000  1
  Sr  Sr5  1  0.757821  0.755579  0.250000  1
  Sr  Sr6  1  0.754135  0.996980  0.750000  1
  Sr  Sr7  1  0.248394  0.003043  0.250000  1
  Sr  Sr8  1  0.003356  0.757885  0.750000  1
  V  V9  1  0.399378  0.029848  0.750000  1
  V  V10  1  0.600024  0.970276  0.250000  1
  V  V11  1  0.970540  0.371635  0.750000  1
  V  V12  1  0.029178  0.629510  0.250000  1
  V  V13  1  0.630347  0.600509  0.750000  1
  V  V14  1  0.370037  0.399805  0.250000  1
  Pb  Pb15  1  0.004147  0.249199  0.250000  1
  O  O16  1  0.166735  0.487294  0.750000  1
  O  O17  1  0.833499  0.513946  0.250000  1
  O  O18  1  0.513639  0.679373  0.750000  1
  O  O19  1  0.486280  0.321300  0.250000  1
  O  O20  1  0.320106  0.833795  0.750000  1
  O  O21  1  0.671322  0.164833  0.250000  1
  O  O22  1  0.597485  0.128079  0.750000  1
  O  O23  1  0.401433  0.869404  0.250000  1
  O  O24  1  0.872482  0.471380  0.750000  1
  O  O25  1  0.127111  0.527769  0.250000  1
  O  O26  1  0.529993  0.402055  0.750000  1
  O  O27  1  0.469857  0.597461  0.250000  1
  O  O28  1  0.340021  0.089196  0.565859  1
  O  O29  1  0.657671  0.909961  0.434993  1
  O  O30  1  0.909335  0.252245  0.566125  1
  O  O31  1  0.657671  0.909961  0.065007  1
  O  O32  1  0.089381  0.747675  0.434256  1
  O  O33  1  0.340021  0.089196  0.934141  1
  O  O34  1  0.749092  0.660137  0.565708  1
  O  O35  1  0.089381  0.747675  0.065744  1
  O  O36  1  0.250958  0.340713  0.435250  1
  O  O37  1  0.909335  0.252245  0.933875  1
  O  O38  1  0.250958  0.340713  0.064750  1
  O  O39  1  0.749092  0.660137  0.934292  1
  F  F40  1  0.999717  0.999778  0.750000  1
  F  F41  1  0.003335  0.991471  0.250000  1
