# generated using pymatgen
data_SrLaY5FeBr12
_symmetry_space_group_name_H-M   'P 1'
_cell_length_a   9.36277382
_cell_length_b   9.14056429
_cell_length_c   9.40671424
_cell_angle_alpha   104.92109394
_cell_angle_beta   105.98510407
_cell_angle_gamma   106.91626880
_symmetry_Int_Tables_number   1
_chemical_formula_structural   SrLaY5FeBr12
_chemical_formula_sum   'Sr1 La1 Y5 Fe1 Br12'
_cell_volume   688.73210806
_cell_formula_units_Z   1
loop_
 _symmetry_equiv_pos_site_id
 _symmetry_equiv_pos_as_xyz
  1  'x, y, z'
loop_
 _atom_site_type_symbol
 _atom_site_label
 _atom_site_symmetry_multiplicity
 _atom_site_fract_x
 _atom_site_fract_y
 _atom_site_fract_z
 _atom_site_occupancy
  Sr  Sr0  1  0.499647  0.503251  0.496071  1
  La  La1  1  0.906392  0.715296  0.985296  1
  Y  Y2  1  0.093373  0.278818  0.016421  1
  Y  Y3  1  0.310741  0.016855  0.102710  1
  Y  Y4  1  0.017837  0.100645  0.307151  1
  Y  Y5  1  0.982964  0.902478  0.695869  1
  Y  Y6  1  0.688584  0.978137  0.897988  1
  Fe  Fe7  1  0.992974  0.978700  0.001324  1
  Br  Br8  1  0.234667  0.682901  0.078999  1
  Br  Br9  1  0.440996  0.362033  0.139423  1
  Br  Br10  1  0.675930  0.073161  0.214727  1
  Br  Br11  1  0.931020  0.790871  0.340582  1
  Br  Br12  1  0.139321  0.442113  0.351404  1
  Br  Br13  1  0.361119  0.139649  0.442681  1
  Br  Br14  1  0.640658  0.869406  0.559809  1
  Br  Br15  1  0.855684  0.555326  0.626251  1
  Br  Br16  1  0.076957  0.225042  0.685895  1
  Br  Br17  1  0.325458  0.935058  0.786805  1
  Br  Br18  1  0.537277  0.633332  0.844658  1
  Br  Br19  1  0.788400  0.316929  0.925935  1
