# generated using pymatgen
data_Yb12NiAg11Ge12
_symmetry_space_group_name_H-M   'P 1'
_cell_length_a   4.52244600
_cell_length_b   7.82791450
_cell_length_c   21.34229800
_cell_angle_alpha   90.20782801
_cell_angle_beta   90.00000000
_cell_angle_gamma   90.00000000
_symmetry_Int_Tables_number   1
_chemical_formula_structural   Yb12NiAg11Ge12
_chemical_formula_sum   'Yb12 Ni1 Ag11 Ge12'
_cell_volume   755.54056349
_cell_formula_units_Z   1
loop_
 _symmetry_equiv_pos_site_id
 _symmetry_equiv_pos_as_xyz
  1  'x, y, z'
loop_
 _atom_site_type_symbol
 _atom_site_label
 _atom_site_symmetry_multiplicity
 _atom_site_fract_x
 _atom_site_fract_y
 _atom_site_fract_z
 _atom_site_occupancy
  Yb  Yb0  1  0.250000  0.789403  0.166000  1
  Yb  Yb1  1  0.250000  0.780479  0.500566  1
  Yb  Yb2  1  0.250000  0.711244  0.332687  1
  Yb  Yb3  1  0.750000  0.220043  0.501441  1
  Yb  Yb4  1  0.750000  0.304895  0.671816  1
  Yb  Yb5  1  0.750000  0.278926  0.999447  1
  Yb  Yb6  1  0.250000  0.785435  0.829920  1
  Yb  Yb7  1  0.250000  0.719215  0.998611  1
  Yb  Yb8  1  0.750000  0.210795  0.167266  1
  Yb  Yb9  1  0.750000  0.289100  0.333920  1
  Yb  Yb10  1  0.250000  0.702559  0.667732  1
  Yb  Yb11  1  0.750000  0.214935  0.832293  1
  Ni  Ni12  1  0.750000  0.584668  0.760921  1
  Ag  Ag13  1  0.750000  0.582461  0.901795  1
  Ag  Ag14  1  0.250000  0.416833  0.435021  1
  Ag  Ag15  1  0.750000  0.584629  0.564643  1
  Ag  Ag16  1  0.750000  0.918727  0.406090  1
  Ag  Ag17  1  0.250000  0.418086  0.093866  1
  Ag  Ag18  1  0.250000  0.411747  0.237850  1
  Ag  Ag19  1  0.750000  0.912051  0.262037  1
  Ag  Ag20  1  0.250000  0.088605  0.737817  1
  Ag  Ag21  1  0.250000  0.082600  0.933244  1
  Ag  Ag22  1  0.750000  0.915783  0.064928  1
  Ag  Ag23  1  0.250000  0.082969  0.596426  1
  Ge  Ge24  1  0.250000  0.412322  0.897394  1
  Ge  Ge25  1  0.750000  0.893799  0.731943  1
  Ge  Ge26  1  0.750000  0.582197  0.228653  1
  Ge  Ge27  1  0.250000  0.088656  0.072233  1
  Ge  Ge28  1  0.750000  0.910500  0.928325  1
  Ge  Ge29  1  0.750000  0.912966  0.605528  1
  Ge  Ge30  1  0.250000  0.409556  0.571276  1
  Ge  Ge31  1  0.250000  0.088739  0.397048  1
  Ge  Ge32  1  0.250000  0.082300  0.271109  1
  Ge  Ge33  1  0.750000  0.590233  0.426470  1
  Ge  Ge34  1  0.250000  0.435239  0.770874  1
  Ge  Ge35  1  0.750000  0.587306  0.102811  1
