# generated using pymatgen
data_PaAl5Pt3
_symmetry_space_group_name_H-M   'P 1'
_cell_length_a   4.08451200
_cell_length_b   7.24948700
_cell_length_c   20.93730000
_cell_angle_alpha   90.00000000
_cell_angle_beta   90.00000000
_cell_angle_gamma   90.00000000
_symmetry_Int_Tables_number   1
_chemical_formula_structural   PaAl5Pt3
_chemical_formula_sum   'Pa4 Al20 Pt12'
_cell_volume   619.96636389
_cell_formula_units_Z   4
loop_
 _symmetry_equiv_pos_site_id
 _symmetry_equiv_pos_as_xyz
  1  'x, y, z'
loop_
 _atom_site_type_symbol
 _atom_site_label
 _atom_site_symmetry_multiplicity
 _atom_site_fract_x
 _atom_site_fract_y
 _atom_site_fract_z
 _atom_site_occupancy
  Pa  Pa0  1  0.250000  0.123979  0.641418  1
  Pa  Pa1  1  0.750000  0.876021  0.358582  1
  Pa  Pa2  1  0.250000  0.376021  0.141418  1
  Pa  Pa3  1  0.750000  0.623979  0.858582  1
  Al  Al4  1  0.750000  0.364423  0.379649  1
  Al  Al5  1  0.750000  0.882338  0.986275  1
  Al  Al6  1  0.750000  0.685819  0.202145  1
  Al  Al7  1  0.250000  0.870074  0.495867  1
  Al  Al8  1  0.250000  0.629926  0.995867  1
  Al  Al9  1  0.250000  0.314181  0.797855  1
  Al  Al10  1  0.750000  0.069641  0.205939  1
  Al  Al11  1  0.250000  0.635577  0.620351  1
  Al  Al12  1  0.250000  0.569641  0.294061  1
  Al  Al13  1  0.250000  0.185819  0.297855  1
  Al  Al14  1  0.750000  0.135577  0.879649  1
  Al  Al15  1  0.250000  0.930359  0.794061  1
  Al  Al16  1  0.750000  0.370074  0.004133  1
  Al  Al17  1  0.750000  0.617662  0.486275  1
  Al  Al18  1  0.750000  0.129926  0.504133  1
  Al  Al19  1  0.250000  0.117662  0.013725  1
  Al  Al20  1  0.250000  0.864423  0.120351  1
  Al  Al21  1  0.250000  0.382338  0.513725  1
  Al  Al22  1  0.750000  0.430359  0.705939  1
  Al  Al23  1  0.750000  0.814181  0.702145  1
  Pt  Pt24  1  0.750000  0.378899  0.258074  1
  Pt  Pt25  1  0.250000  0.878899  0.241926  1
  Pt  Pt26  1  0.250000  0.621101  0.741926  1
  Pt  Pt27  1  0.750000  0.121101  0.758074  1
  Pt  Pt28  1  0.250000  0.152587  0.422488  1
  Pt  Pt29  1  0.750000  0.408387  0.584311  1
  Pt  Pt30  1  0.750000  0.091613  0.084311  1
  Pt  Pt31  1  0.250000  0.908387  0.915689  1
  Pt  Pt32  1  0.750000  0.847413  0.577512  1
  Pt  Pt33  1  0.250000  0.347413  0.922488  1
  Pt  Pt34  1  0.750000  0.652587  0.077512  1
  Pt  Pt35  1  0.250000  0.591613  0.415689  1
