# generated using pymatgen
data_Ca3Pd2Pb3Au
_symmetry_space_group_name_H-M   'P 1'
_cell_length_a   7.95402500
_cell_length_b   7.95402500
_cell_length_c   4.09763400
_cell_angle_alpha   90.00000000
_cell_angle_beta   90.00000000
_cell_angle_gamma   119.99999584
_symmetry_Int_Tables_number   1
_chemical_formula_structural   Ca3Pd2Pb3Au
_chemical_formula_sum   'Ca3 Pd2 Pb3 Au1'
_cell_volume   224.51104837
_cell_formula_units_Z   1
loop_
 _symmetry_equiv_pos_site_id
 _symmetry_equiv_pos_as_xyz
  1  'x, y, z'
loop_
 _atom_site_type_symbol
 _atom_site_label
 _atom_site_symmetry_multiplicity
 _atom_site_fract_x
 _atom_site_fract_y
 _atom_site_fract_z
 _atom_site_occupancy
  Ca  Ca0  1  0.400568  0.403637  0.500000  1
  Ca  Ca1  1  0.003069  0.599432  0.500000  1
  Ca  Ca2  1  0.596363  0.996931  0.500000  1
  Pd  Pd3  1  0.000000  0.000000  0.500000  1
  Pd  Pd4  1  0.333333  0.666667  0.000000  1
  Pb  Pb5  1  0.253525  0.991038  0.000000  1
  Pb  Pb6  1  0.737512  0.746475  0.000000  1
  Pb  Pb7  1  0.008962  0.262488  0.000000  1
  Au  Au8  1  0.666667  0.333333  0.000000  1
