# generated using pymatgen
data_Cr2Rh2N
_symmetry_space_group_name_H-M   'P 1'
_cell_length_a   8.95326328
_cell_length_b   8.95326326
_cell_length_c   8.95326298
_cell_angle_alpha   17.52193814
_cell_angle_beta   17.52193705
_cell_angle_gamma   17.52194143
_symmetry_Int_Tables_number   1
_chemical_formula_structural   Cr2Rh2N
_chemical_formula_sum   'Cr2 Rh2 N1'
_cell_volume   56.77844192
_cell_formula_units_Z   1
loop_
 _symmetry_equiv_pos_site_id
 _symmetry_equiv_pos_as_xyz
  1  'x, y, z'
loop_
 _atom_site_type_symbol
 _atom_site_label
 _atom_site_symmetry_multiplicity
 _atom_site_fract_x
 _atom_site_fract_y
 _atom_site_fract_z
 _atom_site_occupancy
  Cr  Cr0  1  0.379369  0.379369  0.379369  1
  Cr  Cr1  1  0.620631  0.620631  0.620631  1
  Rh  Rh2  1  0.878256  0.878256  0.878256  1
  Rh  Rh3  1  0.121744  0.121744  0.121744  1
  N  N4  1  0.000000  0.000000  0.000000  1
