# generated using pymatgen
data_Y7Th(ReB6)4
_symmetry_space_group_name_H-M   'P 1'
_cell_length_a   3.71256500
_cell_length_b   9.21346182
_cell_length_c   11.61176503
_cell_angle_alpha   89.95169579
_cell_angle_beta   90.00000000
_cell_angle_gamma   90.00000000
_symmetry_Int_Tables_number   1
_chemical_formula_structural   Y7Th(ReB6)4
_chemical_formula_sum   'Y7 Th1 Re4 B24'
_cell_volume   397.18696870
_cell_formula_units_Z   1
loop_
 _symmetry_equiv_pos_site_id
 _symmetry_equiv_pos_as_xyz
  1  'x, y, z'
loop_
 _atom_site_type_symbol
 _atom_site_label
 _atom_site_symmetry_multiplicity
 _atom_site_fract_x
 _atom_site_fract_y
 _atom_site_fract_z
 _atom_site_occupancy
  Y  Y0  1  0.000000  0.177880  0.912861  1
  Y  Y1  1  0.000000  0.323236  0.414750  1
  Y  Y2  1  0.000000  0.676103  0.585955  1
  Y  Y3  1  0.000000  0.441716  0.130279  1
  Y  Y4  1  0.000000  0.556166  0.868927  1
  Y  Y5  1  0.000000  0.943271  0.371691  1
  Y  Y6  1  0.000000  0.057491  0.629505  1
  Th  Th7  1  0.000000  0.822585  0.085958  1
  Re  Re8  1  0.000000  0.138555  0.179423  1
  Re  Re9  1  0.000000  0.862122  0.820076  1
  Re  Re10  1  0.000000  0.638141  0.321415  1
  Re  Re11  1  0.000000  0.361897  0.678880  1
  B  B12  1  0.500000  0.055326  0.067892  1
  B  B13  1  0.500000  0.946854  0.930742  1
  B  B14  1  0.500000  0.553050  0.433046  1
  B  B15  1  0.500000  0.446878  0.567331  1
  B  B16  1  0.500000  0.249248  0.081890  1
  B  B17  1  0.500000  0.751494  0.915471  1
  B  B18  1  0.500000  0.748120  0.419038  1
  B  B19  1  0.500000  0.251546  0.581965  1
  B  B20  1  0.500000  0.291298  0.234564  1
  B  B21  1  0.500000  0.708770  0.764658  1
  B  B22  1  0.500000  0.790011  0.267371  1
  B  B23  1  0.500000  0.208718  0.734487  1
  B  B24  1  0.500000  0.131474  0.314910  1
  B  B25  1  0.500000  0.869741  0.685491  1
  B  B26  1  0.500000  0.629381  0.187474  1
  B  B27  1  0.500000  0.369162  0.813731  1
  B  B28  1  0.500000  0.482309  0.288734  1
  B  B29  1  0.500000  0.517074  0.711511  1
  B  B30  1  0.500000  0.985229  0.213243  1
  B  B31  1  0.500000  0.017993  0.787088  1
  B  B32  1  0.500000  0.101338  0.472075  1
  B  B33  1  0.500000  0.899141  0.528666  1
  B  B34  1  0.500000  0.598198  0.027509  1
  B  B35  1  0.500000  0.398486  0.971395  1
