# generated using pymatgen
data_Tb6Dy2Re(B8Os)3
_symmetry_space_group_name_H-M   'P 1'
_cell_length_a   3.67926400
_cell_length_b   9.18542708
_cell_length_c   11.57141115
_cell_angle_alpha   90.10221566
_cell_angle_beta   90.00000000
_cell_angle_gamma   90.00000000
_symmetry_Int_Tables_number   1
_chemical_formula_structural   Tb6Dy2Re(B8Os)3
_chemical_formula_sum   'Tb6 Dy2 Re1 B24 Os3'
_cell_volume   391.06228998
_cell_formula_units_Z   1
loop_
 _symmetry_equiv_pos_site_id
 _symmetry_equiv_pos_as_xyz
  1  'x, y, z'
loop_
 _atom_site_type_symbol
 _atom_site_label
 _atom_site_symmetry_multiplicity
 _atom_site_fract_x
 _atom_site_fract_y
 _atom_site_fract_z
 _atom_site_occupancy
  Tb  Tb0  1  0.000000  0.323038  0.414726  1
  Tb  Tb1  1  0.000000  0.679408  0.588201  1
  Tb  Tb2  1  0.000000  0.822989  0.083824  1
  Tb  Tb3  1  0.000000  0.176129  0.913160  1
  Tb  Tb4  1  0.000000  0.943265  0.371752  1
  Tb  Tb5  1  0.000000  0.056016  0.627740  1
  Dy  Dy6  1  0.000000  0.443003  0.127823  1
  Dy  Dy7  1  0.000000  0.556459  0.872810  1
  Re  Re8  1  0.000000  0.862142  0.821510  1
  B  B9  1  0.500000  0.553926  0.432811  1
  B  B10  1  0.500000  0.446205  0.567560  1
  B  B11  1  0.500000  0.053799  0.067674  1
  B  B12  1  0.500000  0.946924  0.932733  1
  B  B13  1  0.500000  0.747567  0.419162  1
  B  B14  1  0.500000  0.252557  0.580697  1
  B  B15  1  0.500000  0.247651  0.080972  1
  B  B16  1  0.500000  0.752023  0.919042  1
  B  B17  1  0.500000  0.789713  0.266524  1
  B  B18  1  0.500000  0.209763  0.732742  1
  B  B19  1  0.500000  0.290582  0.233424  1
  B  B20  1  0.500000  0.708780  0.766591  1
  B  B21  1  0.500000  0.631227  0.185915  1
  B  B22  1  0.500000  0.368289  0.813749  1
  B  B23  1  0.500000  0.132182  0.314109  1
  B  B24  1  0.500000  0.868144  0.686165  1
  B  B25  1  0.500000  0.984268  0.212539  1
  B  B26  1  0.500000  0.016799  0.787342  1
  B  B27  1  0.500000  0.483720  0.287695  1
  B  B28  1  0.500000  0.516271  0.712909  1
  B  B29  1  0.500000  0.606580  0.030295  1
  B  B30  1  0.500000  0.391863  0.970379  1
  B  B31  1  0.500000  0.108548  0.469517  1
  B  B32  1  0.500000  0.892063  0.529415  1
  Os  Os33  1  0.000000  0.637078  0.321425  1
  Os  Os34  1  0.000000  0.362932  0.678134  1
  Os  Os35  1  0.000000  0.138098  0.178933  1
