# generated using pymatgen
data_Ce8Si16Mo11W
_symmetry_space_group_name_H-M   'P 1'
_cell_length_a   6.91592523
_cell_length_b   6.98596228
_cell_length_c   13.03095100
_cell_angle_alpha   90.00000000
_cell_angle_beta   90.00000000
_cell_angle_gamma   90.00945414
_symmetry_Int_Tables_number   1
_chemical_formula_structural   Ce8Si16Mo11W
_chemical_formula_sum   'Ce8 Si16 Mo11 W1'
_cell_volume   629.58247636
_cell_formula_units_Z   1
loop_
 _symmetry_equiv_pos_site_id
 _symmetry_equiv_pos_as_xyz
  1  'x, y, z'
loop_
 _atom_site_type_symbol
 _atom_site_label
 _atom_site_symmetry_multiplicity
 _atom_site_fract_x
 _atom_site_fract_y
 _atom_site_fract_z
 _atom_site_occupancy
  Ce  Ce0  1  0.005534  0.160912  0.092760  1
  Ce  Ce1  1  0.505646  0.339156  0.407420  1
  Ce  Ce2  1  0.494595  0.661095  0.907329  1
  Ce  Ce3  1  0.994120  0.838880  0.592957  1
  Ce  Ce4  1  0.994120  0.838880  0.907043  1
  Ce  Ce5  1  0.494595  0.661095  0.592671  1
  Ce  Ce6  1  0.505646  0.339156  0.092580  1
  Ce  Ce7  1  0.005534  0.160912  0.407240  1
  Si  Si8  1  0.809444  0.374811  0.250000  1
  Si  Si9  1  0.309465  0.125650  0.250000  1
  Si  Si10  1  0.690034  0.874046  0.750000  1
  Si  Si11  1  0.191596  0.627452  0.750000  1
  Si  Si12  1  0.038791  0.859059  0.250000  1
  Si  Si13  1  0.538808  0.641231  0.250000  1
  Si  Si14  1  0.461567  0.360986  0.750000  1
  Si  Si15  1  0.961242  0.140114  0.750000  1
  Si  Si16  1  0.845524  0.453570  0.952400  1
  Si  Si17  1  0.344292  0.045052  0.547602  1
  Si  Si18  1  0.654870  0.954289  0.047170  1
  Si  Si19  1  0.154864  0.545713  0.452736  1
  Si  Si20  1  0.154864  0.545713  0.047264  1
  Si  Si21  1  0.654870  0.954289  0.452830  1
  Si  Si22  1  0.344292  0.045052  0.952398  1
  Si  Si23  1  0.845524  0.453570  0.547600  1
  Mo  Mo24  1  0.669199  0.002892  0.250000  1
  Mo  Mo25  1  0.169336  0.497284  0.250000  1
  Mo  Mo26  1  0.831851  0.502907  0.750000  1
  Mo  Mo27  1  0.831672  0.663961  0.125693  1
  Mo  Mo28  1  0.331311  0.836185  0.374326  1
  Mo  Mo29  1  0.666880  0.163455  0.873673  1
  Mo  Mo30  1  0.169617  0.335474  0.626342  1
  Mo  Mo31  1  0.169617  0.335474  0.873658  1
  Mo  Mo32  1  0.666880  0.163455  0.626327  1
  Mo  Mo33  1  0.331311  0.836185  0.125674  1
  Mo  Mo34  1  0.831672  0.663961  0.374307  1
  W  W35  1  0.330815  0.998086  0.750000  1
