# generated using pymatgen
data_Th2B10Ir
_symmetry_space_group_name_H-M   'P 1'
_cell_length_a   4.20817200
_cell_length_b   5.73224800
_cell_length_c   11.46699200
_cell_angle_alpha   90.00000000
_cell_angle_beta   90.00000000
_cell_angle_gamma   90.00000000
_symmetry_Int_Tables_number   1
_chemical_formula_structural   Th2B10Ir
_chemical_formula_sum   'Th4 B20 Ir2'
_cell_volume   276.61005520
_cell_formula_units_Z   2
loop_
 _symmetry_equiv_pos_site_id
 _symmetry_equiv_pos_as_xyz
  1  'x, y, z'
loop_
 _atom_site_type_symbol
 _atom_site_label
 _atom_site_symmetry_multiplicity
 _atom_site_fract_x
 _atom_site_fract_y
 _atom_site_fract_z
 _atom_site_occupancy
  Th  Th0  1  0.500000  0.297168  0.864377  1
  Th  Th1  1  0.500000  0.702832  0.135623  1
  Th  Th2  1  0.500000  0.797168  0.635623  1
  Th  Th3  1  0.500000  0.202832  0.364377  1
  B  B4  1  0.000000  0.117656  0.543238  1
  B  B5  1  0.000000  0.882344  0.456762  1
  B  B6  1  0.000000  0.617656  0.956762  1
  B  B7  1  0.000000  0.382344  0.043238  1
  B  B8  1  0.000000  0.137326  0.697318  1
  B  B9  1  0.000000  0.862674  0.302682  1
  B  B10  1  0.302201  0.216645  0.119324  1
  B  B11  1  0.302201  0.783355  0.880676  1
  B  B12  1  0.697799  0.716645  0.380676  1
  B  B13  1  0.697799  0.283355  0.619324  1
  B  B14  1  0.697799  0.783355  0.880676  1
  B  B15  1  0.697799  0.216645  0.119324  1
  B  B16  1  0.302201  0.283355  0.619324  1
  B  B17  1  0.302201  0.716645  0.380676  1
  B  B18  1  0.000000  0.053615  0.193311  1
  B  B19  1  0.000000  0.946385  0.806689  1
  B  B20  1  0.000000  0.553615  0.306689  1
  B  B21  1  0.000000  0.446385  0.693311  1
  B  B22  1  0.000000  0.362674  0.197318  1
  B  B23  1  0.000000  0.637326  0.802682  1
  Ir  Ir24  1  0.000000  0.500000  0.500000  1
  Ir  Ir25  1  0.000000  0.000000  0.000000  1
