# generated using pymatgen
data_KTc12Cl25
_symmetry_space_group_name_H-M   'P 1'
_cell_length_a   9.62228484
_cell_length_b   10.58761158
_cell_length_c   11.26470094
_cell_angle_alpha   83.26531633
_cell_angle_beta   73.50284769
_cell_angle_gamma   86.94640437
_symmetry_Int_Tables_number   1
_chemical_formula_structural   KTc12Cl25
_chemical_formula_sum   'K1 Tc12 Cl25'
_cell_volume   1092.53819819
_cell_formula_units_Z   1
loop_
 _symmetry_equiv_pos_site_id
 _symmetry_equiv_pos_as_xyz
  1  'x, y, z'
loop_
 _atom_site_type_symbol
 _atom_site_label
 _atom_site_symmetry_multiplicity
 _atom_site_fract_x
 _atom_site_fract_y
 _atom_site_fract_z
 _atom_site_occupancy
  K  K0  1  0.500000  0.000000  0.000000  1
  Tc  Tc1  1  0.830575  0.256146  0.119807  1
  Tc  Tc2  1  0.169425  0.743854  0.880193  1
  Tc  Tc3  1  0.752369  0.118159  0.283705  1
  Tc  Tc4  1  0.247631  0.881841  0.716295  1
  Tc  Tc5  1  0.071356  0.274510  0.190638  1
  Tc  Tc6  1  0.928644  0.725490  0.809362  1
  Tc  Tc7  1  0.845704  0.433225  0.265090  1
  Tc  Tc8  1  0.154296  0.566775  0.734910  1
  Tc  Tc9  1  0.765336  0.297122  0.431213  1
  Tc  Tc10  1  0.234664  0.702878  0.568787  1
  Tc  Tc11  1  0.990569  0.138455  0.356745  1
  Tc  Tc12  1  0.009431  0.861545  0.643255  1
  Cl  Cl13  1  0.942647  0.964303  0.260631  1
  Cl  Cl14  1  0.057353  0.035697  0.739369  1
  Cl  Cl15  1  0.964975  0.274395  0.514741  1
  Cl  Cl16  1  0.035025  0.725605  0.485259  1
  Cl  Cl17  1  0.655787  0.422164  0.169935  1
  Cl  Cl18  1  0.344213  0.577836  0.830065  1
  Cl  Cl19  1  0.083153  0.463494  0.279643  1
  Cl  Cl20  1  0.916847  0.536506  0.720357  1
  Cl  Cl21  1  0.000000  0.500000  0.000000  1
  Cl  Cl22  1  0.601137  0.966158  0.251418  1
  Cl  Cl23  1  0.398863  0.033842  0.748582  1
  Cl  Cl24  1  0.188615  0.026776  0.413031  1
  Cl  Cl25  1  0.811385  0.973224  0.586969  1
  Cl  Cl26  1  0.549123  0.224019  0.404838  1
  Cl  Cl27  1  0.450877  0.775981  0.595162  1
  Cl  Cl28  1  0.058389  0.161602  0.025125  1
  Cl  Cl29  1  0.941611  0.838398  0.974875  1
  Cl  Cl30  1  0.777274  0.639354  0.310625  1
  Cl  Cl31  1  0.222726  0.360646  0.689375  1
  Cl  Cl32  1  0.743754  0.217863  0.951359  1
  Cl  Cl33  1  0.256246  0.782137  0.048641  1
  Cl  Cl34  1  0.325246  0.265159  0.117517  1
  Cl  Cl35  1  0.674754  0.734841  0.882483  1
  Cl  Cl36  1  0.635622  0.400096  0.599220  1
  Cl  Cl37  1  0.364378  0.599904  0.400780  1
