# generated using pymatgen
data_TbDyHo4CoCl10
_symmetry_space_group_name_H-M   'P 1'
_cell_length_a   7.07498710
_cell_length_b   8.84075881
_cell_length_c   8.77403847
_cell_angle_alpha   108.77600131
_cell_angle_beta   96.32358680
_cell_angle_gamma   106.51236623
_symmetry_Int_Tables_number   1
_chemical_formula_structural   TbDyHo4CoCl10
_chemical_formula_sum   'Tb1 Dy1 Ho4 Co1 Cl10'
_cell_volume   485.72248843
_cell_formula_units_Z   1
loop_
 _symmetry_equiv_pos_site_id
 _symmetry_equiv_pos_as_xyz
  1  'x, y, z'
loop_
 _atom_site_type_symbol
 _atom_site_label
 _atom_site_symmetry_multiplicity
 _atom_site_fract_x
 _atom_site_fract_y
 _atom_site_fract_z
 _atom_site_occupancy
  Tb  Tb0  1  0.370806  0.950034  0.239782  1
  Dy  Dy1  1  0.628944  0.049799  0.760964  1
  Ho  Ho2  1  0.863452  0.141393  0.187974  1
  Ho  Ho3  1  0.136444  0.858610  0.812046  1
  Ho  Ho4  1  0.524347  0.695009  0.897583  1
  Ho  Ho5  1  0.475774  0.304925  0.102036  1
  Co  Co6  1  0.499816  0.999835  0.000199  1
  Cl  Cl7  1  0.744507  0.081450  0.455002  1
  Cl  Cl8  1  0.257148  0.919218  0.546705  1
  Cl  Cl9  1  0.950651  0.827394  0.076640  1
  Cl  Cl10  1  0.047698  0.171982  0.922198  1
  Cl  Cl11  1  0.288701  0.255523  0.346415  1
  Cl  Cl12  1  0.711124  0.746230  0.653424  1
  Cl  Cl13  1  0.589775  0.371043  0.837052  1
  Cl  Cl14  1  0.410725  0.627353  0.161882  1
  Cl  Cl15  1  0.854745  0.456060  0.277220  1
  Cl  Cl16  1  0.145343  0.544143  0.722878  1
