# generated using pymatgen
data_Th8Ni2Ru5Au
_symmetry_space_group_name_H-M   'P 1'
_cell_length_a   4.10349000
_cell_length_b   6.01709525
_cell_length_c   14.94996976
_cell_angle_alpha   90.54632103
_cell_angle_beta   90.00000000
_cell_angle_gamma   90.00000000
_symmetry_Int_Tables_number   1
_chemical_formula_structural   Th8Ni2Ru5Au
_chemical_formula_sum   'Th8 Ni2 Ru5 Au1'
_cell_volume   369.11427145
_cell_formula_units_Z   1
loop_
 _symmetry_equiv_pos_site_id
 _symmetry_equiv_pos_as_xyz
  1  'x, y, z'
loop_
 _atom_site_type_symbol
 _atom_site_label
 _atom_site_symmetry_multiplicity
 _atom_site_fract_x
 _atom_site_fract_y
 _atom_site_fract_z
 _atom_site_occupancy
  Th  Th0  1  0.250000  0.554633  0.299878  1
  Th  Th1  1  0.750000  0.447952  0.714628  1
  Th  Th2  1  0.250000  0.953037  0.781606  1
  Th  Th3  1  0.250000  0.755694  0.539235  1
  Th  Th4  1  0.250000  0.761819  0.023114  1
  Th  Th5  1  0.750000  0.258209  0.957604  1
  Th  Th6  1  0.750000  0.050682  0.220054  1
  Th  Th7  1  0.750000  0.240851  0.466681  1
  Ni  Ni8  1  0.250000  0.224245  0.097764  1
  Ni  Ni9  1  0.250000  0.259869  0.602129  1
  Ru  Ru10  1  0.250000  0.072524  0.349555  1
  Ru  Ru11  1  0.750000  0.723381  0.407922  1
  Ru  Ru12  1  0.250000  0.434678  0.846344  1
  Ru  Ru13  1  0.750000  0.941582  0.646789  1
  Ru  Ru14  1  0.750000  0.786035  0.901042  1
  Au  Au15  1  0.750000  0.534811  0.145655  1
