# generated using pymatgen
data_Dy3Er3(CI3)2
_symmetry_space_group_name_H-M   'P 1'
_cell_length_a   3.88925100
_cell_length_b   8.67334621
_cell_length_c   11.85684287
_cell_angle_alpha   92.20413573
_cell_angle_beta   90.00000000
_cell_angle_gamma   90.00000000
_symmetry_Int_Tables_number   1
_chemical_formula_structural   Dy3Er3(CI3)2
_chemical_formula_sum   'Dy3 Er3 C2 I6'
_cell_volume   399.66883446
_cell_formula_units_Z   1
loop_
 _symmetry_equiv_pos_site_id
 _symmetry_equiv_pos_as_xyz
  1  'x, y, z'
loop_
 _atom_site_type_symbol
 _atom_site_label
 _atom_site_symmetry_multiplicity
 _atom_site_fract_x
 _atom_site_fract_y
 _atom_site_fract_z
 _atom_site_occupancy
  Dy  Dy0  1  0.250000  0.918383  0.599411  1
  Dy  Dy1  1  0.750000  0.081373  0.400813  1
  Dy  Dy2  1  0.250000  0.886871  0.186714  1
  Er  Er3  1  0.750000  0.113333  0.811696  1
  Er  Er4  1  0.250000  0.289973  0.615525  1
  Er  Er5  1  0.750000  0.709783  0.384534  1
  C  C6  1  0.250000  0.880731  0.386911  1
  C  C7  1  0.750000  0.119165  0.614118  1
  I  I8  1  0.250000  0.860991  0.873120  1
  I  I9  1  0.750000  0.142583  0.126610  1
  I  I10  1  0.250000  0.374270  0.870491  1
  I  I11  1  0.750000  0.622625  0.129575  1
  I  I12  1  0.250000  0.383844  0.369289  1
  I  I13  1  0.750000  0.616073  0.631193  1
