# generated using pymatgen
data_Cs(TiS2)8
_symmetry_space_group_name_H-M   'P 1'
_cell_length_a   6.85635200
_cell_length_b   6.85635286
_cell_length_c   16.46460000
_cell_angle_alpha   90.00000000
_cell_angle_beta   90.00000000
_cell_angle_gamma   119.99999586
_symmetry_Int_Tables_number   1
_chemical_formula_structural   Cs(TiS2)8
_chemical_formula_sum   'Cs1 Ti8 S16'
_cell_volume   670.29827235
_cell_formula_units_Z   1
loop_
 _symmetry_equiv_pos_site_id
 _symmetry_equiv_pos_as_xyz
  1  'x, y, z'
loop_
 _atom_site_type_symbol
 _atom_site_label
 _atom_site_symmetry_multiplicity
 _atom_site_fract_x
 _atom_site_fract_y
 _atom_site_fract_z
 _atom_site_occupancy
  Cs  Cs0  1  0.000000  0.000000  0.000000  1
  Ti  Ti1  1  0.500957  0.499043  0.732183  1
  Ti  Ti2  1  0.499043  0.500957  0.267817  1
  Ti  Ti3  1  0.500957  0.001913  0.732183  1
  Ti  Ti4  1  0.499043  0.998087  0.267817  1
  Ti  Ti5  1  0.998087  0.499043  0.732183  1
  Ti  Ti6  1  0.001913  0.500957  0.267817  1
  Ti  Ti7  1  0.000000  0.000000  0.732062  1
  Ti  Ti8  1  0.000000  0.000000  0.267938  1
  S  S9  1  0.833022  0.666046  0.180470  1
  S  S10  1  0.833196  0.666394  0.646727  1
  S  S11  1  0.833022  0.166978  0.180470  1
  S  S12  1  0.833196  0.166804  0.646727  1
  S  S13  1  0.333333  0.666667  0.179549  1
  S  S14  1  0.333333  0.666667  0.647952  1
  S  S15  1  0.333954  0.166978  0.180470  1
  S  S16  1  0.333606  0.166804  0.646727  1
  S  S17  1  0.666046  0.833022  0.819530  1
  S  S18  1  0.666394  0.833196  0.353273  1
  S  S19  1  0.666667  0.333333  0.820451  1
  S  S20  1  0.666667  0.333333  0.352048  1
  S  S21  1  0.166978  0.833022  0.819530  1
  S  S22  1  0.166804  0.833196  0.353273  1
  S  S23  1  0.166978  0.333954  0.819530  1
  S  S24  1  0.166804  0.333606  0.353273  1
