# generated using pymatgen
data_Tb3Dy4Ho(SiBr6)2
_symmetry_space_group_name_H-M   'P 1'
_cell_length_a   4.06363700
_cell_length_b   13.25842872
_cell_length_c   14.04295604
_cell_angle_alpha   90.05740924
_cell_angle_beta   90.00000000
_cell_angle_gamma   90.00000000
_symmetry_Int_Tables_number   1
_chemical_formula_structural   Tb3Dy4Ho(SiBr6)2
_chemical_formula_sum   'Tb3 Dy4 Ho1 Si2 Br12'
_cell_volume   756.59816273
_cell_formula_units_Z   1
loop_
 _symmetry_equiv_pos_site_id
 _symmetry_equiv_pos_as_xyz
  1  'x, y, z'
loop_
 _atom_site_type_symbol
 _atom_site_label
 _atom_site_symmetry_multiplicity
 _atom_site_fract_x
 _atom_site_fract_y
 _atom_site_fract_z
 _atom_site_occupancy
  Tb  Tb0  1  0.000000  0.881843  0.421455  1
  Tb  Tb1  1  0.000000  0.618660  0.921140  1
  Tb  Tb2  1  0.000000  0.381315  0.078835  1
  Dy  Dy3  1  0.500000  0.117995  0.341489  1
  Dy  Dy4  1  0.500000  0.882221  0.658685  1
  Dy  Dy5  1  0.500000  0.617915  0.158651  1
  Dy  Dy6  1  0.000000  0.118274  0.578586  1
  Ho  Ho7  1  0.500000  0.382082  0.841383  1
  Si  Si8  1  0.500000  0.000612  0.500444  1
  Si  Si9  1  0.500000  0.499764  0.999670  1
  Br  Br10  1  0.500000  0.242741  0.163973  1
  Br  Br11  1  0.500000  0.757348  0.836077  1
  Br  Br12  1  0.500000  0.743177  0.336384  1
  Br  Br13  1  0.500000  0.255501  0.663084  1
  Br  Br14  1  0.000000  0.254934  0.411265  1
  Br  Br15  1  0.000000  0.744846  0.589793  1
  Br  Br16  1  0.000000  0.755252  0.089924  1
  Br  Br17  1  0.000000  0.244967  0.909752  1
  Br  Br18  1  0.000000  0.003040  0.242766  1
  Br  Br19  1  0.000000  0.998055  0.756589  1
  Br  Br20  1  0.000000  0.503108  0.257386  1
  Br  Br21  1  0.000000  0.496348  0.742670  1
