# generated using pymatgen
data_Ta11Ti(Zn3C)4
_symmetry_space_group_name_H-M   'P 1'
_cell_length_a   8.30713557
_cell_length_b   8.31475385
_cell_length_c   8.31476316
_cell_angle_alpha   59.92846072
_cell_angle_beta   60.03027055
_cell_angle_gamma   60.03037031
_symmetry_Int_Tables_number   1
_chemical_formula_structural   Ta11Ti(Zn3C)4
_chemical_formula_sum   'Ta11 Ti1 Zn12 C4'
_cell_volume   406.06811797
_cell_formula_units_Z   1
loop_
 _symmetry_equiv_pos_site_id
 _symmetry_equiv_pos_as_xyz
  1  'x, y, z'
loop_
 _atom_site_type_symbol
 _atom_site_label
 _atom_site_symmetry_multiplicity
 _atom_site_fract_x
 _atom_site_fract_y
 _atom_site_fract_z
 _atom_site_occupancy
  Ta  Ta0  1  0.929451  0.931084  0.569583  1
  Ta  Ta1  1  0.569883  0.931084  0.569583  1
  Ta  Ta2  1  0.929864  0.570136  0.570136  1
  Ta  Ta3  1  0.569882  0.569583  0.931084  1
  Ta  Ta4  1  0.929450  0.569583  0.931084  1
  Ta  Ta5  1  0.569858  0.930142  0.930142  1
  Ta  Ta6  1  0.320186  0.318630  0.681355  1
  Ta  Ta7  1  0.679830  0.318630  0.681354  1
  Ta  Ta8  1  0.320821  0.679179  0.679179  1
  Ta  Ta9  1  0.679829  0.681355  0.318630  1
  Ta  Ta10  1  0.320186  0.681354  0.318630  1
  Ti  Ti11  1  0.679237  0.320763  0.320763  1
  Zn  Zn12  1  0.332596  0.332808  0.001999  1
  Zn  Zn13  1  0.332596  0.001999  0.332808  1
  Zn  Zn14  1  0.997623  0.333259  0.333258  1
  Zn  Zn15  1  0.335859  0.333258  0.333259  1
  Zn  Zn16  1  0.917391  0.916969  0.248251  1
  Zn  Zn17  1  0.917391  0.248251  0.916969  1
  Zn  Zn18  1  0.248928  0.917030  0.917030  1
  Zn  Zn19  1  0.917012  0.917030  0.917030  1
  Zn  Zn20  1  0.125227  0.125224  0.624323  1
  Zn  Zn21  1  0.125227  0.624323  0.125224  1
  Zn  Zn22  1  0.625192  0.124681  0.124681  1
  Zn  Zn23  1  0.125445  0.124681  0.124681  1
  C  C24  1  0.625578  0.620799  0.128047  1
  C  C25  1  0.625576  0.128047  0.620799  1
  C  C26  1  0.124580  0.625060  0.625059  1
  C  C27  1  0.625301  0.625059  0.625060  1
