# generated using pymatgen
data_Tb5NbCo16(P6W)2
_symmetry_space_group_name_H-M   'P 1'
_cell_length_a   12.14698505
_cell_length_b   12.14698441
_cell_length_c   3.71889000
_cell_angle_alpha   90.00000000
_cell_angle_beta   90.00000000
_cell_angle_gamma   120.01050955
_symmetry_Int_Tables_number   1
_chemical_formula_structural   Tb5NbCo16(P6W)2
_chemical_formula_sum   'Tb5 Nb1 Co16 P12 W2'
_cell_volume   475.15459512
_cell_formula_units_Z   1
loop_
 _symmetry_equiv_pos_site_id
 _symmetry_equiv_pos_as_xyz
  1  'x, y, z'
loop_
 _atom_site_type_symbol
 _atom_site_label
 _atom_site_symmetry_multiplicity
 _atom_site_fract_x
 _atom_site_fract_y
 _atom_site_fract_z
 _atom_site_occupancy
  Tb  Tb0  1  0.814915  0.000195  0.500000  1
  Tb  Tb1  1  0.000195  0.814915  0.500000  1
  Tb  Tb2  1  0.183590  0.183590  0.500000  1
  Tb  Tb3  1  0.332881  0.666905  0.000000  1
  Tb  Tb4  1  0.666905  0.332881  0.000000  1
  Nb  Nb5  1  0.556652  0.556652  0.000000  1
  Co  Co6  1  0.281146  0.999894  0.500000  1
  Co  Co7  1  0.999894  0.281146  0.500000  1
  Co  Co8  1  0.720910  0.720910  0.500000  1
  Co  Co9  1  0.625024  0.803631  0.000000  1
  Co  Co10  1  0.199200  0.823679  0.000000  1
  Co  Co11  1  0.175551  0.374264  0.000000  1
  Co  Co12  1  0.374264  0.175551  0.000000  1
  Co  Co13  1  0.803631  0.625024  0.000000  1
  Co  Co14  1  0.823679  0.199200  0.000000  1
  Co  Co15  1  0.517303  0.874775  0.500000  1
  Co  Co16  1  0.126665  0.643938  0.500000  1
  Co  Co17  1  0.353042  0.480888  0.500000  1
  Co  Co18  1  0.480888  0.353042  0.500000  1
  Co  Co19  1  0.874775  0.517303  0.500000  1
  Co  Co20  1  0.643938  0.126665  0.500000  1
  Co  Co21  1  0.999870  0.999870  0.000000  1
  P  P22  1  0.177904  0.999370  0.000000  1
  P  P23  1  0.999370  0.177904  0.000000  1
  P  P24  1  0.821637  0.821637  0.000000  1
  P  P25  1  0.521040  0.689681  0.500000  1
  P  P26  1  0.313315  0.834575  0.500000  1
  P  P27  1  0.164717  0.478706  0.500000  1
  P  P28  1  0.478706  0.164717  0.500000  1
  P  P29  1  0.689681  0.521040  0.500000  1
  P  P30  1  0.834575  0.313315  0.500000  1
  P  P31  1  0.639898  0.001192  0.000000  1
  P  P32  1  0.001192  0.639898  0.000000  1
  P  P33  1  0.356644  0.356644  0.000000  1
  W  W34  1  0.446056  0.000349  0.000000  1
  W  W35  1  0.000349  0.446056  0.000000  1
