# generated using pymatgen
data_Ta5Tc2
_symmetry_space_group_name_H-M   'P 1'
_cell_length_a   3.23135792
_cell_length_b   5.39019418
_cell_length_c   9.60536000
_cell_angle_alpha   105.40017597
_cell_angle_beta   120.44021452
_cell_angle_gamma   107.29601406
_symmetry_Int_Tables_number   1
_chemical_formula_structural   Ta5Tc2
_chemical_formula_sum   'Ta5 Tc2'
_cell_volume   118.82050108
_cell_formula_units_Z   1
loop_
 _symmetry_equiv_pos_site_id
 _symmetry_equiv_pos_as_xyz
  1  'x, y, z'
loop_
 _atom_site_type_symbol
 _atom_site_label
 _atom_site_symmetry_multiplicity
 _atom_site_fract_x
 _atom_site_fract_y
 _atom_site_fract_z
 _atom_site_occupancy
  Ta  Ta0  1  0.855798  0.166273  0.285217  1
  Ta  Ta1  1  0.004732  0.618597  0.567915  1
  Ta  Ta2  1  0.160233  0.031509  0.866088  1
  Ta  Ta3  1  0.308399  0.483613  0.148788  1
  Ta  Ta4  1  0.582699  0.325109  0.717032  1
  Tc  Tc5  1  0.721319  0.750942  0.000819  1
  Tc  Tc6  1  0.443277  0.899067  0.433194  1
