# generated using pymatgen
data_Cd9Ga4Hg5
_symmetry_space_group_name_H-M   'P 1'
_cell_length_a   19.09736373
_cell_length_b   19.09736376
_cell_length_c   6.04560244
_cell_angle_alpha   103.96683230
_cell_angle_beta   103.96683207
_cell_angle_gamma   11.07031538
_symmetry_Int_Tables_number   1
_chemical_formula_structural   Cd9Ga4Hg5
_chemical_formula_sum   'Cd9 Ga4 Hg5'
_cell_volume   410.73226201
_cell_formula_units_Z   1
loop_
 _symmetry_equiv_pos_site_id
 _symmetry_equiv_pos_as_xyz
  1  'x, y, z'
loop_
 _atom_site_type_symbol
 _atom_site_label
 _atom_site_symmetry_multiplicity
 _atom_site_fract_x
 _atom_site_fract_y
 _atom_site_fract_z
 _atom_site_occupancy
  Cd  Cd0  1  0.555059  0.555059  0.299242  1
  Cd  Cd1  1  0.775638  0.775638  0.395030  1
  Cd  Cd2  1  0.999265  0.999265  0.474697  1
  Cd  Cd3  1  0.223173  0.223173  0.593271  1
  Cd  Cd4  1  0.444113  0.444113  0.701288  1
  Cd  Cd5  1  0.556653  0.556653  0.799719  1
  Cd  Cd6  1  0.669318  0.669318  0.818981  1
  Cd  Cd7  1  0.778633  0.778633  0.901094  1
  Cd  Cd8  1  0.891639  0.891639  0.909470  1
  Ga  Ga9  1  0.109068  0.109068  0.107470  1
  Ga  Ga10  1  0.223792  0.223792  0.091823  1
  Ga  Ga11  1  0.331262  0.331262  0.206471  1
  Ga  Ga12  1  0.444717  0.444717  0.200155  1
  Hg  Hg13  1  0.002299  0.002299  0.976211  1
  Hg  Hg14  1  0.666191  0.666191  0.312956  1
  Hg  Hg15  1  0.888859  0.888859  0.404127  1
  Hg  Hg16  1  0.109388  0.109388  0.607428  1
  Hg  Hg17  1  0.330932  0.330932  0.700567  1
