# generated using pymatgen
data_DyY3(Ga2Ag)4
_symmetry_space_group_name_H-M   'P 1'
_cell_length_a   4.37922300
_cell_length_b   6.96718366
_cell_length_c   10.27564131
_cell_angle_alpha   89.94966714
_cell_angle_beta   90.00000000
_cell_angle_gamma   90.00000000
_symmetry_Int_Tables_number   1
_chemical_formula_structural   DyY3(Ga2Ag)4
_chemical_formula_sum   'Dy1 Y3 Ga8 Ag4'
_cell_volume   313.51843900
_cell_formula_units_Z   1
loop_
 _symmetry_equiv_pos_site_id
 _symmetry_equiv_pos_as_xyz
  1  'x, y, z'
loop_
 _atom_site_type_symbol
 _atom_site_label
 _atom_site_symmetry_multiplicity
 _atom_site_fract_x
 _atom_site_fract_y
 _atom_site_fract_z
 _atom_site_occupancy
  Dy  Dy0  1  0.250000  0.278983  0.675680  1
  Y  Y1  1  0.250000  0.779334  0.823554  1
  Y  Y2  1  0.750000  0.221010  0.175898  1
  Y  Y3  1  0.750000  0.721079  0.324437  1
  Ga  Ga4  1  0.250000  0.700149  0.535458  1
  Ga  Ga5  1  0.750000  0.299082  0.464888  1
  Ga  Ga6  1  0.750000  0.798011  0.035574  1
  Ga  Ga7  1  0.250000  0.201690  0.964003  1
  Ga  Ga8  1  0.250000  0.928844  0.154564  1
  Ga  Ga9  1  0.750000  0.071806  0.846054  1
  Ga  Ga10  1  0.750000  0.570347  0.653748  1
  Ga  Ga11  1  0.250000  0.428313  0.345414  1
  Ag  Ag12  1  0.250000  0.545405  0.095287  1
  Ag  Ag13  1  0.750000  0.454970  0.903567  1
  Ag  Ag14  1  0.750000  0.955403  0.596473  1
  Ag  Ag15  1  0.250000  0.045576  0.405403  1
