# generated using pymatgen
data_Tm7Zn(Co3Sn11)2
_symmetry_space_group_name_H-M   'P 1'
_cell_length_a   9.63050300
_cell_length_b   9.63050353
_cell_length_c   9.93604100
_cell_angle_alpha   90.00000000
_cell_angle_beta   90.00000000
_cell_angle_gamma   120.00000847
_symmetry_Int_Tables_number   1
_chemical_formula_structural   Tm7Zn(Co3Sn11)2
_chemical_formula_sum   'Tm7 Zn1 Co6 Sn22'
_cell_volume   798.07174513
_cell_formula_units_Z   1
loop_
 _symmetry_equiv_pos_site_id
 _symmetry_equiv_pos_as_xyz
  1  'x, y, z'
loop_
 _atom_site_type_symbol
 _atom_site_label
 _atom_site_symmetry_multiplicity
 _atom_site_fract_x
 _atom_site_fract_y
 _atom_site_fract_z
 _atom_site_occupancy
  Tm  Tm0  1  0.479688  0.520312  0.306048  1
  Tm  Tm1  1  0.520312  0.479688  0.693952  1
  Tm  Tm2  1  0.479688  0.959376  0.306048  1
  Tm  Tm3  1  0.520312  0.040624  0.693952  1
  Tm  Tm4  1  0.040624  0.520312  0.306048  1
  Tm  Tm5  1  0.959376  0.479688  0.693952  1
  Tm  Tm6  1  0.000000  0.000000  0.000000  1
  Zn  Zn7  1  0.000000  0.000000  0.500000  1
  Co  Co8  1  0.831904  0.168096  0.197635  1
  Co  Co9  1  0.168096  0.831904  0.802365  1
  Co  Co10  1  0.831904  0.663810  0.197635  1
  Co  Co11  1  0.168096  0.336190  0.802365  1
  Co  Co12  1  0.336190  0.168096  0.197635  1
  Co  Co13  1  0.663810  0.831904  0.802365  1
  Sn  Sn14  1  0.114842  0.885158  0.276097  1
  Sn  Sn15  1  0.885158  0.114842  0.723903  1
  Sn  Sn16  1  0.114842  0.229683  0.276097  1
  Sn  Sn17  1  0.885158  0.770317  0.723903  1
  Sn  Sn18  1  0.770317  0.885158  0.276097  1
  Sn  Sn19  1  0.229683  0.114842  0.723903  1
  Sn  Sn20  1  0.782377  0.217623  0.453842  1
  Sn  Sn21  1  0.217623  0.782377  0.546158  1
  Sn  Sn22  1  0.782377  0.564753  0.453842  1
  Sn  Sn23  1  0.217623  0.435247  0.546158  1
  Sn  Sn24  1  0.435247  0.217623  0.453842  1
  Sn  Sn25  1  0.564753  0.782377  0.546158  1
  Sn  Sn26  1  0.345695  0.000000  0.000000  1
  Sn  Sn27  1  0.654305  0.000000  0.000000  1
  Sn  Sn28  1  0.000000  0.345695  0.000000  1
  Sn  Sn29  1  0.000000  0.654305  0.000000  1
  Sn  Sn30  1  0.654305  0.654305  0.000000  1
  Sn  Sn31  1  0.345695  0.345695  0.000000  1
  Sn  Sn32  1  0.333333  0.666667  0.121369  1
  Sn  Sn33  1  0.666667  0.333333  0.878631  1
  Sn  Sn34  1  0.333333  0.666667  0.818754  1
  Sn  Sn35  1  0.666667  0.333333  0.181246  1
