# generated using pymatgen
data_DyBeCuP2
_symmetry_space_group_name_H-M   'P 1'
_cell_length_a   3.86005600
_cell_length_b   3.86005675
_cell_length_c   6.37985400
_cell_angle_alpha   90.00000000
_cell_angle_beta   90.00000000
_cell_angle_gamma   119.99997643
_symmetry_Int_Tables_number   1
_chemical_formula_structural   DyBeCuP2
_chemical_formula_sum   'Dy1 Be1 Cu1 P2'
_cell_volume   82.32443713
_cell_formula_units_Z   1
loop_
 _symmetry_equiv_pos_site_id
 _symmetry_equiv_pos_as_xyz
  1  'x, y, z'
loop_
 _atom_site_type_symbol
 _atom_site_label
 _atom_site_symmetry_multiplicity
 _atom_site_fract_x
 _atom_site_fract_y
 _atom_site_fract_z
 _atom_site_occupancy
  Dy  Dy0  1  0.333333  0.666667  0.988589  1
  Be  Be1  1  0.000000  0.000000  0.376986  1
  Cu  Cu2  1  0.666667  0.333333  0.635216  1
  P  P3  1  0.666667  0.333333  0.267741  1
  P  P4  1  0.000000  0.000000  0.731470  1
