# generated using pymatgen
data_Yb4Cu5Ir3
_symmetry_space_group_name_H-M   'P 1'
_cell_length_a   5.17021536
_cell_length_b   5.17021442
_cell_length_c   8.66614600
_cell_angle_alpha   90.00000000
_cell_angle_beta   90.00000000
_cell_angle_gamma   120.89972660
_symmetry_Int_Tables_number   1
_chemical_formula_structural   Yb4Cu5Ir3
_chemical_formula_sum   'Yb4 Cu5 Ir3'
_cell_volume   198.77628540
_cell_formula_units_Z   1
loop_
 _symmetry_equiv_pos_site_id
 _symmetry_equiv_pos_as_xyz
  1  'x, y, z'
loop_
 _atom_site_type_symbol
 _atom_site_label
 _atom_site_symmetry_multiplicity
 _atom_site_fract_x
 _atom_site_fract_y
 _atom_site_fract_z
 _atom_site_occupancy
  Yb  Yb0  1  0.329752  0.670248  0.437136  1
  Yb  Yb1  1  0.664005  0.335995  0.559199  1
  Yb  Yb2  1  0.664005  0.335995  0.940801  1
  Yb  Yb3  1  0.329752  0.670248  0.062864  1
  Cu  Cu4  1  0.837869  0.657302  0.250000  1
  Cu  Cu5  1  0.342698  0.162131  0.250000  1
  Cu  Cu6  1  0.171495  0.828505  0.750000  1
  Cu  Cu7  1  0.170188  0.337442  0.750000  1
  Cu  Cu8  1  0.662558  0.829812  0.750000  1
  Ir  Ir9  1  0.995479  0.004521  0.504221  1
  Ir  Ir10  1  0.995479  0.004521  0.995779  1
  Ir  Ir11  1  0.836721  0.163279  0.250000  1
