# generated using pymatgen
data_DyHo6Th(ReB6)4
_symmetry_space_group_name_H-M   'P 1'
_cell_length_a   3.69945800
_cell_length_b   9.18021322
_cell_length_c   11.57542300
_cell_angle_alpha   90.03957821
_cell_angle_beta   90.00000000
_cell_angle_gamma   90.00000000
_symmetry_Int_Tables_number   1
_chemical_formula_structural   DyHo6Th(ReB6)4
_chemical_formula_sum   'Dy1 Ho6 Th1 Re4 B24'
_cell_volume   393.12226043
_cell_formula_units_Z   1
loop_
 _symmetry_equiv_pos_site_id
 _symmetry_equiv_pos_as_xyz
  1  'x, y, z'
loop_
 _atom_site_type_symbol
 _atom_site_label
 _atom_site_symmetry_multiplicity
 _atom_site_fract_x
 _atom_site_fract_y
 _atom_site_fract_z
 _atom_site_occupancy
  Dy  Dy0  1  0.000000  0.677744  0.587263  1
  Ho  Ho1  1  0.000000  0.823452  0.085160  1
  Ho  Ho2  1  0.000000  0.175860  0.913992  1
  Ho  Ho3  1  0.000000  0.941999  0.369441  1
  Ho  Ho4  1  0.000000  0.055968  0.631337  1
  Ho  Ho5  1  0.000000  0.443538  0.128252  1
  Ho  Ho6  1  0.000000  0.557366  0.870624  1
  Th  Th7  1  0.000000  0.322454  0.414046  1
  Re  Re8  1  0.000000  0.639413  0.320304  1
  Re  Re9  1  0.000000  0.361523  0.680465  1
  Re  Re10  1  0.000000  0.138361  0.178128  1
  Re  Re11  1  0.000000  0.861484  0.821170  1
  B  B12  1  0.500000  0.555903  0.432176  1
  B  B13  1  0.500000  0.446840  0.569610  1
  B  B14  1  0.500000  0.053026  0.066369  1
  B  B15  1  0.500000  0.946573  0.932968  1
  B  B16  1  0.500000  0.750237  0.418148  1
  B  B17  1  0.500000  0.250650  0.584954  1
  B  B18  1  0.500000  0.248786  0.080170  1
  B  B19  1  0.500000  0.750858  0.918504  1
  B  B20  1  0.500000  0.792182  0.265047  1
  B  B21  1  0.500000  0.207988  0.736021  1
  B  B22  1  0.500000  0.290501  0.232082  1
  B  B23  1  0.500000  0.708132  0.765827  1
  B  B24  1  0.500000  0.632086  0.184443  1
  B  B25  1  0.500000  0.369478  0.815264  1
  B  B26  1  0.500000  0.129230  0.312252  1
  B  B27  1  0.500000  0.868954  0.686158  1
  B  B28  1  0.500000  0.982008  0.210985  1
  B  B29  1  0.500000  0.017099  0.788605  1
  B  B30  1  0.500000  0.485634  0.286177  1
  B  B31  1  0.500000  0.517878  0.713559  1
  B  B32  1  0.500000  0.601250  0.027694  1
  B  B33  1  0.500000  0.399372  0.971514  1
  B  B34  1  0.500000  0.097102  0.472942  1
  B  B35  1  0.500000  0.899069  0.528351  1
