# generated using pymatgen
data_CaSm7SbPd24
_symmetry_space_group_name_H-M   'P 1'
_cell_length_a   8.47449713
_cell_length_b   8.47449713
_cell_length_c   8.47449713
_cell_angle_alpha   89.98555949
_cell_angle_beta   89.98555949
_cell_angle_gamma   90.01444051
_symmetry_Int_Tables_number   1
_chemical_formula_structural   CaSm7SbPd24
_chemical_formula_sum   'Ca1 Sm7 Sb1 Pd24'
_cell_volume   608.61376444
_cell_formula_units_Z   1
loop_
 _symmetry_equiv_pos_site_id
 _symmetry_equiv_pos_as_xyz
  1  'x, y, z'
loop_
 _atom_site_type_symbol
 _atom_site_label
 _atom_site_symmetry_multiplicity
 _atom_site_fract_x
 _atom_site_fract_y
 _atom_site_fract_z
 _atom_site_occupancy
  Ca  Ca0  1  0.747871  0.747871  0.252129  1
  Sm  Sm1  1  0.746431  0.253625  0.746375  1
  Sm  Sm2  1  0.253625  0.746431  0.746375  1
  Sm  Sm3  1  0.746386  0.746386  0.746335  1
  Sm  Sm4  1  0.746386  0.253665  0.253614  1
  Sm  Sm5  1  0.253451  0.253451  0.746549  1
  Sm  Sm6  1  0.253665  0.746386  0.253614  1
  Sm  Sm7  1  0.253625  0.253625  0.253569  1
  Sb  Sb8  1  0.999345  0.999345  0.000655  1
  Pd  Pd9  1  0.999946  0.999946  0.307932  1
  Pd  Pd10  1  0.734293  0.000574  0.500541  1
  Pd  Pd11  1  0.734293  0.499459  0.999426  1
  Pd  Pd12  1  0.499957  0.000200  0.734435  1
  Pd  Pd13  1  0.000574  0.734293  0.500541  1
  Pd  Pd14  1  0.499459  0.000574  0.265707  1
  Pd  Pd15  1  0.000200  0.265565  0.500043  1
  Pd  Pd16  1  0.499459  0.734293  0.999426  1
  Pd  Pd17  1  0.255137  0.499841  0.500159  1
  Pd  Pd18  1  0.499841  0.499841  0.744863  1
  Pd  Pd19  1  0.499462  0.499462  0.254942  1
  Pd  Pd20  1  0.499841  0.255137  0.500159  1
  Pd  Pd21  1  0.499462  0.745058  0.500538  1
  Pd  Pd22  1  0.745058  0.499462  0.500538  1
  Pd  Pd23  1  0.308362  0.999997  0.000003  1
  Pd  Pd24  1  0.999997  0.999997  0.691638  1
  Pd  Pd25  1  0.000574  0.499459  0.265707  1
  Pd  Pd26  1  0.999997  0.308362  0.000003  1
  Pd  Pd27  1  0.999946  0.692068  0.000054  1
  Pd  Pd28  1  0.692068  0.999946  0.000054  1
  Pd  Pd29  1  0.265565  0.499957  0.999800  1
  Pd  Pd30  1  0.265565  0.000200  0.500043  1
  Pd  Pd31  1  0.000200  0.499957  0.734435  1
  Pd  Pd32  1  0.499957  0.265565  0.999800  1
