# generated using pymatgen
data_Nb19Al9MoAu
_symmetry_space_group_name_H-M   'P 1'
_cell_length_a   9.97462710
_cell_length_b   9.97664139
_cell_length_c   5.21456100
_cell_angle_alpha   90.00000000
_cell_angle_beta   90.00000000
_cell_angle_gamma   90.51491782
_symmetry_Int_Tables_number   1
_chemical_formula_structural   Nb19Al9MoAu
_chemical_formula_sum   'Nb19 Al9 Mo1 Au1'
_cell_volume   518.89710081
_cell_formula_units_Z   1
loop_
 _symmetry_equiv_pos_site_id
 _symmetry_equiv_pos_as_xyz
  1  'x, y, z'
loop_
 _atom_site_type_symbol
 _atom_site_label
 _atom_site_symmetry_multiplicity
 _atom_site_fract_x
 _atom_site_fract_y
 _atom_site_fract_z
 _atom_site_occupancy
  Nb  Nb0  1  0.392594  0.397027  0.000000  1
  Nb  Nb1  1  0.897405  0.103970  0.500000  1
  Nb  Nb2  1  0.102807  0.896502  0.500000  1
  Nb  Nb3  1  0.601340  0.603151  0.000000  1
  Nb  Nb4  1  0.965211  0.373489  0.500000  1
  Nb  Nb5  1  0.037505  0.625523  0.500000  1
  Nb  Nb6  1  0.876020  0.531951  0.000000  1
  Nb  Nb7  1  0.371714  0.963904  0.500000  1
  Nb  Nb8  1  0.628427  0.036605  0.500000  1
  Nb  Nb9  1  0.464597  0.128982  0.000000  1
  Nb  Nb10  1  0.535366  0.870772  0.000000  1
  Nb  Nb11  1  0.182411  0.182723  0.252601  1
  Nb  Nb12  1  0.683272  0.316682  0.753978  1
  Nb  Nb13  1  0.316028  0.682848  0.753231  1
  Nb  Nb14  1  0.818139  0.818111  0.252370  1
  Nb  Nb15  1  0.316028  0.682848  0.246769  1
  Nb  Nb16  1  0.683272  0.316682  0.246022  1
  Nb  Nb17  1  0.182411  0.182723  0.747399  1
  Nb  Nb18  1  0.818139  0.818111  0.747630  1
  Al  Al19  1  0.000166  0.000223  0.000000  1
  Al  Al20  1  0.260913  0.933831  0.000000  1
  Al  Al21  1  0.433163  0.240224  0.500000  1
  Al  Al22  1  0.566162  0.759780  0.500000  1
  Al  Al23  1  0.739108  0.066358  0.000000  1
  Al  Al24  1  0.239045  0.433845  0.500000  1
  Al  Al25  1  0.760508  0.566392  0.500000  1
  Al  Al26  1  0.936219  0.262501  0.000000  1
  Al  Al27  1  0.066331  0.737290  0.000000  1
  Mo  Mo28  1  0.126764  0.467479  0.000000  1
  Au  Au29  1  0.498937  0.499472  0.500000  1
