# generated using pymatgen
data_Nd5Y5(GaSb)4
_symmetry_space_group_name_H-M   'P 1'
_cell_length_a   9.03882577
_cell_length_b   8.51813514
_cell_length_c   8.08093912
_cell_angle_alpha   90.14549856
_cell_angle_beta   90.10025871
_cell_angle_gamma   125.44488946
_symmetry_Int_Tables_number   1
_chemical_formula_structural   Nd5Y5(GaSb)4
_chemical_formula_sum   'Nd5 Y5 Ga4 Sb4'
_cell_volume   506.87079942
_cell_formula_units_Z   1
loop_
 _symmetry_equiv_pos_site_id
 _symmetry_equiv_pos_as_xyz
  1  'x, y, z'
loop_
 _atom_site_type_symbol
 _atom_site_label
 _atom_site_symmetry_multiplicity
 _atom_site_fract_x
 _atom_site_fract_y
 _atom_site_fract_z
 _atom_site_occupancy
  Nd  Nd0  1  0.054110  0.335659  0.320575  1
  Nd  Nd1  1  0.944233  0.662089  0.678395  1
  Nd  Nd2  1  0.445945  0.163590  0.818662  1
  Nd  Nd3  1  0.782688  0.526567  0.165202  1
  Nd  Nd4  1  0.556296  0.841265  0.181786  1
  Y  Y5  1  0.222772  0.477549  0.838787  1
  Y  Y6  1  0.720016  0.970887  0.662282  1
  Y  Y7  1  0.275144  0.023568  0.337982  1
  Y  Y8  1  0.003489  0.002797  0.996913  1
  Y  Y9  1  0.495855  0.496915  0.501738  1
  Ga  Ga10  1  0.374831  0.381596  0.123294  1
  Ga  Ga11  1  0.621747  0.619700  0.875388  1
  Ga  Ga12  1  0.122555  0.119353  0.623296  1
  Ga  Ga13  1  0.877725  0.882148  0.379116  1
  Sb  Sb14  1  0.817980  0.225328  0.967911  1
  Sb  Sb15  1  0.190998  0.779200  0.025342  1
  Sb  Sb16  1  0.679744  0.265146  0.474526  1
  Sb  Sb17  1  0.313871  0.726643  0.528805  1
