# generated using pymatgen
data_Cs2KGdBr6
_symmetry_space_group_name_H-M   'P 1'
_cell_length_a   8.53152810
_cell_length_b   8.53152900
_cell_length_c   8.53152886
_cell_angle_alpha   121.13805297
_cell_angle_beta   121.13805324
_cell_angle_gamma   88.03987759
_symmetry_Int_Tables_number   1
_chemical_formula_structural   Cs2KGdBr6
_chemical_formula_sum   'Cs2 K1 Gd1 Br6'
_cell_volume   431.27485642
_cell_formula_units_Z   1
loop_
 _symmetry_equiv_pos_site_id
 _symmetry_equiv_pos_as_xyz
  1  'x, y, z'
loop_
 _atom_site_type_symbol
 _atom_site_label
 _atom_site_symmetry_multiplicity
 _atom_site_fract_x
 _atom_site_fract_y
 _atom_site_fract_z
 _atom_site_occupancy
  Cs  Cs0  1  0.749999  0.250000  0.500000  1
  Cs  Cs1  1  0.250000  0.749999  0.500000  1
  K  K2  1  0.500000  0.500000  0.000000  1
  Gd  Gd3  1  0.000000  0.000000  0.000000  1
  Br  Br4  1  0.232460  0.232460  0.000000  1
  Br  Br5  1  0.767540  0.767540  0.000000  1
  Br  Br6  1  0.295527  0.834167  0.129694  1
  Br  Br7  1  0.165832  0.295526  0.461358  1
  Br  Br8  1  0.834167  0.704474  0.538641  1
  Br  Br9  1  0.704473  0.165832  0.870305  1
