# generated using pymatgen
data_Tb5HoAl21Si3Os8
_symmetry_space_group_name_H-M   'P 1'
_cell_length_a   8.71725401
_cell_length_b   8.71728036
_cell_length_c   9.64697000
_cell_angle_alpha   89.99697846
_cell_angle_beta   90.00307630
_cell_angle_gamma   120.00281631
_symmetry_Int_Tables_number   1
_chemical_formula_structural   Tb5HoAl21Si3Os8
_chemical_formula_sum   'Tb5 Ho1 Al21 Si3 Os8'
_cell_volume   634.84828130
_cell_formula_units_Z   1
loop_
 _symmetry_equiv_pos_site_id
 _symmetry_equiv_pos_as_xyz
  1  'x, y, z'
loop_
 _atom_site_type_symbol
 _atom_site_label
 _atom_site_symmetry_multiplicity
 _atom_site_fract_x
 _atom_site_fract_y
 _atom_site_fract_z
 _atom_site_occupancy
  Tb  Tb0  1  0.194614  0.389272  0.247560  1
  Tb  Tb1  1  0.804862  0.609490  0.752761  1
  Tb  Tb2  1  0.610727  0.805386  0.247559  1
  Tb  Tb3  1  0.390511  0.195136  0.752763  1
  Tb  Tb4  1  0.194652  0.805351  0.247552  1
  Ho  Ho5  1  0.804262  0.195739  0.752833  1
  Al  Al6  1  0.333339  0.666660  0.476278  1
  Al  Al7  1  0.164141  0.328528  0.574118  1
  Al  Al8  1  0.835006  0.670000  0.423902  1
  Al  Al9  1  0.671473  0.835858  0.574118  1
  Al  Al10  1  0.834845  0.669675  0.076422  1
  Al  Al11  1  0.329999  0.164995  0.423902  1
  Al  Al12  1  0.165379  0.331022  0.922922  1
  Al  Al13  1  0.164300  0.835699  0.574069  1
  Al  Al14  1  0.330325  0.165156  0.076423  1
  Al  Al15  1  0.834989  0.165013  0.424018  1
  Al  Al16  1  0.668979  0.834620  0.922922  1
  Al  Al17  1  0.834831  0.165171  0.076268  1
  Al  Al18  1  0.165548  0.834450  0.922973  1
  Al  Al19  1  0.563674  0.127334  0.248861  1
  Al  Al20  1  0.436993  0.873622  0.748840  1
  Al  Al21  1  0.872667  0.436327  0.248861  1
  Al  Al22  1  0.126377  0.563006  0.748841  1
  Al  Al23  1  0.563682  0.436319  0.248858  1
  Al  Al24  1  0.436638  0.563361  0.748846  1
  Al  Al25  1  0.000000  0.000001  0.248725  1
  Al  Al26  1  0.999845  0.000155  0.749336  1
  Si  Si27  1  0.333343  0.666655  0.039140  1
  Si  Si28  1  0.666881  0.333120  0.961939  1
  Si  Si29  1  0.666863  0.333138  0.539327  1
  Os  Os30  1  0.500199  0.000023  0.998767  1
  Os  Os31  1  0.999976  0.499799  0.998767  1
  Os  Os32  1  0.504550  0.008725  0.501648  1
  Os  Os33  1  0.499979  0.500018  0.998902  1
  Os  Os34  1  0.991276  0.495451  0.501646  1
  Os  Os35  1  0.504351  0.495649  0.501500  1
  Os  Os36  1  0.999960  0.000041  0.998674  1
  Os  Os37  1  0.999966  0.000035  0.499159  1
