# generated using pymatgen
data_Ca3Nd(Si3Pd5)4
_symmetry_space_group_name_H-M   'P 1'
_cell_length_a   4.04154900
_cell_length_b   19.79440783
_cell_length_c   7.31535435
_cell_angle_alpha   89.84572369
_cell_angle_beta   90.00000000
_cell_angle_gamma   90.00000000
_symmetry_Int_Tables_number   1
_chemical_formula_structural   Ca3Nd(Si3Pd5)4
_chemical_formula_sum   'Ca3 Nd1 Si12 Pd20'
_cell_volume   585.22673293
_cell_formula_units_Z   1
loop_
 _symmetry_equiv_pos_site_id
 _symmetry_equiv_pos_as_xyz
  1  'x, y, z'
loop_
 _atom_site_type_symbol
 _atom_site_label
 _atom_site_symmetry_multiplicity
 _atom_site_fract_x
 _atom_site_fract_y
 _atom_site_fract_z
 _atom_site_occupancy
  Ca  Ca0  1  0.750000  0.643004  0.122330  1
  Ca  Ca1  1  0.250000  0.356625  0.877730  1
  Ca  Ca2  1  0.250000  0.857253  0.622169  1
  Nd  Nd3  1  0.750000  0.143365  0.376544  1
  Si  Si4  1  0.750000  0.739291  0.628065  1
  Si  Si5  1  0.250000  0.261230  0.371292  1
  Si  Si6  1  0.250000  0.760928  0.128188  1
  Si  Si7  1  0.750000  0.239190  0.872121  1
  Si  Si8  1  0.750000  0.923767  0.348215  1
  Si  Si9  1  0.250000  0.076135  0.651649  1
  Si  Si10  1  0.250000  0.576419  0.848332  1
  Si  Si11  1  0.750000  0.423689  0.152018  1
  Si  Si12  1  0.750000  0.915796  0.908565  1
  Si  Si13  1  0.250000  0.083852  0.092768  1
  Si  Si14  1  0.250000  0.583751  0.407591  1
  Si  Si15  1  0.750000  0.415989  0.591520  1
  Pd  Pd16  1  0.750000  0.799609  0.327054  1
  Pd  Pd17  1  0.250000  0.200384  0.674420  1
  Pd  Pd18  1  0.250000  0.700021  0.827389  1
  Pd  Pd19  1  0.750000  0.300248  0.172541  1
  Pd  Pd20  1  0.750000  0.992349  0.626760  1
  Pd  Pd21  1  0.250000  0.006805  0.374039  1
  Pd  Pd22  1  0.250000  0.506958  0.125828  1
  Pd  Pd23  1  0.750000  0.493191  0.873780  1
  Pd  Pd24  1  0.750000  0.512523  0.377380  1
  Pd  Pd25  1  0.250000  0.487329  0.622926  1
  Pd  Pd26  1  0.250000  0.987396  0.877043  1
  Pd  Pd27  1  0.750000  0.011647  0.120679  1
  Pd  Pd28  1  0.750000  0.796395  0.931914  1
  Pd  Pd29  1  0.250000  0.204371  0.067151  1
  Pd  Pd30  1  0.250000  0.703617  0.432670  1
  Pd  Pd31  1  0.750000  0.296896  0.570229  1
  Pd  Pd32  1  0.750000  0.616572  0.642527  1
  Pd  Pd33  1  0.250000  0.383760  0.356553  1
  Pd  Pd34  1  0.250000  0.883481  0.143592  1
  Pd  Pd35  1  0.750000  0.116162  0.856429  1
