# generated using pymatgen
data_KRb3HgCl6
_symmetry_space_group_name_H-M   'P 1'
_cell_length_a   8.97376226
_cell_length_b   8.97376155
_cell_length_c   8.97376193
_cell_angle_alpha   90.86669653
_cell_angle_beta   90.86669825
_cell_angle_gamma   90.86669616
_symmetry_Int_Tables_number   1
_chemical_formula_structural   KRb3HgCl6
_chemical_formula_sum   'K2 Rb6 Hg2 Cl12'
_cell_volume   722.39215924
_cell_formula_units_Z   2
loop_
 _symmetry_equiv_pos_site_id
 _symmetry_equiv_pos_as_xyz
  1  'x, y, z'
loop_
 _atom_site_type_symbol
 _atom_site_label
 _atom_site_symmetry_multiplicity
 _atom_site_fract_x
 _atom_site_fract_y
 _atom_site_fract_z
 _atom_site_occupancy
  K  K0  1  0.250000  0.250000  0.250000  1
  K  K1  1  0.750000  0.750000  0.750000  1
  Rb  Rb2  1  0.372317  0.127683  0.750000  1
  Rb  Rb3  1  0.127683  0.750000  0.372317  1
  Rb  Rb4  1  0.750000  0.372317  0.127683  1
  Rb  Rb5  1  0.627683  0.872317  0.250000  1
  Rb  Rb6  1  0.250000  0.627683  0.872317  1
  Rb  Rb7  1  0.872317  0.250000  0.627683  1
  Hg  Hg8  1  0.000000  0.000000  0.000000  1
  Hg  Hg9  1  0.500000  0.500000  0.500000  1
  Cl  Cl10  1  0.948080  0.075808  0.290906  1
  Cl  Cl11  1  0.075808  0.290906  0.948080  1
  Cl  Cl12  1  0.290906  0.948080  0.075808  1
  Cl  Cl13  1  0.575808  0.448080  0.790906  1
  Cl  Cl14  1  0.790906  0.575808  0.448080  1
  Cl  Cl15  1  0.448080  0.790906  0.575808  1
  Cl  Cl16  1  0.209094  0.424192  0.551920  1
  Cl  Cl17  1  0.424192  0.551920  0.209094  1
  Cl  Cl18  1  0.551920  0.209094  0.424192  1
  Cl  Cl19  1  0.924192  0.709094  0.051920  1
  Cl  Cl20  1  0.051920  0.924192  0.709094  1
  Cl  Cl21  1  0.709094  0.051920  0.924192  1
