# generated using pymatgen
data_MnBe6Si6Ru11
_symmetry_space_group_name_H-M   'P 1'
_cell_length_a   4.03624502
_cell_length_b   5.74515604
_cell_length_c   12.16309513
_cell_angle_alpha   89.98705972
_cell_angle_beta   90.01099588
_cell_angle_gamma   90.00386592
_symmetry_Int_Tables_number   1
_chemical_formula_structural   MnBe6Si6Ru11
_chemical_formula_sum   'Mn1 Be6 Si6 Ru11'
_cell_volume   282.04826630
_cell_formula_units_Z   1
loop_
 _symmetry_equiv_pos_site_id
 _symmetry_equiv_pos_as_xyz
  1  'x, y, z'
loop_
 _atom_site_type_symbol
 _atom_site_label
 _atom_site_symmetry_multiplicity
 _atom_site_fract_x
 _atom_site_fract_y
 _atom_site_fract_z
 _atom_site_occupancy
  Mn  Mn0  1  0.499840  0.252864  0.999705  1
  Be  Be1  1  0.999944  0.519216  0.000027  1
  Be  Be2  1  0.499855  0.991540  0.170275  1
  Be  Be3  1  0.999882  0.496207  0.332459  1
  Be  Be4  1  0.500033  0.006631  0.500056  1
  Be  Be5  1  0.000147  0.496260  0.667641  1
  Be  Be6  1  0.500185  0.991319  0.829616  1
  Si  Si7  1  0.999912  0.982212  0.000035  1
  Si  Si8  1  0.499895  0.506570  0.170874  1
  Si  Si9  1  0.999906  0.005389  0.331151  1
  Si  Si10  1  0.500018  0.492185  0.500077  1
  Si  Si11  1  0.000130  0.005342  0.668940  1
  Si  Si12  1  0.500160  0.506909  0.828932  1
  Ru  Ru13  1  0.499965  0.747312  0.000006  1
  Ru  Ru14  1  0.999883  0.250785  0.155363  1
  Ru  Ru15  1  0.999902  0.750163  0.168251  1
  Ru  Ru16  1  0.499926  0.249196  0.330852  1
  Ru  Ru17  1  0.499961  0.749959  0.336873  1
  Ru  Ru18  1  0.000027  0.248813  0.500027  1
  Ru  Ru19  1  0.000023  0.750918  0.499990  1
  Ru  Ru20  1  0.500089  0.249148  0.669198  1
  Ru  Ru21  1  0.500082  0.750040  0.663128  1
  Ru  Ru22  1  0.000130  0.250823  0.844666  1
  Ru  Ru23  1  0.000113  0.750209  0.831857  1
