# generated using pymatgen
data_CeDyFeCo16
_symmetry_space_group_name_H-M   'P 1'
_cell_length_a   6.27409756
_cell_length_b   6.27409649
_cell_length_c   6.27409700
_cell_angle_alpha   83.03595513
_cell_angle_beta   83.03595631
_cell_angle_gamma   83.03594393
_symmetry_Int_Tables_number   1
_chemical_formula_structural   CeDyFeCo16
_chemical_formula_sum   'Ce1 Dy1 Fe1 Co16'
_cell_volume   241.91774750
_cell_formula_units_Z   1
loop_
 _symmetry_equiv_pos_site_id
 _symmetry_equiv_pos_as_xyz
  1  'x, y, z'
loop_
 _atom_site_type_symbol
 _atom_site_label
 _atom_site_symmetry_multiplicity
 _atom_site_fract_x
 _atom_site_fract_y
 _atom_site_fract_z
 _atom_site_occupancy
  Ce  Ce0  1  0.651983  0.651983  0.651983  1
  Dy  Dy1  1  0.344179  0.344179  0.344179  1
  Fe  Fe2  1  0.095974  0.095974  0.095974  1
  Co  Co3  1  0.348457  0.847380  0.348457  1
  Co  Co4  1  0.348457  0.348457  0.847380  1
  Co  Co5  1  0.847380  0.348457  0.348457  1
  Co  Co6  1  0.653992  0.143696  0.653992  1
  Co  Co7  1  0.653992  0.653992  0.143696  1
  Co  Co8  1  0.143696  0.653992  0.653992  1
  Co  Co9  1  0.713217  0.289155  0.999314  1
  Co  Co10  1  0.999314  0.713217  0.289155  1
  Co  Co11  1  0.289155  0.999314  0.713217  1
  Co  Co12  1  0.999314  0.289155  0.713217  1
  Co  Co13  1  0.713217  0.999314  0.289155  1
  Co  Co14  1  0.289155  0.713217  0.999314  1
  Co  Co15  1  0.003286  0.003286  0.500607  1
  Co  Co16  1  0.500607  0.003286  0.003286  1
  Co  Co17  1  0.003286  0.500607  0.003286  1
  Co  Co18  1  0.901340  0.901340  0.901340  1
