# generated using pymatgen
data_Zr3V(SiRh5)2
_symmetry_space_group_name_H-M   'P 1'
_cell_length_a   4.01611600
_cell_length_b   5.55095620
_cell_length_c   10.80647954
_cell_angle_alpha   89.50924086
_cell_angle_beta   90.00000000
_cell_angle_gamma   90.00000000
_symmetry_Int_Tables_number   1
_chemical_formula_structural   Zr3V(SiRh5)2
_chemical_formula_sum   'Zr3 V1 Si2 Rh10'
_cell_volume   240.90308010
_cell_formula_units_Z   1
loop_
 _symmetry_equiv_pos_site_id
 _symmetry_equiv_pos_as_xyz
  1  'x, y, z'
loop_
 _atom_site_type_symbol
 _atom_site_label
 _atom_site_symmetry_multiplicity
 _atom_site_fract_x
 _atom_site_fract_y
 _atom_site_fract_z
 _atom_site_occupancy
  Zr  Zr0  1  0.500000  0.177454  0.641749  1
  Zr  Zr1  1  0.500000  0.829190  0.357983  1
  Zr  Zr2  1  0.500000  0.673816  0.862092  1
  V  V3  1  0.500000  0.337863  0.145401  1
  Si  Si4  1  0.000000  0.498791  0.497111  1
  Si  Si5  1  0.000000  0.000920  0.002186  1
  Rh  Rh6  1  0.500000  0.322396  0.387271  1
  Rh  Rh7  1  0.500000  0.679273  0.601744  1
  Rh  Rh8  1  0.500000  0.805272  0.104193  1
  Rh  Rh9  1  0.500000  0.179282  0.906040  1
  Rh  Rh10  1  0.000000  0.429382  0.744795  1
  Rh  Rh11  1  0.000000  0.568993  0.253760  1
  Rh  Rh12  1  0.000000  0.929347  0.760141  1
  Rh  Rh13  1  0.000000  0.089050  0.227544  1
  Rh  Rh14  1  0.000000  0.473672  0.010659  1
  Rh  Rh15  1  0.000000  0.005300  0.497330  1
