# generated using pymatgen
data_Ba6Ca(SbO6)2
_symmetry_space_group_name_H-M   'P 1'
_cell_length_a   9.46193914
_cell_length_b   9.46193816
_cell_length_c   7.44105715
_cell_angle_alpha   67.69733610
_cell_angle_beta   67.69733401
_cell_angle_gamma   36.90923071
_symmetry_Int_Tables_number   1
_chemical_formula_structural   Ba6Ca(SbO6)2
_chemical_formula_sum   'Ba6 Ca1 Sb2 O12'
_cell_volume   366.66369481
_cell_formula_units_Z   1
loop_
 _symmetry_equiv_pos_site_id
 _symmetry_equiv_pos_as_xyz
  1  'x, y, z'
loop_
 _atom_site_type_symbol
 _atom_site_label
 _atom_site_symmetry_multiplicity
 _atom_site_fract_x
 _atom_site_fract_y
 _atom_site_fract_z
 _atom_site_occupancy
  Ba  Ba0  1  0.208038  0.208038  0.705747  1
  Ba  Ba1  1  0.886101  0.886101  0.710854  1
  Ba  Ba2  1  0.549187  0.549187  0.710560  1
  Ba  Ba3  1  0.791962  0.791962  0.294253  1
  Ba  Ba4  1  0.450813  0.450813  0.289440  1
  Ba  Ba5  1  0.113899  0.113899  0.289146  1
  Ca  Ca6  1  0.000000  0.000000  0.000000  1
  Sb  Sb7  1  0.668428  0.668428  0.000317  1
  Sb  Sb8  1  0.331572  0.331572  0.999683  1
  O  O9  1  0.278846  0.278846  0.297955  1
  O  O10  1  0.939000  0.939000  0.341741  1
  O  O11  1  0.622533  0.622533  0.297570  1
  O  O12  1  0.721154  0.721154  0.702045  1
  O  O13  1  0.377467  0.377467  0.702430  1
  O  O14  1  0.061000  0.061000  0.658259  1
  O  O15  1  0.000000  0.500000  0.000000  1
  O  O16  1  0.641866  0.176855  0.002849  1
  O  O17  1  0.358134  0.823145  0.997151  1
  O  O18  1  0.500000  0.000000  0.000000  1
  O  O19  1  0.176855  0.641866  0.002849  1
  O  O20  1  0.823145  0.358134  0.997151  1
