# generated using pymatgen
data_Pr3Nd5(InIr)2
_symmetry_space_group_name_H-M   'P 1'
_cell_length_a   9.99112916
_cell_length_b   9.99112887
_cell_length_c   9.99112900
_cell_angle_alpha   60.00000289
_cell_angle_beta   60.00000384
_cell_angle_gamma   60.00000544
_symmetry_Int_Tables_number   1
_chemical_formula_structural   Pr3Nd5(InIr)2
_chemical_formula_sum   'Pr6 Nd10 In4 Ir4'
_cell_volume   705.22669407
_cell_formula_units_Z   2
loop_
 _symmetry_equiv_pos_site_id
 _symmetry_equiv_pos_as_xyz
  1  'x, y, z'
loop_
 _atom_site_type_symbol
 _atom_site_label
 _atom_site_symmetry_multiplicity
 _atom_site_fract_x
 _atom_site_fract_y
 _atom_site_fract_z
 _atom_site_occupancy
  Pr  Pr0  1  0.939997  0.560003  0.560003  1
  Pr  Pr1  1  0.560003  0.939997  0.939997  1
  Pr  Pr2  1  0.560003  0.939997  0.560003  1
  Pr  Pr3  1  0.939997  0.560003  0.939997  1
  Pr  Pr4  1  0.560003  0.560003  0.939997  1
  Pr  Pr5  1  0.939997  0.939997  0.560003  1
  Nd  Nd6  1  0.348531  0.348531  0.348531  1
  Nd  Nd7  1  0.348531  0.348531  0.954406  1
  Nd  Nd8  1  0.348531  0.954406  0.348531  1
  Nd  Nd9  1  0.954406  0.348531  0.348531  1
  Nd  Nd10  1  0.808443  0.191557  0.191557  1
  Nd  Nd11  1  0.191557  0.808443  0.808443  1
  Nd  Nd12  1  0.191557  0.808443  0.191557  1
  Nd  Nd13  1  0.808443  0.191557  0.808443  1
  Nd  Nd14  1  0.191557  0.191557  0.808443  1
  Nd  Nd15  1  0.808443  0.808443  0.191557  1
  In  In16  1  0.580276  0.580276  0.580276  1
  In  In17  1  0.580276  0.580276  0.259171  1
  In  In18  1  0.580276  0.259171  0.580276  1
  In  In19  1  0.259171  0.580276  0.580276  1
  Ir  Ir20  1  0.141638  0.141638  0.141638  1
  Ir  Ir21  1  0.141638  0.141638  0.575086  1
  Ir  Ir22  1  0.141638  0.575086  0.141638  1
  Ir  Ir23  1  0.575086  0.141638  0.141638  1
