# generated using pymatgen
data_Ba4NiAs12Rh13
_symmetry_space_group_name_H-M   'P 1'
_cell_length_a   11.82914100
_cell_length_b   11.82914100
_cell_length_c   4.29969000
_cell_angle_alpha   90.00000000
_cell_angle_beta   90.00000000
_cell_angle_gamma   90.00000000
_symmetry_Int_Tables_number   1
_chemical_formula_structural   Ba4NiAs12Rh13
_chemical_formula_sum   'Ba4 Ni1 As12 Rh13'
_cell_volume   601.64950237
_cell_formula_units_Z   1
loop_
 _symmetry_equiv_pos_site_id
 _symmetry_equiv_pos_as_xyz
  1  'x, y, z'
loop_
 _atom_site_type_symbol
 _atom_site_label
 _atom_site_symmetry_multiplicity
 _atom_site_fract_x
 _atom_site_fract_y
 _atom_site_fract_z
 _atom_site_occupancy
  Ba  Ba0  1  0.152153  0.651744  0.752706  1
  Ba  Ba1  1  0.348256  0.152153  0.247294  1
  Ba  Ba2  1  0.651744  0.847847  0.247294  1
  Ba  Ba3  1  0.847847  0.348256  0.752706  1
  Ni  Ni4  1  0.000000  0.000000  0.000000  1
  As  As5  1  0.866787  0.112033  0.273603  1
  As  As6  1  0.364976  0.383436  0.716901  1
  As  As7  1  0.585932  0.082194  0.775379  1
  As  As8  1  0.635024  0.616564  0.716901  1
  As  As9  1  0.616564  0.364976  0.283099  1
  As  As10  1  0.082194  0.414068  0.224621  1
  As  As11  1  0.383436  0.635024  0.283099  1
  As  As12  1  0.917806  0.585932  0.224621  1
  As  As13  1  0.112033  0.133213  0.726397  1
  As  As14  1  0.414068  0.917806  0.775379  1
  As  As15  1  0.133213  0.887967  0.273603  1
  As  As16  1  0.887967  0.866787  0.726397  1
  Rh  Rh17  1  0.548948  0.282418  0.768793  1
  Rh  Rh18  1  0.047515  0.212586  0.233477  1
  Rh  Rh19  1  0.717582  0.548948  0.231207  1
  Rh  Rh20  1  0.282418  0.451052  0.231207  1
  Rh  Rh21  1  0.334296  0.836975  0.272777  1
  Rh  Rh22  1  0.836975  0.665704  0.727223  1
  Rh  Rh23  1  0.952485  0.787414  0.233477  1
  Rh  Rh24  1  0.212586  0.952485  0.766523  1
  Rh  Rh25  1  0.787414  0.047515  0.766523  1
  Rh  Rh26  1  0.163025  0.334296  0.727223  1
  Rh  Rh27  1  0.451052  0.717582  0.768793  1
  Rh  Rh28  1  0.500000  0.500000  0.000000  1
  Rh  Rh29  1  0.665704  0.163025  0.272777  1
