# generated using pymatgen
data_Y5HoTh2MgHgRu2
_symmetry_space_group_name_H-M   'P 1'
_cell_length_a   9.72397778
_cell_length_b   9.72350825
_cell_length_c   9.73192788
_cell_angle_alpha   59.99398485
_cell_angle_beta   60.02135967
_cell_angle_gamma   60.16688201
_symmetry_Int_Tables_number   1
_chemical_formula_structural   Y5HoTh2MgHgRu2
_chemical_formula_sum   'Y10 Ho2 Th4 Mg2 Hg2 Ru4'
_cell_volume   651.54738402
_cell_formula_units_Z   2
loop_
 _symmetry_equiv_pos_site_id
 _symmetry_equiv_pos_as_xyz
  1  'x, y, z'
loop_
 _atom_site_type_symbol
 _atom_site_label
 _atom_site_symmetry_multiplicity
 _atom_site_fract_x
 _atom_site_fract_y
 _atom_site_fract_z
 _atom_site_occupancy
  Y  Y0  1  0.811447  0.187596  0.188268  1
  Y  Y1  1  0.186419  0.811928  0.812318  1
  Y  Y2  1  0.187593  0.811440  0.188267  1
  Y  Y3  1  0.811949  0.186415  0.812308  1
  Y  Y4  1  0.187238  0.187238  0.812216  1
  Y  Y5  1  0.809210  0.809196  0.189167  1
  Y  Y6  1  0.932500  0.563672  0.565039  1
  Y  Y7  1  0.562866  0.933129  0.938228  1
  Y  Y8  1  0.563675  0.932493  0.565035  1
  Y  Y9  1  0.933145  0.562856  0.938220  1
  Ho  Ho10  1  0.563446  0.563460  0.936286  1
  Ho  Ho11  1  0.936468  0.936447  0.562799  1
  Th  Th12  1  0.346333  0.346392  0.345797  1
  Th  Th13  1  0.346812  0.346853  0.960304  1
  Th  Th14  1  0.348445  0.957371  0.347203  1
  Th  Th15  1  0.957405  0.348465  0.347174  1
  Mg  Mg16  1  0.579973  0.270318  0.574531  1
  Mg  Mg17  1  0.270309  0.579981  0.574555  1
  Hg  Hg18  1  0.582835  0.582831  0.590020  1
  Hg  Hg19  1  0.581536  0.581535  0.247365  1
  Ru  Ru20  1  0.143410  0.143403  0.145056  1
  Ru  Ru21  1  0.144965  0.144960  0.568081  1
  Ru  Ru22  1  0.144844  0.567173  0.145883  1
  Ru  Ru23  1  0.567176  0.144847  0.145881  1
