# generated using pymatgen
data_Ac(BiS2)3
_symmetry_space_group_name_H-M   'P 1'
_cell_length_a   4.06488200
_cell_length_b   11.61343714
_cell_length_c   11.75010200
_cell_angle_alpha   72.67507316
_cell_angle_beta   90.00000000
_cell_angle_gamma   90.00000000
_symmetry_Int_Tables_number   1
_chemical_formula_structural   Ac(BiS2)3
_chemical_formula_sum   'Ac2 Bi6 S12'
_cell_volume   529.52447551
_cell_formula_units_Z   2
loop_
 _symmetry_equiv_pos_site_id
 _symmetry_equiv_pos_as_xyz
  1  'x, y, z'
loop_
 _atom_site_type_symbol
 _atom_site_label
 _atom_site_symmetry_multiplicity
 _atom_site_fract_x
 _atom_site_fract_y
 _atom_site_fract_z
 _atom_site_occupancy
  Ac  Ac0  1  0.750000  0.545630  0.806739  1
  Ac  Ac1  1  0.250000  0.454370  0.193261  1
  Bi  Bi2  1  0.750000  0.187066  0.017554  1
  Bi  Bi3  1  0.250000  0.812934  0.982446  1
  Bi  Bi4  1  0.750000  0.941889  0.664768  1
  Bi  Bi5  1  0.250000  0.058111  0.335232  1
  Bi  Bi6  1  0.750000  0.654800  0.405888  1
  Bi  Bi7  1  0.250000  0.345200  0.594112  1
  S  S8  1  0.750000  0.973931  0.884847  1
  S  S9  1  0.250000  0.026069  0.115153  1
  S  S10  1  0.750000  0.302473  0.749751  1
  S  S11  1  0.250000  0.697527  0.250249  1
  S  S12  1  0.750000  0.900533  0.424805  1
  S  S13  1  0.250000  0.099467  0.575195  1
  S  S14  1  0.750000  0.423525  0.396915  1
  S  S15  1  0.250000  0.576475  0.603085  1
  S  S16  1  0.750000  0.244802  0.224023  1
  S  S17  1  0.250000  0.755198  0.775977  1
  S  S18  1  0.750000  0.617349  0.036003  1
  S  S19  1  0.250000  0.382651  0.963997  1
