# generated using pymatgen
data_AcAl3NiIr
_symmetry_space_group_name_H-M   'P 1'
_cell_length_a   6.56696078
_cell_length_b   6.56696169
_cell_length_c   5.39319601
_cell_angle_alpha   90.00552911
_cell_angle_beta   90.00553120
_cell_angle_gamma   105.21098909
_symmetry_Int_Tables_number   1
_chemical_formula_structural   AcAl3NiIr
_chemical_formula_sum   'Ac2 Al6 Ni2 Ir2'
_cell_volume   224.43325167
_cell_formula_units_Z   2
loop_
 _symmetry_equiv_pos_site_id
 _symmetry_equiv_pos_as_xyz
  1  'x, y, z'
loop_
 _atom_site_type_symbol
 _atom_site_label
 _atom_site_symmetry_multiplicity
 _atom_site_fract_x
 _atom_site_fract_y
 _atom_site_fract_z
 _atom_site_occupancy
  Ac  Ac0  1  0.654924  0.654924  0.244161  1
  Ac  Ac1  1  0.345076  0.345076  0.755839  1
  Al  Al2  1  0.064123  0.064123  0.255703  1
  Al  Al3  1  0.935877  0.935877  0.744297  1
  Al  Al4  1  0.079603  0.473998  0.257843  1
  Al  Al5  1  0.920397  0.526002  0.742157  1
  Al  Al6  1  0.473998  0.079603  0.257843  1
  Al  Al7  1  0.526002  0.920397  0.742157  1
  Ni  Ni8  1  0.198819  0.801181  0.500000  1
  Ni  Ni9  1  0.801181  0.198819  0.500000  1
  Ir  Ir10  1  0.799625  0.200375  0.000000  1
  Ir  Ir11  1  0.200375  0.799625  0.000000  1
