# generated using pymatgen
data_Tm4Al4GaTc3
_symmetry_space_group_name_H-M   'P 1'
_cell_length_a   5.46536700
_cell_length_b   5.49586328
_cell_length_c   8.72970400
_cell_angle_alpha   90.00000000
_cell_angle_beta   90.00000000
_cell_angle_gamma   120.18473713
_symmetry_Int_Tables_number   1
_chemical_formula_structural   Tm4Al4GaTc3
_chemical_formula_sum   'Tm4 Al4 Ga1 Tc3'
_cell_volume   226.65950324
_cell_formula_units_Z   1
loop_
 _symmetry_equiv_pos_site_id
 _symmetry_equiv_pos_as_xyz
  1  'x, y, z'
loop_
 _atom_site_type_symbol
 _atom_site_label
 _atom_site_symmetry_multiplicity
 _atom_site_fract_x
 _atom_site_fract_y
 _atom_site_fract_z
 _atom_site_occupancy
  Tm  Tm0  1  0.335815  0.667907  0.442360  1
  Tm  Tm1  1  0.663909  0.331954  0.554249  1
  Tm  Tm2  1  0.663909  0.331954  0.945751  1
  Tm  Tm3  1  0.335815  0.667907  0.057640  1
  Al  Al4  1  0.841289  0.165124  0.250000  1
  Al  Al5  1  0.841289  0.676165  0.250000  1
  Al  Al6  1  0.184427  0.841980  0.750000  1
  Al  Al7  1  0.184427  0.342447  0.750000  1
  Ga  Ga8  1  0.329754  0.164877  0.250000  1
  Tc  Tc9  1  0.972370  0.986184  0.510775  1
  Tc  Tc10  1  0.972370  0.986184  0.989225  1
  Tc  Tc11  1  0.674632  0.837316  0.750000  1
