# generated using pymatgen
data_YLu2(GaNi2)3
_symmetry_space_group_name_H-M   'P 1'
_cell_length_a   5.16923200
_cell_length_b   5.16923130
_cell_length_c   15.88824800
_cell_angle_alpha   90.00000000
_cell_angle_beta   90.00000000
_cell_angle_gamma   119.99999168
_symmetry_Int_Tables_number   1
_chemical_formula_structural   YLu2(GaNi2)3
_chemical_formula_sum   'Y2 Lu4 Ga6 Ni12'
_cell_volume   367.67040018
_cell_formula_units_Z   2
loop_
 _symmetry_equiv_pos_site_id
 _symmetry_equiv_pos_as_xyz
  1  'x, y, z'
loop_
 _atom_site_type_symbol
 _atom_site_label
 _atom_site_symmetry_multiplicity
 _atom_site_fract_x
 _atom_site_fract_y
 _atom_site_fract_z
 _atom_site_occupancy
  Y  Y0  1  0.333333  0.666667  0.750000  1
  Y  Y1  1  0.666667  0.333333  0.250000  1
  Lu  Lu2  1  0.333333  0.666667  0.542175  1
  Lu  Lu3  1  0.666667  0.333333  0.457825  1
  Lu  Lu4  1  0.666667  0.333333  0.042175  1
  Lu  Lu5  1  0.333333  0.666667  0.957825  1
  Ga  Ga6  1  0.000000  0.000000  0.250000  1
  Ga  Ga7  1  0.000000  0.000000  0.750000  1
  Ga  Ga8  1  0.333333  0.666667  0.250000  1
  Ga  Ga9  1  0.666667  0.333333  0.750000  1
  Ga  Ga10  1  0.000000  0.000000  0.000000  1
  Ga  Ga11  1  0.000000  0.000000  0.500000  1
  Ni  Ni12  1  0.168594  0.337187  0.125230  1
  Ni  Ni13  1  0.831406  0.662813  0.874770  1
  Ni  Ni14  1  0.662813  0.831406  0.125230  1
  Ni  Ni15  1  0.831406  0.662813  0.625230  1
  Ni  Ni16  1  0.337187  0.168594  0.874770  1
  Ni  Ni17  1  0.168594  0.337187  0.374770  1
  Ni  Ni18  1  0.168594  0.831406  0.125230  1
  Ni  Ni19  1  0.337187  0.168594  0.625230  1
  Ni  Ni20  1  0.831406  0.168594  0.874770  1
  Ni  Ni21  1  0.662813  0.831406  0.374770  1
  Ni  Ni22  1  0.831406  0.168594  0.625230  1
  Ni  Ni23  1  0.168594  0.831406  0.374770  1
