# generated using pymatgen
data_Li3TbDy2CdSi2
_symmetry_space_group_name_H-M   'P 1'
_cell_length_a   7.25048455
_cell_length_b   7.25048538
_cell_length_c   4.20128000
_cell_angle_alpha   90.00000000
_cell_angle_beta   90.00000000
_cell_angle_gamma   120.10573898
_symmetry_Int_Tables_number   1
_chemical_formula_structural   Li3TbDy2CdSi2
_chemical_formula_sum   'Li3 Tb1 Dy2 Cd1 Si2'
_cell_volume   191.06566266
_cell_formula_units_Z   1
loop_
 _symmetry_equiv_pos_site_id
 _symmetry_equiv_pos_as_xyz
  1  'x, y, z'
loop_
 _atom_site_type_symbol
 _atom_site_label
 _atom_site_symmetry_multiplicity
 _atom_site_fract_x
 _atom_site_fract_y
 _atom_site_fract_z
 _atom_site_occupancy
  Li  Li0  1  0.252622  0.999684  0.500000  1
  Li  Li1  1  0.747651  0.747651  0.500000  1
  Li  Li2  1  0.999684  0.252622  0.500000  1
  Tb  Tb3  1  0.436247  0.436247  0.000000  1
  Dy  Dy4  1  0.999939  0.563661  0.000000  1
  Dy  Dy5  1  0.563661  0.999939  0.000000  1
  Cd  Cd6  1  0.999683  0.999683  0.000000  1
  Si  Si7  1  0.333153  0.667361  0.500000  1
  Si  Si8  1  0.667361  0.333153  0.500000  1
