# generated using pymatgen
data_La5Sn2Rh
_symmetry_space_group_name_H-M   'P 1'
_cell_length_a   8.39624633
_cell_length_b   9.19742500
_cell_length_c   12.88142300
_cell_angle_alpha   90.00000000
_cell_angle_beta   90.04269762
_cell_angle_gamma   90.00000000
_symmetry_Int_Tables_number   1
_chemical_formula_structural   La5Sn2Rh
_chemical_formula_sum   'La20 Sn8 Rh4'
_cell_volume   994.75274870
_cell_formula_units_Z   4
loop_
 _symmetry_equiv_pos_site_id
 _symmetry_equiv_pos_as_xyz
  1  'x, y, z'
loop_
 _atom_site_type_symbol
 _atom_site_label
 _atom_site_symmetry_multiplicity
 _atom_site_fract_x
 _atom_site_fract_y
 _atom_site_fract_z
 _atom_site_occupancy
  La  La0  1  0.679150  0.465577  0.071186  1
  La  La1  1  0.178985  0.533967  0.429141  1
  La  La2  1  0.321043  0.965859  0.929019  1
  La  La3  1  0.820897  0.034581  0.571201  1
  La  La4  1  0.321043  0.534141  0.929019  1
  La  La5  1  0.820897  0.465419  0.571201  1
  La  La6  1  0.679150  0.034423  0.071186  1
  La  La7  1  0.178985  0.966033  0.429141  1
  La  La8  1  0.551690  0.750000  0.501140  1
  La  La9  1  0.360482  0.750000  0.198406  1
  La  La10  1  0.860614  0.250000  0.301380  1
  La  La11  1  0.639548  0.250000  0.801486  1
  La  La12  1  0.139677  0.750000  0.698436  1
  La  La13  1  0.833982  0.750000  0.290370  1
  La  La14  1  0.334134  0.250000  0.209357  1
  La  La15  1  0.165336  0.250000  0.709410  1
  La  La16  1  0.665490  0.750000  0.790553  1
  La  La17  1  0.949135  0.750000  0.001051  1
  La  La18  1  0.449854  0.250000  0.498990  1
  La  La19  1  0.050569  0.250000  0.999004  1
  Sn  Sn20  1  0.561191  0.493615  0.327330  1
  Sn  Sn21  1  0.061252  0.506387  0.172673  1
  Sn  Sn22  1  0.438400  0.993802  0.672601  1
  Sn  Sn23  1  0.938589  0.006185  0.827337  1
  Sn  Sn24  1  0.438400  0.506198  0.672601  1
  Sn  Sn25  1  0.938589  0.493815  0.827337  1
  Sn  Sn26  1  0.561191  0.006385  0.327330  1
  Sn  Sn27  1  0.061252  0.993613  0.172673  1
  Rh  Rh28  1  0.578936  0.750000  0.013578  1
  Rh  Rh29  1  0.079004  0.250000  0.486173  1
  Rh  Rh30  1  0.420840  0.250000  0.986253  1
  Rh  Rh31  1  0.921693  0.750000  0.513432  1
