# generated using pymatgen
data_Zr10InBi5PbAu
_symmetry_space_group_name_H-M   'P 1'
_cell_length_a   8.97260839
_cell_length_b   8.96395907
_cell_length_c   6.00571900
_cell_angle_alpha   90.00204225
_cell_angle_beta   89.99897447
_cell_angle_gamma   119.96811999
_symmetry_Int_Tables_number   1
_chemical_formula_structural   Zr10InBi5PbAu
_chemical_formula_sum   'Zr10 In1 Bi5 Pb1 Au1'
_cell_volume   418.45970326
_cell_formula_units_Z   1
loop_
 _symmetry_equiv_pos_site_id
 _symmetry_equiv_pos_as_xyz
  1  'x, y, z'
loop_
 _atom_site_type_symbol
 _atom_site_label
 _atom_site_symmetry_multiplicity
 _atom_site_fract_x
 _atom_site_fract_y
 _atom_site_fract_z
 _atom_site_occupancy
  Zr  Zr0  1  0.667001  0.333476  0.000478  1
  Zr  Zr1  1  0.332999  0.666476  0.000478  1
  Zr  Zr2  1  0.332736  0.666279  0.499407  1
  Zr  Zr3  1  0.667264  0.333541  0.499407  1
  Zr  Zr4  1  0.722801  0.723316  0.752609  1
  Zr  Zr5  1  0.277199  0.000515  0.752609  1
  Zr  Zr6  1  0.000000  0.276511  0.753004  1
  Zr  Zr7  1  0.277161  0.277222  0.247253  1
  Zr  Zr8  1  0.722839  0.000061  0.247253  1
  Zr  Zr9  1  0.000000  0.722862  0.247512  1
  In  In10  1  0.000000  0.000278  0.499532  1
  Bi  Bi11  1  0.382357  0.382825  0.749107  1
  Bi  Bi12  1  0.617643  0.000467  0.749107  1
  Bi  Bi13  1  0.000000  0.616971  0.749354  1
  Bi  Bi14  1  0.617088  0.617111  0.250799  1
  Bi  Bi15  1  0.382912  0.000023  0.250799  1
  Pb  Pb16  1  0.000000  0.381522  0.250637  1
  Au  Au17  1  0.000000  0.000543  0.000654  1
