# generated using pymatgen
data_LaThGePd14
_symmetry_space_group_name_H-M   'P 1'
_cell_length_a   9.07765100
_cell_length_b   9.07765100
_cell_length_c   7.12956800
_cell_angle_alpha   90.00000000
_cell_angle_beta   90.00000000
_cell_angle_gamma   90.00000000
_symmetry_Int_Tables_number   1
_chemical_formula_structural   LaThGePd14
_chemical_formula_sum   'La2 Th2 Ge2 Pd28'
_cell_volume   587.50312252
_cell_formula_units_Z   2
loop_
 _symmetry_equiv_pos_site_id
 _symmetry_equiv_pos_as_xyz
  1  'x, y, z'
loop_
 _atom_site_type_symbol
 _atom_site_label
 _atom_site_symmetry_multiplicity
 _atom_site_fract_x
 _atom_site_fract_y
 _atom_site_fract_z
 _atom_site_occupancy
  La  La0  1  0.500000  0.000000  0.936059  1
  La  La1  1  0.000000  0.500000  0.063941  1
  Th  Th2  1  0.000000  0.000000  0.500000  1
  Th  Th3  1  0.500000  0.500000  0.500000  1
  Ge  Ge4  1  0.500000  0.000000  0.450044  1
  Ge  Ge5  1  0.000000  0.500000  0.549956  1
  Pd  Pd6  1  0.330977  0.830977  0.619516  1
  Pd  Pd7  1  0.330977  0.169023  0.619516  1
  Pd  Pd8  1  0.669023  0.830977  0.619516  1
  Pd  Pd9  1  0.669023  0.169023  0.619516  1
  Pd  Pd10  1  0.169023  0.669023  0.380484  1
  Pd  Pd11  1  0.169023  0.330977  0.380484  1
  Pd  Pd12  1  0.830977  0.669023  0.380484  1
  Pd  Pd13  1  0.830977  0.330977  0.380484  1
  Pd  Pd14  1  0.500000  0.764680  0.256576  1
  Pd  Pd15  1  0.500000  0.235320  0.256576  1
  Pd  Pd16  1  0.264680  0.000000  0.256576  1
  Pd  Pd17  1  0.735320  0.000000  0.256576  1
  Pd  Pd18  1  0.000000  0.735320  0.743424  1
  Pd  Pd19  1  0.000000  0.264680  0.743424  1
  Pd  Pd20  1  0.235320  0.500000  0.743424  1
  Pd  Pd21  1  0.764680  0.500000  0.743424  1
  Pd  Pd22  1  0.500000  0.350078  0.853332  1
  Pd  Pd23  1  0.500000  0.649922  0.853332  1
  Pd  Pd24  1  0.850078  0.000000  0.853332  1
  Pd  Pd25  1  0.149922  0.000000  0.853332  1
  Pd  Pd26  1  0.000000  0.149922  0.146668  1
  Pd  Pd27  1  0.000000  0.850078  0.146668  1
  Pd  Pd28  1  0.649922  0.500000  0.146668  1
  Pd  Pd29  1  0.350078  0.500000  0.146668  1
  Pd  Pd30  1  0.250000  0.750000  0.000000  1
  Pd  Pd31  1  0.250000  0.250000  0.000000  1
  Pd  Pd32  1  0.750000  0.750000  0.000000  1
  Pd  Pd33  1  0.750000  0.250000  0.000000  1
