# generated using pymatgen
data_Tb3Ho4Co6CuSn22
_symmetry_space_group_name_H-M   'P 1'
_cell_length_a   9.65910163
_cell_length_b   9.65721530
_cell_length_c   9.89073677
_cell_angle_alpha   89.99999989
_cell_angle_beta   90.03922714
_cell_angle_gamma   119.99355352
_symmetry_Int_Tables_number   1
_chemical_formula_structural   Tb3Ho4Co6CuSn22
_chemical_formula_sum   'Tb3 Ho4 Co6 Cu1 Sn22'
_cell_volume   799.05375515
_cell_formula_units_Z   1
loop_
 _symmetry_equiv_pos_site_id
 _symmetry_equiv_pos_as_xyz
  1  'x, y, z'
loop_
 _atom_site_type_symbol
 _atom_site_label
 _atom_site_symmetry_multiplicity
 _atom_site_fract_x
 _atom_site_fract_y
 _atom_site_fract_z
 _atom_site_occupancy
  Tb  Tb0  1  0.000000  0.000000  0.000000  1
  Tb  Tb1  1  0.042114  0.521057  0.306051  1
  Tb  Tb2  1  0.957886  0.478943  0.693949  1
  Ho  Ho3  1  0.479160  0.520923  0.306232  1
  Ho  Ho4  1  0.520840  0.479077  0.693768  1
  Ho  Ho5  1  0.479160  0.958237  0.306232  1
  Ho  Ho6  1  0.520840  0.041763  0.693768  1
  Co  Co7  1  0.831896  0.167836  0.196846  1
  Co  Co8  1  0.168104  0.832164  0.803154  1
  Co  Co9  1  0.831896  0.664059  0.196846  1
  Co  Co10  1  0.168104  0.335941  0.803154  1
  Co  Co11  1  0.336058  0.168029  0.196925  1
  Co  Co12  1  0.663942  0.831971  0.803075  1
  Cu  Cu13  1  0.000000  0.000000  0.500000  1
  Sn  Sn14  1  0.346242  0.000074  0.999991  1
  Sn  Sn15  1  0.653758  0.999926  0.000009  1
  Sn  Sn16  1  0.000000  0.346166  0.000000  1
  Sn  Sn17  1  0.000000  0.653834  0.000000  1
  Sn  Sn18  1  0.653758  0.653831  0.000009  1
  Sn  Sn19  1  0.346242  0.346169  0.999991  1
  Sn  Sn20  1  0.333431  0.666716  0.816474  1
  Sn  Sn21  1  0.666569  0.333284  0.183526  1
  Sn  Sn22  1  0.783558  0.215241  0.453315  1
  Sn  Sn23  1  0.216442  0.784759  0.546685  1
  Sn  Sn24  1  0.783558  0.568318  0.453315  1
  Sn  Sn25  1  0.216442  0.431682  0.546685  1
  Sn  Sn26  1  0.431661  0.215831  0.453392  1
  Sn  Sn27  1  0.568339  0.784169  0.546608  1
  Sn  Sn28  1  0.333828  0.666914  0.117954  1
  Sn  Sn29  1  0.666172  0.333086  0.882046  1
  Sn  Sn30  1  0.111219  0.889148  0.283170  1
  Sn  Sn31  1  0.888781  0.110852  0.716830  1
  Sn  Sn32  1  0.111219  0.222072  0.283170  1
  Sn  Sn33  1  0.888781  0.777928  0.716830  1
  Sn  Sn34  1  0.777706  0.888854  0.283219  1
  Sn  Sn35  1  0.222294  0.111146  0.716781  1
