# generated using pymatgen
data_Nd5ErAl24(NiOs3)2
_symmetry_space_group_name_H-M   'P 1'
_cell_length_a   8.90985748
_cell_length_b   8.90985826
_cell_length_c   9.62120634
_cell_angle_alpha   90.27921252
_cell_angle_beta   89.72078714
_cell_angle_gamma   120.43669700
_symmetry_Int_Tables_number   1
_chemical_formula_structural   Nd5ErAl24(NiOs3)2
_chemical_formula_sum   'Nd5 Er1 Al24 Ni2 Os6'
_cell_volume   658.51687383
_cell_formula_units_Z   1
loop_
 _symmetry_equiv_pos_site_id
 _symmetry_equiv_pos_as_xyz
  1  'x, y, z'
loop_
 _atom_site_type_symbol
 _atom_site_label
 _atom_site_symmetry_multiplicity
 _atom_site_fract_x
 _atom_site_fract_y
 _atom_site_fract_z
 _atom_site_occupancy
  Nd  Nd0  1  0.195922  0.384525  0.250646  1
  Nd  Nd1  1  0.804390  0.615124  0.749255  1
  Nd  Nd2  1  0.615475  0.804078  0.250646  1
  Nd  Nd3  1  0.384876  0.195610  0.749255  1
  Nd  Nd4  1  0.191427  0.808573  0.250634  1
  Er  Er5  1  0.806219  0.193781  0.746242  1
  Al  Al6  1  0.332791  0.667209  0.015490  1
  Al  Al7  1  0.668541  0.331459  0.981046  1
  Al  Al8  1  0.667274  0.332726  0.511547  1
  Al  Al9  1  0.333258  0.666742  0.490403  1
  Al  Al10  1  0.160352  0.326196  0.576685  1
  Al  Al11  1  0.837503  0.672467  0.424802  1
  Al  Al12  1  0.673804  0.839648  0.576685  1
  Al  Al13  1  0.835400  0.671495  0.074003  1
  Al  Al14  1  0.327533  0.162497  0.424802  1
  Al  Al15  1  0.162548  0.327371  0.924529  1
  Al  Al16  1  0.163492  0.836508  0.576406  1
  Al  Al17  1  0.328505  0.164600  0.074003  1
  Al  Al18  1  0.836930  0.163070  0.426438  1
  Al  Al19  1  0.672629  0.837452  0.924529  1
  Al  Al20  1  0.836932  0.163068  0.073509  1
  Al  Al21  1  0.162911  0.837089  0.923365  1
  Al  Al22  1  0.563595  0.123231  0.246511  1
  Al  Al23  1  0.440056  0.879385  0.754596  1
  Al  Al24  1  0.876769  0.436405  0.246511  1
  Al  Al25  1  0.120615  0.559944  0.754596  1
  Al  Al26  1  0.564336  0.435664  0.247708  1
  Al  Al27  1  0.435813  0.564187  0.752276  1
  Al  Al28  1  0.000944  0.999056  0.250545  1
  Al  Al29  1  0.996582  0.003418  0.750073  1
  Ni  Ni30  1  0.501551  0.000810  0.998984  1
  Ni  Ni31  1  0.999190  0.498449  0.998984  1
  Os  Os32  1  0.501630  0.000824  0.501846  1
  Os  Os33  1  0.500575  0.499425  0.999276  1
  Os  Os34  1  0.999176  0.498370  0.501846  1
  Os  Os35  1  0.500299  0.499701  0.500651  1
  Os  Os36  1  0.999905  0.000095  0.999903  1
  Os  Os37  1  0.000255  0.999745  0.500780  1
