# generated using pymatgen
data_TbZrNb3P7Rh9
_symmetry_space_group_name_H-M   'P 1'
_cell_length_a   3.92024001
_cell_length_b   9.60216078
_cell_length_c   9.60700140
_cell_angle_alpha   119.95486935
_cell_angle_beta   89.99571185
_cell_angle_gamma   89.99702574
_symmetry_Int_Tables_number   1
_chemical_formula_structural   TbZrNb3P7Rh9
_chemical_formula_sum   'Tb1 Zr1 Nb3 P7 Rh9'
_cell_volume   313.32672183
_cell_formula_units_Z   1
loop_
 _symmetry_equiv_pos_site_id
 _symmetry_equiv_pos_as_xyz
  1  'x, y, z'
loop_
 _atom_site_type_symbol
 _atom_site_label
 _atom_site_symmetry_multiplicity
 _atom_site_fract_x
 _atom_site_fract_y
 _atom_site_fract_z
 _atom_site_occupancy
  Tb  Tb0  1  0.261799  0.666675  0.333370  1
  Zr  Zr1  1  0.761944  0.333361  0.666701  1
  Nb  Nb2  1  0.761934  0.094637  0.872562  1
  Nb  Nb3  1  0.761932  0.127416  0.222075  1
  Nb  Nb4  1  0.761948  0.777894  0.905321  1
  P  P5  1  0.262043  0.999985  0.999987  1
  P  P6  1  0.761851  0.875671  0.590352  1
  P  P7  1  0.761845  0.409708  0.285328  1
  P  P8  1  0.761864  0.714680  0.124383  1
  P  P9  1  0.261892  0.116629  0.417448  1
  P  P10  1  0.261883  0.582478  0.699146  1
  P  P11  1  0.261897  0.300798  0.883338  1
  Rh  Rh12  1  0.261895  0.881323  0.162167  1
  Rh  Rh13  1  0.261893  0.837823  0.719184  1
  Rh  Rh14  1  0.261889  0.280830  0.118684  1
  Rh  Rh15  1  0.761904  0.606263  0.557462  1
  Rh  Rh16  1  0.761934  0.442446  0.048738  1
  Rh  Rh17  1  0.761914  0.951305  0.393755  1
  Rh  Rh18  1  0.261917  0.364825  0.442475  1
  Rh  Rh19  1  0.261913  0.557493  0.922273  1
  Rh  Rh20  1  0.261910  0.077764  0.635249  1
