# generated using pymatgen
data_Hf2Mn9Cr3P7
_symmetry_space_group_name_H-M   'P 1'
_cell_length_a   9.06180500
_cell_length_b   9.06180583
_cell_length_c   3.54343200
_cell_angle_alpha   90.00000000
_cell_angle_beta   90.00000000
_cell_angle_gamma   120.00000063
_symmetry_Int_Tables_number   1
_chemical_formula_structural   Hf2Mn9Cr3P7
_chemical_formula_sum   'Hf2 Mn9 Cr3 P7'
_cell_volume   251.99051623
_cell_formula_units_Z   1
loop_
 _symmetry_equiv_pos_site_id
 _symmetry_equiv_pos_as_xyz
  1  'x, y, z'
loop_
 _atom_site_type_symbol
 _atom_site_label
 _atom_site_symmetry_multiplicity
 _atom_site_fract_x
 _atom_site_fract_y
 _atom_site_fract_z
 _atom_site_occupancy
  Hf  Hf0  1  0.000000  0.000000  0.000000  1
  Hf  Hf1  1  0.333333  0.666667  0.500000  1
  Mn  Mn2  1  0.097024  0.384407  0.000000  1
  Mn  Mn3  1  0.287382  0.902976  0.000000  1
  Mn  Mn4  1  0.615593  0.712618  0.000000  1
  Mn  Mn5  1  0.828070  0.615542  0.000000  1
  Mn  Mn6  1  0.787472  0.171930  0.000000  1
  Mn  Mn7  1  0.384458  0.212528  0.000000  1
  Mn  Mn8  1  0.057450  0.768180  0.500000  1
  Mn  Mn9  1  0.710730  0.942550  0.500000  1
  Mn  Mn10  1  0.231820  0.289270  0.500000  1
  Cr  Cr11  1  0.880977  0.428911  0.500000  1
  Cr  Cr12  1  0.547934  0.119023  0.500000  1
  Cr  Cr13  1  0.571089  0.452066  0.500000  1
  P  P14  1  0.081145  0.620306  0.000000  1
  P  P15  1  0.539160  0.918855  0.000000  1
  P  P16  1  0.379694  0.460840  0.000000  1
  P  P17  1  0.794622  0.746594  0.500000  1
  P  P18  1  0.951973  0.205378  0.500000  1
  P  P19  1  0.253406  0.048027  0.500000  1
  P  P20  1  0.666667  0.333333  0.000000  1
