# generated using pymatgen
data_Lu4GaGe5Ir7
_symmetry_space_group_name_H-M   'P 1'
_cell_length_a   7.21093046
_cell_length_b   7.21093041
_cell_length_c   7.21093009
_cell_angle_alpha   109.64767510
_cell_angle_beta   109.64767849
_cell_angle_gamma   109.11887723
_symmetry_Int_Tables_number   1
_chemical_formula_structural   Lu4GaGe5Ir7
_chemical_formula_sum   'Lu4 Ga1 Ge5 Ir7'
_cell_volume   288.62883834
_cell_formula_units_Z   1
loop_
 _symmetry_equiv_pos_site_id
 _symmetry_equiv_pos_as_xyz
  1  'x, y, z'
loop_
 _atom_site_type_symbol
 _atom_site_label
 _atom_site_symmetry_multiplicity
 _atom_site_fract_x
 _atom_site_fract_y
 _atom_site_fract_z
 _atom_site_occupancy
  Lu  Lu0  1  0.998952  0.998952  0.505886  1
  Lu  Lu1  1  0.998952  0.493066  0.000000  1
  Lu  Lu2  1  0.493066  0.998952  0.000000  1
  Lu  Lu3  1  0.493066  0.493066  0.494114  1
  Ga  Ga4  1  0.691373  0.691373  0.000000  1
  Ge  Ge5  1  0.310247  0.996851  0.313396  1
  Ge  Ge6  1  0.996851  0.310247  0.313396  1
  Ge  Ge7  1  0.324159  0.324159  0.000000  1
  Ge  Ge8  1  0.683456  0.996851  0.686604  1
  Ge  Ge9  1  0.996851  0.683456  0.686604  1
  Ir  Ir10  1  0.748650  0.248650  0.500000  1
  Ir  Ir11  1  0.752751  0.501344  0.251406  1
  Ir  Ir12  1  0.501344  0.249938  0.748594  1
  Ir  Ir13  1  0.249938  0.501344  0.748594  1
  Ir  Ir14  1  0.248650  0.748650  0.500000  1
  Ir  Ir15  1  0.501344  0.752751  0.251406  1
  Ir  Ir16  1  0.010348  0.010348  0.000000  1
