# generated using pymatgen
data_K9Rb7(PbSe4)4
_symmetry_space_group_name_H-M   'P 1'
_cell_length_a   8.35774236
_cell_length_b   10.62379900
_cell_length_c   15.56775400
_cell_angle_alpha   90.00000000
_cell_angle_beta   90.15695489
_cell_angle_gamma   90.00000000
_symmetry_Int_Tables_number   1
_chemical_formula_structural   K9Rb7(PbSe4)4
_chemical_formula_sum   'K9 Rb7 Pb4 Se16'
_cell_volume   1382.27086849
_cell_formula_units_Z   1
loop_
 _symmetry_equiv_pos_site_id
 _symmetry_equiv_pos_as_xyz
  1  'x, y, z'
loop_
 _atom_site_type_symbol
 _atom_site_label
 _atom_site_symmetry_multiplicity
 _atom_site_fract_x
 _atom_site_fract_y
 _atom_site_fract_z
 _atom_site_occupancy
  K  K0  1  0.524542  0.750000  0.927417  1
  K  K1  1  0.837783  0.049270  0.266061  1
  K  K2  1  0.337450  0.949296  0.231713  1
  K  K3  1  0.161377  0.551171  0.734489  1
  K  K4  1  0.662039  0.450329  0.768240  1
  K  K5  1  0.161377  0.948829  0.734489  1
  K  K6  1  0.662039  0.049671  0.768240  1
  K  K7  1  0.837783  0.450730  0.266061  1
  K  K8  1  0.337450  0.550704  0.231713  1
  Rb  Rb9  1  0.000493  0.999014  0.999455  1
  Rb  Rb10  1  0.499629  0.000224  0.500636  1
  Rb  Rb11  1  0.000493  0.500986  0.999455  1
  Rb  Rb12  1  0.499629  0.499776  0.500636  1
  Rb  Rb13  1  0.989092  0.750000  0.426006  1
  Rb  Rb14  1  0.489596  0.250000  0.074495  1
  Rb  Rb15  1  0.010768  0.250000  0.574781  1
  Pb  Pb16  1  0.764628  0.750000  0.671011  1
  Pb  Pb17  1  0.233211  0.250000  0.329235  1
  Pb  Pb18  1  0.731354  0.750000  0.168788  1
  Pb  Pb19  1  0.269282  0.250000  0.830682  1
  Se  Se20  1  0.950130  0.250000  0.825854  1
  Se  Se21  1  0.551994  0.250000  0.324689  1
  Se  Se22  1  0.446366  0.750000  0.674943  1
  Se  Se23  1  0.050088  0.750000  0.174666  1
  Se  Se24  1  0.627381  0.549188  0.086243  1
  Se  Se25  1  0.130764  0.452585  0.409713  1
  Se  Se26  1  0.371505  0.045572  0.911148  1
  Se  Se27  1  0.869009  0.952124  0.590789  1
  Se  Se28  1  0.371505  0.454428  0.911148  1
  Se  Se29  1  0.869009  0.547876  0.590789  1
  Se  Se30  1  0.627381  0.950812  0.086243  1
  Se  Se31  1  0.130764  0.047415  0.409713  1
  Se  Se32  1  0.609164  0.750000  0.328354  1
  Se  Se33  1  0.108992  0.250000  0.169814  1
  Se  Se34  1  0.391260  0.250000  0.670961  1
  Se  Se35  1  0.884677  0.750000  0.831331  1
