# generated using pymatgen
data_LuSc3Ga2(B2Ru5)2
_symmetry_space_group_name_H-M   'P 1'
_cell_length_a   9.40480844
_cell_length_b   9.40480844
_cell_length_c   3.05496000
_cell_angle_alpha   90.00000000
_cell_angle_beta   90.00000000
_cell_angle_gamma   89.54713058
_symmetry_Int_Tables_number   1
_chemical_formula_structural   LuSc3Ga2(B2Ru5)2
_chemical_formula_sum   'Lu1 Sc3 Ga2 B4 Ru10'
_cell_volume   270.20406022
_cell_formula_units_Z   1
loop_
 _symmetry_equiv_pos_site_id
 _symmetry_equiv_pos_as_xyz
  1  'x, y, z'
loop_
 _atom_site_type_symbol
 _atom_site_label
 _atom_site_symmetry_multiplicity
 _atom_site_fract_x
 _atom_site_fract_y
 _atom_site_fract_z
 _atom_site_occupancy
  Lu  Lu0  1  0.674643  0.174643  0.000000  1
  Sc  Sc1  1  0.324974  0.824974  0.000000  1
  Sc  Sc2  1  0.173687  0.326229  0.000000  1
  Sc  Sc3  1  0.826229  0.673687  0.000000  1
  Ga  Ga4  1  0.998556  0.000190  0.000000  1
  Ga  Ga5  1  0.500190  0.498556  0.000000  1
  B  B6  1  0.125321  0.625321  0.000000  1
  B  B7  1  0.878135  0.378135  0.000000  1
  B  B8  1  0.623894  0.873836  0.000000  1
  B  B9  1  0.373836  0.123894  0.000000  1
  Ru  Ru10  1  0.213855  0.071233  0.500000  1
  Ru  Ru11  1  0.784825  0.923904  0.500000  1
  Ru  Ru12  1  0.071118  0.785851  0.500000  1
  Ru  Ru13  1  0.717649  0.433790  0.500000  1
  Ru  Ru14  1  0.933790  0.217649  0.500000  1
  Ru  Ru15  1  0.285851  0.571118  0.500000  1
  Ru  Ru16  1  0.571233  0.713855  0.500000  1
  Ru  Ru17  1  0.423904  0.284825  0.500000  1
  Ru  Ru18  1  0.496542  0.996542  0.500000  1
  Ru  Ru19  1  0.001769  0.501769  0.500000  1
