# generated using pymatgen
data_Sr20As13
_symmetry_space_group_name_H-M   'P 1'
_cell_length_a   8.32297089
_cell_length_b   8.32297096
_cell_length_c   41.68651200
_cell_angle_alpha   109.35914514
_cell_angle_beta   109.35914531
_cell_angle_gamma   109.62613968
_symmetry_Int_Tables_number   1
_chemical_formula_structural   Sr20As13
_chemical_formula_sum   'Sr40 As26'
_cell_volume   2224.83893083
_cell_formula_units_Z   2
loop_
 _symmetry_equiv_pos_site_id
 _symmetry_equiv_pos_as_xyz
  1  'x, y, z'
loop_
 _atom_site_type_symbol
 _atom_site_label
 _atom_site_symmetry_multiplicity
 _atom_site_fract_x
 _atom_site_fract_y
 _atom_site_fract_z
 _atom_site_occupancy
  Sr  Sr0  1  0.003535  0.883298  0.899069  1
  Sr  Sr1  1  0.008076  0.387801  0.900881  1
  Sr  Sr2  1  0.482982  0.007721  0.969989  1
  Sr  Sr3  1  0.990085  0.869121  0.696638  1
  Sr  Sr4  1  0.133012  0.157703  0.829985  1
  Sr  Sr5  1  0.990339  0.333858  0.694193  1
  Sr  Sr6  1  0.373232  0.483132  0.799676  1
  Sr  Sr7  1  0.985848  0.844406  0.498884  1
  Sr  Sr8  1  0.630897  0.623312  0.921183  1
  Sr  Sr9  1  0.524822  0.017262  0.878779  1
  Sr  Sr10  1  0.132553  0.121770  0.624188  1
  Sr  Sr11  1  0.984745  0.374851  0.500323  1
  Sr  Sr12  1  0.362972  0.519443  0.605843  1
  Sr  Sr13  1  0.514212  0.000977  0.770502  1
  Sr  Sr14  1  0.983132  0.873232  0.299676  1
  Sr  Sr15  1  0.605942  0.616309  0.723320  1
  Sr  Sr16  1  0.849951  0.491361  0.801093  1
  Sr  Sr17  1  0.500936  0.011748  0.675851  1
  Sr  Sr18  1  0.991361  0.349951  0.301093  1
  Sr  Sr19  1  0.123312  0.130897  0.421183  1
  Sr  Sr20  1  0.383298  0.503535  0.399069  1
  Sr  Sr21  1  0.499773  0.989440  0.576709  1
  Sr  Sr22  1  0.648478  0.661747  0.529503  1
  Sr  Sr23  1  0.885995  0.506959  0.603396  1
  Sr  Sr24  1  0.507721  0.982982  0.469989  1
  Sr  Sr25  1  0.116309  0.105942  0.223320  1
  Sr  Sr26  1  0.006959  0.385995  0.103396  1
  Sr  Sr27  1  0.369121  0.490085  0.196638  1
  Sr  Sr28  1  0.517262  0.024822  0.378779  1
  Sr  Sr29  1  0.657703  0.633012  0.329985  1
  Sr  Sr30  1  0.887801  0.508076  0.400881  1
  Sr  Sr31  1  0.500977  0.014212  0.270502  1
  Sr  Sr32  1  0.161747  0.148478  0.029503  1
  Sr  Sr33  1  0.344406  0.485848  0.998884  1
  Sr  Sr34  1  0.511748  0.000936  0.175851  1
  Sr  Sr35  1  0.621770  0.632553  0.124188  1
  Sr  Sr36  1  0.833858  0.490339  0.194193  1
  Sr  Sr37  1  0.489440  0.999773  0.076709  1
  Sr  Sr38  1  0.019443  0.862972  0.105843  1
  Sr  Sr39  1  0.874851  0.484745  0.000323  1
  As  As40  1  0.134232  0.753210  0.977580  1
  As  As41  1  0.247058  0.633319  0.872813  1
  As  As42  1  0.382972  0.269366  0.927196  1
  As  As43  1  0.248551  0.635028  0.678247  1
  As  As44  1  0.124434  0.748491  0.575726  1
  As  As45  1  0.607687  0.343825  0.846764  1
  As  As46  1  0.369849  0.245766  0.724266  1
  As  As47  1  0.746338  0.865254  0.822418  1
  As  As48  1  0.873844  0.109966  0.953233  1
  As  As49  1  0.253210  0.634232  0.477580  1
  As  As50  1  0.133319  0.747058  0.372813  1
  As  As51  1  0.743780  0.857299  0.621769  1
  As  As52  1  0.630279  0.380275  0.649990  1
  As  As53  1  0.886813  0.137091  0.750923  1
  As  As54  1  0.135028  0.748551  0.178247  1
  As  As55  1  0.769366  0.882972  0.427196  1
  As  As56  1  0.365254  0.246338  0.322418  1
  As  As57  1  0.609966  0.373844  0.453233  1
  As  As58  1  0.882451  0.132213  0.549069  1
  As  As59  1  0.248491  0.624434  0.075726  1
  As  As60  1  0.745766  0.869849  0.224266  1
  As  As61  1  0.357299  0.243780  0.121769  1
  As  As62  1  0.637091  0.386813  0.250923  1
  As  As63  1  0.843825  0.107687  0.346764  1
  As  As64  1  0.632213  0.382451  0.049069  1
  As  As65  1  0.880275  0.130279  0.149990  1
