# generated using pymatgen
data_Sr4Bi2O9
_symmetry_space_group_name_H-M   'P 1'
_cell_length_a   5.95729300
_cell_length_b   10.48467972
_cell_length_c   18.35255300
_cell_angle_alpha   55.97932278
_cell_angle_beta   90.00000000
_cell_angle_gamma   90.00000000
_symmetry_Int_Tables_number   1
_chemical_formula_structural   Sr4Bi2O9
_chemical_formula_sum   'Sr16 Bi8 O36'
_cell_volume   950.09946219
_cell_formula_units_Z   4
loop_
 _symmetry_equiv_pos_site_id
 _symmetry_equiv_pos_as_xyz
  1  'x, y, z'
loop_
 _atom_site_type_symbol
 _atom_site_label
 _atom_site_symmetry_multiplicity
 _atom_site_fract_x
 _atom_site_fract_y
 _atom_site_fract_z
 _atom_site_occupancy
  Sr  Sr0  1  0.000000  0.500000  0.500000  1
  Sr  Sr1  1  0.000000  0.000000  0.000000  1
  Sr  Sr2  1  0.994425  0.785312  0.230228  1
  Sr  Sr3  1  0.482793  0.551389  0.600032  1
  Sr  Sr4  1  0.518756  0.121383  0.068693  1
  Sr  Sr5  1  0.018756  0.878617  0.431307  1
  Sr  Sr6  1  0.982793  0.448611  0.899968  1
  Sr  Sr7  1  0.494425  0.214688  0.269772  1
  Sr  Sr8  1  0.500000  0.000000  0.500000  1
  Sr  Sr9  1  0.505575  0.785312  0.730228  1
  Sr  Sr10  1  0.500000  0.500000  0.000000  1
  Sr  Sr11  1  0.017207  0.551389  0.100032  1
  Sr  Sr12  1  0.981244  0.121383  0.568693  1
  Sr  Sr13  1  0.481244  0.878617  0.931307  1
  Sr  Sr14  1  0.517207  0.448611  0.399968  1
  Sr  Sr15  1  0.005575  0.214688  0.769772  1
  Bi  Bi16  1  0.495053  0.330000  0.832760  1
  Bi  Bi17  1  0.514166  0.834741  0.332656  1
  Bi  Bi18  1  0.995053  0.670000  0.667240  1
  Bi  Bi19  1  0.014166  0.165259  0.167344  1
  Bi  Bi20  1  0.985834  0.834741  0.832656  1
  Bi  Bi21  1  0.004947  0.330000  0.332760  1
  Bi  Bi22  1  0.485834  0.165259  0.667344  1
  Bi  Bi23  1  0.504947  0.670000  0.167240  1
  O  O24  1  0.597217  0.283178  0.732169  1
  O  O25  1  0.313889  0.124444  0.897438  1
  O  O26  1  0.796240  0.694083  0.372084  1
  O  O27  1  0.325628  0.672126  0.443735  1
  O  O28  1  0.789593  0.233011  0.904433  1
  O  O29  1  0.118076  0.053748  0.107886  1
  O  O30  1  0.888930  0.621018  0.576260  1
  O  O31  1  0.193219  0.452054  0.749878  1
  O  O32  1  0.704803  0.021420  0.215142  1
  O  O33  1  0.204803  0.978580  0.284858  1
  O  O34  1  0.693219  0.547946  0.750122  1
  O  O35  1  0.388930  0.378982  0.923740  1
  O  O36  1  0.618076  0.946252  0.392114  1
  O  O37  1  0.289593  0.766989  0.595567  1
  O  O38  1  0.825628  0.327874  0.056265  1
  O  O39  1  0.296240  0.305917  0.127916  1
  O  O40  1  0.813889  0.875556  0.602562  1
  O  O41  1  0.097217  0.716822  0.767831  1
  O  O42  1  0.902783  0.283178  0.232169  1
  O  O43  1  0.186111  0.124444  0.397438  1
  O  O44  1  0.703760  0.694083  0.872084  1
  O  O45  1  0.174372  0.672126  0.943735  1
  O  O46  1  0.710407  0.233011  0.404433  1
  O  O47  1  0.381924  0.053748  0.607886  1
  O  O48  1  0.611070  0.621018  0.076260  1
  O  O49  1  0.306781  0.452054  0.249878  1
  O  O50  1  0.795197  0.021420  0.715142  1
  O  O51  1  0.295197  0.978580  0.784858  1
  O  O52  1  0.806781  0.547946  0.250122  1
  O  O53  1  0.111070  0.378982  0.423740  1
  O  O54  1  0.881924  0.946252  0.892114  1
  O  O55  1  0.210407  0.766989  0.095567  1
  O  O56  1  0.674372  0.327874  0.556265  1
  O  O57  1  0.203760  0.305917  0.627916  1
  O  O58  1  0.686111  0.875556  0.102562  1
  O  O59  1  0.402783  0.716822  0.267831  1
