# generated using pymatgen
data_Lu8B24Ru3W
_symmetry_space_group_name_H-M   'P 1'
_cell_length_a   3.58502100
_cell_length_b   9.06469651
_cell_length_c   11.43992494
_cell_angle_alpha   89.87369779
_cell_angle_beta   90.00000000
_cell_angle_gamma   90.00000000
_symmetry_Int_Tables_number   1
_chemical_formula_structural   Lu8B24Ru3W
_chemical_formula_sum   'Lu8 B24 Ru3 W1'
_cell_volume   371.76379448
_cell_formula_units_Z   1
loop_
 _symmetry_equiv_pos_site_id
 _symmetry_equiv_pos_as_xyz
  1  'x, y, z'
loop_
 _atom_site_type_symbol
 _atom_site_label
 _atom_site_symmetry_multiplicity
 _atom_site_fract_x
 _atom_site_fract_y
 _atom_site_fract_z
 _atom_site_occupancy
  Lu  Lu0  1  0.000000  0.321335  0.413553  1
  Lu  Lu1  1  0.000000  0.678014  0.585629  1
  Lu  Lu2  1  0.000000  0.820063  0.087662  1
  Lu  Lu3  1  0.000000  0.178295  0.914967  1
  Lu  Lu4  1  0.000000  0.946562  0.373197  1
  Lu  Lu5  1  0.000000  0.057326  0.629024  1
  Lu  Lu6  1  0.000000  0.442986  0.125567  1
  Lu  Lu7  1  0.000000  0.556232  0.871184  1
  B  B8  1  0.500000  0.549965  0.437018  1
  B  B9  1  0.500000  0.445925  0.567901  1
  B  B10  1  0.500000  0.053442  0.065923  1
  B  B11  1  0.500000  0.946455  0.933767  1
  B  B12  1  0.500000  0.752340  0.423290  1
  B  B13  1  0.500000  0.251227  0.580250  1
  B  B14  1  0.500000  0.248920  0.079063  1
  B  B15  1  0.500000  0.750655  0.919899  1
  B  B16  1  0.500000  0.796631  0.263647  1
  B  B17  1  0.500000  0.207657  0.734850  1
  B  B18  1  0.500000  0.291279  0.233033  1
  B  B19  1  0.500000  0.708265  0.765212  1
  B  B20  1  0.500000  0.631331  0.181584  1
  B  B21  1  0.500000  0.368344  0.815743  1
  B  B22  1  0.500000  0.131632  0.314797  1
  B  B23  1  0.500000  0.869479  0.684716  1
  B  B24  1  0.500000  0.982684  0.212294  1
  B  B25  1  0.500000  0.018216  0.787726  1
  B  B26  1  0.500000  0.476069  0.286304  1
  B  B27  1  0.500000  0.517750  0.713057  1
  B  B28  1  0.500000  0.605367  0.027306  1
  B  B29  1  0.500000  0.393519  0.969737  1
  B  B30  1  0.500000  0.106838  0.471271  1
  B  B31  1  0.500000  0.896763  0.530554  1
  Ru  Ru32  1  0.000000  0.360644  0.680647  1
  Ru  Ru33  1  0.000000  0.137963  0.177861  1
  Ru  Ru34  1  0.000000  0.861909  0.820637  1
  W  W35  1  0.000000  0.637920  0.321128  1
