# generated using pymatgen
data_TbHo8(BiO)5
_symmetry_space_group_name_H-M   'P 1'
_cell_length_a   9.98527600
_cell_length_b   9.98527600
_cell_length_c   8.92374800
_cell_angle_alpha   90.00000000
_cell_angle_beta   90.00000000
_cell_angle_gamma   90.00000000
_symmetry_Int_Tables_number   1
_chemical_formula_structural   TbHo8(BiO)5
_chemical_formula_sum   'Tb2 Ho16 Bi10 O10'
_cell_volume   889.74886932
_cell_formula_units_Z   2
loop_
 _symmetry_equiv_pos_site_id
 _symmetry_equiv_pos_as_xyz
  1  'x, y, z'
loop_
 _atom_site_type_symbol
 _atom_site_label
 _atom_site_symmetry_multiplicity
 _atom_site_fract_x
 _atom_site_fract_y
 _atom_site_fract_z
 _atom_site_occupancy
  Tb  Tb0  1  0.500000  0.000000  0.677924  1
  Tb  Tb1  1  0.000000  0.500000  0.322076  1
  Ho  Ho2  1  0.206861  0.894627  0.335604  1
  Ho  Ho3  1  0.293139  0.605373  0.664396  1
  Ho  Ho4  1  0.706861  0.394627  0.664396  1
  Ho  Ho5  1  0.725459  0.916393  0.002397  1
  Ho  Ho6  1  0.394627  0.293139  0.335604  1
  Ho  Ho7  1  0.105373  0.206861  0.664396  1
  Ho  Ho8  1  0.605373  0.706861  0.335604  1
  Ho  Ho9  1  0.894627  0.793139  0.664396  1
  Ho  Ho10  1  0.274541  0.083607  0.002397  1
  Ho  Ho11  1  0.774541  0.583607  0.997603  1
  Ho  Ho12  1  0.225459  0.416393  0.997603  1
  Ho  Ho13  1  0.793139  0.105373  0.335604  1
  Ho  Ho14  1  0.583607  0.225459  0.002397  1
  Ho  Ho15  1  0.916393  0.274541  0.997603  1
  Ho  Ho16  1  0.083607  0.725459  0.997603  1
  Ho  Ho17  1  0.416393  0.774541  0.002397  1
  Bi  Bi18  1  0.595094  0.693550  0.696983  1
  Bi  Bi19  1  0.904906  0.806450  0.303017  1
  Bi  Bi20  1  0.693550  0.404906  0.303017  1
  Bi  Bi21  1  0.000000  0.500000  0.681880  1
  Bi  Bi22  1  0.193550  0.904906  0.696983  1
  Bi  Bi23  1  0.806450  0.095094  0.696983  1
  Bi  Bi24  1  0.306450  0.595094  0.303017  1
  Bi  Bi25  1  0.404906  0.306450  0.696983  1
  Bi  Bi26  1  0.095094  0.193550  0.303017  1
  Bi  Bi27  1  0.500000  0.000000  0.318120  1
  O  O28  1  0.226022  0.879766  0.084165  1
  O  O29  1  0.726022  0.379766  0.915835  1
  O  O30  1  0.500000  0.000000  0.938002  1
  O  O31  1  0.620234  0.726022  0.084165  1
  O  O32  1  0.000000  0.500000  0.061998  1
  O  O33  1  0.879766  0.773978  0.915835  1
  O  O34  1  0.120234  0.226022  0.915835  1
  O  O35  1  0.379766  0.273978  0.084165  1
  O  O36  1  0.773978  0.120234  0.084165  1
  O  O37  1  0.273978  0.620234  0.915835  1
