# generated using pymatgen
data_Sm3Ho(Lu3Pt4)2
_symmetry_space_group_name_H-M   'P 1'
_cell_length_a   7.45866400
_cell_length_b   7.51968602
_cell_length_c   14.58696805
_cell_angle_alpha   90.00903931
_cell_angle_beta   90.00000000
_cell_angle_gamma   90.00000000
_symmetry_Int_Tables_number   1
_chemical_formula_structural   Sm3Ho(Lu3Pt4)2
_chemical_formula_sum   'Sm6 Ho2 Lu12 Pt16'
_cell_volume   818.13651597
_cell_formula_units_Z   2
loop_
 _symmetry_equiv_pos_site_id
 _symmetry_equiv_pos_as_xyz
  1  'x, y, z'
loop_
 _atom_site_type_symbol
 _atom_site_label
 _atom_site_symmetry_multiplicity
 _atom_site_fract_x
 _atom_site_fract_y
 _atom_site_fract_z
 _atom_site_occupancy
  Sm  Sm0  1  0.500033  0.678566  0.592942  1
  Sm  Sm1  1  0.000033  0.821434  0.907058  1
  Sm  Sm2  1  0.499963  0.322802  0.092617  1
  Sm  Sm3  1  0.999963  0.177198  0.407383  1
  Sm  Sm4  1  0.499926  0.321771  0.407039  1
  Sm  Sm5  1  0.999926  0.178229  0.092961  1
  Ho  Ho6  1  0.501177  0.679045  0.906506  1
  Ho  Ho7  1  0.001177  0.820955  0.593494  1
  Lu  Lu8  1  0.657011  0.167241  0.623403  1
  Lu  Lu9  1  0.157011  0.332759  0.876597  1
  Lu  Lu10  1  0.344412  0.831779  0.122972  1
  Lu  Lu11  1  0.844412  0.668221  0.377028  1
  Lu  Lu12  1  0.343503  0.832490  0.376653  1
  Lu  Lu13  1  0.843503  0.667510  0.123347  1
  Lu  Lu14  1  0.656122  0.167459  0.876492  1
  Lu  Lu15  1  0.156122  0.332541  0.623508  1
  Lu  Lu16  1  0.819821  0.508609  0.750037  1
  Lu  Lu17  1  0.319821  0.991391  0.749963  1
  Lu  Lu18  1  0.179855  0.492060  0.250004  1
  Lu  Lu19  1  0.679855  0.007940  0.249996  1
  Pt  Pt20  1  0.681820  0.963190  0.458528  1
  Pt  Pt21  1  0.181820  0.536810  0.041472  1
  Pt  Pt22  1  0.320024  0.033797  0.957290  1
  Pt  Pt23  1  0.820024  0.466203  0.542710  1
  Pt  Pt24  1  0.316321  0.034060  0.542640  1
  Pt  Pt25  1  0.816321  0.465940  0.957360  1
  Pt  Pt26  1  0.680498  0.962689  0.041632  1
  Pt  Pt27  1  0.180498  0.537311  0.458368  1
  Pt  Pt28  1  0.455046  0.382684  0.750619  1
  Pt  Pt29  1  0.955046  0.117316  0.749381  1
  Pt  Pt30  1  0.545070  0.618842  0.250012  1
  Pt  Pt31  1  0.045070  0.881158  0.249988  1
  Pt  Pt32  1  0.683071  0.858314  0.750709  1
  Pt  Pt33  1  0.183071  0.641686  0.749291  1
  Pt  Pt34  1  0.316326  0.140168  0.249983  1
  Pt  Pt35  1  0.816326  0.359832  0.250017  1
