# generated using pymatgen
data_Rb4Sr2ZrAs4
_symmetry_space_group_name_H-M   'P 1'
_cell_length_a   10.80370403
_cell_length_b   10.80370325
_cell_length_c   7.95750478
_cell_angle_alpha   87.80728081
_cell_angle_beta   87.80727903
_cell_angle_gamma   119.33080977
_symmetry_Int_Tables_number   1
_chemical_formula_structural   Rb4Sr2ZrAs4
_chemical_formula_sum   'Rb8 Sr4 Zr2 As8'
_cell_volume   807.40654585
_cell_formula_units_Z   2
loop_
 _symmetry_equiv_pos_site_id
 _symmetry_equiv_pos_as_xyz
  1  'x, y, z'
loop_
 _atom_site_type_symbol
 _atom_site_label
 _atom_site_symmetry_multiplicity
 _atom_site_fract_x
 _atom_site_fract_y
 _atom_site_fract_z
 _atom_site_occupancy
  Rb  Rb0  1  0.475752  0.943016  0.387193  1
  Rb  Rb1  1  0.943016  0.475752  0.887193  1
  Rb  Rb2  1  0.865909  0.719800  0.165219  1
  Rb  Rb3  1  0.266764  0.127376  0.230377  1
  Rb  Rb4  1  0.856458  0.140481  0.191327  1
  Rb  Rb5  1  0.127376  0.266764  0.730377  1
  Rb  Rb6  1  0.719800  0.865909  0.665219  1
  Rb  Rb7  1  0.140481  0.856458  0.691327  1
  Sr  Sr8  1  0.077046  0.533479  0.393674  1
  Sr  Sr9  1  0.472679  0.530858  0.377645  1
  Sr  Sr10  1  0.533479  0.077046  0.893674  1
  Sr  Sr11  1  0.530858  0.472679  0.877645  1
  Zr  Zr12  1  0.664299  0.336899  0.489862  1
  Zr  Zr13  1  0.336899  0.664299  0.989862  1
  As  As14  1  0.636207  0.327719  0.158319  1
  As  As15  1  0.327719  0.636207  0.658319  1
  As  As16  1  0.213576  0.406308  0.140902  1
  As  As17  1  0.600833  0.790587  0.078363  1
  As  As18  1  0.211373  0.802698  0.101150  1
  As  As19  1  0.790587  0.600833  0.578363  1
  As  As20  1  0.406308  0.213576  0.640902  1
  As  As21  1  0.802698  0.211373  0.601150  1
