# generated using pymatgen
data_Rb2Zr(TeO4)3
_symmetry_space_group_name_H-M   'P 1'
_cell_length_a   7.33606690
_cell_length_b   7.33606712
_cell_length_c   7.45387685
_cell_angle_alpha   60.52338543
_cell_angle_beta   60.52338536
_cell_angle_gamma   59.98467057
_symmetry_Int_Tables_number   1
_chemical_formula_structural   Rb2Zr(TeO4)3
_chemical_formula_sum   'Rb2 Zr1 Te3 O12'
_cell_volume   285.84687133
_cell_formula_units_Z   1
loop_
 _symmetry_equiv_pos_site_id
 _symmetry_equiv_pos_as_xyz
  1  'x, y, z'
loop_
 _atom_site_type_symbol
 _atom_site_label
 _atom_site_symmetry_multiplicity
 _atom_site_fract_x
 _atom_site_fract_y
 _atom_site_fract_z
 _atom_site_occupancy
  Rb  Rb0  1  0.885722  0.862800  0.877314  1
  Rb  Rb1  1  0.137200  0.114278  0.122686  1
  Zr  Zr2  1  0.504073  0.495927  0.000000  1
  Te  Te3  1  0.502257  0.997307  0.500846  1
  Te  Te4  1  0.002693  0.497743  0.499154  1
  Te  Te5  1  0.502672  0.497328  0.500000  1
  O  O6  1  0.181096  0.176821  0.566837  1
  O  O7  1  0.570541  0.566664  0.197629  1
  O  O8  1  0.570173  0.162657  0.198402  1
  O  O9  1  0.181472  0.574090  0.564950  1
  O  O10  1  0.167818  0.566494  0.196820  1
  O  O11  1  0.577394  0.176385  0.567591  1
  O  O12  1  0.823179  0.818904  0.433163  1
  O  O13  1  0.433336  0.429459  0.802371  1
  O  O14  1  0.433506  0.832182  0.803180  1
  O  O15  1  0.823615  0.422606  0.432409  1
  O  O16  1  0.837343  0.429827  0.801598  1
  O  O17  1  0.425910  0.818528  0.435050  1
