# generated using pymatgen
data_Yb4Th4SnPd24
_symmetry_space_group_name_H-M   'P 1'
_cell_length_a   8.44341979
_cell_length_b   8.46690241
_cell_length_c   8.46690241
_cell_angle_alpha   89.99483815
_cell_angle_beta   89.96489050
_cell_angle_gamma   89.96489050
_symmetry_Int_Tables_number   1
_chemical_formula_structural   Yb4Th4SnPd24
_chemical_formula_sum   'Yb4 Th4 Sn1 Pd24'
_cell_volume   605.29533267
_cell_formula_units_Z   1
loop_
 _symmetry_equiv_pos_site_id
 _symmetry_equiv_pos_as_xyz
  1  'x, y, z'
loop_
 _atom_site_type_symbol
 _atom_site_label
 _atom_site_symmetry_multiplicity
 _atom_site_fract_x
 _atom_site_fract_y
 _atom_site_fract_z
 _atom_site_occupancy
  Yb  Yb0  1  0.251806  0.252262  0.747971  1
  Yb  Yb1  1  0.251806  0.747971  0.252262  1
  Yb  Yb2  1  0.251505  0.748065  0.748065  1
  Yb  Yb3  1  0.748358  0.251444  0.251444  1
  Th  Th4  1  0.255151  0.255886  0.255886  1
  Th  Th5  1  0.744843  0.745621  0.745621  1
  Th  Th6  1  0.745485  0.745906  0.253748  1
  Th  Th7  1  0.745485  0.253748  0.745906  1
  Sn  Sn8  1  0.003073  0.000122  0.000122  1
  Pd  Pd9  1  0.265118  0.498657  0.001694  1
  Pd  Pd10  1  0.735842  0.499533  0.001250  1
  Pd  Pd11  1  0.999024  0.264222  0.500007  1
  Pd  Pd12  1  0.500030  0.264657  0.999623  1
  Pd  Pd13  1  0.999189  0.735388  0.499752  1
  Pd  Pd14  1  0.500266  0.735466  0.000422  1
  Pd  Pd15  1  0.500030  0.999623  0.264657  1
  Pd  Pd16  1  0.265118  0.001694  0.498657  1
  Pd  Pd17  1  0.500266  0.000422  0.735466  1
  Pd  Pd18  1  0.735842  0.001250  0.499533  1
  Pd  Pd19  1  0.999024  0.500007  0.264222  1
  Pd  Pd20  1  0.999189  0.499752  0.735388  1
  Pd  Pd21  1  0.254124  0.499503  0.499503  1
  Pd  Pd22  1  0.744727  0.498125  0.498125  1
  Pd  Pd23  1  0.500748  0.254639  0.500374  1
  Pd  Pd24  1  0.498606  0.745503  0.499875  1
  Pd  Pd25  1  0.500748  0.500374  0.254639  1
  Pd  Pd26  1  0.498606  0.499875  0.745503  1
  Pd  Pd27  1  0.308403  0.999666  0.999666  1
  Pd  Pd28  1  0.692941  0.001271  0.001271  1
  Pd  Pd29  1  0.000202  0.307060  0.999716  1
  Pd  Pd30  1  0.002122  0.692893  0.999681  1
  Pd  Pd31  1  0.000202  0.999716  0.307060  1
  Pd  Pd32  1  0.002122  0.999681  0.692893  1
