# generated using pymatgen
data_La4Ga8Ge2(IrRh)3
_symmetry_space_group_name_H-M   'P 1'
_cell_length_a   8.72233420
_cell_length_b   8.72233405
_cell_length_c   8.71854031
_cell_angle_alpha   140.64749964
_cell_angle_beta   107.69886735
_cell_angle_gamma   85.59504108
_symmetry_Int_Tables_number   1
_chemical_formula_structural   La4Ga8Ge2(IrRh)3
_chemical_formula_sum   'La4 Ga8 Ge2 Ir3 Rh3'
_cell_volume   386.68505606
_cell_formula_units_Z   1
loop_
 _symmetry_equiv_pos_site_id
 _symmetry_equiv_pos_as_xyz
  1  'x, y, z'
loop_
 _atom_site_type_symbol
 _atom_site_label
 _atom_site_symmetry_multiplicity
 _atom_site_fract_x
 _atom_site_fract_y
 _atom_site_fract_z
 _atom_site_occupancy
  La  La0  1  0.364956  0.133406  0.231258  1
  La  La1  1  0.638924  0.865999  0.773063  1
  La  La2  1  0.092937  0.365862  0.726937  1
  La  La3  1  0.902147  0.633698  0.268742  1
  Ga  Ga4  1  0.000818  0.250818  0.250000  1
  Ga  Ga5  1  0.000909  0.750909  0.750000  1
  Ga  Ga6  1  0.715374  0.965374  0.250000  1
  Ga  Ga7  1  0.285613  0.535613  0.250000  1
  Ga  Ga8  1  0.285146  0.035146  0.750000  1
  Ga  Ga9  1  0.715404  0.465404  0.750000  1
  Ga  Ga10  1  0.566181  0.403855  0.162473  1
  Ga  Ga11  1  0.241381  0.903708  0.337527  1
  Ge  Ge12  1  0.754920  0.093645  0.661532  1
  Ge  Ge13  1  0.432113  0.593389  0.838468  1
  Ir  Ir14  1  0.958562  0.856879  0.101935  1
  Ir  Ir15  1  0.500953  0.750953  0.250000  1
  Ir  Ir16  1  0.754942  0.356627  0.398065  1
  Rh  Rh17  1  0.248086  0.643199  0.603633  1
  Rh  Rh18  1  0.039565  0.144452  0.896367  1
  Rh  Rh19  1  0.501066  0.251066  0.750000  1
