# generated using pymatgen
data_Pu4V3B16Os
_symmetry_space_group_name_H-M   'P 1'
_cell_length_a   5.98031450
_cell_length_b   11.57557596
_cell_length_c   3.51574600
_cell_angle_alpha   90.00000000
_cell_angle_beta   90.00000000
_cell_angle_gamma   89.95331354
_symmetry_Int_Tables_number   1
_chemical_formula_structural   Pu4V3B16Os
_chemical_formula_sum   'Pu4 V3 B16 Os1'
_cell_volume   243.37949178
_cell_formula_units_Z   1
loop_
 _symmetry_equiv_pos_site_id
 _symmetry_equiv_pos_as_xyz
  1  'x, y, z'
loop_
 _atom_site_type_symbol
 _atom_site_label
 _atom_site_symmetry_multiplicity
 _atom_site_fract_x
 _atom_site_fract_y
 _atom_site_fract_z
 _atom_site_occupancy
  Pu  Pu0  1  0.625261  0.347423  0.000000  1
  Pu  Pu1  1  0.373375  0.652190  0.000000  1
  Pu  Pu2  1  0.125044  0.150032  0.000000  1
  Pu  Pu3  1  0.874645  0.851695  0.000000  1
  V  V4  1  0.627610  0.083756  0.000000  1
  V  V5  1  0.372588  0.915241  0.000000  1
  V  V6  1  0.133408  0.413830  0.000000  1
  B  B7  1  0.784805  0.185900  0.500000  1
  B  B8  1  0.214197  0.814167  0.500000  1
  B  B9  1  0.285251  0.313236  0.500000  1
  B  B10  1  0.715757  0.686137  0.500000  1
  B  B11  1  0.864916  0.033166  0.500000  1
  B  B12  1  0.135028  0.967267  0.500000  1
  B  B13  1  0.364915  0.467735  0.500000  1
  B  B14  1  0.634816  0.532262  0.500000  1
  B  B15  1  0.884634  0.452852  0.500000  1
  B  B16  1  0.114560  0.547453  0.500000  1
  B  B17  1  0.385398  0.046604  0.500000  1
  B  B18  1  0.613756  0.953518  0.500000  1
  B  B19  1  0.975019  0.308067  0.500000  1
  B  B20  1  0.024977  0.692266  0.500000  1
  B  B21  1  0.474833  0.191788  0.500000  1
  B  B22  1  0.525436  0.807856  0.500000  1
  Os  Os23  1  0.869769  0.585557  0.000000  1
