# generated using pymatgen
data_Rb4Na2YTmAs4
_symmetry_space_group_name_H-M   'P 1'
_cell_length_a   9.43406757
_cell_length_b   9.43406532
_cell_length_c   9.43406676
_cell_angle_alpha   135.18615256
_cell_angle_beta   135.33376898
_cell_angle_gamma   65.12662239
_symmetry_Int_Tables_number   1
_chemical_formula_structural   Rb4Na2YTmAs4
_chemical_formula_sum   'Rb4 Na2 Y1 Tm1 As4'
_cell_volume   410.00157080
_cell_formula_units_Z   1
loop_
 _symmetry_equiv_pos_site_id
 _symmetry_equiv_pos_as_xyz
  1  'x, y, z'
loop_
 _atom_site_type_symbol
 _atom_site_label
 _atom_site_symmetry_multiplicity
 _atom_site_fract_x
 _atom_site_fract_y
 _atom_site_fract_z
 _atom_site_occupancy
  Rb  Rb0  1  0.682421  0.391724  0.708838  1
  Rb  Rb1  1  0.817579  0.026416  0.209303  1
  Rb  Rb2  1  0.182886  0.973584  0.791162  1
  Rb  Rb3  1  0.317114  0.608276  0.290697  1
  Na  Na4  1  0.750000  0.000000  0.750000  1
  Na  Na5  1  0.250000  0.000000  0.250000  1
  Y  Y6  1  0.750000  0.500000  0.250000  1
  Tm  Tm7  1  0.250000  0.500000  0.750000  1
  As  As8  1  0.403166  0.184063  0.775255  1
  As  As9  1  0.591192  0.815937  0.219103  1
  As  As10  1  0.096834  0.372089  0.280897  1
  As  As11  1  0.908808  0.627911  0.724745  1
