# generated using pymatgen
data_Ce3Pr5Si12(IrRh)2
_symmetry_space_group_name_H-M   'P 1'
_cell_length_a   8.25709800
_cell_length_b   8.25709782
_cell_length_c   8.40667900
_cell_angle_alpha   90.00000000
_cell_angle_beta   90.00000000
_cell_angle_gamma   119.99999271
_symmetry_Int_Tables_number   1
_chemical_formula_structural   Ce3Pr5Si12(IrRh)2
_chemical_formula_sum   'Ce3 Pr5 Si12 Ir2 Rh2'
_cell_volume   496.37511082
_cell_formula_units_Z   1
loop_
 _symmetry_equiv_pos_site_id
 _symmetry_equiv_pos_as_xyz
  1  'x, y, z'
loop_
 _atom_site_type_symbol
 _atom_site_label
 _atom_site_symmetry_multiplicity
 _atom_site_fract_x
 _atom_site_fract_y
 _atom_site_fract_z
 _atom_site_occupancy
  Ce  Ce0  1  0.499270  0.500730  0.749719  1
  Ce  Ce1  1  0.499270  0.998541  0.749719  1
  Ce  Ce2  1  0.001459  0.500730  0.749719  1
  Pr  Pr3  1  0.000000  0.000000  0.249191  1
  Pr  Pr4  1  0.000000  0.000000  0.750811  1
  Pr  Pr5  1  0.500612  0.499388  0.249965  1
  Pr  Pr6  1  0.500612  0.001224  0.249965  1
  Pr  Pr7  1  0.998776  0.499388  0.249965  1
  Si  Si8  1  0.166771  0.833229  0.502764  1
  Si  Si9  1  0.166771  0.333543  0.502764  1
  Si  Si10  1  0.666457  0.833229  0.502764  1
  Si  Si11  1  0.833141  0.166859  0.502785  1
  Si  Si12  1  0.833141  0.666279  0.502785  1
  Si  Si13  1  0.333721  0.166859  0.502785  1
  Si  Si14  1  0.833463  0.166537  0.997271  1
  Si  Si15  1  0.833463  0.666923  0.997271  1
  Si  Si16  1  0.333077  0.166537  0.997271  1
  Si  Si17  1  0.166480  0.833520  0.997105  1
  Si  Si18  1  0.166480  0.332961  0.997105  1
  Si  Si19  1  0.667039  0.833520  0.997105  1
  Ir  Ir20  1  0.333333  0.666667  0.514004  1
  Ir  Ir21  1  0.666667  0.333333  0.518337  1
  Rh  Rh22  1  0.666667  0.333333  0.982089  1
  Rh  Rh23  1  0.333333  0.666667  0.986745  1
