# generated using pymatgen
data_NaTm(InBr3)2
_symmetry_space_group_name_H-M   'P 1'
_cell_length_a   8.15626000
_cell_length_b   7.61494739
_cell_length_c   13.20026459
_cell_angle_alpha   56.30750783
_cell_angle_beta   90.00000000
_cell_angle_gamma   90.00000000
_symmetry_Int_Tables_number   1
_chemical_formula_structural   NaTm(InBr3)2
_chemical_formula_sum   'Na2 Tm2 In4 Br12'
_cell_volume   682.14693311
_cell_formula_units_Z   2
loop_
 _symmetry_equiv_pos_site_id
 _symmetry_equiv_pos_as_xyz
  1  'x, y, z'
loop_
 _atom_site_type_symbol
 _atom_site_label
 _atom_site_symmetry_multiplicity
 _atom_site_fract_x
 _atom_site_fract_y
 _atom_site_fract_z
 _atom_site_occupancy
  Na  Na0  1  0.500000  0.500000  0.000000  1
  Na  Na1  1  0.000000  0.500000  0.500000  1
  Tm  Tm2  1  0.500000  0.000000  0.500000  1
  Tm  Tm3  1  0.000000  0.000000  0.000000  1
  In  In4  1  0.075583  0.713778  0.759146  1
  In  In5  1  0.924417  0.286222  0.240854  1
  In  In6  1  0.575583  0.286222  0.740854  1
  In  In7  1  0.424417  0.713778  0.259146  1
  Br  Br8  1  0.782347  0.758840  0.559928  1
  Br  Br9  1  0.217653  0.241160  0.440072  1
  Br  Br10  1  0.282347  0.241160  0.940072  1
  Br  Br11  1  0.717653  0.758840  0.059928  1
  Br  Br12  1  0.462401  0.869780  0.741475  1
  Br  Br13  1  0.537599  0.130220  0.258525  1
  Br  Br14  1  0.962401  0.130220  0.758525  1
  Br  Br15  1  0.037599  0.869780  0.241475  1
  Br  Br16  1  0.315625  0.658186  0.544330  1
  Br  Br17  1  0.684375  0.341814  0.455670  1
  Br  Br18  1  0.815625  0.341814  0.955670  1
  Br  Br19  1  0.184375  0.658186  0.044330  1
