# generated using pymatgen
data_DyIn(BrO3)6
_symmetry_space_group_name_H-M   'P 1'
_cell_length_a   7.27711515
_cell_length_b   9.48661520
_cell_length_c   8.98246300
_cell_angle_alpha   57.07811519
_cell_angle_beta   89.22416104
_cell_angle_gamma   89.19514748
_symmetry_Int_Tables_number   1
_chemical_formula_structural   DyIn(BrO3)6
_chemical_formula_sum   'Dy1 In1 Br6 O18'
_cell_volume   520.46042314
_cell_formula_units_Z   1
loop_
 _symmetry_equiv_pos_site_id
 _symmetry_equiv_pos_as_xyz
  1  'x, y, z'
loop_
 _atom_site_type_symbol
 _atom_site_label
 _atom_site_symmetry_multiplicity
 _atom_site_fract_x
 _atom_site_fract_y
 _atom_site_fract_z
 _atom_site_occupancy
  Dy  Dy0  1  0.495483  0.316758  0.348135  1
  In  In1  1  0.955899  0.690496  0.643644  1
  Br  Br2  1  0.771455  0.690959  0.993536  1
  Br  Br3  1  0.769226  0.303603  0.723318  1
  Br  Br4  1  0.661662  0.972529  0.290742  1
  Br  Br5  1  0.244674  0.365649  0.946432  1
  Br  Br6  1  0.173622  0.658881  0.319991  1
  Br  Br7  1  0.266550  0.926947  0.720343  1
  O  O8  1  0.656732  0.504760  0.103958  1
  O  O9  1  0.684212  0.325388  0.536467  1
  O  O10  1  0.659667  0.105693  0.363591  1
  O  O11  1  0.114674  0.542887  0.892543  1
  O  O12  1  0.164764  0.593501  0.541778  1
  O  O13  1  0.126008  0.906872  0.581231  1
  O  O14  1  0.745771  0.750246  0.774630  1
  O  O15  1  0.754604  0.503146  0.679996  1
  O  O16  1  0.867152  0.866360  0.371824  1
  O  O17  1  0.309220  0.297106  0.156105  1
  O  O18  1  0.347460  0.539729  0.320142  1
  O  O19  1  0.320120  0.133873  0.585811  1
  O  O20  1  0.641452  0.829119  0.001906  1
  O  O21  1  0.613020  0.202698  0.879612  1
  O  O22  1  0.098343  0.226665  0.965392  1
  O  O23  1  0.134096  0.912425  0.878513  1
  O  O24  1  0.493582  0.840816  0.398303  1
  O  O25  1  0.985555  0.583891  0.290055  1
