# generated using pymatgen
data_Hf7Co8Si14Mo
_symmetry_space_group_name_H-M   'P 1'
_cell_length_a   9.38354629
_cell_length_b   9.38354600
_cell_length_c   9.38307182
_cell_angle_alpha   94.14185389
_cell_angle_beta   94.14185467
_cell_angle_gamma   148.82112679
_symmetry_Int_Tables_number   1
_chemical_formula_structural   Hf7Co8Si14Mo
_chemical_formula_sum   'Hf7 Co8 Si14 Mo1'
_cell_volume   411.99043510
_cell_formula_units_Z   1
loop_
 _symmetry_equiv_pos_site_id
 _symmetry_equiv_pos_as_xyz
  1  'x, y, z'
loop_
 _atom_site_type_symbol
 _atom_site_label
 _atom_site_symmetry_multiplicity
 _atom_site_fract_x
 _atom_site_fract_y
 _atom_site_fract_z
 _atom_site_occupancy
  Hf  Hf0  1  0.864405  0.864405  0.728809  1
  Hf  Hf1  1  0.137006  0.862617  0.999624  1
  Hf  Hf2  1  0.862617  0.137006  0.999624  1
  Hf  Hf3  1  0.305376  0.499693  0.805069  1
  Hf  Hf4  1  0.695383  0.502562  0.197944  1
  Hf  Hf5  1  0.502562  0.695383  0.197944  1
  Hf  Hf6  1  0.499693  0.305376  0.805069  1
  Co  Co7  1  0.102111  0.602111  0.204221  1
  Co  Co8  1  0.398123  0.898123  0.796247  1
  Co  Co9  1  0.897783  0.101875  0.498864  1
  Co  Co10  1  0.601080  0.396989  0.498864  1
  Co  Co11  1  0.602111  0.102111  0.204221  1
  Co  Co12  1  0.898123  0.398123  0.796247  1
  Co  Co13  1  0.101875  0.897783  0.498864  1
  Co  Co14  1  0.396989  0.601080  0.498864  1
  Si  Si15  1  0.286007  0.286007  0.572013  1
  Si  Si16  1  0.710847  0.710847  0.421694  1
  Si  Si17  1  0.291305  0.709216  0.000521  1
  Si  Si18  1  0.709216  0.291305  0.000521  1
  Si  Si19  1  0.091555  0.500134  0.591689  1
  Si  Si20  1  0.908236  0.500220  0.408456  1
  Si  Si21  1  0.500220  0.908236  0.408456  1
  Si  Si22  1  0.500134  0.091555  0.591689  1
  Si  Si23  1  0.249573  0.249573  0.004750  1
  Si  Si24  1  0.755176  0.755176  0.004750  1
  Si  Si25  1  0.298215  0.002850  0.301066  1
  Si  Si26  1  0.698905  0.999240  0.698144  1
  Si  Si27  1  0.999240  0.698905  0.698144  1
  Si  Si28  1  0.002850  0.298215  0.301066  1
  Mo  Mo29  1  0.133284  0.133284  0.266569  1
