# generated using pymatgen
data_Tb4Ho8GaCo5
_symmetry_space_group_name_H-M   'P 1'
_cell_length_a   8.21941117
_cell_length_b   8.21946127
_cell_length_c   8.21941184
_cell_angle_alpha   110.61691096
_cell_angle_beta   110.73105515
_cell_angle_gamma   107.09136635
_symmetry_Int_Tables_number   1
_chemical_formula_structural   Tb4Ho8GaCo5
_chemical_formula_sum   'Tb4 Ho8 Ga1 Co5'
_cell_volume   426.91793609
_cell_formula_units_Z   1
loop_
 _symmetry_equiv_pos_site_id
 _symmetry_equiv_pos_as_xyz
  1  'x, y, z'
loop_
 _atom_site_type_symbol
 _atom_site_label
 _atom_site_symmetry_multiplicity
 _atom_site_fract_x
 _atom_site_fract_y
 _atom_site_fract_z
 _atom_site_occupancy
  Tb  Tb0  1  0.812139  0.708479  0.520618  1
  Tb  Tb1  1  0.187861  0.291521  0.479382  1
  Tb  Tb2  1  0.187862  0.708479  0.896340  1
  Tb  Tb3  1  0.812138  0.291521  0.103660  1
  Ho  Ho4  1  0.684229  0.380165  0.695939  1
  Ho  Ho5  1  0.315771  0.619835  0.304061  1
  Ho  Ho6  1  0.684231  0.988295  0.304066  1
  Ho  Ho7  1  0.315769  0.011705  0.695934  1
  Ho  Ho8  1  0.597107  0.787516  0.809591  1
  Ho  Ho9  1  0.402893  0.212484  0.190409  1
  Ho  Ho10  1  0.977925  0.787516  0.190409  1
  Ho  Ho11  1  0.022075  0.212484  0.809591  1
  Ga  Ga12  1  0.500000  0.500000  0.000000  1
  Co  Co13  1  0.622917  0.000000  0.622917  1
  Co  Co14  1  0.377083  0.000000  0.377083  1
  Co  Co15  1  0.113574  0.613573  0.499999  1
  Co  Co16  1  0.886426  0.386427  0.500001  1
  Co  Co17  1  0.000000  0.000000  0.000000  1
