# generated using pymatgen
data_La4Pr9Th3(CdIr)4
_symmetry_space_group_name_H-M   'P 1'
_cell_length_a   10.04049268
_cell_length_b   10.04452473
_cell_length_c   10.08359319
_cell_angle_alpha   60.11296683
_cell_angle_beta   60.25390062
_cell_angle_gamma   60.39336003
_symmetry_Int_Tables_number   1
_chemical_formula_structural   La4Pr9Th3(CdIr)4
_chemical_formula_sum   'La4 Pr9 Th3 Cd4 Ir4'
_cell_volume   723.20870144
_cell_formula_units_Z   1
loop_
 _symmetry_equiv_pos_site_id
 _symmetry_equiv_pos_as_xyz
  1  'x, y, z'
loop_
 _atom_site_type_symbol
 _atom_site_label
 _atom_site_symmetry_multiplicity
 _atom_site_fract_x
 _atom_site_fract_y
 _atom_site_fract_z
 _atom_site_occupancy
  La  La0  1  0.955308  0.348751  0.348478  1
  La  La1  1  0.809056  0.191332  0.190574  1
  La  La2  1  0.190550  0.809505  0.808544  1
  La  La3  1  0.191088  0.809145  0.191197  1
  Pr  Pr4  1  0.807413  0.192049  0.807949  1
  Pr  Pr5  1  0.191960  0.193141  0.807212  1
  Pr  Pr6  1  0.806247  0.807823  0.192253  1
  Pr  Pr7  1  0.939641  0.562325  0.563551  1
  Pr  Pr8  1  0.561186  0.938636  0.937576  1
  Pr  Pr9  1  0.561556  0.939795  0.562096  1
  Pr  Pr10  1  0.939356  0.561311  0.935606  1
  Pr  Pr11  1  0.561908  0.561448  0.939671  1
  Pr  Pr12  1  0.939179  0.936285  0.561826  1
  Th  Th13  1  0.344146  0.345296  0.346435  1
  Th  Th14  1  0.345653  0.345461  0.962153  1
  Th  Th15  1  0.346517  0.961807  0.345941  1
  Cd  Cd16  1  0.578181  0.580317  0.580339  1
  Cd  Cd17  1  0.578066  0.581296  0.260379  1
  Cd  Cd18  1  0.577527  0.260286  0.581767  1
  Cd  Cd19  1  0.259368  0.579823  0.580673  1
  Ir  Ir20  1  0.149367  0.140583  0.143515  1
  Ir  Ir21  1  0.151539  0.139602  0.565787  1
  Ir  Ir22  1  0.152476  0.567173  0.140053  1
  Ir  Ir23  1  0.562707  0.146805  0.146421  1
