# generated using pymatgen
data_NdZr2PdF15
_symmetry_space_group_name_H-M   'P 1'
_cell_length_a   8.32611697
_cell_length_b   8.32611644
_cell_length_c   8.27459681
_cell_angle_alpha   78.53808586
_cell_angle_beta   78.53808411
_cell_angle_gamma   98.05101627
_symmetry_Int_Tables_number   1
_chemical_formula_structural   NdZr2PdF15
_chemical_formula_sum   'Nd2 Zr4 Pd2 F30'
_cell_volume   541.26694384
_cell_formula_units_Z   2
loop_
 _symmetry_equiv_pos_site_id
 _symmetry_equiv_pos_as_xyz
  1  'x, y, z'
loop_
 _atom_site_type_symbol
 _atom_site_label
 _atom_site_symmetry_multiplicity
 _atom_site_fract_x
 _atom_site_fract_y
 _atom_site_fract_z
 _atom_site_occupancy
  Nd  Nd0  1  0.178655  0.821345  0.250000  1
  Nd  Nd1  1  0.821345  0.178655  0.750000  1
  Zr  Zr2  1  0.728867  0.681460  0.662770  1
  Zr  Zr3  1  0.318540  0.271133  0.837230  1
  Zr  Zr4  1  0.271133  0.318540  0.337230  1
  Zr  Zr5  1  0.681460  0.728867  0.162770  1
  Pd  Pd6  1  0.748333  0.251667  0.250000  1
  Pd  Pd7  1  0.251667  0.748333  0.750000  1
  F  F8  1  0.314286  0.350615  0.067109  1
  F  F9  1  0.926898  0.802113  0.157812  1
  F  F10  1  0.829656  0.469922  0.690307  1
  F  F11  1  0.469922  0.829656  0.190307  1
  F  F12  1  0.802113  0.926898  0.657812  1
  F  F13  1  0.350615  0.314286  0.567108  1
  F  F14  1  0.685714  0.649385  0.932891  1
  F  F15  1  0.073102  0.197887  0.842188  1
  F  F16  1  0.170344  0.530078  0.309693  1
  F  F17  1  0.530078  0.170344  0.809693  1
  F  F18  1  0.197887  0.073102  0.342188  1
  F  F19  1  0.649385  0.685714  0.432891  1
  F  F20  1  0.758234  0.274125  0.009104  1
  F  F21  1  0.986805  0.273090  0.203325  1
  F  F22  1  0.788018  0.501245  0.208632  1
  F  F23  1  0.501245  0.788018  0.708632  1
  F  F24  1  0.273090  0.986805  0.703325  1
  F  F25  1  0.274125  0.758234  0.509104  1
  F  F26  1  0.241766  0.725875  0.990896  1
  F  F27  1  0.013195  0.726910  0.796675  1
  F  F28  1  0.211982  0.498755  0.791368  1
  F  F29  1  0.498755  0.211982  0.291368  1
  F  F30  1  0.726910  0.013195  0.296675  1
  F  F31  1  0.725875  0.241766  0.490896  1
  F  F32  1  0.479685  0.520315  0.250000  1
  F  F33  1  0.748141  0.946004  0.978069  1
  F  F34  1  0.053996  0.251859  0.521931  1
  F  F35  1  0.251859  0.053996  0.021931  1
  F  F36  1  0.946004  0.748141  0.478069  1
  F  F37  1  0.520315  0.479685  0.750000  1
