# generated using pymatgen
data_Ca2La4PrRh3
_symmetry_space_group_name_H-M   'P 1'
_cell_length_a   6.63217222
_cell_length_b   10.13656157
_cell_length_c   10.13656142
_cell_angle_alpha   119.30563021
_cell_angle_beta   90.11389574
_cell_angle_gamma   89.88610289
_symmetry_Int_Tables_number   1
_chemical_formula_structural   Ca2La4PrRh3
_chemical_formula_sum   'Ca4 La8 Pr2 Rh6'
_cell_volume   594.24152257
_cell_formula_units_Z   2
loop_
 _symmetry_equiv_pos_site_id
 _symmetry_equiv_pos_as_xyz
  1  'x, y, z'
loop_
 _atom_site_type_symbol
 _atom_site_label
 _atom_site_symmetry_multiplicity
 _atom_site_fract_x
 _atom_site_fract_y
 _atom_site_fract_z
 _atom_site_occupancy
  Ca  Ca0  1  0.446308  0.542094  0.457906  1
  Ca  Ca1  1  0.444923  0.914906  0.457286  1
  Ca  Ca2  1  0.444923  0.542714  0.085094  1
  Ca  Ca3  1  0.944858  0.458642  0.541358  1
  La  La4  1  0.478308  0.332363  0.667637  1
  La  La5  1  0.992622  0.667337  0.332663  1
  La  La6  1  0.247384  0.123727  0.876273  1
  La  La7  1  0.252089  0.754409  0.877896  1
  La  La8  1  0.252089  0.122104  0.245591  1
  La  La9  1  0.752813  0.875749  0.124251  1
  La  La10  1  0.754232  0.246502  0.123291  1
  La  La11  1  0.754232  0.876709  0.753498  1
  Pr  Pr12  1  0.938282  0.082862  0.540967  1
  Pr  Pr13  1  0.938282  0.459033  0.917138  1
  Rh  Rh14  1  0.166635  0.815019  0.184981  1
  Rh  Rh15  1  0.167983  0.369737  0.184256  1
  Rh  Rh16  1  0.167983  0.815744  0.630263  1
  Rh  Rh17  1  0.686964  0.188059  0.811941  1
  Rh  Rh18  1  0.677547  0.627820  0.815531  1
  Rh  Rh19  1  0.677547  0.184469  0.372180  1
