# generated using pymatgen
data_NdYIr2O7
_symmetry_space_group_name_H-M   'P 1'
_cell_length_a   7.37932663
_cell_length_b   7.32795588
_cell_length_c   7.32795574
_cell_angle_alpha   59.56151109
_cell_angle_beta   59.76782509
_cell_angle_gamma   59.76783668
_symmetry_Int_Tables_number   1
_chemical_formula_structural   NdYIr2O7
_chemical_formula_sum   'Nd2 Y2 Ir4 O14'
_cell_volume   278.28169645
_cell_formula_units_Z   2
loop_
 _symmetry_equiv_pos_site_id
 _symmetry_equiv_pos_as_xyz
  1  'x, y, z'
loop_
 _atom_site_type_symbol
 _atom_site_label
 _atom_site_symmetry_multiplicity
 _atom_site_fract_x
 _atom_site_fract_y
 _atom_site_fract_z
 _atom_site_occupancy
  Nd  Nd0  1  0.625000  0.125000  0.125000  1
  Nd  Nd1  1  0.125000  0.125000  0.125000  1
  Y  Y2  1  0.125000  0.625000  0.125000  1
  Y  Y3  1  0.125000  0.125000  0.625000  1
  Ir  Ir4  1  0.125000  0.625000  0.625000  1
  Ir  Ir5  1  0.625000  0.125000  0.625000  1
  Ir  Ir6  1  0.625000  0.625000  0.125000  1
  Ir  Ir7  1  0.625000  0.625000  0.625000  1
  O  O8  1  0.717783  0.701283  0.290831  1
  O  O9  1  0.290102  0.290831  0.701283  1
  O  O10  1  0.717783  0.290831  0.701283  1
  O  O11  1  0.290102  0.701283  0.290831  1
  O  O12  1  0.291290  0.708710  0.708710  1
  O  O13  1  0.710240  0.289760  0.289760  1
  O  O14  1  0.532217  0.548717  0.959169  1
  O  O15  1  0.959898  0.959169  0.548717  1
  O  O16  1  0.532217  0.959169  0.548717  1
  O  O17  1  0.959898  0.548717  0.959169  1
  O  O18  1  0.958710  0.541290  0.541290  1
  O  O19  1  0.539760  0.960240  0.960240  1
  O  O20  1  0.243871  0.256129  0.256129  1
  O  O21  1  0.006129  0.993871  0.993871  1
