# generated using pymatgen
data_La2TbTa2Bi3O14
_symmetry_space_group_name_H-M   'P 1'
_cell_length_a   6.69657971
_cell_length_b   6.74516329
_cell_length_c   7.69927400
_cell_angle_alpha   90.00000000
_cell_angle_beta   90.00000000
_cell_angle_gamma   110.97405733
_symmetry_Int_Tables_number   1
_chemical_formula_structural   La2TbTa2Bi3O14
_chemical_formula_sum   'La2 Tb1 Ta2 Bi3 O14'
_cell_volume   324.73003286
_cell_formula_units_Z   1
loop_
 _symmetry_equiv_pos_site_id
 _symmetry_equiv_pos_as_xyz
  1  'x, y, z'
loop_
 _atom_site_type_symbol
 _atom_site_label
 _atom_site_symmetry_multiplicity
 _atom_site_fract_x
 _atom_site_fract_y
 _atom_site_fract_z
 _atom_site_occupancy
  La  La0  1  0.002347  0.987737  0.002389  1
  La  La1  1  0.002347  0.987737  0.497611  1
  Tb  Tb2  1  0.050365  0.504461  0.250000  1
  Ta  Ta3  1  0.501686  0.503280  0.001193  1
  Ta  Ta4  1  0.501686  0.503280  0.498807  1
  Bi  Bi5  1  0.490196  0.965369  0.750000  1
  Bi  Bi6  1  0.524598  0.033477  0.250000  1
  Bi  Bi7  1  0.970458  0.474596  0.750000  1
  O  O8  1  0.861944  0.101716  0.750000  1
  O  O9  1  0.167041  0.864865  0.250000  1
  O  O10  1  0.117950  0.834448  0.750000  1
  O  O11  1  0.906865  0.147075  0.250000  1
  O  O12  1  0.428849  0.195290  0.960334  1
  O  O13  1  0.568698  0.825029  0.464637  1
  O  O14  1  0.175812  0.446946  0.529128  1
  O  O15  1  0.802116  0.560490  0.049112  1
  O  O16  1  0.407824  0.459985  0.250000  1
  O  O17  1  0.543745  0.576464  0.750000  1
  O  O18  1  0.175812  0.446946  0.970872  1
  O  O19  1  0.802116  0.560490  0.450888  1
  O  O20  1  0.428849  0.195290  0.539666  1
  O  O21  1  0.568698  0.825029  0.035363  1
