# generated using pymatgen
data_La6NdPI12
_symmetry_space_group_name_H-M   'P 1'
_cell_length_a   10.10134361
_cell_length_b   10.11358065
_cell_length_c   10.09906401
_cell_angle_alpha   107.63884280
_cell_angle_beta   107.68388783
_cell_angle_gamma   107.86195017
_symmetry_Int_Tables_number   1
_chemical_formula_structural   La6NdPI12
_chemical_formula_sum   'La6 Nd1 P1 I12'
_cell_volume   841.57810664
_cell_formula_units_Z   1
loop_
 _symmetry_equiv_pos_site_id
 _symmetry_equiv_pos_as_xyz
  1  'x, y, z'
loop_
 _atom_site_type_symbol
 _atom_site_label
 _atom_site_symmetry_multiplicity
 _atom_site_fract_x
 _atom_site_fract_y
 _atom_site_fract_z
 _atom_site_occupancy
  La  La0  1  0.807997  0.533300  0.605132  1
  La  La1  1  0.604332  0.807581  0.532797  1
  La  La2  1  0.472371  0.400481  0.192258  1
  La  La3  1  0.191941  0.472359  0.400925  1
  La  La4  1  0.399792  0.192209  0.473277  1
  La  La5  1  0.982172  0.982390  0.982930  1
  Nd  Nd6  1  0.533863  0.603368  0.802291  1
  P  P7  1  0.498094  0.497900  0.497807  1
  I  I8  1  0.271405  0.815112  0.423012  1
  I  I9  1  0.424420  0.277077  0.816056  1
  I  I10  1  0.815213  0.422839  0.271792  1
  I  I11  1  0.730269  0.185352  0.575576  1
  I  I12  1  0.574936  0.729328  0.183658  1
  I  I13  1  0.189964  0.575773  0.732145  1
  I  I14  1  0.031311  0.110957  0.339832  1
  I  I15  1  0.339297  0.031779  0.111340  1
  I  I16  1  0.110877  0.339345  0.031810  1
  I  I17  1  0.971002  0.887145  0.646677  1
  I  I18  1  0.644129  0.965445  0.886503  1
  I  I19  1  0.881985  0.645630  0.969552  1
