# generated using pymatgen
data_NpVCrO6
_symmetry_space_group_name_H-M   'P 1'
_cell_length_a   4.74770787
_cell_length_b   4.74809647
_cell_length_c   9.46212191
_cell_angle_alpha   89.90473257
_cell_angle_beta   89.96780905
_cell_angle_gamma   89.94514695
_symmetry_Int_Tables_number   1
_chemical_formula_structural   NpVCrO6
_chemical_formula_sum   'Np2 V2 Cr2 O12'
_cell_volume   213.30016613
_cell_formula_units_Z   2
loop_
 _symmetry_equiv_pos_site_id
 _symmetry_equiv_pos_as_xyz
  1  'x, y, z'
loop_
 _atom_site_type_symbol
 _atom_site_label
 _atom_site_symmetry_multiplicity
 _atom_site_fract_x
 _atom_site_fract_y
 _atom_site_fract_z
 _atom_site_occupancy
  Np  Np0  1  0.500665  0.500212  0.832772  1
  Np  Np1  1  0.999364  0.999835  0.332792  1
  V  V2  1  0.499721  0.499544  0.500126  1
  V  V3  1  0.000064  0.999726  0.000143  1
  Cr  Cr4  1  0.000750  0.000536  0.667240  1
  Cr  Cr5  1  0.499490  0.500135  0.167142  1
  O  O6  1  0.197788  0.801692  0.164466  1
  O  O7  1  0.801275  0.198212  0.164924  1
  O  O8  1  0.302390  0.302073  0.664224  1
  O  O9  1  0.698720  0.698504  0.665143  1
  O  O10  1  0.197874  0.801824  0.503709  1
  O  O11  1  0.801660  0.198217  0.503786  1
  O  O12  1  0.302211  0.302097  0.003703  1
  O  O13  1  0.698373  0.698331  0.003874  1
  O  O14  1  0.190804  0.810168  0.831407  1
  O  O15  1  0.811093  0.189964  0.831572  1
  O  O16  1  0.309168  0.309706  0.331300  1
  O  O17  1  0.688593  0.689222  0.331674  1
