# generated using pymatgen
data_PtRh(SeO3)4
_symmetry_space_group_name_H-M   'P 1'
_cell_length_a   7.02230465
_cell_length_b   5.27466407
_cell_length_c   9.20349735
_cell_angle_alpha   55.35613508
_cell_angle_beta   89.63706393
_cell_angle_gamma   89.55441566
_symmetry_Int_Tables_number   1
_chemical_formula_structural   PtRh(SeO3)4
_chemical_formula_sum   'Pt1 Rh1 Se4 O12'
_cell_volume   280.44989933
_cell_formula_units_Z   1
loop_
 _symmetry_equiv_pos_site_id
 _symmetry_equiv_pos_as_xyz
  1  'x, y, z'
loop_
 _atom_site_type_symbol
 _atom_site_label
 _atom_site_symmetry_multiplicity
 _atom_site_fract_x
 _atom_site_fract_y
 _atom_site_fract_z
 _atom_site_occupancy
  Pt  Pt0  1  0.000000  0.000000  0.000000  1
  Rh  Rh1  1  0.500000  0.000000  0.500000  1
  Se  Se2  1  0.824760  0.315927  0.194814  1
  Se  Se3  1  0.675132  0.311719  0.695779  1
  Se  Se4  1  0.175240  0.684073  0.805186  1
  Se  Se5  1  0.324868  0.688281  0.304221  1
  O  O6  1  0.835685  0.316599  0.002255  1
  O  O7  1  0.667369  0.306479  0.508034  1
  O  O8  1  0.164315  0.683401  0.997745  1
  O  O9  1  0.332631  0.693521  0.491966  1
  O  O10  1  0.589095  0.192291  0.249819  1
  O  O11  1  0.914388  0.195767  0.747132  1
  O  O12  1  0.410905  0.807709  0.750181  1
  O  O13  1  0.085612  0.804233  0.252868  1
  O  O14  1  0.773874  0.709307  0.087205  1
  O  O15  1  0.719928  0.709359  0.586029  1
  O  O16  1  0.226126  0.290693  0.912795  1
  O  O17  1  0.280072  0.290641  0.413971  1
