# generated using pymatgen
data_Ho4Si10Os5Pt
_symmetry_space_group_name_H-M   'P 1'
_cell_length_a   8.10766387
_cell_length_b   8.12300366
_cell_length_c   5.79416063
_cell_angle_alpha   71.13467364
_cell_angle_beta   70.78203859
_cell_angle_gamma   94.18316786
_symmetry_Int_Tables_number   1
_chemical_formula_structural   Ho4Si10Os5Pt
_chemical_formula_sum   'Ho4 Si10 Os5 Pt1'
_cell_volume   334.03239122
_cell_formula_units_Z   1
loop_
 _symmetry_equiv_pos_site_id
 _symmetry_equiv_pos_as_xyz
  1  'x, y, z'
loop_
 _atom_site_type_symbol
 _atom_site_label
 _atom_site_symmetry_multiplicity
 _atom_site_fract_x
 _atom_site_fract_y
 _atom_site_fract_z
 _atom_site_occupancy
  Ho  Ho0  1  0.866577  0.601382  0.756110  1
  Ho  Ho1  1  0.401912  0.133094  0.741036  1
  Ho  Ho2  1  0.130553  0.396117  0.253270  1
  Ho  Ho3  1  0.597909  0.869607  0.257130  1
  Si  Si4  1  0.058875  0.252880  0.842668  1
  Si  Si5  1  0.735814  0.932244  0.667548  1
  Si  Si6  1  0.932054  0.738770  0.164592  1
  Si  Si7  1  0.264755  0.065373  0.330179  1
  Si  Si8  1  0.216234  0.802369  0.732100  1
  Si  Si9  1  0.791176  0.205070  0.257334  1
  Si  Si10  1  0.520243  0.487485  0.751756  1
  Si  Si11  1  0.492067  0.514171  0.240810  1
  Si  Si12  1  0.771994  0.228158  0.750868  1
  Si  Si13  1  0.225877  0.780964  0.246993  1
  Os  Os14  1  0.453051  0.742590  0.874169  1
  Os  Os15  1  0.744306  0.459259  0.367638  1
  Os  Os16  1  0.543893  0.257072  0.132279  1
  Os  Os17  1  0.003848  0.992566  0.748585  1
  Os  Os18  1  0.996210  0.003334  0.250142  1
  Pt  Pt19  1  0.252652  0.537495  0.634792  1
