# generated using pymatgen
data_DyTm3Hg2
_symmetry_space_group_name_H-M   'P 1'
_cell_length_a   5.04280900
_cell_length_b   7.03659241
_cell_length_c   9.12886515
_cell_angle_alpha   89.92709940
_cell_angle_beta   90.00000000
_cell_angle_gamma   90.00000000
_symmetry_Int_Tables_number   1
_chemical_formula_structural   DyTm3Hg2
_chemical_formula_sum   'Dy2 Tm6 Hg4'
_cell_volume   323.93013707
_cell_formula_units_Z   2
loop_
 _symmetry_equiv_pos_site_id
 _symmetry_equiv_pos_as_xyz
  1  'x, y, z'
loop_
 _atom_site_type_symbol
 _atom_site_label
 _atom_site_symmetry_multiplicity
 _atom_site_fract_x
 _atom_site_fract_y
 _atom_site_fract_z
 _atom_site_occupancy
  Dy  Dy0  1  0.750000  0.015143  0.691846  1
  Dy  Dy1  1  0.250000  0.984857  0.308154  1
  Tm  Tm2  1  0.750000  0.664682  0.423728  1
  Tm  Tm3  1  0.250000  0.335318  0.576272  1
  Tm  Tm4  1  0.750000  0.168003  0.074343  1
  Tm  Tm5  1  0.250000  0.831997  0.925657  1
  Tm  Tm6  1  0.750000  0.515602  0.808145  1
  Tm  Tm7  1  0.250000  0.484398  0.191855  1
  Hg  Hg8  1  0.750000  0.241735  0.397227  1
  Hg  Hg9  1  0.250000  0.758265  0.602773  1
  Hg  Hg10  1  0.750000  0.739581  0.100377  1
  Hg  Hg11  1  0.250000  0.260419  0.899623  1
