# generated using pymatgen
data_EuThB8
_symmetry_space_group_name_H-M   'P 1'
_cell_length_a   7.23333704
_cell_length_b   7.23333726
_cell_length_c   4.11431400
_cell_angle_alpha   90.00000000
_cell_angle_beta   90.00000000
_cell_angle_gamma   90.64126385
_symmetry_Int_Tables_number   1
_chemical_formula_structural   EuThB8
_chemical_formula_sum   'Eu2 Th2 B16'
_cell_volume   215.25222467
_cell_formula_units_Z   2
loop_
 _symmetry_equiv_pos_site_id
 _symmetry_equiv_pos_as_xyz
  1  'x, y, z'
loop_
 _atom_site_type_symbol
 _atom_site_label
 _atom_site_symmetry_multiplicity
 _atom_site_fract_x
 _atom_site_fract_y
 _atom_site_fract_z
 _atom_site_occupancy
  Eu  Eu0  1  0.684321  0.315679  0.000000  1
  Eu  Eu1  1  0.315679  0.684321  0.000000  1
  Th  Th2  1  0.813614  0.813614  0.000000  1
  Th  Th3  1  0.186386  0.186386  0.000000  1
  B  B4  1  0.000000  0.500000  0.796456  1
  B  B5  1  0.500000  0.000000  0.796456  1
  B  B6  1  0.000000  0.500000  0.203544  1
  B  B7  1  0.500000  0.000000  0.203544  1
  B  B8  1  0.038822  0.674877  0.500000  1
  B  B9  1  0.961178  0.325123  0.500000  1
  B  B10  1  0.461732  0.175344  0.500000  1
  B  B11  1  0.538268  0.824656  0.500000  1
  B  B12  1  0.175344  0.461732  0.500000  1
  B  B13  1  0.824656  0.538268  0.500000  1
  B  B14  1  0.674877  0.038822  0.500000  1
  B  B15  1  0.325123  0.961178  0.500000  1
  B  B16  1  0.589215  0.589215  0.500000  1
  B  B17  1  0.410785  0.410785  0.500000  1
  B  B18  1  0.912536  0.087464  0.500000  1
  B  B19  1  0.087464  0.912536  0.500000  1
