# generated using pymatgen
data_CaNiIO6
_symmetry_space_group_name_H-M   'P 1'
_cell_length_a   5.14364600
_cell_length_b   5.14364728
_cell_length_c   5.08798600
_cell_angle_alpha   90.00000000
_cell_angle_beta   90.00000000
_cell_angle_gamma   120.00000466
_symmetry_Int_Tables_number   1
_chemical_formula_structural   CaNiIO6
_chemical_formula_sum   'Ca1 Ni1 I1 O6'
_cell_volume   116.57858237
_cell_formula_units_Z   1
loop_
 _symmetry_equiv_pos_site_id
 _symmetry_equiv_pos_as_xyz
  1  'x, y, z'
loop_
 _atom_site_type_symbol
 _atom_site_label
 _atom_site_symmetry_multiplicity
 _atom_site_fract_x
 _atom_site_fract_y
 _atom_site_fract_z
 _atom_site_occupancy
  Ca  Ca0  1  0.333333  0.666667  0.000000  1
  Ni  Ni1  1  0.666667  0.333333  0.500000  1
  I  I2  1  0.000000  0.000000  0.500000  1
  O  O3  1  0.317990  0.030191  0.712846  1
  O  O4  1  0.969809  0.682010  0.287154  1
  O  O5  1  0.317990  0.287799  0.287154  1
  O  O6  1  0.712201  0.030191  0.287154  1
  O  O7  1  0.969809  0.287799  0.712846  1
  O  O8  1  0.712201  0.682010  0.712846  1
