# generated using pymatgen
data_TmLuVCoB8
_symmetry_space_group_name_H-M   'P 1'
_cell_length_a   3.36636600
_cell_length_b   5.90575979
_cell_length_c   11.41403101
_cell_angle_alpha   90.05609352
_cell_angle_beta   90.00000000
_cell_angle_gamma   90.00000000
_symmetry_Int_Tables_number   1
_chemical_formula_structural   TmLuVCoB8
_chemical_formula_sum   'Tm2 Lu2 V2 Co2 B16'
_cell_volume   226.92165914
_cell_formula_units_Z   2
loop_
 _symmetry_equiv_pos_site_id
 _symmetry_equiv_pos_as_xyz
  1  'x, y, z'
loop_
 _atom_site_type_symbol
 _atom_site_label
 _atom_site_symmetry_multiplicity
 _atom_site_fract_x
 _atom_site_fract_y
 _atom_site_fract_z
 _atom_site_occupancy
  Tm  Tm0  1  0.500000  0.371184  0.147974  1
  Tm  Tm1  1  0.500000  0.628816  0.852026  1
  Lu  Lu2  1  0.500000  0.125215  0.652661  1
  Lu  Lu3  1  0.500000  0.874785  0.347339  1
  V  V4  1  0.500000  0.372072  0.413911  1
  V  V5  1  0.500000  0.627928  0.586089  1
  Co  Co6  1  0.500000  0.136141  0.912336  1
  Co  Co7  1  0.500000  0.863859  0.087664  1
  B  B8  1  0.000000  0.111533  0.046331  1
  B  B9  1  0.000000  0.888467  0.953669  1
  B  B10  1  0.000000  0.383954  0.547742  1
  B  B11  1  0.000000  0.616046  0.452258  1
  B  B12  1  0.000000  0.132793  0.466904  1
  B  B13  1  0.000000  0.867207  0.533096  1
  B  B14  1  0.000000  0.361763  0.969213  1
  B  B15  1  0.000000  0.638237  0.030787  1
  B  B16  1  0.000000  0.019651  0.190239  1
  B  B17  1  0.000000  0.980349  0.809761  1
  B  B18  1  0.000000  0.473711  0.695517  1
  B  B19  1  0.000000  0.526289  0.304483  1
  B  B20  1  0.000000  0.209931  0.311183  1
  B  B21  1  0.000000  0.790069  0.688817  1
  B  B22  1  0.000000  0.282461  0.816870  1
  B  B23  1  0.000000  0.717539  0.183130  1
