# generated using pymatgen
data_Tm6Fe12Co5MoP12
_symmetry_space_group_name_H-M   'P 1'
_cell_length_a   3.70707700
_cell_length_b   10.49829363
_cell_length_c   12.14472575
_cell_angle_alpha   90.04003489
_cell_angle_beta   90.00000000
_cell_angle_gamma   90.00000000
_symmetry_Int_Tables_number   1
_chemical_formula_structural   Tm6Fe12Co5MoP12
_chemical_formula_sum   'Tm6 Fe12 Co5 Mo1 P12'
_cell_volume   472.64811328
_cell_formula_units_Z   1
loop_
 _symmetry_equiv_pos_site_id
 _symmetry_equiv_pos_as_xyz
  1  'x, y, z'
loop_
 _atom_site_type_symbol
 _atom_site_label
 _atom_site_symmetry_multiplicity
 _atom_site_fract_x
 _atom_site_fract_y
 _atom_site_fract_z
 _atom_site_occupancy
  Tm  Tm0  1  0.000000  0.499543  0.526550  1
  Tm  Tm1  1  0.500000  0.998987  0.474317  1
  Tm  Tm2  1  0.500000  0.821643  0.206740  1
  Tm  Tm3  1  0.500000  0.178517  0.207892  1
  Tm  Tm4  1  0.000000  0.679514  0.794919  1
  Tm  Tm5  1  0.000000  0.320367  0.793814  1
  Fe  Fe6  1  0.000000  0.999434  0.845120  1
  Fe  Fe7  1  0.000000  0.499180  0.986845  1
  Fe  Fe8  1  0.500000  0.000409  0.009942  1
  Fe  Fe9  1  0.500000  0.325004  0.994057  1
  Fe  Fe10  1  0.500000  0.673811  0.994041  1
  Fe  Fe11  1  0.000000  0.169302  0.001922  1
  Fe  Fe12  1  0.000000  0.831531  0.002297  1
  Fe  Fe13  1  0.500000  0.296767  0.431331  1
  Fe  Fe14  1  0.500000  0.703975  0.432291  1
  Fe  Fe15  1  0.000000  0.200700  0.570883  1
  Fe  Fe16  1  0.500000  0.881387  0.707007  1
  Fe  Fe17  1  0.500000  0.117255  0.707218  1
  Co  Co18  1  0.500000  0.500165  0.700457  1
  Co  Co19  1  0.000000  0.000291  0.299277  1
  Co  Co20  1  0.000000  0.799224  0.571080  1
  Co  Co21  1  0.000000  0.622831  0.292762  1
  Co  Co22  1  0.000000  0.378503  0.293184  1
  Mo  Mo23  1  0.500000  0.500116  0.153823  1
  P  P24  1  0.500000  0.499995  0.884008  1
  P  P25  1  0.000000  0.000120  0.115568  1
  P  P26  1  0.500000  0.500316  0.351447  1
  P  P27  1  0.000000  0.001880  0.657869  1
  P  P28  1  0.500000  0.307178  0.615804  1
  P  P29  1  0.500000  0.691607  0.616677  1
  P  P30  1  0.000000  0.191772  0.387291  1
  P  P31  1  0.000000  0.808693  0.385922  1
  P  P32  1  0.500000  0.850086  0.886963  1
  P  P33  1  0.500000  0.149172  0.885920  1
  P  P34  1  0.000000  0.656607  0.106420  1
  P  P35  1  0.000000  0.344115  0.108342  1
