# generated using pymatgen
data_Lu4Re5Mo3
_symmetry_space_group_name_H-M   'P 1'
_cell_length_a   5.42324467
_cell_length_b   5.42324493
_cell_length_c   8.82015300
_cell_angle_alpha   90.00000000
_cell_angle_beta   90.00000000
_cell_angle_gamma   120.10325208
_symmetry_Int_Tables_number   1
_chemical_formula_structural   Lu4Re5Mo3
_chemical_formula_sum   'Lu4 Re5 Mo3'
_cell_volume   224.42558759
_cell_formula_units_Z   1
loop_
 _symmetry_equiv_pos_site_id
 _symmetry_equiv_pos_as_xyz
  1  'x, y, z'
loop_
 _atom_site_type_symbol
 _atom_site_label
 _atom_site_symmetry_multiplicity
 _atom_site_fract_x
 _atom_site_fract_y
 _atom_site_fract_z
 _atom_site_occupancy
  Lu  Lu0  1  0.333368  0.666632  0.439455  1
  Lu  Lu1  1  0.666269  0.333731  0.564009  1
  Lu  Lu2  1  0.666269  0.333731  0.935991  1
  Lu  Lu3  1  0.333368  0.666632  0.060545  1
  Re  Re4  1  0.826372  0.656252  0.250000  1
  Re  Re5  1  0.343748  0.173628  0.250000  1
  Re  Re6  1  0.171230  0.828770  0.750000  1
  Re  Re7  1  0.171782  0.344645  0.750000  1
  Re  Re8  1  0.655355  0.828218  0.750000  1
  Mo  Mo9  1  0.001548  0.998452  0.502181  1
  Mo  Mo10  1  0.001548  0.998452  0.997819  1
  Mo  Mo11  1  0.829142  0.170858  0.250000  1
