# generated using pymatgen
data_CaLu4Ag5
_symmetry_space_group_name_H-M   'P 1'
_cell_length_a   3.59446300
_cell_length_b   3.59446300
_cell_length_c   18.05181000
_cell_angle_alpha   90.00000000
_cell_angle_beta   90.00000000
_cell_angle_gamma   90.00000000
_symmetry_Int_Tables_number   1
_chemical_formula_structural   CaLu4Ag5
_chemical_formula_sum   'Ca1 Lu4 Ag5'
_cell_volume   233.23235036
_cell_formula_units_Z   1
loop_
 _symmetry_equiv_pos_site_id
 _symmetry_equiv_pos_as_xyz
  1  'x, y, z'
loop_
 _atom_site_type_symbol
 _atom_site_label
 _atom_site_symmetry_multiplicity
 _atom_site_fract_x
 _atom_site_fract_y
 _atom_site_fract_z
 _atom_site_occupancy
  Ca  Ca0  1  0.000000  0.000000  0.000000  1
  Lu  Lu1  1  0.000000  0.000000  0.203427  1
  Lu  Lu2  1  0.000000  0.000000  0.400789  1
  Lu  Lu3  1  0.000000  0.000000  0.599211  1
  Lu  Lu4  1  0.000000  0.000000  0.796573  1
  Ag  Ag5  1  0.500000  0.500000  0.108931  1
  Ag  Ag6  1  0.500000  0.500000  0.300527  1
  Ag  Ag7  1  0.500000  0.500000  0.500000  1
  Ag  Ag8  1  0.500000  0.500000  0.699473  1
  Ag  Ag9  1  0.500000  0.500000  0.891069  1
