# generated using pymatgen
data_Dy3Tm5Re3B24Ir
_symmetry_space_group_name_H-M   'P 1'
_cell_length_a   3.65076900
_cell_length_b   9.12270371
_cell_length_c   11.50621311
_cell_angle_alpha   90.11422170
_cell_angle_beta   90.00000000
_cell_angle_gamma   90.00000000
_symmetry_Int_Tables_number   1
_chemical_formula_structural   Dy3Tm5Re3B24Ir
_chemical_formula_sum   'Dy3 Tm5 Re3 B24 Ir1'
_cell_volume   383.21233035
_cell_formula_units_Z   1
loop_
 _symmetry_equiv_pos_site_id
 _symmetry_equiv_pos_as_xyz
  1  'x, y, z'
loop_
 _atom_site_type_symbol
 _atom_site_label
 _atom_site_symmetry_multiplicity
 _atom_site_fract_x
 _atom_site_fract_y
 _atom_site_fract_z
 _atom_site_occupancy
  Dy  Dy0  1  0.000000  0.317911  0.415593  1
  Dy  Dy1  1  0.000000  0.678778  0.591298  1
  Dy  Dy2  1  0.000000  0.826797  0.081591  1
  Tm  Tm3  1  0.000000  0.177685  0.912601  1
  Tm  Tm4  1  0.000000  0.944416  0.370460  1
  Tm  Tm5  1  0.000000  0.055994  0.629115  1
  Tm  Tm6  1  0.000000  0.440677  0.127717  1
  Tm  Tm7  1  0.000000  0.556541  0.871744  1
  Re  Re8  1  0.000000  0.361942  0.678608  1
  Re  Re9  1  0.000000  0.138717  0.179956  1
  Re  Re10  1  0.000000  0.861928  0.820695  1
  B  B11  1  0.500000  0.553880  0.433536  1
  B  B12  1  0.500000  0.446443  0.567030  1
  B  B13  1  0.500000  0.053811  0.066258  1
  B  B14  1  0.500000  0.947687  0.932533  1
  B  B15  1  0.500000  0.749927  0.419743  1
  B  B16  1  0.500000  0.249614  0.581427  1
  B  B17  1  0.500000  0.249733  0.080629  1
  B  B18  1  0.500000  0.751063  0.918675  1
  B  B19  1  0.500000  0.791656  0.265252  1
  B  B20  1  0.500000  0.207714  0.734653  1
  B  B21  1  0.500000  0.292027  0.234644  1
  B  B22  1  0.500000  0.707860  0.766112  1
  B  B23  1  0.500000  0.630985  0.184000  1
  B  B24  1  0.500000  0.369303  0.815034  1
  B  B25  1  0.500000  0.130276  0.314992  1
  B  B26  1  0.500000  0.869269  0.685287  1
  B  B27  1  0.500000  0.982745  0.212414  1
  B  B28  1  0.500000  0.018516  0.786912  1
  B  B29  1  0.500000  0.482578  0.287301  1
  B  B30  1  0.500000  0.518317  0.713080  1
  B  B31  1  0.500000  0.602263  0.028867  1
  B  B32  1  0.500000  0.397712  0.972021  1
  B  B33  1  0.500000  0.100311  0.471703  1
  B  B34  1  0.500000  0.896848  0.527877  1
  Ir  Ir35  1  0.000000  0.638076  0.320640  1
