# generated using pymatgen
data_YFe2(PIr)3
_symmetry_space_group_name_H-M   'P 1'
_cell_length_a   3.86200200
_cell_length_b   10.49951100
_cell_length_c   12.31869100
_cell_angle_alpha   90.00000000
_cell_angle_beta   90.00000000
_cell_angle_gamma   90.00000000
_symmetry_Int_Tables_number   1
_chemical_formula_structural   YFe2(PIr)3
_chemical_formula_sum   'Y4 Fe8 P12 Ir12'
_cell_volume   499.51223335
_cell_formula_units_Z   4
loop_
 _symmetry_equiv_pos_site_id
 _symmetry_equiv_pos_as_xyz
  1  'x, y, z'
loop_
 _atom_site_type_symbol
 _atom_site_label
 _atom_site_symmetry_multiplicity
 _atom_site_fract_x
 _atom_site_fract_y
 _atom_site_fract_z
 _atom_site_occupancy
  Y  Y0  1  0.250000  0.578885  0.712930  1
  Y  Y1  1  0.250000  0.921115  0.212930  1
  Y  Y2  1  0.750000  0.421115  0.287070  1
  Y  Y3  1  0.750000  0.078885  0.787070  1
  Fe  Fe4  1  0.250000  0.874813  0.697250  1
  Fe  Fe5  1  0.250000  0.625187  0.197250  1
  Fe  Fe6  1  0.750000  0.125187  0.302750  1
  Fe  Fe7  1  0.750000  0.374813  0.802750  1
  Fe  Fe8  1  0.250000  0.457204  0.936231  1
  Fe  Fe9  1  0.250000  0.042796  0.436231  1
  Fe  Fe10  1  0.750000  0.542796  0.063769  1
  Fe  Fe11  1  0.750000  0.957204  0.563769  1
  P  P12  1  0.250000  0.441889  0.111671  1
  P  P13  1  0.250000  0.058111  0.611671  1
  P  P14  1  0.750000  0.558111  0.888329  1
  P  P15  1  0.750000  0.941889  0.388329  1
  P  P16  1  0.250000  0.271745  0.862992  1
  P  P17  1  0.250000  0.228255  0.362992  1
  P  P18  1  0.750000  0.728255  0.137008  1
  P  P19  1  0.750000  0.771745  0.637008  1
  P  P20  1  0.250000  0.600611  0.377090  1
  P  P21  1  0.250000  0.899389  0.877090  1
  P  P22  1  0.750000  0.399389  0.622910  1
  P  P23  1  0.750000  0.100611  0.122910  1
  Ir  Ir24  1  0.250000  0.718736  0.990432  1
  Ir  Ir25  1  0.250000  0.781264  0.490432  1
  Ir  Ir26  1  0.750000  0.281264  0.009568  1
  Ir  Ir27  1  0.750000  0.218736  0.509568  1
  Ir  Ir28  1  0.250000  0.409401  0.474834  1
  Ir  Ir29  1  0.250000  0.090599  0.974834  1
  Ir  Ir30  1  0.750000  0.590599  0.525166  1
  Ir  Ir31  1  0.750000  0.909401  0.025166  1
  Ir  Ir32  1  0.250000  0.232048  0.173129  1
  Ir  Ir33  1  0.250000  0.267952  0.673129  1
  Ir  Ir34  1  0.750000  0.767952  0.826871  1
  Ir  Ir35  1  0.750000  0.732048  0.326871  1
