# generated using pymatgen
data_SrLaEu2(PIr)4
_symmetry_space_group_name_H-M   'P 1'
_cell_length_a   6.32012463
_cell_length_b   6.32927914
_cell_length_c   6.32479666
_cell_angle_alpha   89.51904210
_cell_angle_beta   90.34951426
_cell_angle_gamma   89.65898485
_symmetry_Int_Tables_number   1
_chemical_formula_structural   SrLaEu2(PIr)4
_chemical_formula_sum   'Sr1 La1 Eu2 P4 Ir4'
_cell_volume   252.98527944
_cell_formula_units_Z   1
loop_
 _symmetry_equiv_pos_site_id
 _symmetry_equiv_pos_as_xyz
  1  'x, y, z'
loop_
 _atom_site_type_symbol
 _atom_site_label
 _atom_site_symmetry_multiplicity
 _atom_site_fract_x
 _atom_site_fract_y
 _atom_site_fract_z
 _atom_site_occupancy
  Sr  Sr0  1  0.888901  0.609247  0.388103  1
  La  La1  1  0.391294  0.893123  0.606856  1
  Eu  Eu2  1  0.606099  0.393842  0.895753  1
  Eu  Eu3  1  0.103677  0.107573  0.104978  1
  P  P4  1  0.669688  0.166813  0.330094  1
  P  P5  1  0.173536  0.328636  0.673396  1
  P  P6  1  0.332811  0.668356  0.166878  1
  P  P7  1  0.831609  0.832391  0.833999  1
  Ir  Ir8  1  0.086741  0.583735  0.913920  1
  Ir  Ir9  1  0.581181  0.917514  0.081731  1
  Ir  Ir10  1  0.919130  0.084899  0.586603  1
  Ir  Ir11  1  0.415334  0.413873  0.417687  1
