# generated using pymatgen
data_K6ScTe4Cl
_symmetry_space_group_name_H-M   'P 1'
_cell_length_a   11.48607000
_cell_length_b   11.48606915
_cell_length_c   8.28032100
_cell_angle_alpha   90.00000000
_cell_angle_beta   90.00000000
_cell_angle_gamma   119.99999670
_symmetry_Int_Tables_number   1
_chemical_formula_structural   K6ScTe4Cl
_chemical_formula_sum   'K12 Sc2 Te8 Cl2'
_cell_volume   946.06440862
_cell_formula_units_Z   2
loop_
 _symmetry_equiv_pos_site_id
 _symmetry_equiv_pos_as_xyz
  1  'x, y, z'
loop_
 _atom_site_type_symbol
 _atom_site_label
 _atom_site_symmetry_multiplicity
 _atom_site_fract_x
 _atom_site_fract_y
 _atom_site_fract_z
 _atom_site_occupancy
  K  K0  1  0.121261  0.878739  0.513827  1
  K  K1  1  0.757476  0.878739  0.513827  1
  K  K2  1  0.950648  0.475324  0.319308  1
  K  K3  1  0.524676  0.475324  0.319308  1
  K  K4  1  0.878739  0.757476  0.013827  1
  K  K5  1  0.242524  0.121261  0.013827  1
  K  K6  1  0.524676  0.049352  0.319308  1
  K  K7  1  0.121261  0.242524  0.513827  1
  K  K8  1  0.878739  0.121261  0.013827  1
  K  K9  1  0.049352  0.524676  0.819308  1
  K  K10  1  0.475324  0.950648  0.819308  1
  K  K11  1  0.475324  0.524676  0.819308  1
  Sc  Sc12  1  0.666667  0.333333  0.710523  1
  Sc  Sc13  1  0.333333  0.666667  0.210523  1
  Te  Te14  1  0.400978  0.200490  0.602392  1
  Te  Te15  1  0.599022  0.799510  0.102392  1
  Te  Te16  1  0.666667  0.333333  0.047615  1
  Te  Te17  1  0.799510  0.599022  0.602392  1
  Te  Te18  1  0.200490  0.400978  0.102392  1
  Te  Te19  1  0.333333  0.666667  0.547615  1
  Te  Te20  1  0.200490  0.799510  0.102392  1
  Te  Te21  1  0.799510  0.200490  0.602392  1
  Cl  Cl22  1  0.000000  0.000000  0.275886  1
  Cl  Cl23  1  0.000000  0.000000  0.775886  1
