# generated using pymatgen
data_Dy6Nb4Al12Os7
_symmetry_space_group_name_H-M   'P 1'
_cell_length_a   9.01447308
_cell_length_b   9.01447348
_cell_length_c   9.01447400
_cell_angle_alpha   60.00000544
_cell_angle_beta   60.00000396
_cell_angle_gamma   59.99999988
_symmetry_Int_Tables_number   1
_chemical_formula_structural   Dy6Nb4Al12Os7
_chemical_formula_sum   'Dy6 Nb4 Al12 Os7'
_cell_volume   517.97182226
_cell_formula_units_Z   1
loop_
 _symmetry_equiv_pos_site_id
 _symmetry_equiv_pos_as_xyz
  1  'x, y, z'
loop_
 _atom_site_type_symbol
 _atom_site_label
 _atom_site_symmetry_multiplicity
 _atom_site_fract_x
 _atom_site_fract_y
 _atom_site_fract_z
 _atom_site_occupancy
  Dy  Dy0  1  0.705585  0.705585  0.294415  1
  Dy  Dy1  1  0.294415  0.705585  0.294415  1
  Dy  Dy2  1  0.705585  0.294415  0.294415  1
  Dy  Dy3  1  0.294415  0.294415  0.705585  1
  Dy  Dy4  1  0.705585  0.294415  0.705585  1
  Dy  Dy5  1  0.294415  0.705585  0.705585  1
  Nb  Nb6  1  0.879714  0.879714  0.360858  1
  Nb  Nb7  1  0.879714  0.360858  0.879714  1
  Nb  Nb8  1  0.360858  0.879714  0.879714  1
  Nb  Nb9  1  0.879714  0.879714  0.879714  1
  Al  Al10  1  0.120650  0.120650  0.638050  1
  Al  Al11  1  0.120650  0.638050  0.120650  1
  Al  Al12  1  0.638050  0.120650  0.120650  1
  Al  Al13  1  0.120650  0.120650  0.120650  1
  Al  Al14  1  0.667476  0.667476  0.997572  1
  Al  Al15  1  0.667476  0.997572  0.667476  1
  Al  Al16  1  0.997572  0.667476  0.667476  1
  Al  Al17  1  0.667476  0.667476  0.667476  1
  Al  Al18  1  0.331069  0.331069  0.006791  1
  Al  Al19  1  0.331069  0.006791  0.331069  1
  Al  Al20  1  0.006791  0.331069  0.331069  1
  Al  Al21  1  0.331069  0.331069  0.331069  1
  Os  Os22  1  0.000000  0.000000  0.000000  1
  Os  Os23  1  0.997721  0.997721  0.502279  1
  Os  Os24  1  0.502279  0.997721  0.502279  1
  Os  Os25  1  0.997721  0.502279  0.502279  1
  Os  Os26  1  0.502279  0.502279  0.997721  1
  Os  Os27  1  0.997721  0.502279  0.997721  1
  Os  Os28  1  0.502279  0.997721  0.997721  1
