# generated using pymatgen
data_LaGaGeO
_symmetry_space_group_name_H-M   'P 1'
_cell_length_a   4.15441500
_cell_length_b   4.15441500
_cell_length_c   9.28925300
_cell_angle_alpha   90.00000000
_cell_angle_beta   90.00000000
_cell_angle_gamma   90.00000000
_symmetry_Int_Tables_number   1
_chemical_formula_structural   LaGaGeO
_chemical_formula_sum   'La2 Ga2 Ge2 O2'
_cell_volume   160.32474089
_cell_formula_units_Z   2
loop_
 _symmetry_equiv_pos_site_id
 _symmetry_equiv_pos_as_xyz
  1  'x, y, z'
loop_
 _atom_site_type_symbol
 _atom_site_label
 _atom_site_symmetry_multiplicity
 _atom_site_fract_x
 _atom_site_fract_y
 _atom_site_fract_z
 _atom_site_occupancy
  La  La0  1  0.250001  0.250001  0.128345  1
  La  La1  1  0.750001  0.750001  0.871657  1
  Ga  Ga2  1  0.750001  0.250001  0.499999  1
  Ga  Ga3  1  0.250001  0.750001  0.499999  1
  Ge  Ge4  1  0.750001  0.750001  0.324347  1
  Ge  Ge5  1  0.250001  0.250001  0.675652  1
  O  O6  1  0.750001  0.250001  0.000000  1
  O  O7  1  0.250001  0.750001  0.000000  1
