# generated using pymatgen
data_Tb3BiPt4F28
_symmetry_space_group_name_H-M   'P 1'
_cell_length_a   5.57260382
_cell_length_b   9.00811110
_cell_length_c   12.10237776
_cell_angle_alpha   62.09674275
_cell_angle_beta   89.99968653
_cell_angle_gamma   89.91783988
_symmetry_Int_Tables_number   1
_chemical_formula_structural   Tb3BiPt4F28
_chemical_formula_sum   'Tb3 Bi1 Pt4 F28'
_cell_volume   536.89093556
_cell_formula_units_Z   1
loop_
 _symmetry_equiv_pos_site_id
 _symmetry_equiv_pos_as_xyz
  1  'x, y, z'
loop_
 _atom_site_type_symbol
 _atom_site_label
 _atom_site_symmetry_multiplicity
 _atom_site_fract_x
 _atom_site_fract_y
 _atom_site_fract_z
 _atom_site_occupancy
  Tb  Tb0  1  0.738922  0.185589  0.736279  1
  Tb  Tb1  1  0.761073  0.191411  0.236417  1
  Tb  Tb2  1  0.239937  0.815148  0.763523  1
  Bi  Bi3  1  0.264029  0.819426  0.262515  1
  Pt  Pt4  1  0.757901  0.726823  0.039940  1
  Pt  Pt5  1  0.240714  0.274537  0.956649  1
  Pt  Pt6  1  0.258581  0.269820  0.459009  1
  Pt  Pt7  1  0.740957  0.726438  0.544821  1
  F  F8  1  0.930750  0.705150  0.416322  1
  F  F9  1  0.062952  0.291531  0.585910  1
  F  F10  1  0.436625  0.293891  0.084776  1
  F  F11  1  0.564328  0.706861  0.911219  1
  F  F12  1  0.463559  0.725697  0.129212  1
  F  F13  1  0.531014  0.272695  0.864903  1
  F  F14  1  0.967301  0.270517  0.366407  1
  F  F15  1  0.033516  0.727485  0.635594  1
  F  F16  1  0.942204  0.739401  0.173771  1
  F  F17  1  0.048813  0.258723  0.825820  1
  F  F18  1  0.450052  0.255342  0.327053  1
  F  F19  1  0.552058  0.742229  0.676632  1
  F  F20  1  0.768391  0.479686  0.138442  1
  F  F21  1  0.230244  0.520719  0.859417  1
  F  F22  1  0.268118  0.514871  0.360946  1
  F  F23  1  0.731863  0.479309  0.642271  1
  F  F24  1  0.943800  0.280692  0.043654  1
  F  F25  1  0.058394  0.719916  0.955598  1
  F  F26  1  0.440560  0.717714  0.461997  1
  F  F27  1  0.555976  0.278592  0.544121  1
  F  F28  1  0.740356  0.973510  0.449046  1
  F  F29  1  0.259542  0.022112  0.552612  1
  F  F30  1  0.241123  0.027127  0.048274  1
  F  F31  1  0.758606  0.973684  0.947986  1
  F  F32  1  0.597187  0.973055  0.229583  1
  F  F33  1  0.412764  0.031347  0.768017  1
  F  F34  1  0.094734  0.038405  0.269364  1
  F  F35  1  0.913056  0.970544  0.731900  1
