# generated using pymatgen
data_Y3Er(SiNi2)4
_symmetry_space_group_name_H-M   'P 1'
_cell_length_a   5.40521306
_cell_length_b   6.39592500
_cell_length_c   7.04849152
_cell_angle_alpha   90.00000000
_cell_angle_beta   89.96964988
_cell_angle_gamma   90.00000000
_symmetry_Int_Tables_number   1
_chemical_formula_structural   Y3Er(SiNi2)4
_chemical_formula_sum   'Y3 Er1 Si4 Ni8'
_cell_volume   243.67574379
_cell_formula_units_Z   1
loop_
 _symmetry_equiv_pos_site_id
 _symmetry_equiv_pos_as_xyz
  1  'x, y, z'
loop_
 _atom_site_type_symbol
 _atom_site_label
 _atom_site_symmetry_multiplicity
 _atom_site_fract_x
 _atom_site_fract_y
 _atom_site_fract_z
 _atom_site_occupancy
  Y  Y0  1  0.147746  0.750000  0.530661  1
  Y  Y1  1  0.647793  0.250000  0.969499  1
  Y  Y2  1  0.851302  0.250000  0.469555  1
  Er  Er3  1  0.350182  0.750000  0.030258  1
  Si  Si4  1  0.648145  0.750000  0.375053  1
  Si  Si5  1  0.850576  0.750000  0.877451  1
  Si  Si6  1  0.351101  0.250000  0.623135  1
  Si  Si7  1  0.148411  0.250000  0.123470  1
  Ni  Ni8  1  0.910686  0.557802  0.171177  1
  Ni  Ni9  1  0.589919  0.942144  0.672447  1
  Ni  Ni10  1  0.093638  0.056507  0.829764  1
  Ni  Ni11  1  0.408128  0.443147  0.327071  1
  Ni  Ni12  1  0.093638  0.443493  0.829764  1
  Ni  Ni13  1  0.408128  0.056853  0.327071  1
  Ni  Ni14  1  0.910686  0.942198  0.171177  1
  Ni  Ni15  1  0.589919  0.557856  0.672447  1
