# generated using pymatgen
data_Tm4Lu2Np3O18
_symmetry_space_group_name_H-M   'P 1'
_cell_length_a   9.40088944
_cell_length_b   9.40233585
_cell_length_c   5.04655505
_cell_angle_alpha   90.06478909
_cell_angle_beta   89.93664050
_cell_angle_gamma   119.99808966
_symmetry_Int_Tables_number   1
_chemical_formula_structural   Tm4Lu2Np3O18
_chemical_formula_sum   'Tm4 Lu2 Np3 O18'
_cell_volume   386.31213438
_cell_formula_units_Z   1
loop_
 _symmetry_equiv_pos_site_id
 _symmetry_equiv_pos_as_xyz
  1  'x, y, z'
loop_
 _atom_site_type_symbol
 _atom_site_label
 _atom_site_symmetry_multiplicity
 _atom_site_fract_x
 _atom_site_fract_y
 _atom_site_fract_z
 _atom_site_occupancy
  Tm  Tm0  1  0.999539  0.630967  0.000066  1
  Tm  Tm1  1  0.999934  0.293380  0.500243  1
  Tm  Tm2  1  0.369141  0.369238  0.000228  1
  Tm  Tm3  1  0.293858  0.000068  0.499764  1
  Lu  Lu4  1  0.705255  0.705396  0.499976  1
  Lu  Lu5  1  0.631693  0.999672  0.999698  1
  Np  Np6  1  0.334498  0.667450  0.503398  1
  Np  Np7  1  0.998700  0.999243  0.000005  1
  Np  Np8  1  0.666747  0.333285  0.496625  1
  O  O9  1  0.090477  0.877150  0.781780  1
  O  O10  1  0.218459  0.765643  0.280557  1
  O  O11  1  0.121349  0.538696  0.726467  1
  O  O12  1  0.419149  0.879816  0.728271  1
  O  O13  1  0.234544  0.452906  0.279946  1
  O  O14  1  0.122571  0.212783  0.780795  1
  O  O15  1  0.212657  0.122605  0.219375  1
  O  O16  1  0.549089  0.782648  0.279607  1
  O  O17  1  0.462732  0.582870  0.725190  1
  O  O18  1  0.785412  0.908085  0.779200  1
  O  O19  1  0.452651  0.234487  0.719476  1
  O  O20  1  0.582943  0.462572  0.274277  1
  O  O21  1  0.539410  0.120383  0.271686  1
  O  O22  1  0.781412  0.548611  0.718922  1
  O  O23  1  0.907977  0.786575  0.221502  1
  O  O24  1  0.764836  0.217396  0.721482  1
  O  O25  1  0.879089  0.417555  0.274104  1
  O  O26  1  0.875879  0.090521  0.217360  1
