# generated using pymatgen
data_TbGd4YH18
_symmetry_space_group_name_H-M   'P 1'
_cell_length_a   6.40738603
_cell_length_b   6.40810246
_cell_length_c   6.66108701
_cell_angle_alpha   90.00107396
_cell_angle_beta   89.99547838
_cell_angle_gamma   120.00792220
_symmetry_Int_Tables_number   1
_chemical_formula_structural   TbGd4YH18
_chemical_formula_sum   'Tb1 Gd4 Y1 H18'
_cell_volume   236.83800767
_cell_formula_units_Z   1
loop_
 _symmetry_equiv_pos_site_id
 _symmetry_equiv_pos_as_xyz
  1  'x, y, z'
loop_
 _atom_site_type_symbol
 _atom_site_label
 _atom_site_symmetry_multiplicity
 _atom_site_fract_x
 _atom_site_fract_y
 _atom_site_fract_z
 _atom_site_occupancy
  Tb  Tb0  1  0.670031  0.000045  0.250106  1
  Gd  Gd1  1  0.669968  0.669890  0.750044  1
  Gd  Gd2  1  0.330207  0.999739  0.750171  1
  Gd  Gd3  1  0.999825  0.330330  0.750250  1
  Gd  Gd4  1  0.330160  0.330186  0.250174  1
  Y  Y5  1  0.000023  0.670108  0.249981  1
  H  H6  1  0.305828  0.305821  0.592248  1
  H  H7  1  0.694036  0.000000  0.591775  1
  H  H8  1  0.000008  0.693851  0.591296  1
  H  H9  1  0.694890  0.694810  0.092799  1
  H  H10  1  0.304984  0.999525  0.092553  1
  H  H11  1  0.999609  0.304747  0.092241  1
  H  H12  1  0.355508  0.355504  0.907457  1
  H  H13  1  0.644543  0.999991  0.907955  1
  H  H14  1  0.999995  0.644644  0.908401  1
  H  H15  1  0.644402  0.644497  0.407411  1
  H  H16  1  0.356124  0.999964  0.407132  1
  H  H17  1  0.999863  0.356278  0.406806  1
  H  H18  1  0.000050  0.000113  0.819791  1
  H  H19  1  0.999290  0.998628  0.319555  1
  H  H20  1  0.333392  0.666608  0.704298  1
  H  H21  1  0.666550  0.333265  0.704299  1
  H  H22  1  0.668169  0.334091  0.204637  1
  H  H23  1  0.332546  0.667362  0.204636  1
