# generated using pymatgen
data_Sr3Si2SnRh6
_symmetry_space_group_name_H-M   'P 1'
_cell_length_a   8.74176596
_cell_length_b   8.74176587
_cell_length_c   8.74176600
_cell_angle_alpha   39.13058524
_cell_angle_beta   39.13058595
_cell_angle_gamma   39.13058945
_symmetry_Int_Tables_number   1
_chemical_formula_structural   Sr3Si2SnRh6
_chemical_formula_sum   'Sr3 Si2 Sn1 Rh6'
_cell_volume   239.33107456
_cell_formula_units_Z   1
loop_
 _symmetry_equiv_pos_site_id
 _symmetry_equiv_pos_as_xyz
  1  'x, y, z'
loop_
 _atom_site_type_symbol
 _atom_site_label
 _atom_site_symmetry_multiplicity
 _atom_site_fract_x
 _atom_site_fract_y
 _atom_site_fract_z
 _atom_site_occupancy
  Sr  Sr0  1  0.361157  0.361157  0.361157  1
  Sr  Sr1  1  0.500000  0.500000  0.500000  1
  Sr  Sr2  1  0.638843  0.638843  0.638843  1
  Si  Si3  1  0.166713  0.166713  0.166713  1
  Si  Si4  1  0.833287  0.833287  0.833287  1
  Sn  Sn5  1  0.000000  0.000000  0.000000  1
  Rh  Rh6  1  0.570516  0.070224  0.070223  1
  Rh  Rh7  1  0.070224  0.570516  0.070223  1
  Rh  Rh8  1  0.929776  0.929776  0.429485  1
  Rh  Rh9  1  0.070224  0.070224  0.570515  1
  Rh  Rh10  1  0.929776  0.429484  0.929777  1
  Rh  Rh11  1  0.429484  0.929776  0.929777  1
