# generated using pymatgen
data_Er2Fe7Ni5As6P
_symmetry_space_group_name_H-M   'P 1'
_cell_length_a   9.30837775
_cell_length_b   9.35443560
_cell_length_c   3.77089900
_cell_angle_alpha   90.00000000
_cell_angle_beta   90.00000000
_cell_angle_gamma   119.89193083
_symmetry_Int_Tables_number   1
_chemical_formula_structural   Er2Fe7Ni5As6P
_chemical_formula_sum   'Er2 Fe7 Ni5 As6 P1'
_cell_volume   284.66824777
_cell_formula_units_Z   1
loop_
 _symmetry_equiv_pos_site_id
 _symmetry_equiv_pos_as_xyz
  1  'x, y, z'
loop_
 _atom_site_type_symbol
 _atom_site_label
 _atom_site_symmetry_multiplicity
 _atom_site_fract_x
 _atom_site_fract_y
 _atom_site_fract_z
 _atom_site_occupancy
  Er  Er0  1  0.001804  0.998714  0.000000  1
  Er  Er1  1  0.330665  0.668236  0.500000  1
  Fe  Fe2  1  0.815820  0.216737  0.000000  1
  Fe  Fe3  1  0.780395  0.599322  0.000000  1
  Fe  Fe4  1  0.403889  0.185034  0.000000  1
  Fe  Fe5  1  0.238939  0.952186  0.500000  1
  Fe  Fe6  1  0.868708  0.446031  0.500000  1
  Fe  Fe7  1  0.559600  0.423819  0.500000  1
  Fe  Fe8  1  0.577376  0.139925  0.500000  1
  Ni  Ni9  1  0.098800  0.708116  0.000000  1
  Ni  Ni10  1  0.286908  0.387927  0.000000  1
  Ni  Ni11  1  0.607848  0.896879  0.000000  1
  Ni  Ni12  1  0.049000  0.282584  0.500000  1
  Ni  Ni13  1  0.714803  0.764213  0.500000  1
  As  As14  1  0.071621  0.448978  0.000000  1
  As  As15  1  0.546894  0.620896  0.000000  1
  As  As16  1  0.372914  0.925807  0.000000  1
  As  As17  1  0.780626  0.045491  0.500000  1
  As  As18  1  0.958533  0.739092  0.500000  1
  As  As19  1  0.265541  0.214185  0.500000  1
  P  P20  1  0.669319  0.335826  0.000000  1
