# generated using pymatgen
data_Y3Er2CoSb2
_symmetry_space_group_name_H-M   'P 1'
_cell_length_a   7.87838200
_cell_length_b   8.74305000
_cell_length_c   12.19811000
_cell_angle_alpha   90.00000000
_cell_angle_beta   90.00000000
_cell_angle_gamma   90.00000000
_symmetry_Int_Tables_number   1
_chemical_formula_structural   Y3Er2CoSb2
_chemical_formula_sum   'Y12 Er8 Co4 Sb8'
_cell_volume   840.21908523
_cell_formula_units_Z   4
loop_
 _symmetry_equiv_pos_site_id
 _symmetry_equiv_pos_as_xyz
  1  'x, y, z'
loop_
 _atom_site_type_symbol
 _atom_site_label
 _atom_site_symmetry_multiplicity
 _atom_site_fract_x
 _atom_site_fract_y
 _atom_site_fract_z
 _atom_site_occupancy
  Y  Y0  1  0.154621  0.750000  0.203964  1
  Y  Y1  1  0.654621  0.250000  0.296036  1
  Y  Y2  1  0.845379  0.250000  0.796036  1
  Y  Y3  1  0.345379  0.750000  0.703964  1
  Y  Y4  1  0.456858  0.750000  0.998547  1
  Y  Y5  1  0.956858  0.250000  0.501453  1
  Y  Y6  1  0.543142  0.250000  0.001453  1
  Y  Y7  1  0.043142  0.750000  0.498547  1
  Y  Y8  1  0.625862  0.750000  0.306754  1
  Y  Y9  1  0.125862  0.250000  0.193246  1
  Y  Y10  1  0.374138  0.250000  0.693246  1
  Y  Y11  1  0.874138  0.750000  0.806754  1
  Er  Er12  1  0.824469  0.966250  0.065469  1
  Er  Er13  1  0.324469  0.033750  0.434531  1
  Er  Er14  1  0.175531  0.466250  0.934531  1
  Er  Er15  1  0.675531  0.533750  0.565469  1
  Er  Er16  1  0.175531  0.033750  0.934531  1
  Er  Er17  1  0.675531  0.966250  0.565469  1
  Er  Er18  1  0.824469  0.533750  0.065469  1
  Er  Er19  1  0.324469  0.466250  0.434531  1
  Co  Co20  1  0.438424  0.750000  0.491684  1
  Co  Co21  1  0.938424  0.250000  0.008316  1
  Co  Co22  1  0.561576  0.250000  0.508316  1
  Co  Co23  1  0.061576  0.750000  0.991684  1
  Sb  Sb24  1  0.930870  0.992645  0.326660  1
  Sb  Sb25  1  0.430870  0.007355  0.173340  1
  Sb  Sb26  1  0.069130  0.492645  0.673340  1
  Sb  Sb27  1  0.569130  0.507355  0.826660  1
  Sb  Sb28  1  0.069130  0.007355  0.673340  1
  Sb  Sb29  1  0.569130  0.992645  0.826660  1
  Sb  Sb30  1  0.930870  0.507355  0.326660  1
  Sb  Sb31  1  0.430870  0.492645  0.173340  1
