# generated using pymatgen
data_K2GdIrO6
_symmetry_space_group_name_H-M   'P 1'
_cell_length_a   5.92714801
_cell_length_b   5.92584803
_cell_length_c   8.39211200
_cell_angle_alpha   90.00000000
_cell_angle_beta   90.00000000
_cell_angle_gamma   90.00902986
_symmetry_Int_Tables_number   1
_chemical_formula_structural   K2GdIrO6
_chemical_formula_sum   'K4 Gd2 Ir2 O12'
_cell_volume   294.75932126
_cell_formula_units_Z   2
loop_
 _symmetry_equiv_pos_site_id
 _symmetry_equiv_pos_as_xyz
  1  'x, y, z'
loop_
 _atom_site_type_symbol
 _atom_site_label
 _atom_site_symmetry_multiplicity
 _atom_site_fract_x
 _atom_site_fract_y
 _atom_site_fract_z
 _atom_site_occupancy
  K  K0  1  0.499999  0.000000  0.249573  1
  K  K1  1  0.000000  0.499999  0.249435  1
  K  K2  1  0.499999  0.000000  0.750426  1
  K  K3  1  0.000000  0.499999  0.750564  1
  Gd  Gd4  1  0.499999  0.499999  0.000000  1
  Gd  Gd5  1  0.000000  0.000000  0.500000  1
  Ir  Ir6  1  0.000000  0.000000  0.000000  1
  Ir  Ir7  1  0.499999  0.499999  0.500000  1
  O  O8  1  0.239448  0.218275  0.000000  1
  O  O9  1  0.781560  0.239733  0.000000  1
  O  O10  1  0.218440  0.760267  0.000000  1
  O  O11  1  0.760552  0.781725  0.000000  1
  O  O12  1  0.000000  0.000000  0.228952  1
  O  O13  1  0.499999  0.499999  0.270952  1
  O  O14  1  0.282148  0.260051  0.500000  1
  O  O15  1  0.740165  0.281805  0.500000  1
  O  O16  1  0.259836  0.718196  0.500000  1
  O  O17  1  0.717853  0.739950  0.500000  1
  O  O18  1  0.499999  0.499999  0.729047  1
  O  O19  1  0.000000  0.000000  0.771048  1
