# generated using pymatgen
data_Ti3Zn3CuPt2
_symmetry_space_group_name_H-M   'P 1'
_cell_length_a   7.39568900
_cell_length_b   7.39568964
_cell_length_c   2.85644600
_cell_angle_alpha   90.00000000
_cell_angle_beta   90.00000000
_cell_angle_gamma   120.00000162
_symmetry_Int_Tables_number   1
_chemical_formula_structural   Ti3Zn3CuPt2
_chemical_formula_sum   'Ti3 Zn3 Cu1 Pt2'
_cell_volume   135.30503582
_cell_formula_units_Z   1
loop_
 _symmetry_equiv_pos_site_id
 _symmetry_equiv_pos_as_xyz
  1  'x, y, z'
loop_
 _atom_site_type_symbol
 _atom_site_label
 _atom_site_symmetry_multiplicity
 _atom_site_fract_x
 _atom_site_fract_y
 _atom_site_fract_z
 _atom_site_occupancy
  Ti  Ti0  1  0.379996  0.000000  0.000000  1
  Ti  Ti1  1  0.000000  0.379996  0.000000  1
  Ti  Ti2  1  0.620004  0.620004  0.000000  1
  Zn  Zn3  1  0.719661  0.000000  0.500000  1
  Zn  Zn4  1  0.280339  0.280339  0.500000  1
  Zn  Zn5  1  0.000000  0.719660  0.500000  1
  Cu  Cu6  1  0.000000  0.000000  0.000000  1
  Pt  Pt7  1  0.666666  0.333333  0.500000  1
  Pt  Pt8  1  0.333333  0.666666  0.500000  1
