# generated using pymatgen
data_Y3Er5(BBr6)2
_symmetry_space_group_name_H-M   'P 1'
_cell_length_a   3.94508700
_cell_length_b   13.11295069
_cell_length_c   13.57507286
_cell_angle_alpha   90.09697802
_cell_angle_beta   90.00000000
_cell_angle_gamma   90.00000000
_symmetry_Int_Tables_number   1
_chemical_formula_structural   Y3Er5(BBr6)2
_chemical_formula_sum   'Y3 Er5 B2 Br12'
_cell_volume   702.26101600
_cell_formula_units_Z   1
loop_
 _symmetry_equiv_pos_site_id
 _symmetry_equiv_pos_as_xyz
  1  'x, y, z'
loop_
 _atom_site_type_symbol
 _atom_site_label
 _atom_site_symmetry_multiplicity
 _atom_site_fract_x
 _atom_site_fract_y
 _atom_site_fract_z
 _atom_site_occupancy
  Y  Y0  1  0.500000  0.123029  0.855571  1
  Y  Y1  1  0.500000  0.877138  0.144610  1
  Y  Y2  1  0.500000  0.622819  0.644307  1
  Er  Er3  1  0.000000  0.101058  0.080345  1
  Er  Er4  1  0.000000  0.899428  0.920055  1
  Er  Er5  1  0.000000  0.600453  0.419848  1
  Er  Er6  1  0.000000  0.399207  0.579736  1
  Er  Er7  1  0.500000  0.377713  0.356319  1
  B  B8  1  0.500000  0.000192  0.000158  1
  B  B9  1  0.500000  0.499408  0.499302  1
  Br  Br10  1  0.500000  0.269188  0.681029  1
  Br  Br11  1  0.500000  0.730578  0.318722  1
  Br  Br12  1  0.500000  0.769004  0.818515  1
  Br  Br13  1  0.500000  0.231762  0.182477  1
  Br  Br14  1  0.000000  0.261790  0.933077  1
  Br  Br15  1  0.000000  0.738315  0.067158  1
  Br  Br16  1  0.000000  0.479792  0.240180  1
  Br  Br17  1  0.000000  0.517546  0.760783  1
  Br  Br18  1  0.000000  0.982624  0.261200  1
  Br  Br19  1  0.000000  0.017531  0.738945  1
  Br  Br20  1  0.000000  0.240009  0.430663  1
  Br  Br21  1  0.000000  0.761418  0.567003  1
