# generated using pymatgen
data_YbTh(ReN3)2
_symmetry_space_group_name_H-M   'P 1'
_cell_length_a   5.36763800
_cell_length_b   5.63062000
_cell_length_c   7.82786000
_cell_angle_alpha   90.00000000
_cell_angle_beta   90.00000000
_cell_angle_gamma   90.00000000
_symmetry_Int_Tables_number   1
_chemical_formula_structural   YbTh(ReN3)2
_chemical_formula_sum   'Yb2 Th2 Re4 N12'
_cell_volume   236.58242943
_cell_formula_units_Z   2
loop_
 _symmetry_equiv_pos_site_id
 _symmetry_equiv_pos_as_xyz
  1  'x, y, z'
loop_
 _atom_site_type_symbol
 _atom_site_label
 _atom_site_symmetry_multiplicity
 _atom_site_fract_x
 _atom_site_fract_y
 _atom_site_fract_z
 _atom_site_occupancy
  Yb  Yb0  1  0.509715  0.551101  0.750000  1
  Yb  Yb1  1  0.990285  0.051101  0.750000  1
  Th  Th2  1  0.492094  0.449954  0.250000  1
  Th  Th3  1  0.007906  0.949954  0.250000  1
  Re  Re4  1  0.502914  0.997948  0.512082  1
  Re  Re5  1  0.997086  0.497948  0.987918  1
  Re  Re6  1  0.997086  0.497948  0.512082  1
  Re  Re7  1  0.502914  0.997948  0.987918  1
  N  N8  1  0.706874  0.288818  0.536008  1
  N  N9  1  0.294944  0.706888  0.035804  1
  N  N10  1  0.205056  0.206888  0.035804  1
  N  N11  1  0.437997  0.990972  0.750000  1
  N  N12  1  0.926643  0.520663  0.250000  1
  N  N13  1  0.294944  0.706888  0.464196  1
  N  N14  1  0.793126  0.788818  0.963992  1
  N  N15  1  0.706874  0.288818  0.963992  1
  N  N16  1  0.793126  0.788818  0.536008  1
  N  N17  1  0.062003  0.490972  0.750000  1
  N  N18  1  0.205056  0.206888  0.464196  1
  N  N19  1  0.573357  0.020663  0.250000  1
