# generated using pymatgen
data_Er2LuMg3Ge2Au
_symmetry_space_group_name_H-M   'P 1'
_cell_length_a   7.23129300
_cell_length_b   7.20795866
_cell_length_c   4.29173900
_cell_angle_alpha   90.00000000
_cell_angle_beta   90.00000000
_cell_angle_gamma   120.10714241
_symmetry_Int_Tables_number   1
_chemical_formula_structural   Er2LuMg3Ge2Au
_chemical_formula_sum   'Er2 Lu1 Mg3 Ge2 Au1'
_cell_volume   193.51840963
_cell_formula_units_Z   1
loop_
 _symmetry_equiv_pos_site_id
 _symmetry_equiv_pos_as_xyz
  1  'x, y, z'
loop_
 _atom_site_type_symbol
 _atom_site_label
 _atom_site_symmetry_multiplicity
 _atom_site_fract_x
 _atom_site_fract_y
 _atom_site_fract_z
 _atom_site_occupancy
  Er  Er0  1  0.001473  0.582959  0.000000  1
  Er  Er1  1  0.418513  0.417041  0.000000  1
  Lu  Lu2  1  0.583731  0.000000  0.000000  1
  Mg  Mg3  1  0.245073  0.000000  0.500000  1
  Mg  Mg4  1  0.999421  0.244265  0.500000  1
  Mg  Mg5  1  0.755156  0.755735  0.500000  1
  Ge  Ge6  1  0.334113  0.668386  0.500000  1
  Ge  Ge7  1  0.665728  0.331614  0.500000  1
  Au  Au8  1  0.996791  0.000000  0.000000  1
