# generated using pymatgen
data_Tm8Hf11Si16Mo
_symmetry_space_group_name_H-M   'P 1'
_cell_length_a   7.21192225
_cell_length_b   7.21192188
_cell_length_c   13.22734107
_cell_angle_alpha   89.93514555
_cell_angle_beta   90.06485456
_cell_angle_gamma   90.08579460
_symmetry_Int_Tables_number   1
_chemical_formula_structural   Tm8Hf11Si16Mo
_chemical_formula_sum   'Tm8 Hf11 Si16 Mo1'
_cell_volume   687.97642875
_cell_formula_units_Z   1
loop_
 _symmetry_equiv_pos_site_id
 _symmetry_equiv_pos_as_xyz
  1  'x, y, z'
loop_
 _atom_site_type_symbol
 _atom_site_label
 _atom_site_symmetry_multiplicity
 _atom_site_fract_x
 _atom_site_fract_y
 _atom_site_fract_z
 _atom_site_occupancy
  Tm  Tm0  1  0.998585  0.343363  0.212533  1
  Tm  Tm1  1  0.004150  0.656551  0.716796  1
  Tm  Tm2  1  0.156360  0.495628  0.465368  1
  Tm  Tm3  1  0.501238  0.845852  0.034193  1
  Tm  Tm4  1  0.845852  0.501238  0.965807  1
  Tm  Tm5  1  0.495628  0.156360  0.534632  1
  Tm  Tm6  1  0.343363  0.998585  0.787467  1
  Tm  Tm7  1  0.656551  0.004150  0.283204  1
  Hf  Hf8  1  0.825610  0.825610  0.500000  1
  Hf  Hf9  1  0.324546  0.674751  0.248798  1
  Hf  Hf10  1  0.674751  0.324546  0.751202  1
  Hf  Hf11  1  0.147282  0.997800  0.373591  1
  Hf  Hf12  1  0.853890  0.004142  0.877480  1
  Hf  Hf13  1  0.503081  0.647881  0.624943  1
  Hf  Hf14  1  0.349964  0.494196  0.876979  1
  Hf  Hf15  1  0.494196  0.349964  0.123021  1
  Hf  Hf16  1  0.647881  0.503081  0.375057  1
  Hf  Hf17  1  0.997800  0.147282  0.626409  1
  Hf  Hf18  1  0.004142  0.853890  0.122520  1
  Si  Si19  1  0.360672  0.295220  0.316988  1
  Si  Si20  1  0.639004  0.704704  0.818631  1
  Si  Si21  1  0.205025  0.860945  0.567942  1
  Si  Si22  1  0.139431  0.796079  0.932325  1
  Si  Si23  1  0.796079  0.139431  0.067675  1
  Si  Si24  1  0.860945  0.205025  0.432058  1
  Si  Si25  1  0.295220  0.360672  0.683012  1
  Si  Si26  1  0.704704  0.639004  0.181369  1
  Si  Si27  1  0.295837  0.050769  0.182613  1
  Si  Si28  1  0.702206  0.952094  0.686214  1
  Si  Si29  1  0.451076  0.797601  0.434988  1
  Si  Si30  1  0.202173  0.546880  0.064125  1
  Si  Si31  1  0.546880  0.202173  0.935875  1
  Si  Si32  1  0.797601  0.451076  0.565012  1
  Si  Si33  1  0.050769  0.295837  0.817387  1
  Si  Si34  1  0.952094  0.702206  0.313786  1
  Mo  Mo35  1  0.175413  0.175413  0.000000  1
