# generated using pymatgen
data_Lu8Ta11Si16Ag
_symmetry_space_group_name_H-M   'P 1'
_cell_length_a   6.77700355
_cell_length_b   6.99849040
_cell_length_c   13.28792500
_cell_angle_alpha   90.00000000
_cell_angle_beta   90.00000000
_cell_angle_gamma   90.44694719
_symmetry_Int_Tables_number   1
_chemical_formula_structural   Lu8Ta11Si16Ag
_chemical_formula_sum   'Lu8 Ta11 Si16 Ag1'
_cell_volume   630.21108573
_cell_formula_units_Z   1
loop_
 _symmetry_equiv_pos_site_id
 _symmetry_equiv_pos_as_xyz
  1  'x, y, z'
loop_
 _atom_site_type_symbol
 _atom_site_label
 _atom_site_symmetry_multiplicity
 _atom_site_fract_x
 _atom_site_fract_y
 _atom_site_fract_z
 _atom_site_occupancy
  Lu  Lu0  1  0.500241  0.672375  0.592919  1
  Lu  Lu1  1  0.002674  0.828347  0.906440  1
  Lu  Lu2  1  0.496572  0.328285  0.095671  1
  Lu  Lu3  1  0.000692  0.170428  0.402112  1
  Lu  Lu4  1  0.496572  0.328285  0.404329  1
  Lu  Lu5  1  0.000692  0.170428  0.097888  1
  Lu  Lu6  1  0.500241  0.672375  0.907081  1
  Lu  Lu7  1  0.002674  0.828347  0.593560  1
  Ta  Ta8  1  0.666413  0.174603  0.625538  1
  Ta  Ta9  1  0.156692  0.322607  0.874604  1
  Ta  Ta10  1  0.338148  0.826471  0.125301  1
  Ta  Ta11  1  0.837234  0.675114  0.375349  1
  Ta  Ta12  1  0.338148  0.826471  0.374699  1
  Ta  Ta13  1  0.837234  0.675114  0.124651  1
  Ta  Ta14  1  0.666413  0.174603  0.874462  1
  Ta  Ta15  1  0.156692  0.322607  0.625396  1
  Ta  Ta16  1  0.336183  0.001987  0.750000  1
  Ta  Ta17  1  0.162553  0.507801  0.250000  1
  Ta  Ta18  1  0.663399  0.993495  0.250000  1
  Si  Si19  1  0.667340  0.965380  0.459650  1
  Si  Si20  1  0.166041  0.535703  0.040156  1
  Si  Si21  1  0.335826  0.036085  0.959178  1
  Si  Si22  1  0.833379  0.457900  0.532065  1
  Si  Si23  1  0.335826  0.036085  0.540822  1
  Si  Si24  1  0.833379  0.457900  0.967935  1
  Si  Si25  1  0.667340  0.965380  0.040350  1
  Si  Si26  1  0.166041  0.535703  0.459844  1
  Si  Si27  1  0.455933  0.372714  0.750000  1
  Si  Si28  1  0.961269  0.113487  0.750000  1
  Si  Si29  1  0.540213  0.618981  0.250000  1
  Si  Si30  1  0.041695  0.880436  0.250000  1
  Si  Si31  1  0.700529  0.877682  0.750000  1
  Si  Si32  1  0.214087  0.627142  0.750000  1
  Si  Si33  1  0.297959  0.132357  0.250000  1
  Si  Si34  1  0.794692  0.368307  0.250000  1
  Ag  Ag35  1  0.828984  0.519018  0.750000  1
