# generated using pymatgen
data_Lu12MgFe3Ag
_symmetry_space_group_name_H-M   'P 1'
_cell_length_a   8.14215515
_cell_length_b   8.14197868
_cell_length_c   8.14215447
_cell_angle_alpha   109.30724211
_cell_angle_beta   107.04360162
_cell_angle_gamma   112.10358682
_symmetry_Int_Tables_number   1
_chemical_formula_structural   Lu12MgFe3Ag
_chemical_formula_sum   'Lu12 Mg1 Fe3 Ag1'
_cell_volume   414.69502991
_cell_formula_units_Z   1
loop_
 _symmetry_equiv_pos_site_id
 _symmetry_equiv_pos_as_xyz
  1  'x, y, z'
loop_
 _atom_site_type_symbol
 _atom_site_label
 _atom_site_symmetry_multiplicity
 _atom_site_fract_x
 _atom_site_fract_y
 _atom_site_fract_z
 _atom_site_occupancy
  Lu  Lu0  1  0.308256  0.310822  0.619057  1
  Lu  Lu1  1  0.691744  0.689178  0.380943  1
  Lu  Lu2  1  0.691765  0.310822  0.002566  1
  Lu  Lu3  1  0.308235  0.689178  0.997434  1
  Lu  Lu4  1  0.192328  0.440081  0.247753  1
  Lu  Lu5  1  0.807672  0.559919  0.752247  1
  Lu  Lu6  1  0.192313  0.944555  0.752243  1
  Lu  Lu7  1  0.960667  0.188914  0.771705  1
  Lu  Lu8  1  0.807687  0.055445  0.247757  1
  Lu  Lu9  1  0.039333  0.811086  0.228295  1
  Lu  Lu10  1  0.417209  0.188914  0.228245  1
  Lu  Lu11  1  0.582791  0.811086  0.771755  1
  Mg  Mg12  1  0.500000  0.000000  0.500000  1
  Fe  Fe13  1  0.380805  0.380849  0.000044  1
  Fe  Fe14  1  0.619195  0.619151  0.999956  1
  Fe  Fe15  1  0.000000  0.000000  0.000000  1
  Ag  Ag16  1  0.000000  0.500000  0.500000  1
