# generated using pymatgen
data_Yb2Ni2Ag(AsO4)3
_symmetry_space_group_name_H-M   'P 1'
_cell_length_a   10.59163481
_cell_length_b   10.59163442
_cell_length_c   10.59163600
_cell_angle_alpha   109.65714905
_cell_angle_beta   109.65715979
_cell_angle_gamma   109.09998416
_symmetry_Int_Tables_number   1
_chemical_formula_structural   Yb2Ni2Ag(AsO4)3
_chemical_formula_sum   'Yb8 Ni8 Ag4 As12 O48'
_cell_volume   914.64697603
_cell_formula_units_Z   4
loop_
 _symmetry_equiv_pos_site_id
 _symmetry_equiv_pos_as_xyz
  1  'x, y, z'
loop_
 _atom_site_type_symbol
 _atom_site_label
 _atom_site_symmetry_multiplicity
 _atom_site_fract_x
 _atom_site_fract_y
 _atom_site_fract_z
 _atom_site_occupancy
  Yb  Yb0  1  0.125000  0.754108  0.129106  1
  Yb  Yb1  1  0.004108  0.875000  0.629108  1
  Yb  Yb2  1  0.125002  0.254108  0.629107  1
  Yb  Yb3  1  0.504106  0.875000  0.129106  1
  Yb  Yb4  1  0.624998  0.995892  0.870893  1
  Yb  Yb5  1  0.245894  0.375000  0.370894  1
  Yb  Yb6  1  0.625000  0.495892  0.370894  1
  Yb  Yb7  1  0.745892  0.375000  0.870892  1
  Ni  Ni8  1  0.375000  0.625000  0.750000  1
  Ni  Ni9  1  0.875000  0.125000  0.250000  1
  Ni  Ni10  1  0.875000  0.125000  0.750000  1
  Ni  Ni11  1  0.375000  0.125000  0.250000  1
  Ni  Ni12  1  0.375000  0.125000  0.750000  1
  Ni  Ni13  1  0.875000  0.625000  0.250000  1
  Ni  Ni14  1  0.375000  0.625000  0.250000  1
  Ni  Ni15  1  0.875000  0.625000  0.750000  1
  Ag  Ag16  1  0.750001  0.750001  0.000002  1
  Ag  Ag17  1  0.500001  0.999999  0.500000  1
  Ag  Ag18  1  0.249999  0.250001  0.000000  1
  Ag  Ag19  1  0.999999  0.499999  0.499998  1
  As  As20  1  0.249998  0.750001  0.499998  1
  As  As21  1  0.625008  0.747143  0.622145  1
  As  As22  1  0.252867  0.875000  0.877867  1
  As  As23  1  0.752852  0.875000  0.377852  1
  As  As24  1  0.125002  0.002857  0.377865  1
  As  As25  1  0.999997  0.999999  0.999996  1
  As  As26  1  0.750003  0.250001  0.500004  1
  As  As27  1  0.997148  0.375000  0.122148  1
  As  As28  1  0.624998  0.247143  0.122135  1
  As  As29  1  0.497133  0.375000  0.622133  1
  As  As30  1  0.124992  0.502857  0.877855  1
  As  As31  1  0.500002  0.499999  0.000002  1
  O  O32  1  0.067762  0.730240  0.739309  1
  O  O33  1  0.272763  0.736492  0.343311  1
  O  O34  1  0.273298  0.647624  0.062823  1
  O  O35  1  0.070545  0.727234  0.463721  1
  O  O36  1  0.773314  0.710488  0.625696  1
  O  O37  1  0.789508  0.726691  0.374305  1
  O  O38  1  0.980255  0.817748  0.239304  1
  O  O39  1  0.165208  0.039512  0.562828  1
  O  O40  1  0.289528  0.915204  0.062833  1
  O  O41  1  0.269765  0.009067  0.337525  1
  O  O42  1  0.486501  0.643177  0.963723  1
  O  O43  1  0.671556  0.932252  0.662505  1
  O  O44  1  0.977219  0.820542  0.963715  1
  O  O45  1  0.567746  0.828449  0.337498  1
  O  O46  1  0.897615  0.023309  0.562818  1
  O  O47  1  0.393173  0.929458  0.656678  1
  O  O48  1  0.759049  0.921551  0.239297  1
  O  O49  1  0.578459  0.740933  0.760699  1
  O  O50  1  0.084801  0.147624  0.374324  1
  O  O51  1  0.259070  0.019760  0.837523  1
  O  O52  1  0.179454  0.143177  0.156677  1
  O  O53  1  0.856821  0.013508  0.036271  1
  O  O54  1  0.352372  0.415204  0.625677  1
  O  O55  1  0.986487  0.022766  0.843310  1
  O  O56  1  0.763513  0.227234  0.656690  1
  O  O57  1  0.397628  0.834796  0.874323  1
  O  O58  1  0.893179  0.236492  0.463729  1
  O  O59  1  0.570546  0.106823  0.343323  1
  O  O60  1  0.490930  0.230240  0.662477  1
  O  O61  1  0.665199  0.102376  0.125676  1
  O  O62  1  0.171541  0.509067  0.739301  1
  O  O63  1  0.990951  0.328449  0.260703  1
  O  O64  1  0.356827  0.320542  0.843322  1
  O  O65  1  0.852385  0.226691  0.937182  1
  O  O66  1  0.182254  0.421551  0.162502  1
  O  O67  1  0.772781  0.429458  0.536285  1
  O  O68  1  0.078444  0.317748  0.837495  1
  O  O69  1  0.263499  0.606823  0.536277  1
  O  O70  1  0.480235  0.240933  0.162475  1
  O  O71  1  0.460472  0.334796  0.437167  1
  O  O72  1  0.584792  0.210488  0.937172  1
  O  O73  1  0.769745  0.432252  0.260696  1
  O  O74  1  0.960492  0.523309  0.125695  1
  O  O75  1  0.976686  0.539512  0.874304  1
  O  O76  1  0.679455  0.522766  0.036279  1
  O  O77  1  0.477237  0.513508  0.156689  1
  O  O78  1  0.476702  0.602376  0.437177  1
  O  O79  1  0.682238  0.519760  0.760691  1
