# generated using pymatgen
data_CaYTa3Co9As7
_symmetry_space_group_name_H-M   'P 1'
_cell_length_a   3.79649600
_cell_length_b   9.56307038
_cell_length_c   9.56307000
_cell_angle_alpha   119.99999868
_cell_angle_beta   90.00000000
_cell_angle_gamma   90.00000000
_symmetry_Int_Tables_number   1
_chemical_formula_structural   CaYTa3Co9As7
_chemical_formula_sum   'Ca1 Y1 Ta3 Co9 As7'
_cell_volume   300.68258205
_cell_formula_units_Z   1
loop_
 _symmetry_equiv_pos_site_id
 _symmetry_equiv_pos_as_xyz
  1  'x, y, z'
loop_
 _atom_site_type_symbol
 _atom_site_label
 _atom_site_symmetry_multiplicity
 _atom_site_fract_x
 _atom_site_fract_y
 _atom_site_fract_z
 _atom_site_occupancy
  Ca  Ca0  1  0.500000  0.333333  0.666667  1
  Y  Y1  1  0.000000  0.666667  0.333333  1
  Ta  Ta2  1  0.500000  0.775516  0.895127  1
  Ta  Ta3  1  0.500000  0.119612  0.224484  1
  Ta  Ta4  1  0.500000  0.104873  0.880388  1
  Co  Co5  1  0.000000  0.574550  0.940545  1
  Co  Co6  1  0.000000  0.365995  0.425450  1
  Co  Co7  1  0.000000  0.059455  0.634005  1
  Co  Co8  1  0.000000  0.879835  0.159955  1
  Co  Co9  1  0.000000  0.280121  0.120165  1
  Co  Co10  1  0.000000  0.840045  0.719879  1
  Co  Co11  1  0.500000  0.946837  0.381880  1
  Co  Co12  1  0.500000  0.435043  0.053163  1
  Co  Co13  1  0.500000  0.618120  0.564957  1
  As  As14  1  0.000000  0.000000  0.000000  1
  As  As15  1  0.500000  0.706949  0.124065  1
  As  As16  1  0.500000  0.417116  0.293051  1
  As  As17  1  0.500000  0.875935  0.582884  1
  As  As18  1  0.000000  0.577693  0.691042  1
  As  As19  1  0.000000  0.113349  0.422307  1
  As  As20  1  0.000000  0.308958  0.886651  1
