# generated using pymatgen
data_Dy2Mg2Ru
_symmetry_space_group_name_H-M   'P 1'
_cell_length_a   10.68517086
_cell_length_b   10.68517075
_cell_length_c   10.68517184
_cell_angle_alpha   161.65032379
_cell_angle_beta   161.65032420
_cell_angle_gamma   26.06374808
_symmetry_Int_Tables_number   1
_chemical_formula_structural   Dy2Mg2Ru
_chemical_formula_sum   'Dy2 Mg2 Ru1'
_cell_volume   120.86730361
_cell_formula_units_Z   1
loop_
 _symmetry_equiv_pos_site_id
 _symmetry_equiv_pos_as_xyz
  1  'x, y, z'
loop_
 _atom_site_type_symbol
 _atom_site_label
 _atom_site_symmetry_multiplicity
 _atom_site_fract_x
 _atom_site_fract_y
 _atom_site_fract_z
 _atom_site_occupancy
  Dy  Dy0  1  0.579353  0.579353  0.000000  1
  Dy  Dy1  1  0.420647  0.420647  0.000000  1
  Mg  Mg2  1  0.798157  0.798157  0.000000  1
  Mg  Mg3  1  0.201843  0.201843  0.000000  1
  Ru  Ru4  1  0.000000  0.000000  0.000000  1
