# generated using pymatgen
data_Tb2NdNi9
_symmetry_space_group_name_H-M   'P 1'
_cell_length_a   8.65053934
_cell_length_b   8.65053915
_cell_length_c   8.65053904
_cell_angle_alpha   33.54039178
_cell_angle_beta   33.54039374
_cell_angle_gamma   33.54039820
_symmetry_Int_Tables_number   1
_chemical_formula_structural   Tb2NdNi9
_chemical_formula_sum   'Tb2 Nd1 Ni9'
_cell_volume   176.02074848
_cell_formula_units_Z   1
loop_
 _symmetry_equiv_pos_site_id
 _symmetry_equiv_pos_as_xyz
  1  'x, y, z'
loop_
 _atom_site_type_symbol
 _atom_site_label
 _atom_site_symmetry_multiplicity
 _atom_site_fract_x
 _atom_site_fract_y
 _atom_site_fract_z
 _atom_site_occupancy
  Tb  Tb0  1  0.860522  0.860522  0.860522  1
  Tb  Tb1  1  0.139478  0.139478  0.139478  1
  Nd  Nd2  1  0.000000  0.000000  0.000000  1
  Ni  Ni3  1  0.417123  0.917626  0.417123  1
  Ni  Ni4  1  0.417123  0.417123  0.917626  1
  Ni  Ni5  1  0.917626  0.417123  0.417123  1
  Ni  Ni6  1  0.582877  0.082374  0.582877  1
  Ni  Ni7  1  0.582877  0.582877  0.082374  1
  Ni  Ni8  1  0.082374  0.582877  0.582877  1
  Ni  Ni9  1  0.667072  0.667072  0.667072  1
  Ni  Ni10  1  0.332928  0.332928  0.332928  1
  Ni  Ni11  1  0.500000  0.500000  0.500000  1
