# generated using pymatgen
data_TbY12Er7Sn16
_symmetry_space_group_name_H-M   'P 1'
_cell_length_a   8.02369370
_cell_length_b   8.16622972
_cell_length_c   15.43811283
_cell_angle_alpha   90.00847376
_cell_angle_beta   90.02144403
_cell_angle_gamma   90.02194843
_symmetry_Int_Tables_number   1
_chemical_formula_structural   TbY12Er7Sn16
_chemical_formula_sum   'Tb1 Y12 Er7 Sn16'
_cell_volume   1011.55634415
_cell_formula_units_Z   1
loop_
 _symmetry_equiv_pos_site_id
 _symmetry_equiv_pos_as_xyz
  1  'x, y, z'
loop_
 _atom_site_type_symbol
 _atom_site_label
 _atom_site_symmetry_multiplicity
 _atom_site_fract_x
 _atom_site_fract_y
 _atom_site_fract_z
 _atom_site_occupancy
  Tb  Tb0  1  0.019034  0.178465  0.902371  1
  Y  Y1  1  0.134231  0.337140  0.121979  1
  Y  Y2  1  0.633520  0.163021  0.122615  1
  Y  Y3  1  0.133593  0.337045  0.377896  1
  Y  Y4  1  0.366523  0.837184  0.622444  1
  Y  Y5  1  0.866678  0.662605  0.877760  1
  Y  Y6  1  0.519523  0.320665  0.902793  1
  Y  Y7  1  0.019634  0.179331  0.597199  1
  Y  Y8  1  0.480700  0.679532  0.403263  1
  Y  Y9  1  0.979959  0.820727  0.097167  1
  Y  Y10  1  0.480928  0.679612  0.096769  1
  Y  Y11  1  0.981431  0.820684  0.403545  1
  Y  Y12  1  0.518767  0.321128  0.596783  1
  Er  Er13  1  0.365787  0.837630  0.876348  1
  Er  Er14  1  0.865106  0.662569  0.622931  1
  Er  Er15  1  0.634644  0.162554  0.377520  1
  Er  Er16  1  0.197553  0.503333  0.750213  1
  Er  Er17  1  0.697763  0.996751  0.749476  1
  Er  Er18  1  0.802189  0.496911  0.250835  1
  Er  Er19  1  0.302779  0.003074  0.249826  1
  Sn  Sn20  1  0.294325  0.035824  0.040924  1
  Sn  Sn21  1  0.793095  0.461990  0.459078  1
  Sn  Sn22  1  0.707172  0.962024  0.541456  1
  Sn  Sn23  1  0.207665  0.538621  0.957653  1
  Sn  Sn24  1  0.703102  0.962430  0.957600  1
  Sn  Sn25  1  0.203150  0.537848  0.542572  1
  Sn  Sn26  1  0.296570  0.037623  0.457815  1
  Sn  Sn27  1  0.794088  0.463216  0.042353  1
  Sn  Sn28  1  0.563479  0.618589  0.749933  1
  Sn  Sn29  1  0.063165  0.881138  0.749768  1
  Sn  Sn30  1  0.437021  0.381401  0.250504  1
  Sn  Sn31  1  0.936463  0.117963  0.250458  1
  Sn  Sn32  1  0.329039  0.148750  0.749927  1
  Sn  Sn33  1  0.828900  0.351966  0.749612  1
  Sn  Sn34  1  0.671134  0.851946  0.250446  1
  Sn  Sn35  1  0.171289  0.648711  0.250165  1
