# generated using pymatgen
data_KBa2(CoP)6
_symmetry_space_group_name_H-M   'P 1'
_cell_length_a   5.35688046
_cell_length_b   6.84547914
_cell_length_c   8.48725289
_cell_angle_alpha   111.83859546
_cell_angle_beta   108.39606227
_cell_angle_gamma   89.99999988
_symmetry_Int_Tables_number   1
_chemical_formula_structural   KBa2(CoP)6
_chemical_formula_sum   'K1 Ba2 Co6 P6'
_cell_volume   271.68670682
_cell_formula_units_Z   1
loop_
 _symmetry_equiv_pos_site_id
 _symmetry_equiv_pos_as_xyz
  1  'x, y, z'
loop_
 _atom_site_type_symbol
 _atom_site_label
 _atom_site_symmetry_multiplicity
 _atom_site_fract_x
 _atom_site_fract_y
 _atom_site_fract_z
 _atom_site_occupancy
  K  K0  1  0.000000  0.000000  0.000000  1
  Ba  Ba1  1  0.660949  0.999494  0.321896  1
  Ba  Ba2  1  0.339051  0.000506  0.678104  1
  Co  Co3  1  0.416265  0.501010  0.334070  1
  Co  Co4  1  0.082193  0.498990  0.665930  1
  Co  Co5  1  0.751184  0.500000  0.000000  1
  Co  Co6  1  0.583735  0.498990  0.665930  1
  Co  Co7  1  0.248816  0.500000  0.000000  1
  Co  Co8  1  0.917807  0.501010  0.334070  1
  P  P9  1  0.220172  0.318598  0.440343  1
  P  P10  1  0.886031  0.317820  0.772060  1
  P  P11  1  0.553744  0.322427  0.107490  1
  P  P12  1  0.779828  0.681402  0.559657  1
  P  P13  1  0.446256  0.677573  0.892510  1
  P  P14  1  0.113969  0.682180  0.227940  1
