# generated using pymatgen
data_Ca12Ho8Si15Ge
_symmetry_space_group_name_H-M   'P 1'
_cell_length_a   7.41533357
_cell_length_b   7.81381078
_cell_length_c   15.14217805
_cell_angle_alpha   90.05011902
_cell_angle_beta   89.92676471
_cell_angle_gamma   90.02153375
_symmetry_Int_Tables_number   1
_chemical_formula_structural   Ca12Ho8Si15Ge
_chemical_formula_sum   'Ca12 Ho8 Si15 Ge1'
_cell_volume   877.36716926
_cell_formula_units_Z   1
loop_
 _symmetry_equiv_pos_site_id
 _symmetry_equiv_pos_as_xyz
  1  'x, y, z'
loop_
 _atom_site_type_symbol
 _atom_site_label
 _atom_site_symmetry_multiplicity
 _atom_site_fract_x
 _atom_site_fract_y
 _atom_site_fract_z
 _atom_site_occupancy
  Ca  Ca0  1  0.650526  0.980912  0.250148  1
  Ca  Ca1  1  0.150833  0.518830  0.250081  1
  Ca  Ca2  1  0.849378  0.481127  0.749276  1
  Ca  Ca3  1  0.349237  0.019074  0.749652  1
  Ca  Ca4  1  0.976729  0.817452  0.095721  1
  Ca  Ca5  1  0.475878  0.682750  0.404679  1
  Ca  Ca6  1  0.521862  0.316098  0.904668  1
  Ca  Ca7  1  0.024126  0.182735  0.595140  1
  Ca  Ca8  1  0.024436  0.182302  0.904737  1
  Ca  Ca9  1  0.524089  0.317256  0.595214  1
  Ca  Ca10  1  0.476076  0.683313  0.095656  1
  Ca  Ca11  1  0.975771  0.817136  0.404717  1
  Ho  Ho12  1  0.682142  0.824942  0.877858  1
  Ho  Ho13  1  0.183235  0.677261  0.621304  1
  Ho  Ho14  1  0.817912  0.322321  0.121702  1
  Ho  Ho15  1  0.316907  0.177240  0.378745  1
  Ho  Ho16  1  0.317643  0.176625  0.121838  1
  Ho  Ho17  1  0.816893  0.322805  0.378710  1
  Ho  Ho18  1  0.183767  0.676999  0.878698  1
  Ho  Ho19  1  0.683192  0.822992  0.621196  1
  Si  Si20  1  0.756287  0.604118  0.250100  1
  Si  Si21  1  0.256035  0.895633  0.250274  1
  Si  Si22  1  0.744118  0.104738  0.749684  1
  Si  Si23  1  0.243812  0.395906  0.749910  1
  Si  Si24  1  0.026559  0.117021  0.250284  1
  Si  Si25  1  0.526803  0.382591  0.250232  1
  Si  Si26  1  0.473560  0.617512  0.749778  1
  Si  Si27  1  0.973551  0.882680  0.749830  1
  Si  Si28  1  0.357689  0.964605  0.537605  1
  Si  Si29  1  0.642648  0.035369  0.037663  1
  Si  Si30  1  0.142288  0.464577  0.462361  1
  Si  Si31  1  0.146702  0.463957  0.038385  1
  Si  Si32  1  0.642260  0.035420  0.462310  1
  Si  Si33  1  0.357564  0.964413  0.962584  1
  Si  Si34  1  0.857740  0.535494  0.537620  1
  Ge  Ge35  1  0.851752  0.535798  0.961642  1
