# generated using pymatgen
data_Ho2Fe3Ni7P6
_symmetry_space_group_name_H-M   'P 1'
_cell_length_a   3.69887800
_cell_length_b   10.30065100
_cell_length_c   11.89153700
_cell_angle_alpha   90.00000000
_cell_angle_beta   90.00000000
_cell_angle_gamma   90.00000000
_symmetry_Int_Tables_number   1
_chemical_formula_structural   Ho2Fe3Ni7P6
_chemical_formula_sum   'Ho4 Fe6 Ni14 P12'
_cell_volume   453.07768379
_cell_formula_units_Z   2
loop_
 _symmetry_equiv_pos_site_id
 _symmetry_equiv_pos_as_xyz
  1  'x, y, z'
loop_
 _atom_site_type_symbol
 _atom_site_label
 _atom_site_symmetry_multiplicity
 _atom_site_fract_x
 _atom_site_fract_y
 _atom_site_fract_z
 _atom_site_occupancy
  Ho  Ho0  1  0.250000  0.574968  0.704549  1
  Ho  Ho1  1  0.250000  0.925032  0.204549  1
  Ho  Ho2  1  0.750000  0.419275  0.294963  1
  Ho  Ho3  1  0.750000  0.080725  0.794963  1
  Fe  Fe4  1  0.750000  0.125668  0.298581  1
  Fe  Fe5  1  0.750000  0.374332  0.798581  1
  Fe  Fe6  1  0.250000  0.465502  0.932323  1
  Fe  Fe7  1  0.250000  0.034498  0.432323  1
  Fe  Fe8  1  0.750000  0.539914  0.068992  1
  Fe  Fe9  1  0.750000  0.960086  0.568992  1
  Ni  Ni10  1  0.250000  0.718133  0.999283  1
  Ni  Ni11  1  0.250000  0.781867  0.499283  1
  Ni  Ni12  1  0.750000  0.289197  0.007730  1
  Ni  Ni13  1  0.750000  0.210803  0.507730  1
  Ni  Ni14  1  0.250000  0.406291  0.484468  1
  Ni  Ni15  1  0.250000  0.093709  0.984468  1
  Ni  Ni16  1  0.750000  0.589413  0.511975  1
  Ni  Ni17  1  0.750000  0.910587  0.011975  1
  Ni  Ni18  1  0.250000  0.226968  0.171784  1
  Ni  Ni19  1  0.250000  0.273032  0.671784  1
  Ni  Ni20  1  0.750000  0.772661  0.824256  1
  Ni  Ni21  1  0.750000  0.727339  0.324256  1
  Ni  Ni22  1  0.250000  0.874621  0.703507  1
  Ni  Ni23  1  0.250000  0.625379  0.203507  1
  P  P24  1  0.250000  0.430075  0.111494  1
  P  P25  1  0.250000  0.069925  0.611494  1
  P  P26  1  0.750000  0.568926  0.886712  1
  P  P27  1  0.750000  0.931074  0.386712  1
  P  P28  1  0.250000  0.272299  0.863901  1
  P  P29  1  0.250000  0.227701  0.363901  1
  P  P30  1  0.750000  0.735216  0.132104  1
  P  P31  1  0.750000  0.764784  0.632104  1
  P  P32  1  0.250000  0.603590  0.393016  1
  P  P33  1  0.250000  0.896410  0.893016  1
  P  P34  1  0.750000  0.392881  0.610362  1
  P  P35  1  0.750000  0.107119  0.110362  1
