# generated using pymatgen
data_Tb5Bi2Ir
_symmetry_space_group_name_H-M   'P 1'
_cell_length_a   8.05889200
_cell_length_b   9.03415100
_cell_length_c   12.52982200
_cell_angle_alpha   90.00000000
_cell_angle_beta   90.00000000
_cell_angle_gamma   90.00000000
_symmetry_Int_Tables_number   1
_chemical_formula_structural   Tb5Bi2Ir
_chemical_formula_sum   'Tb20 Bi8 Ir4'
_cell_volume   912.23678834
_cell_formula_units_Z   4
loop_
 _symmetry_equiv_pos_site_id
 _symmetry_equiv_pos_as_xyz
  1  'x, y, z'
loop_
 _atom_site_type_symbol
 _atom_site_label
 _atom_site_symmetry_multiplicity
 _atom_site_fract_x
 _atom_site_fract_y
 _atom_site_fract_z
 _atom_site_occupancy
  Tb  Tb0  1  0.841896  0.750000  0.794308  1
  Tb  Tb1  1  0.158104  0.250000  0.205692  1
  Tb  Tb2  1  0.341896  0.250000  0.705692  1
  Tb  Tb3  1  0.658104  0.750000  0.294308  1
  Tb  Tb4  1  0.375695  0.750000  0.694646  1
  Tb  Tb5  1  0.624305  0.250000  0.305354  1
  Tb  Tb6  1  0.875695  0.250000  0.805354  1
  Tb  Tb7  1  0.124305  0.750000  0.194646  1
  Tb  Tb8  1  0.948615  0.750000  0.501489  1
  Tb  Tb9  1  0.051385  0.250000  0.498511  1
  Tb  Tb10  1  0.448615  0.250000  0.998511  1
  Tb  Tb11  1  0.551385  0.750000  0.001489  1
  Tb  Tb12  1  0.677701  0.040273  0.565558  1
  Tb  Tb13  1  0.322299  0.959727  0.434442  1
  Tb  Tb14  1  0.177701  0.959727  0.934442  1
  Tb  Tb15  1  0.322299  0.540273  0.434442  1
  Tb  Tb16  1  0.822299  0.040273  0.065558  1
  Tb  Tb17  1  0.677701  0.459727  0.565558  1
  Tb  Tb18  1  0.822299  0.459727  0.065558  1
  Tb  Tb19  1  0.177701  0.540273  0.934442  1
  Bi  Bi20  1  0.569645  0.491353  0.826714  1
  Bi  Bi21  1  0.430355  0.508647  0.173286  1
  Bi  Bi22  1  0.069645  0.508647  0.673286  1
  Bi  Bi23  1  0.430355  0.991353  0.173286  1
  Bi  Bi24  1  0.930355  0.491353  0.326714  1
  Bi  Bi25  1  0.569645  0.008647  0.826714  1
  Bi  Bi26  1  0.930355  0.008647  0.326714  1
  Bi  Bi27  1  0.069645  0.991353  0.673286  1
  Ir  Ir28  1  0.567425  0.750000  0.509476  1
  Ir  Ir29  1  0.432575  0.250000  0.490524  1
  Ir  Ir30  1  0.067425  0.250000  0.990524  1
  Ir  Ir31  1  0.932575  0.750000  0.009476  1
