# generated using pymatgen
data_Tb12Tc3As
_symmetry_space_group_name_H-M   'P 1'
_cell_length_a   6.31512941
_cell_length_b   7.50241660
_cell_length_c   9.21280300
_cell_angle_alpha   90.00000000
_cell_angle_beta   90.00000000
_cell_angle_gamma   90.36501133
_symmetry_Int_Tables_number   1
_chemical_formula_structural   Tb12Tc3As
_chemical_formula_sum   'Tb12 Tc3 As1'
_cell_volume   436.48206408
_cell_formula_units_Z   1
loop_
 _symmetry_equiv_pos_site_id
 _symmetry_equiv_pos_as_xyz
  1  'x, y, z'
loop_
 _atom_site_type_symbol
 _atom_site_label
 _atom_site_symmetry_multiplicity
 _atom_site_fract_x
 _atom_site_fract_y
 _atom_site_fract_z
 _atom_site_occupancy
  Tb  Tb0  1  0.622426  0.046167  0.250000  1
  Tb  Tb1  1  0.365017  0.958323  0.750000  1
  Tb  Tb2  1  0.123252  0.466891  0.750000  1
  Tb  Tb3  1  0.865286  0.527436  0.250000  1
  Tb  Tb4  1  0.156448  0.190405  0.059712  1
  Tb  Tb5  1  0.834687  0.824778  0.935315  1
  Tb  Tb6  1  0.663558  0.318877  0.934515  1
  Tb  Tb7  1  0.834687  0.824778  0.564685  1
  Tb  Tb8  1  0.352089  0.666684  0.060231  1
  Tb  Tb9  1  0.156448  0.190405  0.440288  1
  Tb  Tb10  1  0.352089  0.666684  0.439769  1
  Tb  Tb11  1  0.663558  0.318877  0.565485  1
  Tc  Tc12  1  0.445134  0.381669  0.250000  1
  Tc  Tc13  1  0.538485  0.618132  0.750000  1
  Tc  Tc14  1  0.962528  0.116733  0.750000  1
  As  As15  1  0.064310  0.883157  0.250000  1
