# generated using pymatgen
data_Sc2NbNi11As7
_symmetry_space_group_name_H-M   'P 1'
_cell_length_a   3.75133400
_cell_length_b   9.39067600
_cell_length_c   9.46610960
_cell_angle_alpha   120.17455091
_cell_angle_beta   90.00000000
_cell_angle_gamma   90.00000000
_symmetry_Int_Tables_number   1
_chemical_formula_structural   Sc2NbNi11As7
_chemical_formula_sum   'Sc2 Nb1 Ni11 As7'
_cell_volume   288.28243582
_cell_formula_units_Z   1
loop_
 _symmetry_equiv_pos_site_id
 _symmetry_equiv_pos_as_xyz
  1  'x, y, z'
loop_
 _atom_site_type_symbol
 _atom_site_label
 _atom_site_symmetry_multiplicity
 _atom_site_fract_x
 _atom_site_fract_y
 _atom_site_fract_z
 _atom_site_occupancy
  Sc  Sc0  1  0.500000  0.332320  0.663644  1
  Sc  Sc1  1  0.000000  0.673512  0.341861  1
  Nb  Nb2  1  0.500000  0.119711  0.905462  1
  Ni  Ni3  1  0.000000  0.873358  0.718259  1
  Ni  Ni4  1  0.000000  0.287866  0.162506  1
  Ni  Ni5  1  0.000000  0.832787  0.123168  1
  Ni  Ni6  1  0.500000  0.942513  0.560545  1
  Ni  Ni7  1  0.500000  0.433949  0.384137  1
  Ni  Ni8  1  0.500000  0.613094  0.040278  1
  Ni  Ni9  1  0.000000  0.377511  0.939139  1
  Ni  Ni10  1  0.000000  0.057979  0.429209  1
  Ni  Ni11  1  0.000000  0.561720  0.620334  1
  Ni  Ni12  1  0.500000  0.101628  0.226768  1
  Ni  Ni13  1  0.500000  0.786874  0.881384  1
  As  As14  1  0.500000  0.708135  0.592148  1
  As  As15  1  0.500000  0.426557  0.130186  1
  As  As16  1  0.500000  0.878086  0.291250  1
  As  As17  1  0.000000  0.995922  0.008656  1
  As  As18  1  0.000000  0.119625  0.698582  1
  As  As19  1  0.000000  0.290802  0.410130  1
  As  As20  1  0.000000  0.586051  0.872355  1
