# generated using pymatgen
data_Pr16AlHg3Rh4
_symmetry_space_group_name_H-M   'P 1'
_cell_length_a   9.96165862
_cell_length_b   9.99771245
_cell_length_c   9.99761997
_cell_angle_alpha   59.78607365
_cell_angle_beta   59.87768663
_cell_angle_gamma   59.87771462
_symmetry_Int_Tables_number   1
_chemical_formula_structural   Pr16AlHg3Rh4
_chemical_formula_sum   'Pr16 Al1 Hg3 Rh4'
_cell_volume   701.62354999
_cell_formula_units_Z   1
loop_
 _symmetry_equiv_pos_site_id
 _symmetry_equiv_pos_as_xyz
  1  'x, y, z'
loop_
 _atom_site_type_symbol
 _atom_site_label
 _atom_site_symmetry_multiplicity
 _atom_site_fract_x
 _atom_site_fract_y
 _atom_site_fract_z
 _atom_site_occupancy
  Pr  Pr0  1  0.348421  0.349958  0.349964  1
  Pr  Pr1  1  0.349826  0.352091  0.948395  1
  Pr  Pr2  1  0.349815  0.948408  0.352092  1
  Pr  Pr3  1  0.945173  0.352365  0.352343  1
  Pr  Pr4  1  0.809000  0.190257  0.190241  1
  Pr  Pr5  1  0.189873  0.806731  0.806747  1
  Pr  Pr6  1  0.190360  0.808403  0.192963  1
  Pr  Pr7  1  0.808484  0.189956  0.808100  1
  Pr  Pr8  1  0.190344  0.192960  0.808411  1
  Pr  Pr9  1  0.808509  0.808102  0.189935  1
  Pr  Pr10  1  0.942902  0.563124  0.563107  1
  Pr  Pr11  1  0.559089  0.939842  0.939846  1
  Pr  Pr12  1  0.560816  0.939929  0.562896  1
  Pr  Pr13  1  0.941061  0.560681  0.935374  1
  Pr  Pr14  1  0.560794  0.562894  0.939944  1
  Pr  Pr15  1  0.941047  0.935345  0.560702  1
  Al  Al16  1  0.268216  0.576354  0.576339  1
  Hg  Hg17  1  0.579022  0.584578  0.584577  1
  Hg  Hg18  1  0.578825  0.585113  0.250503  1
  Hg  Hg19  1  0.578835  0.250490  0.585112  1
  Rh  Rh20  1  0.141603  0.142769  0.142750  1
  Rh  Rh21  1  0.142551  0.142516  0.574571  1
  Rh  Rh22  1  0.142564  0.574575  0.142504  1
  Rh  Rh23  1  0.572870  0.142562  0.142584  1
