# generated using pymatgen
data_Yb5Ni2Pd
_symmetry_space_group_name_H-M   'P 1'
_cell_length_a   8.59764396
_cell_length_b   8.59764431
_cell_length_c   8.59764348
_cell_angle_alpha   129.47065591
_cell_angle_beta   129.47065996
_cell_angle_gamma   74.25443921
_symmetry_Int_Tables_number   1
_chemical_formula_structural   Yb5Ni2Pd
_chemical_formula_sum   'Yb10 Ni4 Pd2'
_cell_volume   369.20544932
_cell_formula_units_Z   2
loop_
 _symmetry_equiv_pos_site_id
 _symmetry_equiv_pos_as_xyz
  1  'x, y, z'
loop_
 _atom_site_type_symbol
 _atom_site_label
 _atom_site_symmetry_multiplicity
 _atom_site_fract_x
 _atom_site_fract_y
 _atom_site_fract_z
 _atom_site_occupancy
  Yb  Yb0  1  0.000000  0.000000  0.000000  1
  Yb  Yb1  1  0.500000  0.500000  0.000000  1
  Yb  Yb2  1  0.810801  0.310801  0.844519  1
  Yb  Yb3  1  0.189199  0.689199  0.155481  1
  Yb  Yb4  1  0.466283  0.966283  0.155481  1
  Yb  Yb5  1  0.310801  0.466283  0.500000  1
  Yb  Yb6  1  0.033717  0.189199  0.500000  1
  Yb  Yb7  1  0.533717  0.033717  0.844519  1
  Yb  Yb8  1  0.689199  0.533717  0.500000  1
  Yb  Yb9  1  0.966283  0.810801  0.500000  1
  Ni  Ni10  1  0.115999  0.615999  0.731998  1
  Ni  Ni11  1  0.884001  0.384001  0.268002  1
  Ni  Ni12  1  0.615999  0.884001  0.500000  1
  Ni  Ni13  1  0.384001  0.115999  0.500000  1
  Pd  Pd14  1  0.250000  0.250000  0.000000  1
  Pd  Pd15  1  0.750000  0.750000  0.000000  1
