# generated using pymatgen
data_Rb4Pr2ReTcN8
_symmetry_space_group_name_H-M   'P 1'
_cell_length_a   11.27159342
_cell_length_b   10.92673232
_cell_length_c   8.33332368
_cell_angle_alpha   70.16630977
_cell_angle_beta   65.76937310
_cell_angle_gamma   44.06431577
_symmetry_Int_Tables_number   1
_chemical_formula_structural   Rb4Pr2ReTcN8
_chemical_formula_sum   'Rb8 Pr4 Re2 Tc2 N16'
_cell_volume   649.30796623
_cell_formula_units_Z   2
loop_
 _symmetry_equiv_pos_site_id
 _symmetry_equiv_pos_as_xyz
  1  'x, y, z'
loop_
 _atom_site_type_symbol
 _atom_site_label
 _atom_site_symmetry_multiplicity
 _atom_site_fract_x
 _atom_site_fract_y
 _atom_site_fract_z
 _atom_site_occupancy
  Rb  Rb0  1  0.558955  0.941045  0.941045  1
  Rb  Rb1  1  0.941045  0.558955  0.558955  1
  Rb  Rb2  1  0.309972  0.690028  0.690028  1
  Rb  Rb3  1  0.109095  0.109095  0.890905  1
  Rb  Rb4  1  0.140572  0.140572  0.359428  1
  Rb  Rb5  1  0.359428  0.359428  0.140572  1
  Rb  Rb6  1  0.690028  0.309972  0.309972  1
  Rb  Rb7  1  0.890905  0.890905  0.109095  1
  Pr  Pr8  1  0.341158  0.341158  0.658842  1
  Pr  Pr9  1  0.909754  0.909754  0.590246  1
  Pr  Pr10  1  0.658842  0.658842  0.341158  1
  Pr  Pr11  1  0.590246  0.590246  0.909754  1
  Re  Re12  1  0.503875  0.996125  0.503875  1
  Re  Re13  1  0.996125  0.503875  0.996125  1
  Tc  Tc14  1  0.745857  0.254143  0.745857  1
  Tc  Tc15  1  0.254143  0.745857  0.254143  1
  N  N16  1  0.011898  0.648947  0.813295  1
  N  N17  1  0.693087  0.299452  0.967629  1
  N  N18  1  0.648947  0.011898  0.525858  1
  N  N19  1  0.525858  0.813295  0.648947  1
  N  N20  1  0.237103  0.603186  0.437878  1
  N  N21  1  0.721835  0.437878  0.603186  1
  N  N22  1  0.967629  0.039834  0.693087  1
  N  N23  1  0.556152  0.949781  0.281571  1
  N  N24  1  0.437878  0.721835  0.237103  1
  N  N25  1  0.949781  0.556152  0.212496  1
  N  N26  1  0.299452  0.693087  0.039834  1
  N  N27  1  0.813295  0.525858  0.011898  1
  N  N28  1  0.212496  0.281571  0.949781  1
  N  N29  1  0.603186  0.237103  0.721835  1
  N  N30  1  0.281571  0.212496  0.556152  1
  N  N31  1  0.039834  0.967629  0.299452  1
