# generated using pymatgen
data_Ho7TmTi5Si16Mo7
_symmetry_space_group_name_H-M   'P 1'
_cell_length_a   6.92748503
_cell_length_b   6.91922262
_cell_length_c   12.80626201
_cell_angle_alpha   89.88195516
_cell_angle_beta   90.03118758
_cell_angle_gamma   90.04612151
_symmetry_Int_Tables_number   1
_chemical_formula_structural   Ho7TmTi5Si16Mo7
_chemical_formula_sum   'Ho7 Tm1 Ti5 Si16 Mo7'
_cell_volume   613.83854545
_cell_formula_units_Z   1
loop_
 _symmetry_equiv_pos_site_id
 _symmetry_equiv_pos_as_xyz
  1  'x, y, z'
loop_
 _atom_site_type_symbol
 _atom_site_label
 _atom_site_symmetry_multiplicity
 _atom_site_fract_x
 _atom_site_fract_y
 _atom_site_fract_z
 _atom_site_occupancy
  Ho  Ho0  1  0.496859  0.841447  0.718589  1
  Ho  Ho1  1  0.502557  0.159146  0.218456  1
  Ho  Ho2  1  0.840878  0.496261  0.281026  1
  Ho  Ho3  1  0.158820  0.502314  0.782885  1
  Ho  Ho4  1  0.658673  0.997085  0.968239  1
  Ho  Ho5  1  0.003112  0.340720  0.531904  1
  Ho  Ho6  1  0.996159  0.659833  0.031260  1
  Tm  Tm7  1  0.341931  0.003440  0.467258  1
  Ti  Ti8  1  0.328850  0.329157  0.999517  1
  Ti  Ti9  1  0.170589  0.828542  0.250154  1
  Ti  Ti10  1  0.827247  0.172256  0.750353  1
  Ti  Ti11  1  0.670537  0.668821  0.499308  1
  Ti  Ti12  1  0.994331  0.842288  0.625593  1
  Si  Si13  1  0.201870  0.130343  0.683633  1
  Si  Si14  1  0.370435  0.700850  0.933919  1
  Si  Si15  1  0.630946  0.299724  0.433925  1
  Si  Si16  1  0.699217  0.369611  0.066204  1
  Si  Si17  1  0.300651  0.630886  0.565367  1
  Si  Si18  1  0.799551  0.870151  0.183697  1
  Si  Si19  1  0.129199  0.200041  0.316679  1
  Si  Si20  1  0.871028  0.799884  0.816022  1
  Si  Si21  1  0.289077  0.957843  0.062956  1
  Si  Si22  1  0.541880  0.789232  0.313036  1
  Si  Si23  1  0.457188  0.210859  0.812895  1
  Si  Si24  1  0.789487  0.543663  0.687423  1
  Si  Si25  1  0.210936  0.457449  0.186710  1
  Si  Si26  1  0.710169  0.043668  0.563431  1
  Si  Si27  1  0.957355  0.289326  0.937199  1
  Si  Si28  1  0.044626  0.711017  0.437083  1
  Mo  Mo29  1  0.159012  0.008165  0.875316  1
  Mo  Mo30  1  0.492921  0.657862  0.124424  1
  Mo  Mo31  1  0.506673  0.341856  0.623583  1
  Mo  Mo32  1  0.656675  0.491842  0.877367  1
  Mo  Mo33  1  0.343248  0.504486  0.374622  1
  Mo  Mo34  1  0.840875  0.991777  0.373582  1
  Mo  Mo35  1  0.006435  0.158155  0.126384  1
