# generated using pymatgen
data_Hf5Zr(Ti2Ge3)2
_symmetry_space_group_name_H-M   'P 1'
_cell_length_a   7.85650806
_cell_length_b   7.84450149
_cell_length_c   5.35162500
_cell_angle_alpha   90.00000000
_cell_angle_beta   90.00000000
_cell_angle_gamma   119.94945475
_symmetry_Int_Tables_number   1
_chemical_formula_structural   Hf5Zr(Ti2Ge3)2
_chemical_formula_sum   'Hf5 Zr1 Ti4 Ge6'
_cell_volume   285.78023460
_cell_formula_units_Z   1
loop_
 _symmetry_equiv_pos_site_id
 _symmetry_equiv_pos_as_xyz
  1  'x, y, z'
loop_
 _atom_site_type_symbol
 _atom_site_label
 _atom_site_symmetry_multiplicity
 _atom_site_fract_x
 _atom_site_fract_y
 _atom_site_fract_z
 _atom_site_occupancy
  Hf  Hf0  1  0.250309  0.250324  0.750000  1
  Hf  Hf1  1  0.000000  0.248786  0.250000  1
  Hf  Hf2  1  0.749691  0.000015  0.750000  1
  Hf  Hf3  1  0.749310  0.750039  0.250000  1
  Hf  Hf4  1  0.250690  0.000729  0.250000  1
  Zr  Zr5  1  0.000000  0.751428  0.750000  1
  Ti  Ti6  1  0.333439  0.666678  0.499900  1
  Ti  Ti7  1  0.333439  0.666678  0.000100  1
  Ti  Ti8  1  0.666561  0.333238  0.499900  1
  Ti  Ti9  1  0.666561  0.333238  0.000100  1
  Ge  Ge10  1  0.602538  0.603400  0.750000  1
  Ge  Ge11  1  0.397462  0.000863  0.750000  1
  Ge  Ge12  1  0.000000  0.603645  0.250000  1
  Ge  Ge13  1  0.603863  0.000018  0.250000  1
  Ge  Ge14  1  0.000000  0.394767  0.750000  1
  Ge  Ge15  1  0.396137  0.396154  0.250000  1
