# generated using pymatgen
data_YLu3(Si2Rh)2
_symmetry_space_group_name_H-M   'P 1'
_cell_length_a   5.61252252
_cell_length_b   5.61252228
_cell_length_c   9.92820049
_cell_angle_alpha   63.94213798
_cell_angle_beta   63.94214093
_cell_angle_gamma   43.57147064
_symmetry_Int_Tables_number   1
_chemical_formula_structural   YLu3(Si2Rh)2
_chemical_formula_sum   'Y1 Lu3 Si4 Rh2'
_cell_volume   189.91460094
_cell_formula_units_Z   1
loop_
 _symmetry_equiv_pos_site_id
 _symmetry_equiv_pos_as_xyz
  1  'x, y, z'
loop_
 _atom_site_type_symbol
 _atom_site_label
 _atom_site_symmetry_multiplicity
 _atom_site_fract_x
 _atom_site_fract_y
 _atom_site_fract_z
 _atom_site_occupancy
  Y  Y0  1  0.813931  0.813931  0.107827  1
  Lu  Lu1  1  0.999019  0.999019  0.327238  1
  Lu  Lu2  1  0.185623  0.185623  0.888770  1
  Lu  Lu3  1  0.999258  0.999258  0.674182  1
  Si  Si4  1  0.362934  0.362934  0.566012  1
  Si  Si5  1  0.488642  0.488642  0.877621  1
  Si  Si6  1  0.636385  0.636385  0.436274  1
  Si  Si7  1  0.514042  0.514042  0.119735  1
  Rh  Rh8  1  0.726743  0.726743  0.630102  1
  Rh  Rh9  1  0.273422  0.273422  0.372240  1
