# generated using pymatgen
data_Sm2Y4RuBr10
_symmetry_space_group_name_H-M   'P 1'
_cell_length_a   7.44895144
_cell_length_b   9.17137794
_cell_length_c   9.39585077
_cell_angle_alpha   108.51172351
_cell_angle_beta   96.98606759
_cell_angle_gamma   104.40346435
_symmetry_Int_Tables_number   1
_chemical_formula_structural   Sm2Y4RuBr10
_chemical_formula_sum   'Sm2 Y4 Ru1 Br10'
_cell_volume   575.31862846
_cell_formula_units_Z   1
loop_
 _symmetry_equiv_pos_site_id
 _symmetry_equiv_pos_as_xyz
  1  'x, y, z'
loop_
 _atom_site_type_symbol
 _atom_site_label
 _atom_site_symmetry_multiplicity
 _atom_site_fract_x
 _atom_site_fract_y
 _atom_site_fract_z
 _atom_site_occupancy
  Sm  Sm0  1  0.469250  0.787593  0.588328  1
  Sm  Sm1  1  0.530750  0.212407  0.411672  1
  Y  Y2  1  0.376006  0.454280  0.752038  1
  Y  Y3  1  0.623994  0.545720  0.247962  1
  Y  Y4  1  0.866301  0.637041  0.682372  1
  Y  Y5  1  0.133699  0.362959  0.317628  1
  Ru  Ru6  1  0.500000  0.500000  0.500000  1
  Br  Br7  1  0.411804  0.134490  0.676665  1
  Br  Br8  1  0.588196  0.865510  0.323335  1
  Br  Br9  1  0.045193  0.676606  0.414646  1
  Br  Br10  1  0.954807  0.323394  0.585354  1
  Br  Br11  1  0.282548  0.753997  0.848127  1
  Br  Br12  1  0.717452  0.246003  0.151873  1
  Br  Br13  1  0.249411  0.414943  0.041681  1
  Br  Br14  1  0.750589  0.585057  0.958319  1
  Br  Br15  1  0.855163  0.952696  0.773449  1
  Br  Br16  1  0.144837  0.047304  0.226551  1
