# generated using pymatgen
data_Gd7Dy(MnS4)4
_symmetry_space_group_name_H-M   'P 1'
_cell_length_a   6.41287500
_cell_length_b   7.92528902
_cell_length_c   13.54430800
_cell_angle_alpha   90.00248694
_cell_angle_beta   89.99826671
_cell_angle_gamma   89.99748421
_symmetry_Int_Tables_number   1
_chemical_formula_structural   Gd7Dy(MnS4)4
_chemical_formula_sum   'Gd7 Dy1 Mn4 S16'
_cell_volume   688.37438871
_cell_formula_units_Z   1
loop_
 _symmetry_equiv_pos_site_id
 _symmetry_equiv_pos_as_xyz
  1  'x, y, z'
loop_
 _atom_site_type_symbol
 _atom_site_label
 _atom_site_symmetry_multiplicity
 _atom_site_fract_x
 _atom_site_fract_y
 _atom_site_fract_z
 _atom_site_occupancy
  Gd  Gd0  1  0.000000  0.500000  0.000000  1
  Gd  Gd1  1  0.500000  0.000000  0.500000  1
  Gd  Gd2  1  0.000000  0.000000  0.000000  1
  Gd  Gd3  1  0.989809  0.750835  0.267401  1
  Gd  Gd4  1  0.509012  0.749685  0.766705  1
  Gd  Gd5  1  0.010191  0.249165  0.732599  1
  Gd  Gd6  1  0.490988  0.250315  0.233295  1
  Dy  Dy7  1  0.500000  0.500000  0.500000  1
  Mn  Mn8  1  0.406769  0.747108  0.092402  1
  Mn  Mn9  1  0.091021  0.746065  0.592246  1
  Mn  Mn10  1  0.593231  0.252892  0.907598  1
  Mn  Mn11  1  0.908979  0.253935  0.407754  1
  S  S12  1  0.772529  0.750195  0.090088  1
  S  S13  1  0.725418  0.747864  0.589132  1
  S  S14  1  0.227471  0.249805  0.909912  1
  S  S15  1  0.274582  0.252136  0.410868  1
  S  S16  1  0.244416  0.747507  0.431036  1
  S  S17  1  0.257126  0.749624  0.930955  1
  S  S18  1  0.755584  0.252493  0.568964  1
  S  S19  1  0.742874  0.250376  0.069045  1
  S  S20  1  0.738388  0.487289  0.331741  1
  S  S21  1  0.757496  0.016644  0.830794  1
  S  S22  1  0.256163  0.981772  0.668616  1
  S  S23  1  0.239253  0.514571  0.169854  1
  S  S24  1  0.261612  0.512711  0.668259  1
  S  S25  1  0.242504  0.983356  0.169206  1
  S  S26  1  0.743837  0.018228  0.331384  1
  S  S27  1  0.760747  0.485429  0.830146  1
