# generated using pymatgen
data_HoLuFeB6
_symmetry_space_group_name_H-M   'P 1'
_cell_length_a   3.50417800
_cell_length_b   9.01314900
_cell_length_c   11.38089700
_cell_angle_alpha   90.00000000
_cell_angle_beta   90.00000000
_cell_angle_gamma   90.00000000
_symmetry_Int_Tables_number   1
_chemical_formula_structural   HoLuFeB6
_chemical_formula_sum   'Ho4 Lu4 Fe4 B24'
_cell_volume   359.45059117
_cell_formula_units_Z   4
loop_
 _symmetry_equiv_pos_site_id
 _symmetry_equiv_pos_as_xyz
  1  'x, y, z'
loop_
 _atom_site_type_symbol
 _atom_site_label
 _atom_site_symmetry_multiplicity
 _atom_site_fract_x
 _atom_site_fract_y
 _atom_site_fract_z
 _atom_site_occupancy
  Ho  Ho0  1  0.000000  0.823311  0.085559  1
  Ho  Ho1  1  0.000000  0.176689  0.914441  1
  Ho  Ho2  1  0.000000  0.323311  0.414441  1
  Ho  Ho3  1  0.000000  0.676689  0.585559  1
  Lu  Lu4  1  0.000000  0.443440  0.129213  1
  Lu  Lu5  1  0.000000  0.556560  0.870787  1
  Lu  Lu6  1  0.000000  0.943440  0.370787  1
  Lu  Lu7  1  0.000000  0.056560  0.629213  1
  Fe  Fe8  1  0.000000  0.139103  0.179884  1
  Fe  Fe9  1  0.000000  0.860897  0.820116  1
  Fe  Fe10  1  0.000000  0.639103  0.320116  1
  Fe  Fe11  1  0.000000  0.360897  0.679884  1
  B  B12  1  0.500000  0.054589  0.068014  1
  B  B13  1  0.500000  0.945411  0.931986  1
  B  B14  1  0.500000  0.554589  0.431986  1
  B  B15  1  0.500000  0.445411  0.568014  1
  B  B16  1  0.500000  0.247914  0.081611  1
  B  B17  1  0.500000  0.752086  0.918389  1
  B  B18  1  0.500000  0.747914  0.418389  1
  B  B19  1  0.500000  0.252086  0.581611  1
  B  B20  1  0.500000  0.290498  0.233814  1
  B  B21  1  0.500000  0.709502  0.766186  1
  B  B22  1  0.500000  0.790498  0.266186  1
  B  B23  1  0.500000  0.209502  0.733814  1
  B  B24  1  0.500000  0.131515  0.314575  1
  B  B25  1  0.500000  0.868485  0.685425  1
  B  B26  1  0.500000  0.631515  0.185425  1
  B  B27  1  0.500000  0.368485  0.814575  1
  B  B28  1  0.500000  0.485334  0.287863  1
  B  B29  1  0.500000  0.514666  0.712137  1
  B  B30  1  0.500000  0.985334  0.212137  1
  B  B31  1  0.500000  0.014666  0.787863  1
  B  B32  1  0.500000  0.106226  0.470904  1
  B  B33  1  0.500000  0.893774  0.529096  1
  B  B34  1  0.500000  0.606226  0.029096  1
  B  B35  1  0.500000  0.393774  0.970904  1
