# generated using pymatgen
data_Pr2TaGa6
_symmetry_space_group_name_H-M   'P 1'
_cell_length_a   6.42706067
_cell_length_b   6.42705946
_cell_length_c   6.42706100
_cell_angle_alpha   59.99999722
_cell_angle_beta   60.00000342
_cell_angle_gamma   60.00000203
_symmetry_Int_Tables_number   1
_chemical_formula_structural   Pr2TaGa6
_chemical_formula_sum   'Pr2 Ta1 Ga6'
_cell_volume   187.72501596
_cell_formula_units_Z   1
loop_
 _symmetry_equiv_pos_site_id
 _symmetry_equiv_pos_as_xyz
  1  'x, y, z'
loop_
 _atom_site_type_symbol
 _atom_site_label
 _atom_site_symmetry_multiplicity
 _atom_site_fract_x
 _atom_site_fract_y
 _atom_site_fract_z
 _atom_site_occupancy
  Pr  Pr0  1  0.250000  0.250000  0.250000  1
  Pr  Pr1  1  0.750001  0.750001  0.750001  1
  Ta  Ta2  1  0.000000  0.000000  0.000000  1
  Ga  Ga3  1  0.711636  0.288364  0.288364  1
  Ga  Ga4  1  0.288364  0.711636  0.288364  1
  Ga  Ga5  1  0.711635  0.711635  0.288365  1
  Ga  Ga6  1  0.288364  0.288364  0.711636  1
  Ga  Ga7  1  0.711635  0.288365  0.711635  1
  Ga  Ga8  1  0.288365  0.711635  0.711635  1
