# generated using pymatgen
data_HfPa6NbSb10
_symmetry_space_group_name_H-M   'P 1'
_cell_length_a   9.24846900
_cell_length_b   9.24846903
_cell_length_c   6.12247600
_cell_angle_alpha   90.00000000
_cell_angle_beta   90.00000000
_cell_angle_gamma   119.99998916
_symmetry_Int_Tables_number   1
_chemical_formula_structural   HfPa6NbSb10
_chemical_formula_sum   'Hf1 Pa6 Nb1 Sb10'
_cell_volume   453.52106333
_cell_formula_units_Z   1
loop_
 _symmetry_equiv_pos_site_id
 _symmetry_equiv_pos_as_xyz
  1  'x, y, z'
loop_
 _atom_site_type_symbol
 _atom_site_label
 _atom_site_symmetry_multiplicity
 _atom_site_fract_x
 _atom_site_fract_y
 _atom_site_fract_z
 _atom_site_occupancy
  Hf  Hf0  1  0.000000  0.000000  0.500000  1
  Pa  Pa1  1  0.617000  0.000000  0.249221  1
  Pa  Pa2  1  0.383000  0.000000  0.750779  1
  Pa  Pa3  1  0.000000  0.617000  0.249221  1
  Pa  Pa4  1  0.000000  0.383000  0.750779  1
  Pa  Pa5  1  0.383000  0.383000  0.249221  1
  Pa  Pa6  1  0.617000  0.617000  0.750779  1
  Nb  Nb7  1  0.000000  0.000000  0.000000  1
  Sb  Sb8  1  0.270425  0.000000  0.246765  1
  Sb  Sb9  1  0.729575  0.000000  0.753235  1
  Sb  Sb10  1  0.000000  0.270425  0.246765  1
  Sb  Sb11  1  0.000000  0.729575  0.753235  1
  Sb  Sb12  1  0.729575  0.729575  0.246765  1
  Sb  Sb13  1  0.270425  0.270425  0.753235  1
  Sb  Sb14  1  0.333333  0.666667  0.000000  1
  Sb  Sb15  1  0.666667  0.333333  0.000000  1
  Sb  Sb16  1  0.666667  0.333333  0.500000  1
  Sb  Sb17  1  0.333333  0.666667  0.500000  1
