# generated using pymatgen
data_Er4Co15Ni3(P6Os)2
_symmetry_space_group_name_H-M   'P 1'
_cell_length_a   3.67919600
_cell_length_b   10.31550986
_cell_length_c   11.74141089
_cell_angle_alpha   89.95420010
_cell_angle_beta   90.00000000
_cell_angle_gamma   90.00000000
_symmetry_Int_Tables_number   1
_chemical_formula_structural   Er4Co15Ni3(P6Os)2
_chemical_formula_sum   'Er4 Co15 Ni3 P12 Os2'
_cell_volume   445.61907303
_cell_formula_units_Z   1
loop_
 _symmetry_equiv_pos_site_id
 _symmetry_equiv_pos_as_xyz
  1  'x, y, z'
loop_
 _atom_site_type_symbol
 _atom_site_label
 _atom_site_symmetry_multiplicity
 _atom_site_fract_x
 _atom_site_fract_y
 _atom_site_fract_z
 _atom_site_occupancy
  Er  Er0  1  0.250000  0.582319  0.701535  1
  Er  Er1  1  0.250000  0.918016  0.201890  1
  Er  Er2  1  0.750000  0.414198  0.293919  1
  Er  Er3  1  0.750000  0.086028  0.794779  1
  Co  Co4  1  0.250000  0.092673  0.985829  1
  Co  Co5  1  0.750000  0.590942  0.510503  1
  Co  Co6  1  0.750000  0.908311  0.011264  1
  Co  Co7  1  0.250000  0.219771  0.176367  1
  Co  Co8  1  0.250000  0.281656  0.677901  1
  Co  Co9  1  0.750000  0.778035  0.822948  1
  Co  Co10  1  0.750000  0.722436  0.323034  1
  Co  Co11  1  0.250000  0.887267  0.702541  1
  Co  Co12  1  0.250000  0.612862  0.202258  1
  Co  Co13  1  0.750000  0.116694  0.301103  1
  Co  Co14  1  0.750000  0.383379  0.802012  1
  Co  Co15  1  0.250000  0.466092  0.931516  1
  Co  Co16  1  0.250000  0.034217  0.431918  1
  Co  Co17  1  0.750000  0.534000  0.069448  1
  Co  Co18  1  0.750000  0.965996  0.569363  1
  Ni  Ni19  1  0.750000  0.283134  0.009619  1
  Ni  Ni20  1  0.750000  0.214312  0.512143  1
  Ni  Ni21  1  0.250000  0.406758  0.484335  1
  P  P22  1  0.250000  0.416314  0.111806  1
  P  P23  1  0.250000  0.084492  0.612535  1
  P  P24  1  0.750000  0.579017  0.886617  1
  P  P25  1  0.750000  0.921364  0.386758  1
  P  P26  1  0.250000  0.270131  0.869062  1
  P  P27  1  0.250000  0.227993  0.365946  1
  P  P28  1  0.750000  0.730174  0.132747  1
  P  P29  1  0.750000  0.769966  0.632756  1
  P  P30  1  0.250000  0.595803  0.389420  1
  P  P31  1  0.250000  0.906312  0.889966  1
  P  P32  1  0.750000  0.397107  0.611317  1
  P  P33  1  0.750000  0.101584  0.108505  1
  Os  Os34  1  0.250000  0.715498  0.993213  1
  Os  Os35  1  0.250000  0.785150  0.493121  1
