# generated using pymatgen
data_Gd8Hf11Si16Ag
_symmetry_space_group_name_H-M   'P 1'
_cell_length_a   7.23533856
_cell_length_b   7.23533832
_cell_length_c   13.16814600
_cell_angle_alpha   89.86678847
_cell_angle_beta   90.13321152
_cell_angle_gamma   89.95019125
_symmetry_Int_Tables_number   1
_chemical_formula_structural   Gd8Hf11Si16Ag
_chemical_formula_sum   'Gd8 Hf11 Si16 Ag1'
_cell_volume   689.35006396
_cell_formula_units_Z   1
loop_
 _symmetry_equiv_pos_site_id
 _symmetry_equiv_pos_as_xyz
  1  'x, y, z'
loop_
 _atom_site_type_symbol
 _atom_site_label
 _atom_site_symmetry_multiplicity
 _atom_site_fract_x
 _atom_site_fract_y
 _atom_site_fract_z
 _atom_site_occupancy
  Gd  Gd0  1  0.997241  0.345138  0.211691  1
  Gd  Gd1  1  0.005078  0.655609  0.715872  1
  Gd  Gd2  1  0.156386  0.494174  0.465202  1
  Gd  Gd3  1  0.499322  0.847050  0.032609  1
  Gd  Gd4  1  0.847050  0.499322  0.967391  1
  Gd  Gd5  1  0.494174  0.156386  0.534798  1
  Gd  Gd6  1  0.345138  0.997241  0.788309  1
  Gd  Gd7  1  0.655609  0.005078  0.284128  1
  Hf  Hf8  1  0.824660  0.824660  0.500000  1
  Hf  Hf9  1  0.322545  0.676601  0.249338  1
  Hf  Hf10  1  0.676601  0.322545  0.750662  1
  Hf  Hf11  1  0.145480  0.997015  0.374563  1
  Hf  Hf12  1  0.856484  0.003107  0.878545  1
  Hf  Hf13  1  0.504080  0.646937  0.626126  1
  Hf  Hf14  1  0.355455  0.492022  0.877315  1
  Hf  Hf15  1  0.492022  0.355455  0.122685  1
  Hf  Hf16  1  0.646937  0.504080  0.373874  1
  Hf  Hf17  1  0.997015  0.145480  0.625437  1
  Hf  Hf18  1  0.003107  0.856484  0.121455  1
  Si  Si19  1  0.359704  0.295565  0.316458  1
  Si  Si20  1  0.639495  0.705239  0.819184  1
  Si  Si21  1  0.207776  0.861299  0.568219  1
  Si  Si22  1  0.132299  0.777106  0.928026  1
  Si  Si23  1  0.777106  0.132299  0.071974  1
  Si  Si24  1  0.861299  0.207776  0.431781  1
  Si  Si25  1  0.295565  0.359704  0.683542  1
  Si  Si26  1  0.705239  0.639495  0.180816  1
  Si  Si27  1  0.295145  0.051860  0.189104  1
  Si  Si28  1  0.705014  0.950380  0.686873  1
  Si  Si29  1  0.450269  0.795312  0.436083  1
  Si  Si30  1  0.209380  0.564167  0.064315  1
  Si  Si31  1  0.564167  0.209380  0.935685  1
  Si  Si32  1  0.795312  0.450269  0.563917  1
  Si  Si33  1  0.051860  0.295145  0.810896  1
  Si  Si34  1  0.950380  0.705014  0.313127  1
  Ag  Ag35  1  0.175606  0.175606  0.000000  1
