# generated using pymatgen
data_DyTm11Co5Hg
_symmetry_space_group_name_H-M   'P 1'
_cell_length_a   8.13587206
_cell_length_b   8.13587199
_cell_length_c   8.13453790
_cell_angle_alpha   110.89597599
_cell_angle_beta   110.62689792
_cell_angle_gamma   106.92758960
_symmetry_Int_Tables_number   1
_chemical_formula_structural   DyTm11Co5Hg
_chemical_formula_sum   'Dy1 Tm11 Co5 Hg1'
_cell_volume   413.84595782
_cell_formula_units_Z   1
loop_
 _symmetry_equiv_pos_site_id
 _symmetry_equiv_pos_as_xyz
  1  'x, y, z'
loop_
 _atom_site_type_symbol
 _atom_site_label
 _atom_site_symmetry_multiplicity
 _atom_site_fract_x
 _atom_site_fract_y
 _atom_site_fract_z
 _atom_site_occupancy
  Dy  Dy0  1  0.288351  0.185249  0.473600  1
  Tm  Tm1  1  0.712717  0.815554  0.528271  1
  Tm  Tm2  1  0.287751  0.814257  0.102007  1
  Tm  Tm3  1  0.713404  0.184535  0.897941  1
  Tm  Tm4  1  0.619348  0.314835  0.303859  1
  Tm  Tm5  1  0.380941  0.686310  0.696115  1
  Tm  Tm6  1  0.009806  0.315174  0.696115  1
  Tm  Tm7  1  0.989025  0.684512  0.303859  1
  Tm  Tm8  1  0.214763  0.407801  0.192143  1
  Tm  Tm9  1  0.786538  0.594487  0.808665  1
  Tm  Tm10  1  0.214179  0.022127  0.808665  1
  Tm  Tm11  1  0.784340  0.977380  0.192143  1
  Co  Co12  1  0.998506  0.375931  0.374437  1
  Co  Co13  1  0.000641  0.624172  0.624813  1
  Co  Co14  1  0.386674  0.884662  0.499191  1
  Co  Co15  1  0.614529  0.112517  0.499191  1
  Co  Co16  1  0.998427  0.000490  0.998916  1
  Hg  Hg17  1  0.500062  0.500009  0.000071  1
