# generated using pymatgen
data_ErTm5(LuAu2)2
_symmetry_space_group_name_H-M   'P 1'
_cell_length_a   4.84720400
_cell_length_b   7.03981110
_cell_length_c   8.82218213
_cell_angle_alpha   90.01934575
_cell_angle_beta   90.00000000
_cell_angle_gamma   90.00000000
_symmetry_Int_Tables_number   1
_chemical_formula_structural   ErTm5(LuAu2)2
_chemical_formula_sum   'Er1 Tm5 Lu2 Au4'
_cell_volume   301.04283702
_cell_formula_units_Z   1
loop_
 _symmetry_equiv_pos_site_id
 _symmetry_equiv_pos_as_xyz
  1  'x, y, z'
loop_
 _atom_site_type_symbol
 _atom_site_label
 _atom_site_symmetry_multiplicity
 _atom_site_fract_x
 _atom_site_fract_y
 _atom_site_fract_z
 _atom_site_occupancy
  Er  Er0  1  0.250000  0.483420  0.178039  1
  Tm  Tm1  1  0.750000  0.149481  0.077108  1
  Tm  Tm2  1  0.750000  0.649698  0.423010  1
  Tm  Tm3  1  0.250000  0.983335  0.322157  1
  Tm  Tm4  1  0.750000  0.517363  0.821702  1
  Tm  Tm5  1  0.750000  0.017335  0.678251  1
  Lu  Lu6  1  0.250000  0.850579  0.922552  1
  Lu  Lu7  1  0.250000  0.350453  0.577485  1
  Au  Au8  1  0.250000  0.255604  0.896656  1
  Au  Au9  1  0.250000  0.755750  0.603069  1
  Au  Au10  1  0.750000  0.743644  0.100947  1
  Au  Au11  1  0.750000  0.243336  0.399025  1
