# generated using pymatgen
data_Ca5Os3RuO18
_symmetry_space_group_name_H-M   'P 1'
_cell_length_a   8.83871542
_cell_length_b   8.83871585
_cell_length_c   5.20717500
_cell_angle_alpha   92.31559943
_cell_angle_beta   87.68440046
_cell_angle_gamma   119.88481527
_symmetry_Int_Tables_number   1
_chemical_formula_structural   Ca5Os3RuO18
_chemical_formula_sum   'Ca5 Os3 Ru1 O18'
_cell_volume   352.32245289
_cell_formula_units_Z   1
loop_
 _symmetry_equiv_pos_site_id
 _symmetry_equiv_pos_as_xyz
  1  'x, y, z'
loop_
 _atom_site_type_symbol
 _atom_site_label
 _atom_site_symmetry_multiplicity
 _atom_site_fract_x
 _atom_site_fract_y
 _atom_site_fract_z
 _atom_site_occupancy
  Ca  Ca0  1  0.009947  0.266662  0.489477  1
  Ca  Ca1  1  0.266662  0.009947  0.510523  1
  Ca  Ca2  1  0.389003  0.389003  0.000000  1
  Ca  Ca3  1  0.980864  0.602644  0.012915  1
  Ca  Ca4  1  0.602644  0.980864  0.987085  1
  Os  Os5  1  0.672426  0.328218  0.507627  1
  Os  Os6  1  0.328218  0.672426  0.492373  1
  Os  Os7  1  0.996534  0.996534  0.000000  1
  Ru  Ru8  1  0.700954  0.700954  0.500000  1
  O  O9  1  0.768364  0.243818  0.732789  1
  O  O10  1  0.775762  0.557116  0.682953  1
  O  O11  1  0.478102  0.245879  0.727425  1
  O  O12  1  0.557116  0.775762  0.317047  1
  O  O13  1  0.245879  0.478102  0.272575  1
  O  O14  1  0.243818  0.768364  0.267211  1
  O  O15  1  0.607068  0.473428  0.311196  1
  O  O16  1  0.541728  0.147471  0.284025  1
  O  O17  1  0.870704  0.395072  0.301320  1
  O  O18  1  0.077839  0.863675  0.835132  1
  O  O19  1  0.129259  0.181056  0.777452  1
  O  O20  1  0.802444  0.893965  0.756119  1
  O  O21  1  0.181056  0.129259  0.222548  1
  O  O22  1  0.893965  0.802444  0.243881  1
  O  O23  1  0.863675  0.077839  0.164868  1
  O  O24  1  0.473428  0.607068  0.688804  1
  O  O25  1  0.395072  0.870704  0.698680  1
  O  O26  1  0.147471  0.541728  0.715975  1
