# generated using pymatgen
data_NaLi8Ca3Sn4
_symmetry_space_group_name_H-M   'P 1'
_cell_length_a   6.87973200
_cell_length_b   4.91878100
_cell_length_c   9.86392600
_cell_angle_alpha   90.00000000
_cell_angle_beta   89.99990356
_cell_angle_gamma   90.00000000
_symmetry_Int_Tables_number   1
_chemical_formula_structural   NaLi8Ca3Sn4
_chemical_formula_sum   'Na1 Li8 Ca3 Sn4'
_cell_volume   333.79422059
_cell_formula_units_Z   1
loop_
 _symmetry_equiv_pos_site_id
 _symmetry_equiv_pos_as_xyz
  1  'x, y, z'
loop_
 _atom_site_type_symbol
 _atom_site_label
 _atom_site_symmetry_multiplicity
 _atom_site_fract_x
 _atom_site_fract_y
 _atom_site_fract_z
 _atom_site_occupancy
  Na  Na0  1  0.750006  0.250000  0.124038  1
  Li  Li1  1  0.983209  0.750000  0.125594  1
  Li  Li2  1  0.516800  0.750000  0.125592  1
  Li  Li3  1  0.990335  0.250000  0.365651  1
  Li  Li4  1  0.509670  0.250000  0.365648  1
  Li  Li5  1  0.501149  0.750000  0.625723  1
  Li  Li6  1  0.998849  0.750000  0.625718  1
  Li  Li7  1  0.509520  0.250000  0.882997  1
  Li  Li8  1  0.990472  0.250000  0.882991  1
  Ca  Ca9  1  0.249995  0.750000  0.374688  1
  Ca  Ca10  1  0.749994  0.250000  0.624367  1
  Ca  Ca11  1  0.250003  0.750000  0.876775  1
  Sn  Sn12  1  0.249999  0.250000  0.124993  1
  Sn  Sn13  1  0.749999  0.750000  0.381729  1
  Sn  Sn14  1  0.249999  0.250000  0.625048  1
  Sn  Sn15  1  0.749999  0.750000  0.868448  1
