# generated using pymatgen
data_Dy17Tm3(Bi3Sb)3
_symmetry_space_group_name_H-M   'P 1'
_cell_length_a   8.19886694
_cell_length_b   9.45345100
_cell_length_c   12.00646999
_cell_angle_alpha   90.00031090
_cell_angle_beta   90.08149263
_cell_angle_gamma   89.99787701
_symmetry_Int_Tables_number   1
_chemical_formula_structural   Dy17Tm3(Bi3Sb)3
_chemical_formula_sum   'Dy17 Tm3 Bi9 Sb3'
_cell_volume   930.59157392
_cell_formula_units_Z   1
loop_
 _symmetry_equiv_pos_site_id
 _symmetry_equiv_pos_as_xyz
  1  'x, y, z'
loop_
 _atom_site_type_symbol
 _atom_site_label
 _atom_site_symmetry_multiplicity
 _atom_site_fract_x
 _atom_site_fract_y
 _atom_site_fract_z
 _atom_site_occupancy
  Dy  Dy0  1  0.352884  0.749844  0.213025  1
  Dy  Dy1  1  0.853197  0.750005  0.286504  1
  Dy  Dy2  1  0.646577  0.249430  0.786928  1
  Dy  Dy3  1  0.148229  0.249816  0.716579  1
  Dy  Dy4  1  0.808934  0.439726  0.559114  1
  Dy  Dy5  1  0.311034  0.437350  0.942716  1
  Dy  Dy6  1  0.808474  0.060219  0.559170  1
  Dy  Dy7  1  0.689202  0.937016  0.057387  1
  Dy  Dy8  1  0.190380  0.566364  0.442466  1
  Dy  Dy9  1  0.475179  0.249839  0.487826  1
  Dy  Dy10  1  0.972971  0.249967  0.011839  1
  Dy  Dy11  1  0.528167  0.750066  0.512654  1
  Dy  Dy12  1  0.027520  0.749858  0.988109  1
  Dy  Dy13  1  0.318171  0.249807  0.215996  1
  Dy  Dy14  1  0.811451  0.249964  0.279013  1
  Dy  Dy15  1  0.683279  0.749780  0.782439  1
  Dy  Dy16  1  0.183649  0.750211  0.717719  1
  Tm  Tm17  1  0.688491  0.564013  0.057485  1
  Tm  Tm18  1  0.189985  0.932677  0.442312  1
  Tm  Tm19  1  0.311675  0.063555  0.942738  1
  Bi  Bi20  1  0.092611  0.248618  0.456321  1
  Bi  Bi21  1  0.565102  0.995039  0.325324  1
  Bi  Bi22  1  0.065653  0.503978  0.174529  1
  Bi  Bi23  1  0.433945  0.495519  0.674952  1
  Bi  Bi24  1  0.934413  0.003893  0.825686  1
  Bi  Bi25  1  0.433886  0.004427  0.674874  1
  Bi  Bi26  1  0.934243  0.495884  0.825844  1
  Bi  Bi27  1  0.565500  0.504916  0.325273  1
  Bi  Bi28  1  0.065846  0.995802  0.174489  1
  Sb  Sb29  1  0.407225  0.750912  0.957993  1
  Sb  Sb30  1  0.908636  0.750527  0.541359  1
  Sb  Sb31  1  0.593493  0.250978  0.041334  1
