# generated using pymatgen
data_La4V3RuF28
_symmetry_space_group_name_H-M   'P 1'
_cell_length_a   5.73847411
_cell_length_b   9.27798464
_cell_length_c   12.34771300
_cell_angle_alpha   62.69304696
_cell_angle_beta   90.04908379
_cell_angle_gamma   90.00346628
_symmetry_Int_Tables_number   1
_chemical_formula_structural   La4V3RuF28
_chemical_formula_sum   'La4 V3 Ru1 F28'
_cell_volume   584.14940323
_cell_formula_units_Z   1
loop_
 _symmetry_equiv_pos_site_id
 _symmetry_equiv_pos_as_xyz
  1  'x, y, z'
loop_
 _atom_site_type_symbol
 _atom_site_label
 _atom_site_symmetry_multiplicity
 _atom_site_fract_x
 _atom_site_fract_y
 _atom_site_fract_z
 _atom_site_occupancy
  La  La0  1  0.758243  0.807352  0.265874  1
  La  La1  1  0.258451  0.195328  0.230683  1
  La  La2  1  0.241969  0.193576  0.731456  1
  La  La3  1  0.740731  0.806374  0.770619  1
  V  V4  1  0.745407  0.273930  0.955902  1
  V  V5  1  0.754926  0.274182  0.455665  1
  V  V6  1  0.254433  0.726209  0.043867  1
  Ru  Ru7  1  0.244686  0.726944  0.543639  1
  F  F8  1  0.962788  0.714017  0.456605  1
  F  F9  1  0.474197  0.285133  0.042237  1
  F  F10  1  0.026596  0.284614  0.542402  1
  F  F11  1  0.526683  0.714361  0.958700  1
  F  F12  1  0.058992  0.709737  0.926307  1
  F  F13  1  0.558962  0.289503  0.573784  1
  F  F14  1  0.941337  0.289674  0.073912  1
  F  F15  1  0.443108  0.706494  0.421692  1
  F  F16  1  0.736282  0.496772  0.867084  1
  F  F17  1  0.238375  0.495413  0.637015  1
  F  F18  1  0.263442  0.503146  0.133176  1
  F  F19  1  0.764040  0.497371  0.366362  1
  F  F20  1  0.741063  0.052312  0.044105  1
  F  F21  1  0.240254  0.957256  0.453861  1
  F  F22  1  0.259266  0.947290  0.955951  1
  F  F23  1  0.759239  0.052905  0.544038  1
  F  F24  1  0.047172  0.744335  0.668120  1
  F  F25  1  0.549456  0.255709  0.836924  1
  F  F26  1  0.950598  0.257125  0.335835  1
  F  F27  1  0.449473  0.743607  0.163259  1
  F  F28  1  0.010749  0.266887  0.866276  1
  F  F29  1  0.522649  0.732201  0.635389  1
  F  F30  1  0.988317  0.732324  0.133320  1
  F  F31  1  0.489442  0.268735  0.364859  1
  F  F32  1  0.088556  0.970476  0.230346  1
  F  F33  1  0.586322  0.028905  0.269689  1
  F  F34  1  0.912282  0.029770  0.770752  1
  F  F35  1  0.411509  0.970037  0.730299  1
