# generated using pymatgen
data_CaLa4Yb5Si8
_symmetry_space_group_name_H-M   'P 1'
_cell_length_a   7.95825100
_cell_length_b   7.95695509
_cell_length_c   14.82372617
_cell_angle_alpha   89.98267856
_cell_angle_beta   90.00000000
_cell_angle_gamma   90.00000000
_symmetry_Int_Tables_number   1
_chemical_formula_structural   CaLa4Yb5Si8
_chemical_formula_sum   'Ca2 La8 Yb10 Si16'
_cell_volume   938.68937788
_cell_formula_units_Z   2
loop_
 _symmetry_equiv_pos_site_id
 _symmetry_equiv_pos_as_xyz
  1  'x, y, z'
loop_
 _atom_site_type_symbol
 _atom_site_label
 _atom_site_symmetry_multiplicity
 _atom_site_fract_x
 _atom_site_fract_y
 _atom_site_fract_z
 _atom_site_occupancy
  Ca  Ca0  1  0.371447  0.490782  0.375002  1
  Ca  Ca1  1  0.871447  0.009218  0.374998  1
  La  La2  1  0.989305  0.621528  0.048666  1
  La  La3  1  0.010393  0.378447  0.548864  1
  La  La4  1  0.621586  0.989362  0.951293  1
  La  La5  1  0.121586  0.510638  0.798707  1
  La  La6  1  0.878557  0.489794  0.298819  1
  La  La7  1  0.510393  0.121553  0.201136  1
  La  La8  1  0.489305  0.878472  0.701334  1
  La  La9  1  0.378557  0.010206  0.451181  1
  Yb  Yb10  1  0.991546  0.128208  0.124996  1
  Yb  Yb11  1  0.008439  0.871720  0.625051  1
  Yb  Yb12  1  0.628236  0.508432  0.875008  1
  Yb  Yb13  1  0.491546  0.371792  0.625004  1
  Yb  Yb14  1  0.508439  0.628280  0.124949  1
  Yb  Yb15  1  0.128236  0.991568  0.874992  1
  Yb  Yb16  1  0.687728  0.687277  0.500306  1
  Yb  Yb17  1  0.812496  0.187514  0.750034  1
  Yb  Yb18  1  0.187728  0.812723  0.249694  1
  Yb  Yb19  1  0.312496  0.312486  0.999966  1
  Si  Si20  1  0.081751  0.709755  0.442177  1
  Si  Si21  1  0.918218  0.289724  0.942115  1
  Si  Si22  1  0.709991  0.081933  0.558095  1
  Si  Si23  1  0.209992  0.418067  0.191905  1
  Si  Si24  1  0.789826  0.581829  0.692074  1
  Si  Si25  1  0.418218  0.210277  0.807885  1
  Si  Si26  1  0.581751  0.790245  0.307823  1
  Si  Si27  1  0.289826  0.918171  0.057926  1
  Si  Si28  1  0.832828  0.796356  0.806413  1
  Si  Si29  1  0.167689  0.203375  0.306320  1
  Si  Si30  1  0.796331  0.832341  0.193388  1
  Si  Si31  1  0.296331  0.667659  0.556612  1
  Si  Si32  1  0.703633  0.332744  0.056389  1
  Si  Si33  1  0.667689  0.296625  0.443680  1
  Si  Si34  1  0.332828  0.703644  0.943587  1
  Si  Si35  1  0.203633  0.167256  0.693611  1
