# generated using pymatgen
data_Ti3Cr2B4Mo
_symmetry_space_group_name_H-M   'P 1'
_cell_length_a   5.82829027
_cell_length_b   5.82829027
_cell_length_c   3.12818200
_cell_angle_alpha   90.00000000
_cell_angle_beta   90.00000000
_cell_angle_gamma   89.51469955
_symmetry_Int_Tables_number   1
_chemical_formula_structural   Ti3Cr2B4Mo
_chemical_formula_sum   'Ti3 Cr2 B4 Mo1'
_cell_volume   106.25730080
_cell_formula_units_Z   1
loop_
 _symmetry_equiv_pos_site_id
 _symmetry_equiv_pos_as_xyz
  1  'x, y, z'
loop_
 _atom_site_type_symbol
 _atom_site_label
 _atom_site_symmetry_multiplicity
 _atom_site_fract_x
 _atom_site_fract_y
 _atom_site_fract_z
 _atom_site_occupancy
  Ti  Ti0  1  0.681118  0.181280  0.500000  1
  Ti  Ti1  1  0.318720  0.818882  0.500000  1
  Ti  Ti2  1  0.182295  0.317705  0.500000  1
  Cr  Cr3  1  0.999804  0.999949  0.000000  1
  Cr  Cr4  1  0.500051  0.500196  0.000000  1
  B  B5  1  0.109647  0.610665  0.000000  1
  B  B6  1  0.889335  0.390353  0.000000  1
  B  B7  1  0.609283  0.890717  0.000000  1
  B  B8  1  0.390985  0.109015  0.000000  1
  Mo  Mo9  1  0.818762  0.681238  0.500000  1
