# generated using pymatgen
data_LiLa2Ge3P3Pd20
_symmetry_space_group_name_H-M   'P 1'
_cell_length_a   8.74614222
_cell_length_b   8.80032458
_cell_length_c   8.83939128
_cell_angle_alpha   59.44731464
_cell_angle_beta   60.05408725
_cell_angle_gamma   60.49860360
_symmetry_Int_Tables_number   1
_chemical_formula_structural   LiLa2Ge3P3Pd20
_chemical_formula_sum   'Li1 La2 Ge3 P3 Pd20'
_cell_volume   481.00437496
_cell_formula_units_Z   1
loop_
 _symmetry_equiv_pos_site_id
 _symmetry_equiv_pos_as_xyz
  1  'x, y, z'
loop_
 _atom_site_type_symbol
 _atom_site_label
 _atom_site_symmetry_multiplicity
 _atom_site_fract_x
 _atom_site_fract_y
 _atom_site_fract_z
 _atom_site_occupancy
  Li  Li0  1  0.000239  0.999761  0.000239  1
  La  La1  1  0.249007  0.250993  0.249007  1
  La  La2  1  0.749007  0.750993  0.749007  1
  Ge  Ge3  1  0.736370  0.263630  0.259960  1
  Ge  Ge4  1  0.259960  0.740040  0.736370  1
  Ge  Ge5  1  0.262355  0.737645  0.262355  1
  P  P6  1  0.737548  0.262452  0.737548  1
  P  P7  1  0.260413  0.263445  0.736555  1
  P  P8  1  0.736555  0.739587  0.260413  1
  Pd  Pd9  1  0.381502  0.381171  0.392263  1
  Pd  Pd10  1  0.620154  0.610002  0.611807  1
  Pd  Pd11  1  0.389998  0.379846  0.841965  1
  Pd  Pd12  1  0.392263  0.845064  0.381502  1
  Pd  Pd13  1  0.618829  0.618498  0.154936  1
  Pd  Pd14  1  0.611807  0.158035  0.620154  1
  Pd  Pd15  1  0.841965  0.388193  0.389998  1
  Pd  Pd16  1  0.154936  0.607737  0.618829  1
  Pd  Pd17  1  0.346301  0.008511  0.991489  1
  Pd  Pd18  1  0.658063  0.999593  0.000407  1
  Pd  Pd19  1  0.000407  0.341937  0.658063  1
  Pd  Pd20  1  0.991489  0.653699  0.346301  1
  Pd  Pd21  1  0.010617  0.344865  0.991641  1
  Pd  Pd22  1  0.655135  0.989383  0.347121  1
  Pd  Pd23  1  0.991641  0.652879  0.010617  1
  Pd  Pd24  1  0.347121  0.008359  0.655135  1
  Pd  Pd25  1  0.000640  0.999360  0.350366  1
  Pd  Pd26  1  0.990262  0.009738  0.655049  1
  Pd  Pd27  1  0.655049  0.344951  0.990262  1
  Pd  Pd28  1  0.350366  0.649634  0.000640  1
