# generated using pymatgen
data_Sc4Ta2Sn5
_symmetry_space_group_name_H-M   'P 1'
_cell_length_a   10.82883197
_cell_length_b   10.82883188
_cell_length_c   10.82883130
_cell_angle_alpha   149.03422915
_cell_angle_beta   131.60073156
_cell_angle_gamma   58.57308172
_symmetry_Int_Tables_number   1
_chemical_formula_structural   Sc4Ta2Sn5
_chemical_formula_sum   'Sc8 Ta4 Sn10'
_cell_volume   484.77470660
_cell_formula_units_Z   2
loop_
 _symmetry_equiv_pos_site_id
 _symmetry_equiv_pos_as_xyz
  1  'x, y, z'
loop_
 _atom_site_type_symbol
 _atom_site_label
 _atom_site_symmetry_multiplicity
 _atom_site_fract_x
 _atom_site_fract_y
 _atom_site_fract_z
 _atom_site_occupancy
  Sc  Sc0  1  0.673853  0.436291  0.237563  1
  Sc  Sc1  1  0.326147  0.563709  0.762437  1
  Sc  Sc2  1  0.198728  0.936291  0.262437  1
  Sc  Sc3  1  0.801272  0.063709  0.737563  1
  Sc  Sc4  1  0.259563  0.147231  0.112332  1
  Sc  Sc5  1  0.740437  0.852769  0.887668  1
  Sc  Sc6  1  0.034899  0.647231  0.387668  1
  Sc  Sc7  1  0.965101  0.352769  0.612332  1
  Ta  Ta8  1  0.307259  0.557259  0.250000  1
  Ta  Ta9  1  0.692741  0.442741  0.750000  1
  Ta  Ta10  1  0.692741  0.942741  0.250000  1
  Ta  Ta11  1  0.307259  0.057259  0.750000  1
  Sn  Sn12  1  0.587855  0.288732  0.299123  1
  Sn  Sn13  1  0.412145  0.711268  0.700877  1
  Sn  Sn14  1  0.989609  0.788732  0.200877  1
  Sn  Sn15  1  0.010391  0.211268  0.799123  1
  Sn  Sn16  1  0.000000  0.250000  0.250000  1
  Sn  Sn17  1  0.000000  0.750000  0.750000  1
  Sn  Sn18  1  0.469353  0.071786  0.397566  1
  Sn  Sn19  1  0.530647  0.928214  0.602434  1
  Sn  Sn20  1  0.674221  0.571786  0.102434  1
  Sn  Sn21  1  0.325779  0.428214  0.897566  1
