# generated using pymatgen
data_Hf4TiNb(Si2W)2
_symmetry_space_group_name_H-M   'P 1'
_cell_length_a   3.56901400
_cell_length_b   6.92741321
_cell_length_c   8.29947600
_cell_angle_alpha   89.76798684
_cell_angle_beta   90.00000000
_cell_angle_gamma   90.00000000
_symmetry_Int_Tables_number   1
_chemical_formula_structural   Hf4TiNb(Si2W)2
_chemical_formula_sum   'Hf4 Ti1 Nb1 Si4 W2'
_cell_volume   205.19485046
_cell_formula_units_Z   1
loop_
 _symmetry_equiv_pos_site_id
 _symmetry_equiv_pos_as_xyz
  1  'x, y, z'
loop_
 _atom_site_type_symbol
 _atom_site_label
 _atom_site_symmetry_multiplicity
 _atom_site_fract_x
 _atom_site_fract_y
 _atom_site_fract_z
 _atom_site_occupancy
  Hf  Hf0  1  0.250000  0.546101  0.165211  1
  Hf  Hf1  1  0.250000  0.047100  0.332256  1
  Hf  Hf2  1  0.750000  0.458536  0.833387  1
  Hf  Hf3  1  0.750000  0.957740  0.666790  1
  Ti  Ti4  1  0.250000  0.127350  0.941186  1
  Nb  Nb5  1  0.250000  0.631319  0.560240  1
  Si  Si6  1  0.250000  0.756257  0.864246  1
  Si  Si7  1  0.250000  0.253206  0.640555  1
  Si  Si8  1  0.750000  0.244641  0.139240  1
  Si  Si9  1  0.750000  0.745118  0.356985  1
  W  W10  1  0.750000  0.364540  0.439260  1
  W  W11  1  0.750000  0.868092  0.060644  1
