# generated using pymatgen
data_Ba3Er(BO3)3
_symmetry_space_group_name_H-M   'P 1'
_cell_length_a   8.19873757
_cell_length_b   8.19873728
_cell_length_c   8.19873852
_cell_angle_alpha   105.63745062
_cell_angle_beta   105.63744671
_cell_angle_gamma   105.63744447
_symmetry_Int_Tables_number   1
_chemical_formula_structural   Ba3Er(BO3)3
_chemical_formula_sum   'Ba6 Er2 B6 O18'
_cell_volume   475.00107934
_cell_formula_units_Z   2
loop_
 _symmetry_equiv_pos_site_id
 _symmetry_equiv_pos_as_xyz
  1  'x, y, z'
loop_
 _atom_site_type_symbol
 _atom_site_label
 _atom_site_symmetry_multiplicity
 _atom_site_fract_x
 _atom_site_fract_y
 _atom_site_fract_z
 _atom_site_occupancy
  Ba  Ba0  1  0.160407  0.263665  0.651378  1
  Ba  Ba1  1  0.651378  0.160407  0.263665  1
  Ba  Ba2  1  0.263665  0.651378  0.160407  1
  Ba  Ba3  1  0.839593  0.736335  0.348622  1
  Ba  Ba4  1  0.348622  0.839593  0.736335  1
  Ba  Ba5  1  0.736335  0.348622  0.839593  1
  Er  Er6  1  0.000000  0.000000  0.000000  1
  Er  Er7  1  0.500000  0.500000  0.500000  1
  B  B8  1  0.290669  0.043894  0.372887  1
  B  B9  1  0.372887  0.290669  0.043894  1
  B  B10  1  0.043894  0.372887  0.290669  1
  B  B11  1  0.627113  0.709331  0.956106  1
  B  B12  1  0.956106  0.627113  0.709331  1
  B  B13  1  0.709331  0.956106  0.627113  1
  O  O14  1  0.185684  0.256618  0.986408  1
  O  O15  1  0.986408  0.185684  0.256618  1
  O  O16  1  0.444421  0.197383  0.933192  1
  O  O17  1  0.197383  0.933192  0.444421  1
  O  O18  1  0.933192  0.444421  0.197383  1
  O  O19  1  0.066808  0.555579  0.802617  1
  O  O20  1  0.555579  0.802618  0.066808  1
  O  O21  1  0.802618  0.066808  0.555579  1
  O  O22  1  0.488534  0.427485  0.213379  1
  O  O23  1  0.427485  0.213379  0.488534  1
  O  O24  1  0.213379  0.488534  0.427485  1
  O  O25  1  0.511466  0.572515  0.786621  1
  O  O26  1  0.572515  0.786621  0.511466  1
  O  O27  1  0.786621  0.511466  0.572515  1
  O  O28  1  0.743382  0.013592  0.814316  1
  O  O29  1  0.013592  0.814316  0.743382  1
  O  O30  1  0.814316  0.743382  0.013592  1
  O  O31  1  0.256618  0.986408  0.185684  1
