# generated using pymatgen
data_SrNd7(Si3Au)4
_symmetry_space_group_name_H-M   'P 1'
_cell_length_a   8.29661200
_cell_length_b   8.29662827
_cell_length_c   8.68877900
_cell_angle_alpha   90.00000000
_cell_angle_beta   90.00000000
_cell_angle_gamma   120.01100403
_symmetry_Int_Tables_number   1
_chemical_formula_structural   SrNd7(Si3Au)4
_chemical_formula_sum   'Sr1 Nd7 Si12 Au4'
_cell_volume   517.89727729
_cell_formula_units_Z   1
loop_
 _symmetry_equiv_pos_site_id
 _symmetry_equiv_pos_as_xyz
  1  'x, y, z'
loop_
 _atom_site_type_symbol
 _atom_site_label
 _atom_site_symmetry_multiplicity
 _atom_site_fract_x
 _atom_site_fract_y
 _atom_site_fract_z
 _atom_site_occupancy
  Sr  Sr0  1  0.499414  0.500586  0.750000  1
  Nd  Nd1  1  0.500436  0.499564  0.250000  1
  Nd  Nd2  1  0.000777  0.500489  0.750000  1
  Nd  Nd3  1  0.999068  0.499603  0.250000  1
  Nd  Nd4  1  0.499510  0.999222  0.750000  1
  Nd  Nd5  1  0.500397  0.000932  0.250000  1
  Nd  Nd6  1  0.000049  0.999951  0.750000  1
  Nd  Nd7  1  0.000016  0.999984  0.250000  1
  Si  Si8  1  0.835991  0.164008  0.000182  1
  Si  Si9  1  0.164061  0.835940  0.000958  1
  Si  Si10  1  0.326862  0.162439  0.001568  1
  Si  Si11  1  0.164061  0.835940  0.499042  1
  Si  Si12  1  0.673233  0.837597  0.002552  1
  Si  Si13  1  0.835991  0.164008  0.499818  1
  Si  Si14  1  0.837561  0.673138  0.001568  1
  Si  Si15  1  0.673233  0.837597  0.497448  1
  Si  Si16  1  0.162403  0.326767  0.002553  1
  Si  Si17  1  0.326862  0.162439  0.498432  1
  Si  Si18  1  0.162403  0.326767  0.497447  1
  Si  Si19  1  0.837561  0.673138  0.498432  1
  Au  Au20  1  0.666826  0.333173  0.000729  1
  Au  Au21  1  0.333228  0.666772  0.003586  1
  Au  Au22  1  0.333228  0.666772  0.496414  1
  Au  Au23  1  0.666826  0.333173  0.499271  1
