# generated using pymatgen
data_Y4HfSc3Pt4
_symmetry_space_group_name_H-M   'P 1'
_cell_length_a   4.67212600
_cell_length_b   7.04615519
_cell_length_c   8.32537920
_cell_angle_alpha   89.59917061
_cell_angle_beta   90.00000000
_cell_angle_gamma   90.00000000
_symmetry_Int_Tables_number   1
_chemical_formula_structural   Y4HfSc3Pt4
_chemical_formula_sum   'Y4 Hf1 Sc3 Pt4'
_cell_volume   274.06914641
_cell_formula_units_Z   1
loop_
 _symmetry_equiv_pos_site_id
 _symmetry_equiv_pos_as_xyz
  1  'x, y, z'
loop_
 _atom_site_type_symbol
 _atom_site_label
 _atom_site_symmetry_multiplicity
 _atom_site_fract_x
 _atom_site_fract_y
 _atom_site_fract_z
 _atom_site_occupancy
  Y  Y0  1  0.250000  0.981932  0.322461  1
  Y  Y1  1  0.250000  0.483346  0.179668  1
  Y  Y2  1  0.750000  0.017258  0.674748  1
  Y  Y3  1  0.750000  0.519195  0.822778  1
  Hf  Hf4  1  0.750000  0.140586  0.072354  1
  Sc  Sc5  1  0.250000  0.356491  0.574634  1
  Sc  Sc6  1  0.250000  0.859491  0.924492  1
  Sc  Sc7  1  0.750000  0.639261  0.427647  1
  Pt  Pt8  1  0.250000  0.239637  0.910026  1
  Pt  Pt9  1  0.250000  0.740702  0.599169  1
  Pt  Pt10  1  0.750000  0.764861  0.097673  1
  Pt  Pt11  1  0.750000  0.257239  0.394351  1
