# generated using pymatgen
data_La4Zn(In2Pd)10
_symmetry_space_group_name_H-M   'P 1'
_cell_length_a   4.57903389
_cell_length_b   11.81657438
_cell_length_c   14.63297820
_cell_angle_alpha   80.45924303
_cell_angle_beta   80.99835245
_cell_angle_gamma   78.82801344
_symmetry_Int_Tables_number   1
_chemical_formula_structural   La4Zn(In2Pd)10
_chemical_formula_sum   'La4 Zn1 In20 Pd10'
_cell_volume   759.66671321
_cell_formula_units_Z   1
loop_
 _symmetry_equiv_pos_site_id
 _symmetry_equiv_pos_as_xyz
  1  'x, y, z'
loop_
 _atom_site_type_symbol
 _atom_site_label
 _atom_site_symmetry_multiplicity
 _atom_site_fract_x
 _atom_site_fract_y
 _atom_site_fract_z
 _atom_site_occupancy
  La  La0  1  0.877226  0.910068  0.335479  1
  La  La1  1  0.122774  0.089932  0.664521  1
  La  La2  1  0.227591  0.367774  0.177042  1
  La  La3  1  0.772409  0.632226  0.822958  1
  Zn  Zn4  1  0.500000  0.500000  0.500000  1
  In  In5  1  0.991369  0.925737  0.091523  1
  In  In6  1  0.008631  0.074263  0.908477  1
  In  In7  1  0.934853  0.332352  0.797944  1
  In  In8  1  0.065147  0.667648  0.202056  1
  In  In9  1  0.887839  0.675741  0.548580  1
  In  In10  1  0.112161  0.324259  0.451420  1
  In  In11  1  0.798501  0.396459  0.006540  1
  In  In12  1  0.201499  0.603541  0.993460  1
  In  In13  1  0.746556  0.210456  0.296433  1
  In  In14  1  0.253444  0.789544  0.703567  1
  In  In15  1  0.699364  0.100174  0.501097  1
  In  In16  1  0.300636  0.899826  0.498903  1
  In  In17  1  0.612867  0.472771  0.301496  1
  In  In18  1  0.387133  0.527229  0.698504  1
  In  In19  1  0.602114  0.795712  0.000060  1
  In  In20  1  0.397886  0.204288  0.999940  1
  In  In21  1  0.458810  0.711489  0.370893  1
  In  In22  1  0.541190  0.288511  0.629107  1
  In  In23  1  0.367865  0.061669  0.202599  1
  In  In24  1  0.632135  0.938331  0.797401  1
  Pd  Pd25  1  0.976368  0.439337  0.607927  1
  Pd  Pd26  1  0.023632  0.560663  0.392073  1
  Pd  Pd27  1  0.863477  0.163120  0.109928  1
  Pd  Pd28  1  0.136523  0.836880  0.890072  1
  Pd  Pd29  1  0.753111  0.881287  0.612492  1
  Pd  Pd30  1  0.246889  0.118713  0.387508  1
  Pd  Pd31  1  0.652669  0.581607  0.113056  1
  Pd  Pd32  1  0.347331  0.418393  0.886944  1
  Pd  Pd33  1  0.496044  0.822789  0.185124  1
  Pd  Pd34  1  0.503956  0.177211  0.814876  1
