# generated using pymatgen
data_La5Pr2Nd5(IrBr3)4
_symmetry_space_group_name_H-M   'P 1'
_cell_length_a   10.58899670
_cell_length_b   10.63484390
_cell_length_c   10.59073369
_cell_angle_alpha   108.96072298
_cell_angle_beta   109.75119473
_cell_angle_gamma   109.73318680
_symmetry_Int_Tables_number   1
_chemical_formula_structural   La5Pr2Nd5(IrBr3)4
_chemical_formula_sum   'La5 Pr2 Nd5 Ir4 Br12'
_cell_volume   917.70117826
_cell_formula_units_Z   1
loop_
 _symmetry_equiv_pos_site_id
 _symmetry_equiv_pos_as_xyz
  1  'x, y, z'
loop_
 _atom_site_type_symbol
 _atom_site_label
 _atom_site_symmetry_multiplicity
 _atom_site_fract_x
 _atom_site_fract_y
 _atom_site_fract_z
 _atom_site_occupancy
  La  La0  1  0.269356  0.014349  0.033766  1
  La  La1  1  0.752734  0.234731  0.268221  1
  La  La2  1  0.746863  0.016317  0.481429  1
  La  La3  1  0.467554  0.483592  0.234376  1
  La  La4  1  0.032671  0.267240  0.015219  1
  Pr  Pr5  1  0.267480  0.752467  0.235407  1
  Pr  Pr6  1  0.480602  0.743365  0.013026  1
  Nd  Nd7  1  0.232210  0.464699  0.483900  1
  Nd  Nd8  1  0.018882  0.035344  0.266709  1
  Nd  Nd9  1  0.230549  0.265231  0.744972  1
  Nd  Nd10  1  0.018308  0.483015  0.751989  1
  Nd  Nd11  1  0.481595  0.235986  0.467997  1
  Ir  Ir12  1  0.501610  0.002391  0.250674  1
  Ir  Ir13  1  0.249427  0.497236  0.001015  1
  Ir  Ir14  1  0.997173  0.248769  0.498273  1
  Ir  Ir15  1  0.250349  0.251166  0.248518  1
  Br  Br16  1  0.250301  0.998912  0.504233  1
  Br  Br17  1  0.506355  0.502542  0.752576  1
  Br  Br18  1  0.249229  0.749377  0.743781  1
  Br  Br19  1  0.991994  0.745072  0.999410  1
  Br  Br20  1  0.002007  0.509302  0.255333  1
  Br  Br21  1  0.745893  0.990737  0.992544  1
  Br  Br22  1  0.755832  0.747953  0.246402  1
  Br  Br23  1  0.498495  0.752806  0.508827  1
  Br  Br24  1  0.502337  0.250444  0.992776  1
  Br  Br25  1  0.755593  0.507610  0.510992  1
  Br  Br26  1  0.744639  0.255542  0.752703  1
  Br  Br27  1  0.999963  0.993806  0.744930  1
