# generated using pymatgen
data_Ho3Er5Cd2(SnAu4)2
_symmetry_space_group_name_H-M   'P 1'
_cell_length_a   7.98611048
_cell_length_b   7.98611048
_cell_length_c   7.29113202
_cell_angle_alpha   90.00556646
_cell_angle_beta   89.99443354
_cell_angle_gamma   90.03920121
_symmetry_Int_Tables_number   1
_chemical_formula_structural   Ho3Er5Cd2(SnAu4)2
_chemical_formula_sum   'Ho3 Er5 Cd2 Sn2 Au8'
_cell_volume   465.01341690
_cell_formula_units_Z   1
loop_
 _symmetry_equiv_pos_site_id
 _symmetry_equiv_pos_as_xyz
  1  'x, y, z'
loop_
 _atom_site_type_symbol
 _atom_site_label
 _atom_site_symmetry_multiplicity
 _atom_site_fract_x
 _atom_site_fract_y
 _atom_site_fract_z
 _atom_site_occupancy
  Ho  Ho0  1  0.342409  0.657546  0.999996  1
  Ho  Ho1  1  0.657546  0.342409  0.000004  1
  Ho  Ho2  1  0.842518  0.842518  0.500000  1
  Er  Er3  1  0.183504  0.183504  0.000000  1
  Er  Er4  1  0.316483  0.683514  0.500004  1
  Er  Er5  1  0.683514  0.316483  0.499996  1
  Er  Er6  1  0.816546  0.816546  0.000000  1
  Er  Er7  1  0.157550  0.157550  0.500000  1
  Cd  Cd8  1  0.000020  0.499966  0.749952  1
  Cd  Cd9  1  0.499966  0.000020  0.250048  1
  Sn  Sn10  1  0.000024  0.499957  0.250036  1
  Sn  Sn11  1  0.499957  0.000024  0.749964  1
  Au  Au12  1  0.125837  0.869373  0.775570  1
  Au  Au13  1  0.869373  0.125837  0.224430  1
  Au  Au14  1  0.373995  0.369010  0.276011  1
  Au  Au15  1  0.630756  0.625775  0.724266  1
  Au  Au16  1  0.625775  0.630756  0.275734  1
  Au  Au17  1  0.874395  0.130823  0.775584  1
  Au  Au18  1  0.369010  0.373995  0.723989  1
  Au  Au19  1  0.130823  0.874395  0.224416  1
