# generated using pymatgen
data_Tb7Y2Th5Rh6
_symmetry_space_group_name_H-M   'P 1'
_cell_length_a   9.90562300
_cell_length_b   9.79201182
_cell_length_c   6.37898156
_cell_angle_alpha   90.24932671
_cell_angle_beta   90.00000000
_cell_angle_gamma   120.38456360
_symmetry_Int_Tables_number   1
_chemical_formula_structural   Tb7Y2Th5Rh6
_chemical_formula_sum   'Tb7 Y2 Th5 Rh6'
_cell_volume   533.74541539
_cell_formula_units_Z   1
loop_
 _symmetry_equiv_pos_site_id
 _symmetry_equiv_pos_as_xyz
  1  'x, y, z'
loop_
 _atom_site_type_symbol
 _atom_site_label
 _atom_site_symmetry_multiplicity
 _atom_site_fract_x
 _atom_site_fract_y
 _atom_site_fract_z
 _atom_site_occupancy
  Tb  Tb0  1  0.873251  0.746504  0.739887  1
  Tb  Tb1  1  0.539788  0.460698  0.442852  1
  Tb  Tb2  1  0.920909  0.460698  0.442852  1
  Tb  Tb3  1  0.540185  0.080369  0.441779  1
  Tb  Tb4  1  0.461395  0.539684  0.939643  1
  Tb  Tb5  1  0.078289  0.539684  0.939643  1
  Tb  Tb6  1  0.460124  0.920246  0.939954  1
  Y  Y7  1  0.332999  0.665997  0.457233  1
  Y  Y8  1  0.666995  0.333989  0.959441  1
  Th  Th9  1  0.126174  0.871150  0.239894  1
  Th  Th10  1  0.744975  0.871150  0.239894  1
  Th  Th11  1  0.127625  0.255250  0.238789  1
  Th  Th12  1  0.869752  0.125215  0.738308  1
  Th  Th13  1  0.255462  0.125215  0.738308  1
  Rh  Rh14  1  0.817256  0.182133  0.198166  1
  Rh  Rh15  1  0.364878  0.182133  0.198166  1
  Rh  Rh16  1  0.816894  0.633787  0.204060  1
  Rh  Rh17  1  0.191748  0.821286  0.693997  1
  Rh  Rh18  1  0.629537  0.821286  0.693997  1
  Rh  Rh19  1  0.181763  0.363527  0.699702  1
