# generated using pymatgen
data_Ho3RuI3
_symmetry_space_group_name_H-M   'P 1'
_cell_length_a   4.20462400
_cell_length_b   8.87265378
_cell_length_c   12.30447255
_cell_angle_alpha   86.68284578
_cell_angle_beta   90.00000000
_cell_angle_gamma   90.00000000
_symmetry_Int_Tables_number   1
_chemical_formula_structural   Ho3RuI3
_chemical_formula_sum   'Ho6 Ru2 I6'
_cell_volume   458.26368936
_cell_formula_units_Z   2
loop_
 _symmetry_equiv_pos_site_id
 _symmetry_equiv_pos_as_xyz
  1  'x, y, z'
loop_
 _atom_site_type_symbol
 _atom_site_label
 _atom_site_symmetry_multiplicity
 _atom_site_fract_x
 _atom_site_fract_y
 _atom_site_fract_z
 _atom_site_occupancy
  Ho  Ho0  1  0.750000  0.135930  0.127084  1
  Ho  Ho1  1  0.250000  0.864070  0.872916  1
  Ho  Ho2  1  0.750000  0.095732  0.686245  1
  Ho  Ho3  1  0.250000  0.904268  0.313755  1
  Ho  Ho4  1  0.250000  0.255048  0.898057  1
  Ho  Ho5  1  0.750000  0.744952  0.101943  1
  Ru  Ru6  1  0.750000  0.049162  0.908700  1
  Ru  Ru7  1  0.250000  0.950838  0.091300  1
  I  I8  1  0.250000  0.429677  0.133082  1
  I  I9  1  0.750000  0.570323  0.866918  1
  I  I10  1  0.250000  0.349654  0.638493  1
  I  I11  1  0.750000  0.650346  0.361507  1
  I  I12  1  0.750000  0.143642  0.394096  1
  I  I13  1  0.250000  0.856358  0.605904  1
