# generated using pymatgen
data_Ba3Ce2UO9
_symmetry_space_group_name_H-M   'P 1'
_cell_length_a   6.24127700
_cell_length_b   6.24127587
_cell_length_c   15.17483200
_cell_angle_alpha   90.00000000
_cell_angle_beta   90.00000000
_cell_angle_gamma   119.99999007
_symmetry_Int_Tables_number   1
_chemical_formula_structural   Ba3Ce2UO9
_chemical_formula_sum   'Ba6 Ce4 U2 O18'
_cell_volume   511.91918320
_cell_formula_units_Z   2
loop_
 _symmetry_equiv_pos_site_id
 _symmetry_equiv_pos_as_xyz
  1  'x, y, z'
loop_
 _atom_site_type_symbol
 _atom_site_label
 _atom_site_symmetry_multiplicity
 _atom_site_fract_x
 _atom_site_fract_y
 _atom_site_fract_z
 _atom_site_occupancy
  Ba  Ba0  1  0.333333  0.666667  0.087910  1
  Ba  Ba1  1  0.666667  0.333333  0.912090  1
  Ba  Ba2  1  0.333333  0.666667  0.587910  1
  Ba  Ba3  1  0.666667  0.333333  0.412090  1
  Ba  Ba4  1  0.000000  0.000000  0.250000  1
  Ba  Ba5  1  0.000000  0.000000  0.750000  1
  Ce  Ce6  1  0.333333  0.666667  0.833962  1
  Ce  Ce7  1  0.666667  0.333333  0.166038  1
  Ce  Ce8  1  0.333333  0.666667  0.333962  1
  Ce  Ce9  1  0.666667  0.333333  0.666038  1
  U  U10  1  0.000000  0.000000  0.000000  1
  U  U11  1  0.000000  0.000000  0.500000  1
  O  O12  1  0.912136  0.682792  0.580549  1
  O  O13  1  0.000000  0.571430  0.250000  1
  O  O14  1  0.229344  0.317208  0.919451  1
  O  O15  1  0.912136  0.229344  0.080549  1
  O  O16  1  0.770656  0.087864  0.580549  1
  O  O17  1  0.770656  0.682792  0.080549  1
  O  O18  1  0.682792  0.770656  0.419451  1
  O  O19  1  0.428570  0.000000  0.750000  1
  O  O20  1  0.571430  0.571430  0.750000  1
  O  O21  1  0.317208  0.229344  0.580549  1
  O  O22  1  0.087864  0.317208  0.419451  1
  O  O23  1  0.229344  0.912136  0.419451  1
  O  O24  1  0.317208  0.087864  0.080549  1
  O  O25  1  0.571430  0.000000  0.250000  1
  O  O26  1  0.428570  0.428570  0.250000  1
  O  O27  1  0.000000  0.428570  0.750000  1
  O  O28  1  0.087864  0.770656  0.919451  1
  O  O29  1  0.682792  0.912136  0.919451  1
