# generated using pymatgen
data_LaNd7GaPd24
_symmetry_space_group_name_H-M   'P 1'
_cell_length_a   8.49944700
_cell_length_b   8.49944642
_cell_length_c   8.49944652
_cell_angle_alpha   89.94999258
_cell_angle_beta   90.05000894
_cell_angle_gamma   90.05000909
_symmetry_Int_Tables_number   1
_chemical_formula_structural   LaNd7GaPd24
_chemical_formula_sum   'La1 Nd7 Ga1 Pd24'
_cell_volume   614.00436745
_cell_formula_units_Z   1
loop_
 _symmetry_equiv_pos_site_id
 _symmetry_equiv_pos_as_xyz
  1  'x, y, z'
loop_
 _atom_site_type_symbol
 _atom_site_label
 _atom_site_symmetry_multiplicity
 _atom_site_fract_x
 _atom_site_fract_y
 _atom_site_fract_z
 _atom_site_occupancy
  La  La0  1  0.747316  0.252684  0.252684  1
  Nd  Nd1  1  0.250797  0.251798  0.251798  1
  Nd  Nd2  1  0.748660  0.748435  0.748435  1
  Nd  Nd3  1  0.748202  0.749203  0.251798  1
  Nd  Nd4  1  0.748202  0.251798  0.749203  1
  Nd  Nd5  1  0.251565  0.251340  0.748435  1
  Nd  Nd6  1  0.251565  0.748435  0.251340  1
  Nd  Nd7  1  0.252227  0.747773  0.747773  1
  Ga  Ga8  1  0.001439  0.998561  0.998561  1
  Pd  Pd9  1  0.261106  0.499425  0.999989  1
  Pd  Pd10  1  0.738940  0.500971  0.999971  1
  Pd  Pd11  1  0.000029  0.261060  0.500971  1
  Pd  Pd12  1  0.499029  0.261060  0.999971  1
  Pd  Pd13  1  0.000011  0.738894  0.499425  1
  Pd  Pd14  1  0.500575  0.738894  0.999989  1
  Pd  Pd15  1  0.499029  0.999971  0.261060  1
  Pd  Pd16  1  0.261106  0.999989  0.499425  1
  Pd  Pd17  1  0.500575  0.999989  0.738894  1
  Pd  Pd18  1  0.738940  0.999971  0.500971  1
  Pd  Pd19  1  0.000029  0.500971  0.261060  1
  Pd  Pd20  1  0.000011  0.499425  0.738894  1
  Pd  Pd21  1  0.253356  0.499511  0.499511  1
  Pd  Pd22  1  0.746181  0.501348  0.501348  1
  Pd  Pd23  1  0.498652  0.253819  0.501348  1
  Pd  Pd24  1  0.500489  0.746644  0.499511  1
  Pd  Pd25  1  0.498652  0.501348  0.253819  1
  Pd  Pd26  1  0.500489  0.499511  0.746644  1
  Pd  Pd27  1  0.294909  0.999855  0.999855  1
  Pd  Pd28  1  0.706707  0.999538  0.999538  1
  Pd  Pd29  1  0.000462  0.293293  0.999538  1
  Pd  Pd30  1  0.000145  0.705091  0.999855  1
  Pd  Pd31  1  0.000462  0.999538  0.293293  1
  Pd  Pd32  1  0.000145  0.999855  0.705091  1
