# generated using pymatgen
data_Ho2Er2TmRu2
_symmetry_space_group_name_H-M   'P 1'
_cell_length_a   6.27956120
_cell_length_b   7.25369684
_cell_length_c   8.39181997
_cell_angle_alpha   96.77849177
_cell_angle_beta   111.97166218
_cell_angle_gamma   90.00000483
_symmetry_Int_Tables_number   1
_chemical_formula_structural   Ho2Er2TmRu2
_chemical_formula_sum   'Ho4 Er4 Tm2 Ru4'
_cell_volume   351.60177899
_cell_formula_units_Z   2
loop_
 _symmetry_equiv_pos_site_id
 _symmetry_equiv_pos_as_xyz
  1  'x, y, z'
loop_
 _atom_site_type_symbol
 _atom_site_label
 _atom_site_symmetry_multiplicity
 _atom_site_fract_x
 _atom_site_fract_y
 _atom_site_fract_z
 _atom_site_occupancy
  Ho  Ho0  1  0.790924  0.084022  0.813520  1
  Ho  Ho1  1  0.977404  0.415978  0.186480  1
  Ho  Ho2  1  0.209076  0.915978  0.186480  1
  Ho  Ho3  1  0.022596  0.584022  0.813520  1
  Er  Er4  1  0.206014  0.184455  0.565636  1
  Er  Er5  1  0.640378  0.315545  0.434364  1
  Er  Er6  1  0.793986  0.815545  0.434364  1
  Er  Er7  1  0.359622  0.684455  0.565636  1
  Tm  Tm8  1  0.419618  0.250000  0.000000  1
  Tm  Tm9  1  0.580382  0.750000  0.000000  1
  Ru  Ru10  1  0.602432  0.423839  0.780244  1
  Ru  Ru11  1  0.822186  0.076161  0.219756  1
  Ru  Ru12  1  0.397568  0.576161  0.219756  1
  Ru  Ru13  1  0.177814  0.923839  0.780244  1
