# generated using pymatgen
data_Th3In3CuNiRh
_symmetry_space_group_name_H-M   'P 1'
_cell_length_a   7.54413700
_cell_length_b   7.54413650
_cell_length_c   4.12179100
_cell_angle_alpha   90.00000000
_cell_angle_beta   90.00000000
_cell_angle_gamma   119.99999782
_symmetry_Int_Tables_number   1
_chemical_formula_structural   Th3In3CuNiRh
_chemical_formula_sum   'Th3 In3 Cu1 Ni1 Rh1'
_cell_volume   203.15883416
_cell_formula_units_Z   1
loop_
 _symmetry_equiv_pos_site_id
 _symmetry_equiv_pos_as_xyz
  1  'x, y, z'
loop_
 _atom_site_type_symbol
 _atom_site_label
 _atom_site_symmetry_multiplicity
 _atom_site_fract_x
 _atom_site_fract_y
 _atom_site_fract_z
 _atom_site_occupancy
  Th  Th0  1  0.420389  0.999161  0.500000  1
  Th  Th1  1  0.000839  0.421228  0.500000  1
  Th  Th2  1  0.578772  0.579611  0.500000  1
  In  In3  1  0.756792  0.002934  0.000000  1
  In  In4  1  0.997066  0.753857  0.000000  1
  In  In5  1  0.246143  0.243208  0.000000  1
  Cu  Cu6  1  0.000000  0.000000  0.500000  1
  Ni  Ni7  1  0.666667  0.333333  0.000000  1
  Rh  Rh8  1  0.333333  0.666667  0.000000  1
