# generated using pymatgen
data_Zr2UF12
_symmetry_space_group_name_H-M   'P 1'
_cell_length_a   8.23026921
_cell_length_b   8.23018651
_cell_length_c   7.95179360
_cell_angle_alpha   61.48151420
_cell_angle_beta   61.48138079
_cell_angle_gamma   79.11271039
_symmetry_Int_Tables_number   1
_chemical_formula_structural   Zr2UF12
_chemical_formula_sum   'Zr4 U2 F24'
_cell_volume   415.31356817
_cell_formula_units_Z   2
loop_
 _symmetry_equiv_pos_site_id
 _symmetry_equiv_pos_as_xyz
  1  'x, y, z'
loop_
 _atom_site_type_symbol
 _atom_site_label
 _atom_site_symmetry_multiplicity
 _atom_site_fract_x
 _atom_site_fract_y
 _atom_site_fract_z
 _atom_site_occupancy
  Zr  Zr0  1  0.350580  0.350579  0.776868  1
  Zr  Zr1  1  0.649420  0.649421  0.223132  1
  Zr  Zr2  1  0.189648  0.189647  0.430891  1
  Zr  Zr3  1  0.810352  0.810353  0.569109  1
  U  U4  1  0.779919  0.220082  0.000000  1
  U  U5  1  0.220081  0.779918  0.000000  1
  F  F6  1  0.436424  0.697490  0.132274  1
  F  F7  1  0.302511  0.563576  0.867726  1
  F  F8  1  0.563576  0.302510  0.867726  1
  F  F9  1  0.697489  0.436424  0.132274  1
  F  F10  1  0.222095  0.222095  0.139419  1
  F  F11  1  0.777905  0.777905  0.860581  1
  F  F12  1  0.000000  0.000000  0.000000  1
  F  F13  1  0.000000  0.000000  0.500000  1
  F  F14  1  0.386201  0.613799  0.500000  1
  F  F15  1  0.613799  0.386201  0.500000  1
  F  F16  1  0.831660  0.531430  0.721911  1
  F  F17  1  0.468570  0.168339  0.278089  1
  F  F18  1  0.168340  0.468570  0.278089  1
  F  F19  1  0.531430  0.831661  0.721911  1
  F  F20  1  0.711104  0.711104  0.428313  1
  F  F21  1  0.288896  0.288896  0.571687  1
  F  F22  1  0.938919  0.647022  0.107856  1
  F  F23  1  0.352979  0.061083  0.892141  1
  F  F24  1  0.061081  0.352978  0.892144  1
  F  F25  1  0.647021  0.938917  0.107859  1
  F  F26  1  0.780202  0.063552  0.329989  1
  F  F27  1  0.936448  0.219799  0.670010  1
  F  F28  1  0.219798  0.936448  0.670011  1
  F  F29  1  0.063552  0.780201  0.329990  1
