# generated using pymatgen
data_Ce7Sm(Pt2Pb)4
_symmetry_space_group_name_H-M   'P 1'
_cell_length_a   7.99973100
_cell_length_b   7.99973060
_cell_length_c   7.38563300
_cell_angle_alpha   90.00000000
_cell_angle_beta   90.00000000
_cell_angle_gamma   90.34330128
_symmetry_Int_Tables_number   1
_chemical_formula_structural   Ce7Sm(Pt2Pb)4
_chemical_formula_sum   'Ce7 Sm1 Pt8 Pb4'
_cell_volume   472.64021681
_cell_formula_units_Z   1
loop_
 _symmetry_equiv_pos_site_id
 _symmetry_equiv_pos_as_xyz
  1  'x, y, z'
loop_
 _atom_site_type_symbol
 _atom_site_label
 _atom_site_symmetry_multiplicity
 _atom_site_fract_x
 _atom_site_fract_y
 _atom_site_fract_z
 _atom_site_occupancy
  Ce  Ce0  1  0.674301  0.672218  0.000000  1
  Ce  Ce1  1  0.328287  0.330212  0.500000  1
  Ce  Ce2  1  0.828167  0.171833  0.500000  1
  Ce  Ce3  1  0.669788  0.671713  0.500000  1
  Ce  Ce4  1  0.327782  0.325699  0.000000  1
  Ce  Ce5  1  0.829463  0.170537  0.000000  1
  Ce  Ce6  1  0.171586  0.828414  0.000000  1
  Sm  Sm7  1  0.172244  0.827756  0.500000  1
  Pt  Pt8  1  0.869765  0.873918  0.749783  1
  Pt  Pt9  1  0.126082  0.130235  0.749783  1
  Pt  Pt10  1  0.628864  0.371136  0.751414  1
  Pt  Pt11  1  0.628864  0.371136  0.248586  1
  Pt  Pt12  1  0.375363  0.624637  0.243663  1
  Pt  Pt13  1  0.126082  0.130235  0.250217  1
  Pt  Pt14  1  0.869765  0.873918  0.250217  1
  Pt  Pt15  1  0.375363  0.624637  0.756337  1
  Pb  Pb16  1  0.498166  0.999048  0.748230  1
  Pb  Pb17  1  0.498166  0.999048  0.251770  1
  Pb  Pb18  1  0.000952  0.501834  0.748230  1
  Pb  Pb19  1  0.000952  0.501834  0.251770  1
