# generated using pymatgen
data_S13O2
_symmetry_space_group_name_H-M   'P 1'
_cell_length_a   7.30595175
_cell_length_b   10.09231316
_cell_length_c   13.74751951
_cell_angle_alpha   86.54571629
_cell_angle_beta   86.62900612
_cell_angle_gamma   83.90202705
_symmetry_Int_Tables_number   1
_chemical_formula_structural   S13O2
_chemical_formula_sum   'S13 O2'
_cell_volume   1004.68906669
_cell_formula_units_Z   1
loop_
 _symmetry_equiv_pos_site_id
 _symmetry_equiv_pos_as_xyz
  1  'x, y, z'
loop_
 _atom_site_type_symbol
 _atom_site_label
 _atom_site_symmetry_multiplicity
 _atom_site_fract_x
 _atom_site_fract_y
 _atom_site_fract_z
 _atom_site_occupancy
  S  S0  1  0.903567  0.950889  0.106656  1
  S  S1  1  0.625698  0.349718  0.409591  1
  S  S2  1  0.720341  0.661244  0.366237  1
  S  S3  1  0.264832  0.734868  0.381235  1
  S  S4  1  0.020275  0.790361  0.022523  1
  S  S5  1  0.253623  0.495452  0.294755  1
  S  S6  1  0.069504  0.847167  0.887471  1
  S  S7  1  0.321771  0.641931  0.502255  1
  S  S8  1  0.314943  0.401556  0.414783  1
  S  S9  1  0.531683  0.782841  0.300816  1
  S  S10  1  0.712712  0.468623  0.302520  1
  S  S11  1  0.286988  0.111149  0.106923  1
  S  S12  1  0.121229  0.005952  0.185674  1
  O  O13  1  0.944966  0.555547  0.675677  1
  O  O14  1  0.807425  0.637553  0.672320  1
