# generated using pymatgen
data_Pd5PtPbO8
_symmetry_space_group_name_H-M   'P 1'
_cell_length_a   6.88600352
_cell_length_b   6.88600354
_cell_length_c   6.89121000
_cell_angle_alpha   59.97497590
_cell_angle_beta   59.97497579
_cell_angle_gamma   60.16018738
_symmetry_Int_Tables_number   1
_chemical_formula_structural   Pd5PtPbO8
_chemical_formula_sum   'Pd5 Pt1 Pb1 O8'
_cell_volume   231.24545497
_cell_formula_units_Z   1
loop_
 _symmetry_equiv_pos_site_id
 _symmetry_equiv_pos_as_xyz
  1  'x, y, z'
loop_
 _atom_site_type_symbol
 _atom_site_label
 _atom_site_symmetry_multiplicity
 _atom_site_fract_x
 _atom_site_fract_y
 _atom_site_fract_z
 _atom_site_occupancy
  Pd  Pd0  1  0.500000  0.000000  0.500000  1
  Pd  Pd1  1  0.500000  0.000000  0.000000  1
  Pd  Pd2  1  0.000000  0.500000  0.000000  1
  Pd  Pd3  1  0.000000  0.500000  0.500000  1
  Pd  Pd4  1  0.500000  0.500000  0.000000  1
  Pt  Pt5  1  0.000000  0.000000  0.500000  1
  Pb  Pb6  1  0.000000  0.000000  0.000000  1
  O  O7  1  0.857934  0.425783  0.858142  1
  O  O8  1  0.140298  0.140298  0.146324  1
  O  O9  1  0.859702  0.859702  0.853676  1
  O  O10  1  0.574217  0.142066  0.141858  1
  O  O11  1  0.859702  0.859702  0.426920  1
  O  O12  1  0.425783  0.857934  0.858142  1
  O  O13  1  0.140298  0.140298  0.573080  1
  O  O14  1  0.142066  0.574217  0.141858  1
