# generated using pymatgen
data_Ce2SmY7(Ga2Ru3)2
_symmetry_space_group_name_H-M   'P 1'
_cell_length_a   8.47115791
_cell_length_b   8.37153912
_cell_length_c   8.34662700
_cell_angle_alpha   110.05214283
_cell_angle_beta   109.21826202
_cell_angle_gamma   110.35553273
_symmetry_Int_Tables_number   1
_chemical_formula_structural   Ce2SmY7(Ga2Ru3)2
_chemical_formula_sum   'Ce2 Sm1 Y7 Ga4 Ru6'
_cell_volume   448.67428987
_cell_formula_units_Z   1
loop_
 _symmetry_equiv_pos_site_id
 _symmetry_equiv_pos_as_xyz
  1  'x, y, z'
loop_
 _atom_site_type_symbol
 _atom_site_label
 _atom_site_symmetry_multiplicity
 _atom_site_fract_x
 _atom_site_fract_y
 _atom_site_fract_z
 _atom_site_occupancy
  Ce  Ce0  1  0.944366  0.250867  0.197060  1
  Ce  Ce1  1  0.199757  0.944510  0.251971  1
  Sm  Sm2  1  0.253896  0.193159  0.936239  1
  Y  Y3  1  0.776653  0.780138  0.774374  1
  Y  Y4  1  0.314266  0.564121  0.753296  1
  Y  Y5  1  0.751010  0.314299  0.565772  1
  Y  Y6  1  0.566250  0.749247  0.311883  1
  Y  Y7  1  0.727306  0.504879  0.999076  1
  Y  Y8  1  0.998882  0.724006  0.505642  1
  Y  Y9  1  0.502170  0.992047  0.720814  1
  Ga  Ga10  1  0.417247  0.412870  0.411721  1
  Ga  Ga11  1  0.090846  0.493252  0.997759  1
  Ga  Ga12  1  0.997878  0.090304  0.500159  1
  Ga  Ga13  1  0.503193  0.009384  0.094965  1
  Ru  Ru14  1  0.866546  0.114418  0.739757  1
  Ru  Ru15  1  0.754618  0.902506  0.120049  1
  Ru  Ru16  1  0.125544  0.764139  0.909085  1
  Ru  Ru17  1  0.222294  0.589849  0.364393  1
  Ru  Ru18  1  0.359300  0.219565  0.594645  1
  Ru  Ru19  1  0.627979  0.386439  0.251339  1
