# generated using pymatgen
data_TmTh3Ga18(Ir2Ru)2
_symmetry_space_group_name_H-M   'P 1'
_cell_length_a   7.66317131
_cell_length_b   7.67321108
_cell_length_c   9.53470551
_cell_angle_alpha   90.07058360
_cell_angle_beta   90.09988415
_cell_angle_gamma   119.86803051
_symmetry_Int_Tables_number   1
_chemical_formula_structural   TmTh3Ga18(Ir2Ru)2
_chemical_formula_sum   'Tm1 Th3 Ga18 Ir4 Ru2'
_cell_volume   486.18063558
_cell_formula_units_Z   1
loop_
 _symmetry_equiv_pos_site_id
 _symmetry_equiv_pos_as_xyz
  1  'x, y, z'
loop_
 _atom_site_type_symbol
 _atom_site_label
 _atom_site_symmetry_multiplicity
 _atom_site_fract_x
 _atom_site_fract_y
 _atom_site_fract_z
 _atom_site_occupancy
  Tm  Tm0  1  0.330317  0.002720  0.250602  1
  Th  Th1  1  0.996844  0.668524  0.749403  1
  Th  Th2  1  0.002387  0.331738  0.250683  1
  Th  Th3  1  0.668699  0.996347  0.749205  1
  Ga  Ga4  1  0.134546  0.131976  0.750179  1
  Ga  Ga5  1  0.871056  0.870059  0.250054  1
  Ga  Ga6  1  0.006015  0.336266  0.578662  1
  Ga  Ga7  1  0.001923  0.671227  0.417727  1
  Ga  Ga8  1  0.002386  0.672385  0.083206  1
  Ga  Ga9  1  0.334622  0.003916  0.926039  1
  Ga  Ga10  1  0.005198  0.334623  0.920261  1
  Ga  Ga11  1  0.658926  0.996145  0.083058  1
  Ga  Ga12  1  0.656496  0.995547  0.417670  1
  Ga  Ga13  1  0.336375  0.004526  0.572194  1
  Ga  Ga14  1  0.336670  0.331330  0.065698  1
  Ga  Ga15  1  0.662662  0.662679  0.940110  1
  Ga  Ga16  1  0.660106  0.660144  0.557798  1
  Ga  Ga17  1  0.338936  0.333282  0.436056  1
  Ga  Ga18  1  0.339093  0.542583  0.748221  1
  Ga  Ga19  1  0.659164  0.451614  0.251973  1
  Ga  Ga20  1  0.542091  0.336578  0.748158  1
  Ga  Ga21  1  0.455308  0.663605  0.252028  1
  Ir  Ir22  1  0.327615  0.670457  0.000007  1
  Ir  Ir23  1  0.674557  0.330122  0.000042  1
  Ir  Ir24  1  0.997723  0.000528  0.500447  1
  Ir  Ir25  1  0.998222  0.000621  0.999977  1
  Ru  Ru26  1  0.675581  0.329060  0.500286  1
  Ru  Ru27  1  0.326480  0.671396  0.500253  1
