# generated using pymatgen
data_Np2AlB2Ru5
_symmetry_space_group_name_H-M   'P 1'
_cell_length_a   9.57713200
_cell_length_b   9.57713200
_cell_length_c   3.07844500
_cell_angle_alpha   90.00000000
_cell_angle_beta   90.00000000
_cell_angle_gamma   90.00000000
_symmetry_Int_Tables_number   1
_chemical_formula_structural   Np2AlB2Ru5
_chemical_formula_sum   'Np4 Al2 B4 Ru10'
_cell_volume   282.35946176
_cell_formula_units_Z   2
loop_
 _symmetry_equiv_pos_site_id
 _symmetry_equiv_pos_as_xyz
  1  'x, y, z'
loop_
 _atom_site_type_symbol
 _atom_site_label
 _atom_site_symmetry_multiplicity
 _atom_site_fract_x
 _atom_site_fract_y
 _atom_site_fract_z
 _atom_site_occupancy
  Np  Np0  1  0.823610  0.676390  0.000000  1
  Np  Np1  1  0.176390  0.323610  0.000000  1
  Np  Np2  1  0.323610  0.823610  0.000000  1
  Np  Np3  1  0.676390  0.176390  0.000000  1
  Al  Al4  1  0.500000  0.500000  0.000000  1
  Al  Al5  1  0.000000  0.000000  0.000000  1
  B  B6  1  0.623831  0.876169  0.000000  1
  B  B7  1  0.376169  0.123831  0.000000  1
  B  B8  1  0.123831  0.623831  0.000000  1
  B  B9  1  0.876169  0.376169  0.000000  1
  Ru  Ru10  1  0.570774  0.717092  0.500000  1
  Ru  Ru11  1  0.429226  0.282908  0.500000  1
  Ru  Ru12  1  0.070774  0.782908  0.500000  1
  Ru  Ru13  1  0.929226  0.217092  0.500000  1
  Ru  Ru14  1  0.282908  0.570774  0.500000  1
  Ru  Ru15  1  0.717092  0.429226  0.500000  1
  Ru  Ru16  1  0.217092  0.070774  0.500000  1
  Ru  Ru17  1  0.782908  0.929226  0.500000  1
  Ru  Ru18  1  0.500000  0.000000  0.500000  1
  Ru  Ru19  1  0.000000  0.500000  0.500000  1
