# generated using pymatgen
data_Yb5CuIr
_symmetry_space_group_name_H-M   'P 1'
_cell_length_a   8.59163094
_cell_length_b   8.59163170
_cell_length_c   7.51862992
_cell_angle_alpha   83.41954112
_cell_angle_beta   83.41953944
_cell_angle_gamma   44.33061989
_symmetry_Int_Tables_number   1
_chemical_formula_structural   Yb5CuIr
_chemical_formula_sum   'Yb10 Cu2 Ir2'
_cell_volume   384.84926750
_cell_formula_units_Z   2
loop_
 _symmetry_equiv_pos_site_id
 _symmetry_equiv_pos_as_xyz
  1  'x, y, z'
loop_
 _atom_site_type_symbol
 _atom_site_label
 _atom_site_symmetry_multiplicity
 _atom_site_fract_x
 _atom_site_fract_y
 _atom_site_fract_z
 _atom_site_occupancy
  Yb  Yb0  1  0.013497  0.799725  0.923633  1
  Yb  Yb1  1  0.200275  0.986503  0.576367  1
  Yb  Yb2  1  0.964670  0.205581  0.084006  1
  Yb  Yb3  1  0.794419  0.035330  0.415994  1
  Yb  Yb4  1  0.367822  0.200989  0.830115  1
  Yb  Yb5  1  0.799011  0.632178  0.669885  1
  Yb  Yb6  1  0.644066  0.794627  0.185884  1
  Yb  Yb7  1  0.205373  0.355934  0.314116  1
  Yb  Yb8  1  0.582474  0.417526  0.750000  1
  Yb  Yb9  1  0.425016  0.574984  0.250000  1
  Cu  Cu10  1  0.183622  0.597661  0.581573  1
  Cu  Cu11  1  0.402339  0.816378  0.918427  1
  Ir  Ir12  1  0.817219  0.399802  0.417986  1
  Ir  Ir13  1  0.600198  0.182781  0.082014  1
