# generated using pymatgen
data_LaZnCdBi2Sb3O14
_symmetry_space_group_name_H-M   'P 1'
_cell_length_a   7.40567459
_cell_length_b   7.40566944
_cell_length_c   7.40567700
_cell_angle_alpha   61.52377627
_cell_angle_beta   61.52375383
_cell_angle_gamma   61.52383729
_symmetry_Int_Tables_number   1
_chemical_formula_structural   LaZnCdBi2Sb3O14
_chemical_formula_sum   'La1 Zn1 Cd1 Bi2 Sb3 O14'
_cell_volume   297.01817094
_cell_formula_units_Z   1
loop_
 _symmetry_equiv_pos_site_id
 _symmetry_equiv_pos_as_xyz
  1  'x, y, z'
loop_
 _atom_site_type_symbol
 _atom_site_label
 _atom_site_symmetry_multiplicity
 _atom_site_fract_x
 _atom_site_fract_y
 _atom_site_fract_z
 _atom_site_occupancy
  La  La0  1  0.499998  0.499991  0.499991  1
  Zn  Zn1  1  0.999998  0.500000  0.999999  1
  Cd  Cd2  1  0.499997  0.999981  0.500024  1
  Bi  Bi3  1  0.000001  0.000003  0.499989  1
  Bi  Bi4  1  0.500013  0.000015  0.000007  1
  Sb  Sb5  1  0.499998  0.500005  0.999995  1
  Sb  Sb6  1  0.999996  0.499999  0.500003  1
  Sb  Sb7  1  0.000005  0.999998  0.000000  1
  O  O8  1  0.621029  0.116246  0.621015  1
  O  O9  1  0.378977  0.883763  0.378977  1
  O  O10  1  0.076411  0.179257  0.679444  1
  O  O11  1  0.679445  0.179248  0.076410  1
  O  O12  1  0.680104  0.574624  0.680100  1
  O  O13  1  0.923589  0.820748  0.320557  1
  O  O14  1  0.320551  0.820751  0.923582  1
  O  O15  1  0.319892  0.425382  0.319893  1
  O  O16  1  0.655355  0.586651  0.084680  1
  O  O17  1  0.084672  0.586657  0.655354  1
  O  O18  1  0.085556  0.155920  0.085568  1
  O  O19  1  0.344646  0.413334  0.915329  1
  O  O20  1  0.915329  0.413344  0.344644  1
  O  O21  1  0.914436  0.844083  0.914438  1
