# generated using pymatgen
data_Ho3Si6(Pd7Pt3)2
_symmetry_space_group_name_H-M   'P 1'
_cell_length_a   8.71620278
_cell_length_b   8.73248842
_cell_length_c   8.73274900
_cell_angle_alpha   59.99880927
_cell_angle_beta   59.93779968
_cell_angle_gamma   59.93753697
_symmetry_Int_Tables_number   1
_chemical_formula_structural   Ho3Si6(Pd7Pt3)2
_chemical_formula_sum   'Ho3 Si6 Pd14 Pt6'
_cell_volume   469.55623557
_cell_formula_units_Z   1
loop_
 _symmetry_equiv_pos_site_id
 _symmetry_equiv_pos_as_xyz
  1  'x, y, z'
loop_
 _atom_site_type_symbol
 _atom_site_label
 _atom_site_symmetry_multiplicity
 _atom_site_fract_x
 _atom_site_fract_y
 _atom_site_fract_z
 _atom_site_occupancy
  Ho  Ho0  1  0.250763  0.249737  0.249750  1
  Ho  Ho1  1  0.749237  0.750263  0.750250  1
  Ho  Ho2  1  0.000000  0.000000  0.000000  1
  Si  Si3  1  0.730379  0.268664  0.268658  1
  Si  Si4  1  0.269621  0.731336  0.731342  1
  Si  Si5  1  0.269617  0.731332  0.267705  1
  Si  Si6  1  0.730383  0.268668  0.732295  1
  Si  Si7  1  0.269613  0.267708  0.731336  1
  Si  Si8  1  0.730387  0.732292  0.268664  1
  Pd  Pd9  1  0.852793  0.382401  0.382404  1
  Pd  Pd10  1  0.147207  0.617599  0.617596  1
  Pd  Pd11  1  0.344127  0.000071  0.000072  1
  Pd  Pd12  1  0.655873  0.999929  0.999928  1
  Pd  Pd13  1  0.000003  0.344678  0.655314  1
  Pd  Pd14  1  0.999997  0.655322  0.344686  1
  Pd  Pd15  1  0.000008  0.344673  0.000007  1
  Pd  Pd16  1  0.655863  0.999933  0.344272  1
  Pd  Pd17  1  0.999992  0.655327  0.999993  1
  Pd  Pd18  1  0.344137  0.000067  0.655728  1
  Pd  Pd19  1  0.000004  0.000003  0.344680  1
  Pd  Pd20  1  0.999996  0.999997  0.655320  1
  Pd  Pd21  1  0.655858  0.344268  0.999937  1
  Pd  Pd22  1  0.344142  0.655732  0.000063  1
  Pt  Pt23  1  0.381514  0.384214  0.384219  1
  Pt  Pt24  1  0.618486  0.615786  0.615781  1
  Pt  Pt25  1  0.381514  0.384216  0.850056  1
  Pt  Pt26  1  0.381507  0.850066  0.384217  1
  Pt  Pt27  1  0.618486  0.615784  0.149944  1
  Pt  Pt28  1  0.618493  0.149934  0.615783  1
