# generated using pymatgen
data_Cs2HfZr6CBr18
_symmetry_space_group_name_H-M   'P 1'
_cell_length_a   11.10671253
_cell_length_b   11.10671342
_cell_length_c   11.10671335
_cell_angle_alpha   55.69051533
_cell_angle_beta   55.69051255
_cell_angle_gamma   55.69051656
_symmetry_Int_Tables_number   1
_chemical_formula_structural   Cs2HfZr6CBr18
_chemical_formula_sum   'Cs2 Hf1 Zr6 C1 Br18'
_cell_volume   871.95863807
_cell_formula_units_Z   1
loop_
 _symmetry_equiv_pos_site_id
 _symmetry_equiv_pos_as_xyz
  1  'x, y, z'
loop_
 _atom_site_type_symbol
 _atom_site_label
 _atom_site_symmetry_multiplicity
 _atom_site_fract_x
 _atom_site_fract_y
 _atom_site_fract_z
 _atom_site_occupancy
  Cs  Cs0  1  0.775231  0.775231  0.775231  1
  Cs  Cs1  1  0.224769  0.224769  0.224769  1
  Hf  Hf2  1  0.500000  0.500000  0.500000  1
  Zr  Zr3  1  0.151298  0.905308  0.805029  1
  Zr  Zr4  1  0.848702  0.094692  0.194971  1
  Zr  Zr5  1  0.094692  0.194971  0.848702  1
  Zr  Zr6  1  0.194971  0.848702  0.094692  1
  Zr  Zr7  1  0.905308  0.805029  0.151298  1
  Zr  Zr8  1  0.805029  0.151298  0.905308  1
  C  C9  1  0.000000  0.000000  0.000000  1
  Br  Br10  1  0.227135  0.469383  0.641455  1
  Br  Br11  1  0.772865  0.530617  0.358545  1
  Br  Br12  1  0.345001  0.053207  0.933385  1
  Br  Br13  1  0.654999  0.946793  0.066615  1
  Br  Br14  1  0.933385  0.345001  0.053207  1
  Br  Br15  1  0.711399  0.878080  0.412469  1
  Br  Br16  1  0.358545  0.772865  0.530617  1
  Br  Br17  1  0.587531  0.288601  0.121920  1
  Br  Br18  1  0.288601  0.121920  0.587531  1
  Br  Br19  1  0.121920  0.587531  0.288601  1
  Br  Br20  1  0.946793  0.066615  0.654999  1
  Br  Br21  1  0.412469  0.711399  0.878080  1
  Br  Br22  1  0.878080  0.412469  0.711399  1
  Br  Br23  1  0.066615  0.654999  0.946793  1
  Br  Br24  1  0.469383  0.641455  0.227135  1
  Br  Br25  1  0.641455  0.227135  0.469383  1
  Br  Br26  1  0.530617  0.358545  0.772865  1
  Br  Br27  1  0.053207  0.933385  0.345001  1
