# generated using pymatgen
data_Ba6LaY(BO3)6
_symmetry_space_group_name_H-M   'P 1'
_cell_length_a   8.31309996
_cell_length_b   8.31310049
_cell_length_c   8.31310038
_cell_angle_alpha   105.60485195
_cell_angle_beta   105.60485869
_cell_angle_gamma   105.60486383
_symmetry_Int_Tables_number   1
_chemical_formula_structural   Ba6LaY(BO3)6
_chemical_formula_sum   'Ba6 La1 Y1 B6 O18'
_cell_volume   495.53094285
_cell_formula_units_Z   1
loop_
 _symmetry_equiv_pos_site_id
 _symmetry_equiv_pos_as_xyz
  1  'x, y, z'
loop_
 _atom_site_type_symbol
 _atom_site_label
 _atom_site_symmetry_multiplicity
 _atom_site_fract_x
 _atom_site_fract_y
 _atom_site_fract_z
 _atom_site_occupancy
  Ba  Ba0  1  0.354381  0.731324  0.846200  1
  Ba  Ba1  1  0.846200  0.354381  0.731324  1
  Ba  Ba2  1  0.731324  0.846200  0.354381  1
  Ba  Ba3  1  0.645619  0.268676  0.153800  1
  Ba  Ba4  1  0.153800  0.645619  0.268676  1
  Ba  Ba5  1  0.268676  0.153800  0.645619  1
  La  La6  1  0.000000  0.000000  0.000000  1
  Y  Y7  1  0.500000  0.500000  0.500000  1
  B  B8  1  0.707671  0.614999  0.954463  1
  B  B9  1  0.954463  0.707671  0.614999  1
  B  B10  1  0.614999  0.954463  0.707671  1
  B  B11  1  0.045537  0.292329  0.385001  1
  B  B12  1  0.385001  0.045537  0.292329  1
  B  B13  1  0.292329  0.385001  0.045537  1
  O  O14  1  0.053659  0.806709  0.541886  1
  O  O15  1  0.541886  0.053659  0.806709  1
  O  O16  1  0.426140  0.494614  0.214895  1
  O  O17  1  0.494614  0.214895  0.426140  1
  O  O18  1  0.214895  0.426140  0.494614  1
  O  O19  1  0.785105  0.573860  0.505386  1
  O  O20  1  0.573860  0.505386  0.785105  1
  O  O21  1  0.505386  0.785105  0.573860  1
  O  O22  1  0.264607  0.202112  0.980702  1
  O  O23  1  0.202112  0.980702  0.264607  1
  O  O24  1  0.980702  0.264607  0.202112  1
  O  O25  1  0.735393  0.797888  0.019298  1
  O  O26  1  0.797888  0.019298  0.735393  1
  O  O27  1  0.019298  0.735393  0.797888  1
  O  O28  1  0.193291  0.458114  0.946341  1
  O  O29  1  0.458114  0.946341  0.193291  1
  O  O30  1  0.946341  0.193291  0.458114  1
  O  O31  1  0.806709  0.541886  0.053659  1
