# generated using pymatgen
data_LuPaInAu2
_symmetry_space_group_name_H-M   'P 1'
_cell_length_a   7.80884600
_cell_length_b   7.80884600
_cell_length_c   7.52870100
_cell_angle_alpha   90.00000000
_cell_angle_beta   90.00000000
_cell_angle_gamma   90.00000000
_symmetry_Int_Tables_number   1
_chemical_formula_structural   LuPaInAu2
_chemical_formula_sum   'Lu4 Pa4 In4 Au8'
_cell_volume   459.08570064
_cell_formula_units_Z   4
loop_
 _symmetry_equiv_pos_site_id
 _symmetry_equiv_pos_as_xyz
  1  'x, y, z'
loop_
 _atom_site_type_symbol
 _atom_site_label
 _atom_site_symmetry_multiplicity
 _atom_site_fract_x
 _atom_site_fract_y
 _atom_site_fract_z
 _atom_site_occupancy
  Lu  Lu0  1  0.686392  0.686392  0.500000  1
  Lu  Lu1  1  0.313608  0.313608  0.500000  1
  Lu  Lu2  1  0.186393  0.813608  0.000000  1
  Lu  Lu3  1  0.813608  0.186393  0.000000  1
  Pa  Pa4  1  0.866575  0.133425  0.500000  1
  Pa  Pa5  1  0.133425  0.866575  0.500000  1
  Pa  Pa6  1  0.366575  0.366575  0.000000  1
  Pa  Pa7  1  0.633425  0.633425  0.000000  1
  In  In8  1  0.500000  0.000000  0.250000  1
  In  In9  1  0.000000  0.500000  0.750000  1
  In  In10  1  0.500000  0.000000  0.750000  1
  In  In11  1  0.000000  0.500000  0.250000  1
  Au  Au12  1  0.637087  0.362913  0.297058  1
  Au  Au13  1  0.362913  0.637087  0.297058  1
  Au  Au14  1  0.137087  0.137087  0.797058  1
  Au  Au15  1  0.862913  0.862913  0.797058  1
  Au  Au16  1  0.362913  0.637087  0.702942  1
  Au  Au17  1  0.637087  0.362913  0.702942  1
  Au  Au18  1  0.862913  0.862913  0.202942  1
  Au  Au19  1  0.137087  0.137087  0.202942  1
