# generated using pymatgen
data_SiSe5
_symmetry_space_group_name_H-M   'P 1'
_cell_length_a   7.75659097
_cell_length_b   8.38582000
_cell_length_c   16.83508770
_cell_angle_alpha   90.00000000
_cell_angle_beta   118.96449324
_cell_angle_gamma   90.00000000
_symmetry_Int_Tables_number   1
_chemical_formula_structural   SiSe5
_chemical_formula_sum   'Si4 Se20'
_cell_volume   958.07640334
_cell_formula_units_Z   4
loop_
 _symmetry_equiv_pos_site_id
 _symmetry_equiv_pos_as_xyz
  1  'x, y, z'
loop_
 _atom_site_type_symbol
 _atom_site_label
 _atom_site_symmetry_multiplicity
 _atom_site_fract_x
 _atom_site_fract_y
 _atom_site_fract_z
 _atom_site_occupancy
  Si  Si0  1  0.171476  0.901009  0.015002  1
  Si  Si1  1  0.828524  0.401009  0.484999  1
  Si  Si2  1  0.171476  0.598992  0.515001  1
  Si  Si3  1  0.828524  0.098992  0.984998  1
  Se  Se4  1  0.554635  0.328557  0.071511  1
  Se  Se5  1  0.551717  0.166326  0.183837  1
  Se  Se6  1  0.448283  0.666326  0.316164  1
  Se  Se7  1  0.445365  0.828558  0.428488  1
  Se  Se8  1  0.554636  0.171443  0.571512  1
  Se  Se9  1  0.551717  0.333675  0.683836  1
  Se  Se10  1  0.448283  0.833675  0.816163  1
  Se  Se11  1  0.445365  0.671443  0.928489  1
  Se  Se12  1  0.938024  0.859306  0.060500  1
  Se  Se13  1  0.867366  0.316591  0.076397  1
  Se  Se14  1  0.499086  0.900862  0.125567  1
  Se  Se15  1  0.500915  0.400862  0.374433  1
  Se  Se16  1  0.132633  0.816592  0.423602  1
  Se  Se17  1  0.061976  0.359305  0.439501  1
  Se  Se18  1  0.938024  0.640694  0.560499  1
  Se  Se19  1  0.867367  0.183409  0.576398  1
  Se  Se20  1  0.499086  0.599139  0.625567  1
  Se  Se21  1  0.500913  0.099139  0.874433  1
  Se  Se22  1  0.132634  0.683409  0.923603  1
  Se  Se23  1  0.061976  0.140695  0.939500  1
