# generated using pymatgen
data_Li2BeSnSe4
_symmetry_space_group_name_H-M   'P 1'
_cell_length_a   6.85589700
_cell_length_b   6.57647742
_cell_length_c   10.60690200
_cell_angle_alpha   51.35233938
_cell_angle_beta   90.00000000
_cell_angle_gamma   90.00000000
_symmetry_Int_Tables_number   1
_chemical_formula_structural   Li2BeSnSe4
_chemical_formula_sum   'Li4 Be2 Sn2 Se8'
_cell_volume   373.50626916
_cell_formula_units_Z   2
loop_
 _symmetry_equiv_pos_site_id
 _symmetry_equiv_pos_as_xyz
  1  'x, y, z'
loop_
 _atom_site_type_symbol
 _atom_site_label
 _atom_site_symmetry_multiplicity
 _atom_site_fract_x
 _atom_site_fract_y
 _atom_site_fract_z
 _atom_site_occupancy
  Li  Li0  1  0.333342  0.304696  0.568086  1
  Li  Li1  1  0.666658  0.304696  0.068086  1
  Li  Li2  1  0.160319  0.047658  0.322406  1
  Li  Li3  1  0.839681  0.047658  0.822406  1
  Be  Be4  1  0.178722  0.553166  0.820501  1
  Be  Be5  1  0.821278  0.553166  0.320501  1
  Sn  Sn6  1  0.324114  0.801115  0.072874  1
  Sn  Sn7  1  0.675886  0.801115  0.572874  1
  Se  Se8  1  0.310643  0.214556  0.052283  1
  Se  Se9  1  0.689357  0.214556  0.552283  1
  Se  Se10  1  0.868985  0.433780  0.823858  1
  Se  Se11  1  0.131015  0.433780  0.323858  1
  Se  Se12  1  0.317881  0.665909  0.593051  1
  Se  Se13  1  0.682119  0.665909  0.093051  1
  Se  Se14  1  0.179239  0.899421  0.817140  1
  Se  Se15  1  0.820761  0.899421  0.317140  1
