# generated using pymatgen
data_KRb3Nb11Al2O20F
_symmetry_space_group_name_H-M   'P 1'
_cell_length_a   8.99270417
_cell_length_b   8.99270433
_cell_length_c   8.99270400
_cell_angle_alpha   120.62409008
_cell_angle_beta   120.62409069
_cell_angle_gamma   88.92239915
_symmetry_Int_Tables_number   1
_chemical_formula_structural   KRb3Nb11Al2O20F
_chemical_formula_sum   'K1 Rb3 Nb11 Al2 O20 F1'
_cell_volume   509.27977761
_cell_formula_units_Z   1
loop_
 _symmetry_equiv_pos_site_id
 _symmetry_equiv_pos_as_xyz
  1  'x, y, z'
loop_
 _atom_site_type_symbol
 _atom_site_label
 _atom_site_symmetry_multiplicity
 _atom_site_fract_x
 _atom_site_fract_y
 _atom_site_fract_z
 _atom_site_occupancy
  K  K0  1  0.193239  0.500000  0.693239  1
  Rb  Rb1  1  0.811394  0.500000  0.311394  1
  Rb  Rb2  1  0.499847  0.189586  0.689434  1
  Rb  Rb3  1  0.499847  0.810414  0.310261  1
  Nb  Nb4  1  0.998678  0.676047  0.999734  1
  Nb  Nb5  1  0.676150  0.998543  0.000020  1
  Nb  Nb6  1  0.676150  0.676130  0.677607  1
  Nb  Nb7  1  0.001477  0.001457  0.677607  1
  Nb  Nb8  1  0.998678  0.998944  0.322631  1
  Nb  Nb9  1  0.323687  0.323953  0.322631  1
  Nb  Nb10  1  0.323687  0.001056  0.999734  1
  Nb  Nb11  1  0.000123  0.000000  0.000123  1
  Nb  Nb12  1  0.684911  0.685139  0.999772  1
  Nb  Nb13  1  0.314633  0.314861  0.999772  1
  Nb  Nb14  1  0.001477  0.323870  0.000020  1
  Al  Al15  1  0.750407  0.250197  0.500210  1
  Al  Al16  1  0.250012  0.749803  0.500210  1
  O  O17  1  0.158704  0.489589  0.998906  1
  O  O18  1  0.841123  0.510292  0.999903  1
  O  O19  1  0.166987  0.827981  0.661471  1
  O  O20  1  0.166987  0.505516  0.339006  1
  O  O21  1  0.158704  0.159798  0.669115  1
  O  O22  1  0.509317  0.510411  0.669115  1
  O  O23  1  0.831130  0.831227  0.662356  1
  O  O24  1  0.168851  0.829859  0.998709  1
  O  O25  1  0.509317  0.840202  0.998906  1
  O  O26  1  0.831130  0.168773  0.999903  1
  O  O27  1  0.489610  0.158780  0.999903  1
  O  O28  1  0.168851  0.170141  0.338993  1
  O  O29  1  0.833490  0.494484  0.661471  1
  O  O30  1  0.489610  0.489708  0.330831  1
  O  O31  1  0.841123  0.841220  0.330831  1
  O  O32  1  0.505831  0.167336  0.338494  1
  O  O33  1  0.833490  0.172019  0.339006  1
  O  O34  1  0.828915  0.167240  0.661675  1
  O  O35  1  0.494435  0.832760  0.661675  1
  O  O36  1  0.171158  0.832664  0.338494  1
  F  F37  1  0.496839  0.500000  0.996839  1
