# generated using pymatgen
data_V6Si6BW4
_symmetry_space_group_name_H-M   'P 1'
_cell_length_a   7.25797379
_cell_length_b   7.26169054
_cell_length_c   4.87342602
_cell_angle_alpha   89.85344077
_cell_angle_beta   90.07331619
_cell_angle_gamma   120.01694346
_symmetry_Int_Tables_number   1
_chemical_formula_structural   V6Si6BW4
_chemical_formula_sum   'V6 Si6 B1 W4'
_cell_volume   222.40397638
_cell_formula_units_Z   1
loop_
 _symmetry_equiv_pos_site_id
 _symmetry_equiv_pos_as_xyz
  1  'x, y, z'
loop_
 _atom_site_type_symbol
 _atom_site_label
 _atom_site_symmetry_multiplicity
 _atom_site_fract_x
 _atom_site_fract_y
 _atom_site_fract_z
 _atom_site_occupancy
  V  V0  1  0.752522  0.753398  0.754469  1
  V  V1  1  0.247478  0.000876  0.754469  1
  V  V2  1  0.333034  0.667146  0.502131  1
  V  V3  1  0.666966  0.334111  0.502131  1
  V  V4  1  0.667249  0.333238  0.996967  1
  V  V5  1  0.332751  0.665990  0.996967  1
  Si  Si6  1  0.000000  0.402891  0.250776  1
  Si  Si7  1  0.598733  0.598987  0.247620  1
  Si  Si8  1  0.401267  0.000254  0.247620  1
  Si  Si9  1  0.000000  0.603943  0.748679  1
  Si  Si10  1  0.405656  0.402905  0.749382  1
  Si  Si11  1  0.594344  0.997249  0.749382  1
  B  B12  1  0.000000  0.995474  0.508853  1
  W  W13  1  0.000000  0.753150  0.244940  1
  W  W14  1  0.247290  0.245893  0.245249  1
  W  W15  1  0.752710  0.998603  0.245249  1
  W  W16  1  0.000000  0.245889  0.755116  1
