# generated using pymatgen
data_Hf2Nb4Al16Ir7
_symmetry_space_group_name_H-M   'P 1'
_cell_length_a   8.62404169
_cell_length_b   8.62404176
_cell_length_c   8.66934200
_cell_angle_alpha   59.82608659
_cell_angle_beta   59.82608632
_cell_angle_gamma   60.34782673
_symmetry_Int_Tables_number   1
_chemical_formula_structural   Hf2Nb4Al16Ir7
_chemical_formula_sum   'Hf2 Nb4 Al16 Ir7'
_cell_volume   455.89910681
_cell_formula_units_Z   1
loop_
 _symmetry_equiv_pos_site_id
 _symmetry_equiv_pos_as_xyz
  1  'x, y, z'
loop_
 _atom_site_type_symbol
 _atom_site_label
 _atom_site_symmetry_multiplicity
 _atom_site_fract_x
 _atom_site_fract_y
 _atom_site_fract_z
 _atom_site_occupancy
  Hf  Hf0  1  0.318854  0.318854  0.681146  1
  Hf  Hf1  1  0.681146  0.681146  0.318854  1
  Nb  Nb2  1  0.683184  0.316816  0.316816  1
  Nb  Nb3  1  0.316816  0.683184  0.683184  1
  Nb  Nb4  1  0.316816  0.683184  0.316816  1
  Nb  Nb5  1  0.683184  0.316816  0.683184  1
  Al  Al6  1  0.339267  0.339267  0.336336  1
  Al  Al7  1  0.660733  0.660733  0.663664  1
  Al  Al8  1  0.339267  0.339267  0.985130  1
  Al  Al9  1  0.336336  0.985130  0.339267  1
  Al  Al10  1  0.660733  0.660733  0.014870  1
  Al  Al11  1  0.663664  0.014870  0.660733  1
  Al  Al12  1  0.985130  0.336336  0.339267  1
  Al  Al13  1  0.014870  0.663664  0.660733  1
  Al  Al14  1  0.118903  0.118903  0.121633  1
  Al  Al15  1  0.881097  0.881097  0.878367  1
  Al  Al16  1  0.118903  0.118903  0.640561  1
  Al  Al17  1  0.121633  0.640561  0.118903  1
  Al  Al18  1  0.881097  0.881097  0.359439  1
  Al  Al19  1  0.878367  0.359439  0.881097  1
  Al  Al20  1  0.640561  0.121633  0.118903  1
  Al  Al21  1  0.359439  0.878367  0.881097  1
  Ir  Ir22  1  0.500000  0.000000  0.000000  1
  Ir  Ir23  1  0.000000  0.500000  0.500000  1
  Ir  Ir24  1  0.000000  0.500000  0.000000  1
  Ir  Ir25  1  0.500000  0.000000  0.500000  1
  Ir  Ir26  1  0.000000  0.000000  0.500000  1
  Ir  Ir27  1  0.500000  0.500000  0.000000  1
  Ir  Ir28  1  0.000000  0.000000  0.000000  1
