# generated using pymatgen
data_Dy7HoReTc3C8
_symmetry_space_group_name_H-M   'P 1'
_cell_length_a   5.10262600
_cell_length_b   6.57299616
_cell_length_c   9.87924932
_cell_angle_alpha   89.99796336
_cell_angle_beta   90.00000000
_cell_angle_gamma   90.00000000
_symmetry_Int_Tables_number   1
_chemical_formula_structural   Dy7HoReTc3C8
_chemical_formula_sum   'Dy7 Ho1 Re1 Tc3 C8'
_cell_volume   331.34548835
_cell_formula_units_Z   1
loop_
 _symmetry_equiv_pos_site_id
 _symmetry_equiv_pos_as_xyz
  1  'x, y, z'
loop_
 _atom_site_type_symbol
 _atom_site_label
 _atom_site_symmetry_multiplicity
 _atom_site_fract_x
 _atom_site_fract_y
 _atom_site_fract_z
 _atom_site_occupancy
  Dy  Dy0  1  0.250000  0.465911  0.784186  1
  Dy  Dy1  1  0.750000  0.032955  0.283897  1
  Dy  Dy2  1  0.250000  0.966717  0.715690  1
  Dy  Dy3  1  0.750000  0.532626  0.215067  1
  Dy  Dy4  1  0.250000  0.822467  0.056776  1
  Dy  Dy5  1  0.750000  0.676842  0.556874  1
  Dy  Dy6  1  0.250000  0.322704  0.442430  1
  Ho  Ho7  1  0.750000  0.177691  0.942256  1
  Re  Re8  1  0.750000  0.718895  0.866232  1
  Tc  Tc9  1  0.250000  0.281317  0.133792  1
  Tc  Tc10  1  0.750000  0.219277  0.634635  1
  Tc  Tc11  1  0.250000  0.781554  0.365371  1
  C  C12  1  0.250000  0.177669  0.951549  1
  C  C13  1  0.750000  0.822238  0.049301  1
  C  C14  1  0.250000  0.678634  0.547717  1
  C  C15  1  0.750000  0.321323  0.452330  1
  C  C16  1  0.250000  0.048398  0.258030  1
  C  C17  1  0.750000  0.452673  0.760268  1
  C  C18  1  0.250000  0.548578  0.241193  1
  C  C19  1  0.750000  0.951528  0.742410  1
