# generated using pymatgen
data_ErTmWO6
_symmetry_space_group_name_H-M   'P 1'
_cell_length_a   5.35277500
_cell_length_b   7.64529951
_cell_length_c   11.37863188
_cell_angle_alpha   75.33452961
_cell_angle_beta   90.00000000
_cell_angle_gamma   90.00000000
_symmetry_Int_Tables_number   1
_chemical_formula_structural   ErTmWO6
_chemical_formula_sum   'Er4 Tm4 W4 O24'
_cell_volume   450.48343739
_cell_formula_units_Z   4
loop_
 _symmetry_equiv_pos_site_id
 _symmetry_equiv_pos_as_xyz
  1  'x, y, z'
loop_
 _atom_site_type_symbol
 _atom_site_label
 _atom_site_symmetry_multiplicity
 _atom_site_fract_x
 _atom_site_fract_y
 _atom_site_fract_z
 _atom_site_occupancy
  Er  Er0  1  0.739422  0.000000  0.750000  1
  Er  Er1  1  0.260578  0.000000  0.250000  1
  Er  Er2  1  0.684114  0.500000  0.750000  1
  Er  Er3  1  0.315886  0.500000  0.250000  1
  Tm  Tm4  1  0.185310  0.795535  0.578568  1
  Tm  Tm5  1  0.814690  0.795535  0.078568  1
  Tm  Tm6  1  0.185310  0.204465  0.921432  1
  Tm  Tm7  1  0.814690  0.204465  0.421432  1
  W  W8  1  0.254780  0.722504  0.886109  1
  W  W9  1  0.745220  0.722504  0.386109  1
  W  W10  1  0.254780  0.277496  0.613891  1
  W  W11  1  0.745220  0.277496  0.113891  1
  O  O12  1  0.041445  0.940460  0.896015  1
  O  O13  1  0.533526  0.848536  0.931480  1
  O  O14  1  0.958555  0.940460  0.396015  1
  O  O15  1  0.460100  0.790022  0.726575  1
  O  O16  1  0.466474  0.848536  0.431480  1
  O  O17  1  0.981236  0.710522  0.770476  1
  O  O18  1  0.539900  0.790022  0.226575  1
  O  O19  1  0.852913  0.633940  0.549816  1
  O  O20  1  0.362195  0.487504  0.886837  1
  O  O21  1  0.018764  0.710522  0.270476  1
  O  O22  1  0.362195  0.512496  0.613163  1
  O  O23  1  0.852913  0.366060  0.950184  1
  O  O24  1  0.147087  0.633940  0.049816  1
  O  O25  1  0.637805  0.487504  0.386837  1
  O  O26  1  0.981236  0.289478  0.729524  1
  O  O27  1  0.637805  0.512496  0.113163  1
  O  O28  1  0.147087  0.366060  0.450184  1
  O  O29  1  0.460100  0.209978  0.773425  1
  O  O30  1  0.018764  0.289478  0.229524  1
  O  O31  1  0.533526  0.151464  0.568520  1
  O  O32  1  0.539900  0.209978  0.273425  1
  O  O33  1  0.041445  0.059540  0.603985  1
  O  O34  1  0.466474  0.151464  0.068520  1
  O  O35  1  0.958555  0.059540  0.103985  1
