# generated using pymatgen
data_Sm5Sn2BiSe
_symmetry_space_group_name_H-M   'P 1'
_cell_length_a   9.36929021
_cell_length_b   9.38941036
_cell_length_c   6.83616400
_cell_angle_alpha   90.00000000
_cell_angle_beta   90.00000000
_cell_angle_gamma   120.07106436
_symmetry_Int_Tables_number   1
_chemical_formula_structural   Sm5Sn2BiSe
_chemical_formula_sum   'Sm10 Sn4 Bi2 Se2'
_cell_volume   520.44719897
_cell_formula_units_Z   2
loop_
 _symmetry_equiv_pos_site_id
 _symmetry_equiv_pos_as_xyz
  1  'x, y, z'
loop_
 _atom_site_type_symbol
 _atom_site_label
 _atom_site_symmetry_multiplicity
 _atom_site_fract_x
 _atom_site_fract_y
 _atom_site_fract_z
 _atom_site_occupancy
  Sm  Sm0  1  0.670031  0.335875  0.003121  1
  Sm  Sm1  1  0.329969  0.665845  0.003121  1
  Sm  Sm2  1  0.329969  0.665845  0.496879  1
  Sm  Sm3  1  0.670031  0.335875  0.496879  1
  Sm  Sm4  1  0.750619  0.746362  0.750000  1
  Sm  Sm5  1  0.249381  0.995744  0.750000  1
  Sm  Sm6  1  0.000000  0.254275  0.750000  1
  Sm  Sm7  1  0.252817  0.252260  0.250000  1
  Sm  Sm8  1  0.747183  0.999444  0.250000  1
  Sm  Sm9  1  0.000000  0.746367  0.250000  1
  Sn  Sn10  1  0.000000  0.604557  0.750000  1
  Sn  Sn11  1  0.605592  0.606019  0.250000  1
  Sn  Sn12  1  0.394408  0.000428  0.250000  1
  Sn  Sn13  1  0.000000  0.394624  0.250000  1
  Bi  Bi14  1  0.394470  0.394609  0.750000  1
  Bi  Bi15  1  0.605530  0.000139  0.750000  1
  Se  Se16  1  0.000000  0.000866  0.999580  1
  Se  Se17  1  0.000000  0.000866  0.500420  1
