# generated using pymatgen
data_Dy3Hg5
_symmetry_space_group_name_H-M   'P 1'
_cell_length_a   6.38494899
_cell_length_b   6.38494854
_cell_length_c   10.17022400
_cell_angle_alpha   90.00000000
_cell_angle_beta   90.00000000
_cell_angle_gamma   105.08138938
_symmetry_Int_Tables_number   1
_chemical_formula_structural   Dy3Hg5
_chemical_formula_sum   'Dy6 Hg10'
_cell_volume   400.33481183
_cell_formula_units_Z   2
loop_
 _symmetry_equiv_pos_site_id
 _symmetry_equiv_pos_as_xyz
  1  'x, y, z'
loop_
 _atom_site_type_symbol
 _atom_site_label
 _atom_site_symmetry_multiplicity
 _atom_site_fract_x
 _atom_site_fract_y
 _atom_site_fract_z
 _atom_site_occupancy
  Dy  Dy0  1  0.787043  0.212957  0.000000  1
  Dy  Dy1  1  0.212957  0.787043  0.000000  1
  Dy  Dy2  1  0.212957  0.787043  0.500000  1
  Dy  Dy3  1  0.787043  0.212957  0.500000  1
  Dy  Dy4  1  0.571146  0.571146  0.250000  1
  Dy  Dy5  1  0.428854  0.428854  0.750000  1
  Hg  Hg6  1  0.037334  0.477892  0.250000  1
  Hg  Hg7  1  0.962666  0.522108  0.750000  1
  Hg  Hg8  1  0.477892  0.037334  0.250000  1
  Hg  Hg9  1  0.522108  0.962666  0.750000  1
  Hg  Hg10  1  0.970234  0.970234  0.250000  1
  Hg  Hg11  1  0.029766  0.029766  0.750000  1
  Hg  Hg12  1  0.292549  0.292549  0.031162  1
  Hg  Hg13  1  0.707451  0.707451  0.968838  1
  Hg  Hg14  1  0.707451  0.707451  0.531162  1
  Hg  Hg15  1  0.292549  0.292549  0.468838  1
