# generated using pymatgen
data_KZr5TiBBr14
_symmetry_space_group_name_H-M   'P 1'
_cell_length_a   10.30631418
_cell_length_b   10.30631402
_cell_length_c   12.21277102
_cell_angle_alpha   89.20928480
_cell_angle_beta   89.20928549
_cell_angle_gamma   93.62697701
_symmetry_Int_Tables_number   1
_chemical_formula_structural   KZr5TiBBr14
_chemical_formula_sum   'K2 Zr10 Ti2 B2 Br28'
_cell_volume   1294.38034466
_cell_formula_units_Z   2
loop_
 _symmetry_equiv_pos_site_id
 _symmetry_equiv_pos_as_xyz
  1  'x, y, z'
loop_
 _atom_site_type_symbol
 _atom_site_label
 _atom_site_symmetry_multiplicity
 _atom_site_fract_x
 _atom_site_fract_y
 _atom_site_fract_z
 _atom_site_occupancy
  K  K0  1  0.500000  0.500000  0.000000  1
  K  K1  1  0.000000  0.000000  0.500000  1
  Zr  Zr2  1  0.138073  0.138073  0.896470  1
  Zr  Zr3  1  0.861927  0.861927  0.103530  1
  Zr  Zr4  1  0.951481  0.175186  0.114209  1
  Zr  Zr5  1  0.048519  0.824814  0.885791  1
  Zr  Zr6  1  0.546197  0.322489  0.614893  1
  Zr  Zr7  1  0.677511  0.453803  0.385107  1
  Zr  Zr8  1  0.453803  0.677511  0.385107  1
  Zr  Zr9  1  0.322489  0.546197  0.614893  1
  Zr  Zr10  1  0.824814  0.048519  0.885791  1
  Zr  Zr11  1  0.175186  0.951481  0.114209  1
  Ti  Ti12  1  0.373544  0.373544  0.404913  1
  Ti  Ti13  1  0.626456  0.626456  0.595087  1
  B  B14  1  0.000000  0.000000  0.000000  1
  B  B15  1  0.500000  0.500000  0.500000  1
  Br  Br16  1  0.109005  0.357977  0.007821  1
  Br  Br17  1  0.890995  0.642023  0.992179  1
  Br  Br18  1  0.390320  0.152970  0.503425  1
  Br  Br19  1  0.847030  0.609680  0.496575  1
  Br  Br20  1  0.609680  0.847030  0.496575  1
  Br  Br21  1  0.152970  0.390320  0.503425  1
  Br  Br22  1  0.642023  0.890995  0.992179  1
  Br  Br23  1  0.357977  0.109005  0.007821  1
  Br  Br24  1  0.747377  0.252623  0.000000  1
  Br  Br25  1  0.252623  0.747377  0.000000  1
  Br  Br26  1  0.751602  0.248398  0.500000  1
  Br  Br27  1  0.248398  0.751602  0.500000  1
  Br  Br28  1  0.893846  0.395662  0.249730  1
  Br  Br29  1  0.106154  0.604338  0.750270  1
  Br  Br30  1  0.604338  0.106154  0.750270  1
  Br  Br31  1  0.395662  0.893846  0.249730  1
  Br  Br32  1  0.145831  0.145831  0.262048  1
  Br  Br33  1  0.854169  0.854169  0.737952  1
  Br  Br34  1  0.346814  0.346814  0.765277  1
  Br  Br35  1  0.653186  0.653186  0.234723  1
  Br  Br36  1  0.294834  0.529867  0.256548  1
  Br  Br37  1  0.705166  0.470133  0.743452  1
  Br  Br38  1  0.214033  0.965556  0.748254  1
  Br  Br39  1  0.034444  0.785967  0.251746  1
  Br  Br40  1  0.785967  0.034444  0.251746  1
  Br  Br41  1  0.965556  0.214033  0.748254  1
  Br  Br42  1  0.470133  0.705166  0.743452  1
  Br  Br43  1  0.529867  0.294834  0.256548  1
