# generated using pymatgen
data_Ho6Er10Cd3AgIr4
_symmetry_space_group_name_H-M   'P 1'
_cell_length_a   9.57204610
_cell_length_b   9.57204698
_cell_length_c   9.57204620
_cell_angle_alpha   59.73758250
_cell_angle_beta   59.73757572
_cell_angle_gamma   59.73757734
_symmetry_Int_Tables_number   1
_chemical_formula_structural   Ho6Er10Cd3AgIr4
_chemical_formula_sum   'Ho6 Er10 Cd3 Ag1 Ir4'
_cell_volume   616.45797128
_cell_formula_units_Z   1
loop_
 _symmetry_equiv_pos_site_id
 _symmetry_equiv_pos_as_xyz
  1  'x, y, z'
loop_
 _atom_site_type_symbol
 _atom_site_label
 _atom_site_symmetry_multiplicity
 _atom_site_fract_x
 _atom_site_fract_y
 _atom_site_fract_z
 _atom_site_occupancy
  Ho  Ho0  1  0.186792  0.811474  0.811474  1
  Ho  Ho1  1  0.811731  0.187230  0.187230  1
  Ho  Ho2  1  0.811474  0.186792  0.811474  1
  Ho  Ho3  1  0.187230  0.811731  0.187230  1
  Ho  Ho4  1  0.811474  0.811474  0.186792  1
  Ho  Ho5  1  0.187230  0.187230  0.811731  1
  Er  Er6  1  0.598955  0.598955  0.598955  1
  Er  Er7  1  0.600193  0.600193  0.202040  1
  Er  Er8  1  0.600193  0.202040  0.600193  1
  Er  Er9  1  0.202040  0.600193  0.600193  1
  Er  Er10  1  0.060022  0.439127  0.439127  1
  Er  Er11  1  0.437546  0.060286  0.060286  1
  Er  Er12  1  0.439127  0.060022  0.439127  1
  Er  Er13  1  0.060286  0.437546  0.060286  1
  Er  Er14  1  0.439127  0.439127  0.060022  1
  Er  Er15  1  0.060286  0.060286  0.437546  1
  Cd  Cd16  1  0.831319  0.831319  0.508204  1
  Cd  Cd17  1  0.831319  0.508204  0.831319  1
  Cd  Cd18  1  0.508204  0.831319  0.831319  1
  Ag  Ag19  1  0.832806  0.832806  0.832806  1
  Ir  Ir20  1  0.391953  0.391953  0.391953  1
  Ir  Ir21  1  0.392747  0.392747  0.825199  1
  Ir  Ir22  1  0.392747  0.825199  0.392747  1
  Ir  Ir23  1  0.825199  0.392747  0.392747  1
