# generated using pymatgen
data_PrHoAlZnPt2
_symmetry_space_group_name_H-M   'P 1'
_cell_length_a   4.37449800
_cell_length_b   6.98961200
_cell_length_c   8.03613600
_cell_angle_alpha   90.00000000
_cell_angle_beta   90.00000000
_cell_angle_gamma   90.00000000
_symmetry_Int_Tables_number   1
_chemical_formula_structural   PrHoAlZnPt2
_chemical_formula_sum   'Pr2 Ho2 Al2 Zn2 Pt4'
_cell_volume   245.71324563
_cell_formula_units_Z   2
loop_
 _symmetry_equiv_pos_site_id
 _symmetry_equiv_pos_as_xyz
  1  'x, y, z'
loop_
 _atom_site_type_symbol
 _atom_site_label
 _atom_site_symmetry_multiplicity
 _atom_site_fract_x
 _atom_site_fract_y
 _atom_site_fract_z
 _atom_site_occupancy
  Pr  Pr0  1  0.750000  0.968138  0.320260  1
  Pr  Pr1  1  0.750000  0.468138  0.179740  1
  Ho  Ho2  1  0.250000  0.029333  0.690603  1
  Ho  Ho3  1  0.250000  0.529333  0.809397  1
  Al  Al4  1  0.750000  0.859585  0.934431  1
  Al  Al5  1  0.750000  0.359585  0.565569  1
  Zn  Zn6  1  0.250000  0.149674  0.062696  1
  Zn  Zn7  1  0.250000  0.649674  0.437304  1
  Pt  Pt8  1  0.250000  0.264701  0.401993  1
  Pt  Pt9  1  0.250000  0.764701  0.098007  1
  Pt  Pt10  1  0.750000  0.728570  0.631574  1
  Pt  Pt11  1  0.750000  0.228570  0.868426  1
