# generated using pymatgen
data_Cs3Rb(Al3Se5)4
_symmetry_space_group_name_H-M   'P 1'
_cell_length_a   13.53576397
_cell_length_b   7.60631213
_cell_length_c   11.23541000
_cell_angle_alpha   76.57018494
_cell_angle_beta   90.36917227
_cell_angle_gamma   89.79645486
_symmetry_Int_Tables_number   1
_chemical_formula_structural   Cs3Rb(Al3Se5)4
_chemical_formula_sum   'Cs3 Rb1 Al12 Se20'
_cell_volume   1125.09673919
_cell_formula_units_Z   1
loop_
 _symmetry_equiv_pos_site_id
 _symmetry_equiv_pos_as_xyz
  1  'x, y, z'
loop_
 _atom_site_type_symbol
 _atom_site_label
 _atom_site_symmetry_multiplicity
 _atom_site_fract_x
 _atom_site_fract_y
 _atom_site_fract_z
 _atom_site_occupancy
  Cs  Cs0  1  0.111535  0.169705  0.102675  1
  Cs  Cs1  1  0.391348  0.162588  0.598487  1
  Cs  Cs2  1  0.886897  0.834908  0.896673  1
  Rb  Rb3  1  0.626189  0.840721  0.373273  1
  Al  Al4  1  0.923010  0.795125  0.401620  1
  Al  Al5  1  0.573794  0.796025  0.903493  1
  Al  Al6  1  0.425964  0.200367  0.099422  1
  Al  Al7  1  0.397612  0.560406  0.810322  1
  Al  Al8  1  0.100916  0.565198  0.309389  1
  Al  Al9  1  0.338925  0.707256  0.127094  1
  Al  Al10  1  0.600092  0.436151  0.193721  1
  Al  Al11  1  0.075111  0.206029  0.598071  1
  Al  Al12  1  0.662208  0.293543  0.876852  1
  Al  Al13  1  0.896115  0.438032  0.689852  1
  Al  Al14  1  0.161223  0.709864  0.625999  1
  Al  Al15  1  0.836640  0.291565  0.375563  1
  Se  Se16  1  0.828792  0.715909  0.582637  1
  Se  Se17  1  0.103680  0.814027  0.413549  1
  Se  Se18  1  0.666160  0.713839  0.087403  1
  Se  Se19  1  0.392458  0.810348  0.914079  1
  Se  Se20  1  0.334369  0.279166  0.915200  1
  Se  Se21  1  0.663868  0.345452  0.397388  1
  Se  Se22  1  0.577735  0.574961  0.770430  1
  Se  Se23  1  0.607364  0.188778  0.088694  1
  Se  Se24  1  0.893918  0.186340  0.587298  1
  Se  Se25  1  0.633370  0.063292  0.767680  1
  Se  Se26  1  0.375424  0.930060  0.239991  1
  Se  Se27  1  0.165557  0.284197  0.414087  1
  Se  Se28  1  0.076814  0.428794  0.729728  1
  Se  Se29  1  0.920076  0.573327  0.269237  1
  Se  Se30  1  0.864946  0.064158  0.263620  1
  Se  Se31  1  0.133468  0.938733  0.736351  1
  Se  Se32  1  0.835820  0.346567  0.894570  1
  Se  Se33  1  0.333553  0.652257  0.606765  1
  Se  Se34  1  0.420271  0.422034  0.231945  1
  Se  Se35  1  0.164777  0.660278  0.106839  1
