# generated using pymatgen
data_Tb2Mn2Ni7P7Ir3
_symmetry_space_group_name_H-M   'P 1'
_cell_length_a   9.19167059
_cell_length_b   9.19633914
_cell_length_c   3.80527700
_cell_angle_alpha   90.00000000
_cell_angle_beta   90.00000000
_cell_angle_gamma   119.78608501
_symmetry_Int_Tables_number   1
_chemical_formula_structural   Tb2Mn2Ni7P7Ir3
_chemical_formula_sum   'Tb2 Mn2 Ni7 P7 Ir3'
_cell_volume   279.16338209
_cell_formula_units_Z   1
loop_
 _symmetry_equiv_pos_site_id
 _symmetry_equiv_pos_as_xyz
  1  'x, y, z'
loop_
 _atom_site_type_symbol
 _atom_site_label
 _atom_site_symmetry_multiplicity
 _atom_site_fract_x
 _atom_site_fract_y
 _atom_site_fract_z
 _atom_site_occupancy
  Tb  Tb0  1  0.664191  0.332521  0.000000  1
  Tb  Tb1  1  0.332725  0.666501  0.500000  1
  Mn  Mn2  1  0.083168  0.877716  0.500000  1
  Mn  Mn3  1  0.798636  0.918888  0.500000  1
  Ni  Ni4  1  0.062341  0.631692  0.000000  1
  Ni  Ni5  1  0.567999  0.937205  0.000000  1
  Ni  Ni6  1  0.370751  0.433504  0.000000  1
  Ni  Ni7  1  0.273574  0.118944  0.000000  1
  Ni  Ni8  1  0.843753  0.723916  0.000000  1
  Ni  Ni9  1  0.880758  0.156493  0.000000  1
  Ni  Ni10  1  0.122163  0.201103  0.500000  1
  P  P11  1  0.291815  0.881559  0.000000  1
  P  P12  1  0.589530  0.708490  0.000000  1
  P  P13  1  0.119772  0.411011  0.000000  1
  P  P14  1  0.396895  0.289861  0.500000  1
  P  P15  1  0.890383  0.599839  0.500000  1
  P  P16  1  0.710392  0.110163  0.500000  1
  P  P17  1  0.998998  0.999764  0.000000  1
  Ir  Ir18  1  0.429885  0.045516  0.500000  1
  Ir  Ir19  1  0.614716  0.570058  0.500000  1
  Ir  Ir20  1  0.957556  0.385255  0.500000  1
