# generated using pymatgen
data_Dy3Y3(Lu7Sb6)2
_symmetry_space_group_name_H-M   'P 1'
_cell_length_a   8.05586829
_cell_length_b   9.14557000
_cell_length_c   11.69548400
_cell_angle_alpha   90.00000000
_cell_angle_beta   89.98453785
_cell_angle_gamma   90.00000000
_symmetry_Int_Tables_number   1
_chemical_formula_structural   Dy3Y3(Lu7Sb6)2
_chemical_formula_sum   'Dy3 Y3 Lu14 Sb12'
_cell_volume   861.67068647
_cell_formula_units_Z   1
loop_
 _symmetry_equiv_pos_site_id
 _symmetry_equiv_pos_as_xyz
  1  'x, y, z'
loop_
 _atom_site_type_symbol
 _atom_site_label
 _atom_site_symmetry_multiplicity
 _atom_site_fract_x
 _atom_site_fract_y
 _atom_site_fract_z
 _atom_site_occupancy
  Dy  Dy0  1  0.675317  0.750000  0.271986  1
  Dy  Dy1  1  0.841134  0.250000  0.790580  1
  Dy  Dy2  1  0.324392  0.250000  0.728943  1
  Y  Y3  1  0.825694  0.750000  0.771155  1
  Y  Y4  1  0.657504  0.250000  0.290388  1
  Y  Y5  1  0.174385  0.250000  0.229308  1
  Lu  Lu6  1  0.309602  0.561607  0.433972  1
  Lu  Lu7  1  0.190600  0.938373  0.934014  1
  Lu  Lu8  1  0.309602  0.938393  0.433972  1
  Lu  Lu9  1  0.690381  0.438716  0.565297  1
  Lu  Lu10  1  0.809754  0.438642  0.065478  1
  Lu  Lu11  1  0.975555  0.750000  0.495000  1
  Lu  Lu12  1  0.160232  0.750000  0.209684  1
  Lu  Lu13  1  0.475351  0.250000  0.004300  1
  Lu  Lu14  1  0.809754  0.061358  0.065478  1
  Lu  Lu15  1  0.190600  0.561627  0.934014  1
  Lu  Lu16  1  0.024893  0.250000  0.504215  1
  Lu  Lu17  1  0.340042  0.750000  0.709765  1
  Lu  Lu18  1  0.690381  0.061284  0.565297  1
  Lu  Lu19  1  0.524511  0.750000  0.995335  1
  Sb  Sb20  1  0.099050  0.250000  0.974680  1
  Sb  Sb21  1  0.937457  0.492103  0.326583  1
  Sb  Sb22  1  0.435234  0.990381  0.172749  1
  Sb  Sb23  1  0.064577  0.990242  0.672683  1
  Sb  Sb24  1  0.435234  0.509619  0.172749  1
  Sb  Sb25  1  0.597070  0.750000  0.527695  1
  Sb  Sb26  1  0.401016  0.250000  0.474535  1
  Sb  Sb27  1  0.562801  0.492268  0.826636  1
  Sb  Sb28  1  0.064577  0.509758  0.672683  1
  Sb  Sb29  1  0.903041  0.750000  0.027608  1
  Sb  Sb30  1  0.562801  0.007732  0.826636  1
  Sb  Sb31  1  0.937457  0.007897  0.326583  1
