# generated using pymatgen
data_La2InGa7Co2
_symmetry_space_group_name_H-M   'P 1'
_cell_length_a   8.33694918
_cell_length_b   8.33694831
_cell_length_c   6.55602068
_cell_angle_alpha   89.45337260
_cell_angle_beta   90.54662666
_cell_angle_gamma   149.97900595
_symmetry_Int_Tables_number   1
_chemical_formula_structural   La2InGa7Co2
_chemical_formula_sum   'La2 In1 Ga7 Co2'
_cell_volume   227.97063232
_cell_formula_units_Z   1
loop_
 _symmetry_equiv_pos_site_id
 _symmetry_equiv_pos_as_xyz
  1  'x, y, z'
loop_
 _atom_site_type_symbol
 _atom_site_label
 _atom_site_symmetry_multiplicity
 _atom_site_fract_x
 _atom_site_fract_y
 _atom_site_fract_z
 _atom_site_occupancy
  La  La0  1  0.880088  0.119912  0.255723  1
  La  La1  1  0.119912  0.880088  0.744277  1
  In  In2  1  0.500000  0.500000  0.000000  1
  Ga  Ga3  1  0.307460  0.692540  0.948179  1
  Ga  Ga4  1  0.690502  0.309498  0.443161  1
  Ga  Ga5  1  0.078042  0.921958  0.258894  1
  Ga  Ga6  1  0.309498  0.690502  0.556839  1
  Ga  Ga7  1  0.921958  0.078042  0.741106  1
  Ga  Ga8  1  0.500000  0.500000  0.500000  1
  Ga  Ga9  1  0.692540  0.307460  0.051821  1
  Co  Co10  1  0.223086  0.776914  0.252311  1
  Co  Co11  1  0.776914  0.223086  0.747689  1
