# generated using pymatgen
data_Hf18ZnRe8Se
_symmetry_space_group_name_H-M   'P 1'
_cell_length_a   8.63485400
_cell_length_b   8.63485407
_cell_length_c   8.61472500
_cell_angle_alpha   90.00000000
_cell_angle_beta   90.00000000
_cell_angle_gamma   119.99999974
_symmetry_Int_Tables_number   1
_chemical_formula_structural   Hf18ZnRe8Se
_chemical_formula_sum   'Hf18 Zn1 Re8 Se1'
_cell_volume   556.26540621
_cell_formula_units_Z   1
loop_
 _symmetry_equiv_pos_site_id
 _symmetry_equiv_pos_as_xyz
  1  'x, y, z'
loop_
 _atom_site_type_symbol
 _atom_site_label
 _atom_site_symmetry_multiplicity
 _atom_site_fract_x
 _atom_site_fract_y
 _atom_site_fract_z
 _atom_site_occupancy
  Hf  Hf0  1  0.193079  0.806921  0.448716  1
  Hf  Hf1  1  0.193079  0.386157  0.448716  1
  Hf  Hf2  1  0.613843  0.806921  0.448716  1
  Hf  Hf3  1  0.807664  0.192336  0.548612  1
  Hf  Hf4  1  0.807664  0.615327  0.548612  1
  Hf  Hf5  1  0.384673  0.192336  0.548612  1
  Hf  Hf6  1  0.807664  0.192336  0.951388  1
  Hf  Hf7  1  0.807664  0.615327  0.951388  1
  Hf  Hf8  1  0.384673  0.192336  0.951388  1
  Hf  Hf9  1  0.193079  0.806921  0.051284  1
  Hf  Hf10  1  0.193079  0.386157  0.051284  1
  Hf  Hf11  1  0.613843  0.806921  0.051284  1
  Hf  Hf12  1  0.541844  0.458156  0.250000  1
  Hf  Hf13  1  0.541844  0.083688  0.250000  1
  Hf  Hf14  1  0.916312  0.458156  0.250000  1
  Hf  Hf15  1  0.455008  0.544992  0.750000  1
  Hf  Hf16  1  0.455008  0.910017  0.750000  1
  Hf  Hf17  1  0.089983  0.544992  0.750000  1
  Zn  Zn18  1  0.333333  0.666667  0.250000  1
  Re  Re19  1  0.890022  0.109978  0.250000  1
  Re  Re20  1  0.890022  0.780044  0.250000  1
  Re  Re21  1  0.219956  0.109978  0.250000  1
  Re  Re22  1  0.110055  0.889945  0.750000  1
  Re  Re23  1  0.110055  0.220111  0.750000  1
  Re  Re24  1  0.779889  0.889945  0.750000  1
  Re  Re25  1  0.000000  0.000000  0.500567  1
  Re  Re26  1  0.000000  0.000000  0.999433  1
  Se  Se27  1  0.666667  0.333333  0.750000  1
