# generated using pymatgen
data_Y3Lu5Re(B8Os)3
_symmetry_space_group_name_H-M   'P 1'
_cell_length_a   3.62381000
_cell_length_b   9.07158398
_cell_length_c   11.46447501
_cell_angle_alpha   90.08354824
_cell_angle_beta   90.00000000
_cell_angle_gamma   90.00000000
_symmetry_Int_Tables_number   1
_chemical_formula_structural   Y3Lu5Re(B8Os)3
_chemical_formula_sum   'Y3 Lu5 Re1 B24 Os3'
_cell_volume   376.87927437
_cell_formula_units_Z   1
loop_
 _symmetry_equiv_pos_site_id
 _symmetry_equiv_pos_as_xyz
  1  'x, y, z'
loop_
 _atom_site_type_symbol
 _atom_site_label
 _atom_site_symmetry_multiplicity
 _atom_site_fract_x
 _atom_site_fract_y
 _atom_site_fract_z
 _atom_site_occupancy
  Y  Y0  1  0.000000  0.321498  0.414797  1
  Y  Y1  1  0.000000  0.680898  0.588091  1
  Y  Y2  1  0.000000  0.821464  0.083622  1
  Lu  Lu3  1  0.000000  0.177159  0.913129  1
  Lu  Lu4  1  0.000000  0.943853  0.371939  1
  Lu  Lu5  1  0.000000  0.055810  0.628011  1
  Lu  Lu6  1  0.000000  0.442752  0.126871  1
  Lu  Lu7  1  0.000000  0.556239  0.873065  1
  Re  Re8  1  0.000000  0.862926  0.820932  1
  B  B9  1  0.500000  0.554115  0.433028  1
  B  B10  1  0.500000  0.445746  0.567816  1
  B  B11  1  0.500000  0.054398  0.066477  1
  B  B12  1  0.500000  0.948207  0.933022  1
  B  B13  1  0.500000  0.750254  0.419017  1
  B  B14  1  0.500000  0.249952  0.581344  1
  B  B15  1  0.500000  0.249285  0.079619  1
  B  B16  1  0.500000  0.750382  0.918914  1
  B  B17  1  0.500000  0.791425  0.265562  1
  B  B18  1  0.500000  0.207875  0.734620  1
  B  B19  1  0.500000  0.291639  0.233438  1
  B  B20  1  0.500000  0.707953  0.766140  1
  B  B21  1  0.500000  0.629654  0.184407  1
  B  B22  1  0.500000  0.368532  0.815949  1
  B  B23  1  0.500000  0.130573  0.315204  1
  B  B24  1  0.500000  0.870525  0.685260  1
  B  B25  1  0.500000  0.982597  0.213044  1
  B  B26  1  0.500000  0.019927  0.787225  1
  B  B27  1  0.500000  0.481966  0.286622  1
  B  B28  1  0.500000  0.517349  0.714171  1
  B  B29  1  0.500000  0.601997  0.028769  1
  B  B30  1  0.500000  0.394269  0.971130  1
  B  B31  1  0.500000  0.103057  0.471384  1
  B  B32  1  0.500000  0.897927  0.527797  1
  Os  Os33  1  0.000000  0.638198  0.320193  1
  Os  Os34  1  0.000000  0.361128  0.680100  1
  Os  Os35  1  0.000000  0.138478  0.179289  1
