# generated using pymatgen
data_Th2Re3Si5
_symmetry_space_group_name_H-M   'P 1'
_cell_length_a   8.46726148
_cell_length_b   8.46726089
_cell_length_c   5.76794367
_cell_angle_alpha   70.06574229
_cell_angle_beta   70.06575158
_cell_angle_gamma   94.82215267
_symmetry_Int_Tables_number   1
_chemical_formula_structural   Th2Re3Si5
_chemical_formula_sum   'Th4 Re6 Si10'
_cell_volume   355.95001262
_cell_formula_units_Z   2
loop_
 _symmetry_equiv_pos_site_id
 _symmetry_equiv_pos_as_xyz
  1  'x, y, z'
loop_
 _atom_site_type_symbol
 _atom_site_label
 _atom_site_symmetry_multiplicity
 _atom_site_fract_x
 _atom_site_fract_y
 _atom_site_fract_z
 _atom_site_occupancy
  Th  Th0  1  0.866457  0.600405  0.766405  1
  Th  Th1  1  0.399595  0.133543  0.733595  1
  Th  Th2  1  0.133543  0.399595  0.233595  1
  Th  Th3  1  0.600405  0.866457  0.266405  1
  Re  Re4  1  0.255453  0.552781  0.596414  1
  Re  Re5  1  0.447219  0.744547  0.903586  1
  Re  Re6  1  0.744547  0.447219  0.403586  1
  Re  Re7  1  0.552781  0.255453  0.096414  1
  Re  Re8  1  0.999324  0.000676  0.750000  1
  Re  Re9  1  0.000676  0.999324  0.250000  1
  Si  Si10  1  0.067175  0.265983  0.834076  1
  Si  Si11  1  0.734017  0.932825  0.665924  1
  Si  Si12  1  0.932825  0.734017  0.165924  1
  Si  Si13  1  0.265983  0.067175  0.334076  1
  Si  Si14  1  0.208463  0.791537  0.750000  1
  Si  Si15  1  0.791537  0.208463  0.250000  1
  Si  Si16  1  0.500146  0.499854  0.750000  1
  Si  Si17  1  0.499854  0.500146  0.250000  1
  Si  Si18  1  0.791172  0.208828  0.750000  1
  Si  Si19  1  0.208828  0.791172  0.250000  1
