# generated using pymatgen
data_Nd3HoAu2
_symmetry_space_group_name_H-M   'P 1'
_cell_length_a   5.03294400
_cell_length_b   7.32218937
_cell_length_c   9.20866836
_cell_angle_alpha   89.96571205
_cell_angle_beta   90.00000000
_cell_angle_gamma   90.00000000
_symmetry_Int_Tables_number   1
_chemical_formula_structural   Nd3HoAu2
_chemical_formula_sum   'Nd6 Ho2 Au4'
_cell_volume   339.35934252
_cell_formula_units_Z   2
loop_
 _symmetry_equiv_pos_site_id
 _symmetry_equiv_pos_as_xyz
  1  'x, y, z'
loop_
 _atom_site_type_symbol
 _atom_site_label
 _atom_site_symmetry_multiplicity
 _atom_site_fract_x
 _atom_site_fract_y
 _atom_site_fract_z
 _atom_site_occupancy
  Nd  Nd0  1  0.250000  0.489177  0.175229  1
  Nd  Nd1  1  0.750000  0.510823  0.824771  1
  Nd  Nd2  1  0.250000  0.990516  0.322755  1
  Nd  Nd3  1  0.750000  0.009484  0.677245  1
  Nd  Nd4  1  0.750000  0.651027  0.412772  1
  Nd  Nd5  1  0.250000  0.348973  0.587228  1
  Ho  Ho6  1  0.750000  0.149251  0.078428  1
  Ho  Ho7  1  0.250000  0.850749  0.921572  1
  Au  Au8  1  0.250000  0.244732  0.909065  1
  Au  Au9  1  0.750000  0.755268  0.090935  1
  Au  Au10  1  0.250000  0.758845  0.607736  1
  Au  Au11  1  0.750000  0.241155  0.392264  1
