# generated using pymatgen
data_Yb8OsRhO12
_symmetry_space_group_name_H-M   'P 1'
_cell_length_a   6.45927337
_cell_length_b   6.45927297
_cell_length_c   6.45927334
_cell_angle_alpha   90.38056271
_cell_angle_beta   90.38057245
_cell_angle_gamma   90.38058759
_symmetry_Int_Tables_number   1
_chemical_formula_structural   Yb8OsRhO12
_chemical_formula_sum   'Yb8 Os1 Rh1 O12'
_cell_volume   269.47724366
_cell_formula_units_Z   1
loop_
 _symmetry_equiv_pos_site_id
 _symmetry_equiv_pos_as_xyz
  1  'x, y, z'
loop_
 _atom_site_type_symbol
 _atom_site_label
 _atom_site_symmetry_multiplicity
 _atom_site_fract_x
 _atom_site_fract_y
 _atom_site_fract_z
 _atom_site_occupancy
  Yb  Yb0  1  0.877586  0.610007  0.258877  1
  Yb  Yb1  1  0.122414  0.389993  0.741123  1
  Yb  Yb2  1  0.258877  0.877586  0.610007  1
  Yb  Yb3  1  0.610007  0.258877  0.877586  1
  Yb  Yb4  1  0.743769  0.743769  0.743769  1
  Yb  Yb5  1  0.389993  0.741123  0.122414  1
  Yb  Yb6  1  0.256231  0.256231  0.256231  1
  Yb  Yb7  1  0.741123  0.122414  0.389993  1
  Os  Os8  1  0.000000  0.000000  0.000000  1
  Rh  Rh9  1  0.500000  0.500000  0.500000  1
  O  O10  1  0.438832  0.580915  0.803814  1
  O  O11  1  0.580915  0.803814  0.438832  1
  O  O12  1  0.947550  0.295152  0.073846  1
  O  O13  1  0.561168  0.419085  0.196186  1
  O  O14  1  0.196186  0.561168  0.419085  1
  O  O15  1  0.052450  0.704848  0.926154  1
  O  O16  1  0.803814  0.438832  0.580915  1
  O  O17  1  0.704848  0.926154  0.052450  1
  O  O18  1  0.073846  0.947550  0.295152  1
  O  O19  1  0.926154  0.052450  0.704848  1
  O  O20  1  0.419085  0.196186  0.561168  1
  O  O21  1  0.295152  0.073846  0.947550  1
