# generated using pymatgen
data_Dy15Ho(LuGa3)4
_symmetry_space_group_name_H-M   'P 1'
_cell_length_a   7.57878802
_cell_length_b   7.57902702
_cell_length_c   14.13760600
_cell_angle_alpha   89.99892824
_cell_angle_beta   89.99829461
_cell_angle_gamma   89.99277273
_symmetry_Int_Tables_number   1
_chemical_formula_structural   Dy15Ho(LuGa3)4
_chemical_formula_sum   'Dy15 Ho1 Lu4 Ga12'
_cell_volume   812.06180730
_cell_formula_units_Z   1
loop_
 _symmetry_equiv_pos_site_id
 _symmetry_equiv_pos_as_xyz
  1  'x, y, z'
loop_
 _atom_site_type_symbol
 _atom_site_label
 _atom_site_symmetry_multiplicity
 _atom_site_fract_x
 _atom_site_fract_y
 _atom_site_fract_z
 _atom_site_occupancy
  Dy  Dy0  1  0.676329  0.662405  0.602870  1
  Dy  Dy1  1  0.676370  0.337532  0.102867  1
  Dy  Dy2  1  0.823694  0.837587  0.397108  1
  Dy  Dy3  1  0.176312  0.837673  0.897156  1
  Dy  Dy4  1  0.323697  0.337591  0.602886  1
  Dy  Dy5  1  0.323613  0.662388  0.102874  1
  Dy  Dy6  1  0.176314  0.162415  0.397101  1
  Dy  Dy7  1  0.823767  0.162395  0.897141  1
  Dy  Dy8  1  0.662385  0.323706  0.397107  1
  Dy  Dy9  1  0.337589  0.323683  0.897135  1
  Dy  Dy10  1  0.162402  0.823703  0.602876  1
  Dy  Dy11  1  0.837609  0.823734  0.102877  1
  Dy  Dy12  1  0.337593  0.676299  0.397124  1
  Dy  Dy13  1  0.662395  0.676306  0.897129  1
  Dy  Dy14  1  0.837614  0.176319  0.602871  1
  Ho  Ho15  1  0.162315  0.176291  0.103022  1
  Lu  Lu16  1  0.000000  0.499980  0.762341  1
  Lu  Lu17  1  0.000006  0.499951  0.262344  1
  Lu  Lu18  1  0.499924  0.000034  0.237626  1
  Lu  Lu19  1  0.500004  0.999994  0.737626  1
  Ga  Ga20  1  0.000021  0.499986  0.495273  1
  Ga  Ga21  1  0.000107  0.499883  0.995320  1
  Ga  Ga22  1  0.499983  0.000019  0.504725  1
  Ga  Ga23  1  0.499907  0.000091  0.004761  1
  Ga  Ga24  1  0.876088  0.876091  0.750009  1
  Ga  Ga25  1  0.876226  0.123919  0.249922  1
  Ga  Ga26  1  0.623883  0.623877  0.249991  1
  Ga  Ga27  1  0.376100  0.623900  0.750000  1
  Ga  Ga28  1  0.123898  0.123900  0.750004  1
  Ga  Ga29  1  0.123922  0.876219  0.249941  1
  Ga  Ga30  1  0.376031  0.376028  0.249971  1
  Ga  Ga31  1  0.623902  0.376103  0.750003  1
