# generated using pymatgen
data_Y6GaSi5Ir7Rh5
_symmetry_space_group_name_H-M   'P 1'
_cell_length_a   5.57503401
_cell_length_b   5.58016370
_cell_length_c   15.29082843
_cell_angle_alpha   89.97400852
_cell_angle_beta   90.00632467
_cell_angle_gamma   119.97401032
_symmetry_Int_Tables_number   1
_chemical_formula_structural   Y6GaSi5Ir7Rh5
_chemical_formula_sum   'Y6 Ga1 Si5 Ir7 Rh5'
_cell_volume   412.06880336
_cell_formula_units_Z   1
loop_
 _symmetry_equiv_pos_site_id
 _symmetry_equiv_pos_as_xyz
  1  'x, y, z'
loop_
 _atom_site_type_symbol
 _atom_site_label
 _atom_site_symmetry_multiplicity
 _atom_site_fract_x
 _atom_site_fract_y
 _atom_site_fract_z
 _atom_site_occupancy
  Y  Y0  1  0.668083  0.331835  0.960805  1
  Y  Y1  1  0.666568  0.332706  0.538086  1
  Y  Y2  1  0.334643  0.665774  0.038733  1
  Y  Y3  1  0.667102  0.332812  0.751087  1
  Y  Y4  1  0.331886  0.663778  0.460434  1
  Y  Y5  1  0.333375  0.665864  0.251553  1
  Ga  Ga6  1  0.001023  0.002205  0.501220  1
  Si  Si7  1  0.666736  0.334856  0.246974  1
  Si  Si8  1  0.999500  0.000507  0.247655  1
  Si  Si9  1  0.000163  0.000633  0.751899  1
  Si  Si10  1  0.332505  0.667519  0.751679  1
  Si  Si11  1  0.994987  0.005211  0.999493  1
  Ir  Ir12  1  0.169159  0.334544  0.871122  1
  Ir  Ir13  1  0.168542  0.336738  0.634650  1
  Ir  Ir14  1  0.665359  0.830915  0.869739  1
  Ir  Ir15  1  0.336058  0.167441  0.365000  1
  Ir  Ir16  1  0.832668  0.664539  0.365757  1
  Ir  Ir17  1  0.831160  0.167930  0.366453  1
  Ir  Ir18  1  0.832849  0.166526  0.129396  1
  Rh  Rh19  1  0.334054  0.164945  0.128739  1
  Rh  Rh20  1  0.664085  0.831670  0.634435  1
  Rh  Rh21  1  0.167572  0.832595  0.635609  1
  Rh  Rh22  1  0.834605  0.665929  0.128941  1
  Rh  Rh23  1  0.167315  0.832529  0.870541  1
