# generated using pymatgen
data_DySc2Fe9
_symmetry_space_group_name_H-M   'P 1'
_cell_length_a   4.97071006
_cell_length_b   4.97071001
_cell_length_c   8.41071734
_cell_angle_alpha   72.81256065
_cell_angle_beta   72.81256315
_cell_angle_gamma   59.99999714
_symmetry_Int_Tables_number   1
_chemical_formula_structural   DySc2Fe9
_chemical_formula_sum   'Dy1 Sc2 Fe9'
_cell_volume   169.16947661
_cell_formula_units_Z   1
loop_
 _symmetry_equiv_pos_site_id
 _symmetry_equiv_pos_as_xyz
  1  'x, y, z'
loop_
 _atom_site_type_symbol
 _atom_site_label
 _atom_site_symmetry_multiplicity
 _atom_site_fract_x
 _atom_site_fract_y
 _atom_site_fract_z
 _atom_site_occupancy
  Dy  Dy0  1  0.000000  0.000000  0.000000  1
  Sc  Sc1  1  0.143158  0.143158  0.570526  1
  Sc  Sc2  1  0.856842  0.856842  0.429474  1
  Fe  Fe3  1  0.082293  0.585620  0.746466  1
  Fe  Fe4  1  0.585620  0.585620  0.746466  1
  Fe  Fe5  1  0.585620  0.082293  0.746466  1
  Fe  Fe6  1  0.917707  0.414380  0.253534  1
  Fe  Fe7  1  0.414380  0.414380  0.253534  1
  Fe  Fe8  1  0.414380  0.917707  0.253534  1
  Fe  Fe9  1  0.333018  0.333018  0.000946  1
  Fe  Fe10  1  0.666981  0.666981  0.999054  1
  Fe  Fe11  1  0.500000  0.500000  0.500000  1
