# generated using pymatgen
data_La3Os6PbO19
_symmetry_space_group_name_H-M   'P 1'
_cell_length_a   7.95652150
_cell_length_b   7.95652061
_cell_length_c   7.95652090
_cell_angle_alpha   109.56587474
_cell_angle_beta   109.56587407
_cell_angle_gamma   109.56587267
_symmetry_Int_Tables_number   1
_chemical_formula_structural   La3Os6PbO19
_chemical_formula_sum   'La3 Os6 Pb1 O19'
_cell_volume   386.38157058
_cell_formula_units_Z   1
loop_
 _symmetry_equiv_pos_site_id
 _symmetry_equiv_pos_as_xyz
  1  'x, y, z'
loop_
 _atom_site_type_symbol
 _atom_site_label
 _atom_site_symmetry_multiplicity
 _atom_site_fract_x
 _atom_site_fract_y
 _atom_site_fract_z
 _atom_site_occupancy
  La  La0  1  0.999245  0.000429  0.686745  1
  La  La1  1  0.686745  0.999245  0.000429  1
  La  La2  1  0.000429  0.686745  0.999245  1
  Os  Os3  1  0.499349  0.363608  0.863089  1
  Os  Os4  1  0.501696  0.638584  0.138672  1
  Os  Os5  1  0.863089  0.499349  0.363608  1
  Os  Os6  1  0.363608  0.863089  0.499349  1
  Os  Os7  1  0.138672  0.501696  0.638584  1
  Os  Os8  1  0.638584  0.138672  0.501696  1
  Pb  Pb9  1  0.300195  0.300195  0.300195  1
  O  O10  1  0.272850  0.337117  0.635894  1
  O  O11  1  0.712259  0.648840  0.367522  1
  O  O12  1  0.725148  0.354295  0.061189  1
  O  O13  1  0.299834  0.670870  0.941771  1
  O  O14  1  0.635894  0.272850  0.337117  1
  O  O15  1  0.337117  0.635894  0.272850  1
  O  O16  1  0.941771  0.299834  0.670870  1
  O  O17  1  0.648840  0.367522  0.712259  1
  O  O18  1  0.367522  0.712259  0.648840  1
  O  O19  1  0.354295  0.061189  0.725148  1
  O  O20  1  0.061189  0.725148  0.354295  1
  O  O21  1  0.670870  0.941771  0.299834  1
  O  O22  1  0.995174  0.322407  0.326666  1
  O  O23  1  0.000868  0.675725  0.676107  1
  O  O24  1  0.326666  0.995174  0.322407  1
  O  O25  1  0.322407  0.326666  0.995174  1
  O  O26  1  0.676107  0.000868  0.675725  1
  O  O27  1  0.675725  0.676107  0.000868  1
  O  O28  1  0.983850  0.983850  0.983850  1
