# generated using pymatgen
data_Mg3Ti(B4Ru5)2
_symmetry_space_group_name_H-M   'P 1'
_cell_length_a   2.96508100
_cell_length_b   8.38258927
_cell_length_c   10.06920543
_cell_angle_alpha   90.22258162
_cell_angle_beta   90.00000000
_cell_angle_gamma   90.00000000
_symmetry_Int_Tables_number   1
_chemical_formula_structural   Mg3Ti(B4Ru5)2
_chemical_formula_sum   'Mg3 Ti1 B8 Ru10'
_cell_volume   250.26877828
_cell_formula_units_Z   1
loop_
 _symmetry_equiv_pos_site_id
 _symmetry_equiv_pos_as_xyz
  1  'x, y, z'
loop_
 _atom_site_type_symbol
 _atom_site_label
 _atom_site_symmetry_multiplicity
 _atom_site_fract_x
 _atom_site_fract_y
 _atom_site_fract_z
 _atom_site_occupancy
  Mg  Mg0  1  0.500000  0.350760  0.185926  1
  Mg  Mg1  1  0.500000  0.152506  0.679123  1
  Mg  Mg2  1  0.500000  0.851338  0.314841  1
  Ti  Ti3  1  0.500000  0.650840  0.819798  1
  B  B4  1  0.500000  0.852806  0.599185  1
  B  B5  1  0.500000  0.145663  0.395972  1
  B  B6  1  0.500000  0.349509  0.898712  1
  B  B7  1  0.500000  0.648467  0.106652  1
  B  B8  1  0.500000  0.960578  0.909628  1
  B  B9  1  0.500000  0.040162  0.088748  1
  B  B10  1  0.500000  0.458723  0.589221  1
  B  B11  1  0.500000  0.537543  0.412028  1
  Ru  Ru12  1  0.000000  0.403694  0.740593  1
  Ru  Ru13  1  0.000000  0.603037  0.263317  1
  Ru  Ru14  1  0.000000  0.891674  0.762136  1
  Ru  Ru15  1  0.000000  0.103560  0.236502  1
  Ru  Ru16  1  0.000000  0.998598  0.500155  1
  Ru  Ru17  1  0.000000  0.505166  0.996588  1
  Ru  Ru18  1  0.000000  0.655759  0.552579  1
  Ru  Ru19  1  0.000000  0.342750  0.454632  1
  Ru  Ru20  1  0.000000  0.156387  0.950228  1
  Ru  Ru21  1  0.000000  0.840480  0.043434  1
