# generated using pymatgen
data_Er8V(B8Ir)3
_symmetry_space_group_name_H-M   'P 1'
_cell_length_a   3.61248800
_cell_length_b   9.13902998
_cell_length_c   11.50209419
_cell_angle_alpha   89.83492169
_cell_angle_beta   90.00000000
_cell_angle_gamma   90.00000000
_symmetry_Int_Tables_number   1
_chemical_formula_structural   Er8V(B8Ir)3
_chemical_formula_sum   'Er8 V1 B24 Ir3'
_cell_volume   379.73587829
_cell_formula_units_Z   1
loop_
 _symmetry_equiv_pos_site_id
 _symmetry_equiv_pos_as_xyz
  1  'x, y, z'
loop_
 _atom_site_type_symbol
 _atom_site_label
 _atom_site_symmetry_multiplicity
 _atom_site_fract_x
 _atom_site_fract_y
 _atom_site_fract_z
 _atom_site_occupancy
  Er  Er0  1  0.000000  0.324953  0.411943  1
  Er  Er1  1  0.000000  0.677888  0.580895  1
  Er  Er2  1  0.000000  0.817376  0.091233  1
  Er  Er3  1  0.000000  0.178531  0.915628  1
  Er  Er4  1  0.000000  0.942383  0.374579  1
  Er  Er5  1  0.000000  0.056662  0.625920  1
  Er  Er6  1  0.000000  0.447237  0.127302  1
  Er  Er7  1  0.000000  0.556069  0.872717  1
  V  V8  1  0.000000  0.637857  0.320909  1
  B  B9  1  0.500000  0.551732  0.434278  1
  B  B10  1  0.500000  0.447109  0.566026  1
  B  B11  1  0.500000  0.052493  0.066438  1
  B  B12  1  0.500000  0.946548  0.934432  1
  B  B13  1  0.500000  0.748633  0.420690  1
  B  B14  1  0.500000  0.251733  0.578788  1
  B  B15  1  0.500000  0.249779  0.079519  1
  B  B16  1  0.500000  0.750434  0.921168  1
  B  B17  1  0.500000  0.793689  0.264650  1
  B  B18  1  0.500000  0.207086  0.735220  1
  B  B19  1  0.500000  0.292651  0.234073  1
  B  B20  1  0.500000  0.708254  0.764617  1
  B  B21  1  0.500000  0.632027  0.184506  1
  B  B22  1  0.500000  0.367421  0.816586  1
  B  B23  1  0.500000  0.132192  0.315400  1
  B  B24  1  0.500000  0.868084  0.683480  1
  B  B25  1  0.500000  0.980929  0.212746  1
  B  B26  1  0.500000  0.018352  0.787416  1
  B  B27  1  0.500000  0.481158  0.287096  1
  B  B28  1  0.500000  0.517872  0.712638  1
  B  B29  1  0.500000  0.608632  0.028680  1
  B  B30  1  0.500000  0.391294  0.969888  1
  B  B31  1  0.500000  0.109121  0.470305  1
  B  B32  1  0.500000  0.892466  0.530856  1
  Ir  Ir33  1  0.000000  0.360923  0.679996  1
  Ir  Ir34  1  0.000000  0.137874  0.177804  1
  Ir  Ir35  1  0.000000  0.862560  0.821580  1
