# generated using pymatgen
data_Lu2Fe5BC3
_symmetry_space_group_name_H-M   'P 1'
_cell_length_a   6.91287957
_cell_length_b   5.75577739
_cell_length_c   5.20393020
_cell_angle_alpha   78.59448815
_cell_angle_beta   54.53987114
_cell_angle_gamma   47.42781646
_symmetry_Int_Tables_number   1
_chemical_formula_structural   Lu2Fe5BC3
_chemical_formula_sum   'Lu2 Fe5 B1 C3'
_cell_volume   117.47449868
_cell_formula_units_Z   1
loop_
 _symmetry_equiv_pos_site_id
 _symmetry_equiv_pos_as_xyz
  1  'x, y, z'
loop_
 _atom_site_type_symbol
 _atom_site_label
 _atom_site_symmetry_multiplicity
 _atom_site_fract_x
 _atom_site_fract_y
 _atom_site_fract_z
 _atom_site_occupancy
  Lu  Lu0  1  0.852064  0.853657  0.146344  1
  Lu  Lu1  1  0.145261  0.143743  0.856259  1
  Fe  Fe2  1  0.498972  0.502574  0.002481  1
  Fe  Fe3  1  0.245915  0.249424  0.258847  1
  Fe  Fe4  1  0.004028  0.997519  0.497425  1
  Fe  Fe5  1  0.503711  0.509794  0.490208  1
  Fe  Fe6  1  0.754186  0.741154  0.750575  1
  B  B7  1  0.517635  0.213095  0.786907  1
  C  C8  1  0.478013  0.792925  0.207077  1
  C  C9  1  0.211116  0.522396  0.477605  1
  C  C10  1  0.789098  0.473719  0.526283  1
