# generated using pymatgen
data_CaUP2PbO10
_symmetry_space_group_name_H-M   'P 1'
_cell_length_a   6.83204065
_cell_length_b   10.54598529
_cell_length_c   6.64069320
_cell_angle_alpha   104.76102206
_cell_angle_beta   100.77784170
_cell_angle_gamma   84.16319183
_symmetry_Int_Tables_number   1
_chemical_formula_structural   CaUP2PbO10
_chemical_formula_sum   'Ca2 U2 P4 Pb2 O20'
_cell_volume   453.77702409
_cell_formula_units_Z   2
loop_
 _symmetry_equiv_pos_site_id
 _symmetry_equiv_pos_as_xyz
  1  'x, y, z'
loop_
 _atom_site_type_symbol
 _atom_site_label
 _atom_site_symmetry_multiplicity
 _atom_site_fract_x
 _atom_site_fract_y
 _atom_site_fract_z
 _atom_site_occupancy
  Ca  Ca0  1  0.286126  0.520700  0.283821  1
  Ca  Ca1  1  0.713880  0.479306  0.716172  1
  U  U2  1  0.621550  0.837783  0.107135  1
  U  U3  1  0.378442  0.162221  0.892859  1
  P  P4  1  0.808158  0.540285  0.251870  1
  P  P5  1  0.191868  0.459720  0.748136  1
  P  P6  1  0.528621  0.812549  0.614370  1
  P  P7  1  0.471387  0.187449  0.385616  1
  Pb  Pb8  1  0.052582  0.776732  0.726677  1
  Pb  Pb9  1  0.947373  0.223268  0.273331  1
  O  O10  1  0.915526  0.412485  0.136041  1
  O  O11  1  0.084523  0.587531  0.863991  1
  O  O12  1  0.642910  0.848140  0.457610  1
  O  O13  1  0.357104  0.151859  0.542388  1
  O  O14  1  0.874606  0.889743  0.143946  1
  O  O15  1  0.125340  0.110232  0.856045  1
  O  O16  1  0.510617  0.061360  0.208053  1
  O  O17  1  0.489378  0.938633  0.791935  1
  O  O18  1  0.335339  0.745614  0.508575  1
  O  O19  1  0.664692  0.254387  0.491414  1
  O  O20  1  0.701609  0.612774  0.077819  1
  O  O21  1  0.298407  0.387227  0.922183  1
  O  O22  1  0.674459  0.727850  0.748617  1
  O  O23  1  0.325555  0.272150  0.251379  1
  O  O24  1  0.362949  0.793248  0.055522  1
  O  O25  1  0.636965  0.206743  0.944463  1
  O  O26  1  0.351238  0.486807  0.630841  1
  O  O27  1  0.648781  0.513198  0.369164  1
  O  O28  1  0.977290  0.624200  0.398107  1
  O  O29  1  0.022726  0.375813  0.601914  1
