# generated using pymatgen
data_Dy12Er5Lu3Sn16
_symmetry_space_group_name_H-M   'P 1'
_cell_length_a   7.98277639
_cell_length_b   8.12353341
_cell_length_c   15.37904507
_cell_angle_alpha   89.99081021
_cell_angle_beta   90.00576661
_cell_angle_gamma   90.03523936
_symmetry_Int_Tables_number   1
_chemical_formula_structural   Dy12Er5Lu3Sn16
_chemical_formula_sum   'Dy12 Er5 Lu3 Sn16'
_cell_volume   997.30550142
_cell_formula_units_Z   1
loop_
 _symmetry_equiv_pos_site_id
 _symmetry_equiv_pos_as_xyz
  1  'x, y, z'
loop_
 _atom_site_type_symbol
 _atom_site_label
 _atom_site_symmetry_multiplicity
 _atom_site_fract_x
 _atom_site_fract_y
 _atom_site_fract_z
 _atom_site_occupancy
  Dy  Dy0  1  0.633751  0.162606  0.122615  1
  Dy  Dy1  1  0.133754  0.337418  0.377276  1
  Dy  Dy2  1  0.366429  0.837536  0.622559  1
  Dy  Dy3  1  0.865945  0.662793  0.877446  1
  Dy  Dy4  1  0.520244  0.320778  0.903627  1
  Dy  Dy5  1  0.019983  0.179008  0.596387  1
  Dy  Dy6  1  0.479837  0.679134  0.403534  1
  Dy  Dy7  1  0.979890  0.820861  0.096395  1
  Dy  Dy8  1  0.481273  0.678919  0.096193  1
  Dy  Dy9  1  0.981327  0.821052  0.403878  1
  Dy  Dy10  1  0.518784  0.320947  0.596106  1
  Dy  Dy11  1  0.018549  0.178843  0.903892  1
  Er  Er12  1  0.364628  0.838376  0.876753  1
  Er  Er13  1  0.864185  0.661941  0.623227  1
  Er  Er14  1  0.635528  0.161747  0.376714  1
  Er  Er15  1  0.135544  0.338273  0.123399  1
  Er  Er16  1  0.196443  0.503723  0.750681  1
  Lu  Lu17  1  0.696678  0.996018  0.749332  1
  Lu  Lu18  1  0.803433  0.496083  0.250657  1
  Lu  Lu19  1  0.303432  0.003910  0.249320  1
  Sn  Sn20  1  0.293093  0.038141  0.041406  1
  Sn  Sn21  1  0.793130  0.461951  0.458594  1
  Sn  Sn22  1  0.706842  0.961922  0.541353  1
  Sn  Sn23  1  0.206818  0.538213  0.959006  1
  Sn  Sn24  1  0.702665  0.962270  0.957328  1
  Sn  Sn25  1  0.202598  0.537838  0.542322  1
  Sn  Sn26  1  0.297313  0.037707  0.457260  1
  Sn  Sn27  1  0.797332  0.462374  0.042727  1
  Sn  Sn28  1  0.562888  0.618130  0.750099  1
  Sn  Sn29  1  0.061866  0.882470  0.749920  1
  Sn  Sn30  1  0.438102  0.382179  0.250088  1
  Sn  Sn31  1  0.938005  0.117717  0.249908  1
  Sn  Sn32  1  0.329579  0.149734  0.750099  1
  Sn  Sn33  1  0.829224  0.349149  0.749899  1
  Sn  Sn34  1  0.670537  0.849366  0.250085  1
  Sn  Sn35  1  0.170372  0.650873  0.249912  1
