# generated using pymatgen
data_YTh2NpPd12
_symmetry_space_group_name_H-M   'P 1'
_cell_length_a   5.90948200
_cell_length_b   5.90948154
_cell_length_c   9.69869300
_cell_angle_alpha   90.00000000
_cell_angle_beta   90.00000000
_cell_angle_gamma   120.00000259
_symmetry_Int_Tables_number   1
_chemical_formula_structural   YTh2NpPd12
_chemical_formula_sum   'Y1 Th2 Np1 Pd12'
_cell_volume   293.32064213
_cell_formula_units_Z   1
loop_
 _symmetry_equiv_pos_site_id
 _symmetry_equiv_pos_as_xyz
  1  'x, y, z'
loop_
 _atom_site_type_symbol
 _atom_site_label
 _atom_site_symmetry_multiplicity
 _atom_site_fract_x
 _atom_site_fract_y
 _atom_site_fract_z
 _atom_site_occupancy
  Y  Y0  1  0.000000  0.000000  0.498431  1
  Th  Th1  1  0.000000  0.000000  0.002653  1
  Th  Th2  1  0.666667  0.333333  0.745464  1
  Np  Np3  1  0.333333  0.666667  0.253832  1
  Pd  Pd4  1  0.499402  0.500598  0.499241  1
  Pd  Pd5  1  0.499402  0.998805  0.499241  1
  Pd  Pd6  1  0.001195  0.500598  0.499241  1
  Pd  Pd7  1  0.499567  0.500433  0.000604  1
  Pd  Pd8  1  0.499567  0.999133  0.000604  1
  Pd  Pd9  1  0.000867  0.500433  0.000604  1
  Pd  Pd10  1  0.825918  0.651837  0.250397  1
  Pd  Pd11  1  0.348163  0.174082  0.250397  1
  Pd  Pd12  1  0.825918  0.174082  0.250397  1
  Pd  Pd13  1  0.174341  0.348681  0.749631  1
  Pd  Pd14  1  0.651319  0.825659  0.749631  1
  Pd  Pd15  1  0.174341  0.825659  0.749631  1
