# generated using pymatgen
data_BaCoBF10
_symmetry_space_group_name_H-M   'P 1'
_cell_length_a   10.69935000
_cell_length_b   10.69934922
_cell_length_c   6.35708700
_cell_angle_alpha   90.00000000
_cell_angle_beta   90.00000000
_cell_angle_gamma   120.00000242
_symmetry_Int_Tables_number   1
_chemical_formula_structural   BaCoBF10
_chemical_formula_sum   'Ba3 Co3 B3 F30'
_cell_volume   630.23647348
_cell_formula_units_Z   3
loop_
 _symmetry_equiv_pos_site_id
 _symmetry_equiv_pos_as_xyz
  1  'x, y, z'
loop_
 _atom_site_type_symbol
 _atom_site_label
 _atom_site_symmetry_multiplicity
 _atom_site_fract_x
 _atom_site_fract_y
 _atom_site_fract_z
 _atom_site_occupancy
  Ba  Ba0  1  0.000000  0.000000  0.500000  1
  Ba  Ba1  1  0.666667  0.333333  0.000000  1
  Ba  Ba2  1  0.333333  0.666667  0.000000  1
  Co  Co3  1  0.438761  0.000000  0.500000  1
  Co  Co4  1  0.000000  0.438761  0.500000  1
  Co  Co5  1  0.561239  0.561239  0.500000  1
  B  B6  1  0.752289  0.000000  0.000000  1
  B  B7  1  0.000000  0.752289  0.000000  1
  B  B8  1  0.247711  0.247711  0.000000  1
  F  F9  1  0.600552  0.000000  0.500000  1
  F  F10  1  0.000000  0.600552  0.500000  1
  F  F11  1  0.399448  0.399448  0.500000  1
  F  F12  1  0.274201  0.000000  0.500000  1
  F  F13  1  0.000000  0.274201  0.500000  1
  F  F14  1  0.725799  0.725799  0.500000  1
  F  F15  1  0.506037  0.136469  0.698099  1
  F  F16  1  0.863531  0.369568  0.698099  1
  F  F17  1  0.630432  0.493963  0.698099  1
  F  F18  1  0.506037  0.136469  0.301901  1
  F  F19  1  0.863531  0.369568  0.301901  1
  F  F20  1  0.630432  0.493963  0.301901  1
  F  F21  1  0.369568  0.863531  0.698099  1
  F  F22  1  0.493963  0.630432  0.698099  1
  F  F23  1  0.136469  0.506037  0.698099  1
  F  F24  1  0.369568  0.863531  0.301901  1
  F  F25  1  0.493963  0.630432  0.301901  1
  F  F26  1  0.136469  0.506037  0.301901  1
  F  F27  1  0.828348  0.000000  0.817338  1
  F  F28  1  0.000000  0.828348  0.817338  1
  F  F29  1  0.171652  0.171652  0.817338  1
  F  F30  1  0.828348  0.000000  0.182662  1
  F  F31  1  0.000000  0.828348  0.182662  1
  F  F32  1  0.171652  0.171652  0.182662  1
  F  F33  1  0.386916  0.262414  0.000000  1
  F  F34  1  0.737586  0.124500  0.000000  1
  F  F35  1  0.875500  0.613084  0.000000  1
  F  F36  1  0.124500  0.737586  0.000000  1
  F  F37  1  0.613084  0.875500  0.000000  1
  F  F38  1  0.262414  0.386916  0.000000  1
