# generated using pymatgen
data_Ac4YbZnSn3
_symmetry_space_group_name_H-M   'P 1'
_cell_length_a   8.27466900
_cell_length_b   9.05349400
_cell_length_c   16.59409800
_cell_angle_alpha   90.00000000
_cell_angle_beta   90.00000000
_cell_angle_gamma   90.00000000
_symmetry_Int_Tables_number   1
_chemical_formula_structural   Ac4YbZnSn3
_chemical_formula_sum   'Ac16 Yb4 Zn4 Sn12'
_cell_volume   1243.14131162
_cell_formula_units_Z   4
loop_
 _symmetry_equiv_pos_site_id
 _symmetry_equiv_pos_as_xyz
  1  'x, y, z'
loop_
 _atom_site_type_symbol
 _atom_site_label
 _atom_site_symmetry_multiplicity
 _atom_site_fract_x
 _atom_site_fract_y
 _atom_site_fract_z
 _atom_site_occupancy
  Ac  Ac0  1  0.667891  0.175846  0.630441  1
  Ac  Ac1  1  0.167891  0.324154  0.869559  1
  Ac  Ac2  1  0.332109  0.824154  0.130441  1
  Ac  Ac3  1  0.832109  0.675846  0.369559  1
  Ac  Ac4  1  0.332109  0.824154  0.369559  1
  Ac  Ac5  1  0.832109  0.675846  0.130441  1
  Ac  Ac6  1  0.667891  0.175846  0.869559  1
  Ac  Ac7  1  0.167891  0.324154  0.630441  1
  Ac  Ac8  1  0.502267  0.685695  0.593552  1
  Ac  Ac9  1  0.002267  0.814305  0.906448  1
  Ac  Ac10  1  0.497733  0.314305  0.093552  1
  Ac  Ac11  1  0.997733  0.185695  0.406448  1
  Ac  Ac12  1  0.497733  0.314305  0.406448  1
  Ac  Ac13  1  0.997733  0.185695  0.093552  1
  Ac  Ac14  1  0.502267  0.685695  0.906448  1
  Ac  Ac15  1  0.002267  0.814305  0.593552  1
  Yb  Yb16  1  0.823812  0.523330  0.750000  1
  Yb  Yb17  1  0.323812  0.976670  0.750000  1
  Yb  Yb18  1  0.176188  0.476670  0.250000  1
  Yb  Yb19  1  0.676188  0.023330  0.250000  1
  Zn  Zn20  1  0.467527  0.412745  0.750000  1
  Zn  Zn21  1  0.967527  0.087255  0.750000  1
  Zn  Zn22  1  0.532473  0.587255  0.250000  1
  Zn  Zn23  1  0.032473  0.912745  0.250000  1
  Sn  Sn24  1  0.672940  0.970474  0.461179  1
  Sn  Sn25  1  0.172940  0.529526  0.038821  1
  Sn  Sn26  1  0.327060  0.029526  0.961179  1
  Sn  Sn27  1  0.827060  0.470474  0.538821  1
  Sn  Sn28  1  0.327060  0.029526  0.538821  1
  Sn  Sn29  1  0.827060  0.470474  0.961179  1
  Sn  Sn30  1  0.672940  0.970474  0.038821  1
  Sn  Sn31  1  0.172940  0.529526  0.461179  1
  Sn  Sn32  1  0.709372  0.866113  0.750000  1
  Sn  Sn33  1  0.209372  0.633887  0.750000  1
  Sn  Sn34  1  0.290628  0.133887  0.250000  1
  Sn  Sn35  1  0.790628  0.366113  0.250000  1
