# generated using pymatgen
data_Li4Ca2TbDySi8
_symmetry_space_group_name_H-M   'P 1'
_cell_length_a   3.79798700
_cell_length_b   7.78004286
_cell_length_c   10.42371764
_cell_angle_alpha   90.05872860
_cell_angle_beta   90.00000000
_cell_angle_gamma   90.00000000
_symmetry_Int_Tables_number   1
_chemical_formula_structural   Li4Ca2TbDySi8
_chemical_formula_sum   'Li4 Ca2 Tb1 Dy1 Si8'
_cell_volume   308.00507579
_cell_formula_units_Z   1
loop_
 _symmetry_equiv_pos_site_id
 _symmetry_equiv_pos_as_xyz
  1  'x, y, z'
loop_
 _atom_site_type_symbol
 _atom_site_label
 _atom_site_symmetry_multiplicity
 _atom_site_fract_x
 _atom_site_fract_y
 _atom_site_fract_z
 _atom_site_occupancy
  Li  Li0  1  0.250000  0.995737  0.389482  1
  Li  Li1  1  0.750000  0.006037  0.608972  1
  Li  Li2  1  0.250000  0.496505  0.108818  1
  Li  Li3  1  0.750000  0.509584  0.891196  1
  Ca  Ca4  1  0.750000  0.864205  0.135016  1
  Ca  Ca5  1  0.750000  0.361967  0.365716  1
  Tb  Tb6  1  0.250000  0.630497  0.636062  1
  Dy  Dy7  1  0.250000  0.131370  0.864233  1
  Si  Si8  1  0.750000  0.268005  0.062264  1
  Si  Si9  1  0.250000  0.736201  0.928143  1
  Si  Si10  1  0.750000  0.766106  0.436993  1
  Si  Si11  1  0.250000  0.234014  0.573070  1
  Si  Si12  1  0.750000  0.839136  0.815964  1
  Si  Si13  1  0.250000  0.162059  0.170848  1
  Si  Si14  1  0.750000  0.338729  0.684684  1
  Si  Si15  1  0.250000  0.659851  0.328540  1
