# generated using pymatgen
data_IrBr13
_symmetry_space_group_name_H-M   'P 1'
_cell_length_a   11.35716619
_cell_length_b   9.77367657
_cell_length_c   13.41979699
_cell_angle_alpha   118.22639254
_cell_angle_beta   89.10686074
_cell_angle_gamma   105.86220528
_symmetry_Int_Tables_number   1
_chemical_formula_structural   IrBr13
_chemical_formula_sum   'Ir2 Br26'
_cell_volume   1251.09229252
_cell_formula_units_Z   2
loop_
 _symmetry_equiv_pos_site_id
 _symmetry_equiv_pos_as_xyz
  1  'x, y, z'
loop_
 _atom_site_type_symbol
 _atom_site_label
 _atom_site_symmetry_multiplicity
 _atom_site_fract_x
 _atom_site_fract_y
 _atom_site_fract_z
 _atom_site_occupancy
  Ir  Ir0  1  0.662388  0.127046  0.069877  1
  Ir  Ir1  1  0.335616  0.871532  0.928481  1
  Br  Br2  1  0.364182  0.658916  0.965815  1
  Br  Br3  1  0.634065  0.339236  0.031910  1
  Br  Br4  1  0.583085  0.816854  0.399180  1
  Br  Br5  1  0.419133  0.186507  0.606293  1
  Br  Br6  1  0.722112  0.683973  0.996310  1
  Br  Br7  1  0.276911  0.316355  0.003933  1
  Br  Br8  1  0.690649  0.940716  0.138095  1
  Br  Br9  1  0.305432  0.058122  0.861319  1
  Br  Br10  1  0.441751  0.089498  0.123937  1
  Br  Br11  1  0.555975  0.909421  0.874399  1
  Br  Br12  1  0.237371  0.659994  0.726716  1
  Br  Br13  1  0.762268  0.339405  0.270802  1
  Br  Br14  1  0.124988  0.838196  0.986716  1
  Br  Br15  1  0.872626  0.157268  0.011406  1
  Br  Br16  1  0.105000  0.076987  0.203964  1
  Br  Br17  1  0.894843  0.917608  0.795453  1
  Br  Br18  1  0.275136  0.913592  0.457850  1
  Br  Br19  1  0.727881  0.091022  0.545032  1
  Br  Br20  1  0.325671  0.419422  0.661589  1
  Br  Br21  1  0.676062  0.582350  0.338708  1
  Br  Br22  1  0.856366  0.380211  0.697269  1
  Br  Br23  1  0.145729  0.626305  0.304029  1
  Br  Br24  1  0.944905  0.727969  0.617101  1
  Br  Br25  1  0.058432  0.268394  0.383552  1
  Br  Br26  1  0.245407  0.635024  0.130363  1
  Br  Br27  1  0.756016  0.368079  0.869901  1
