# generated using pymatgen
data_Ho2SnRh5
_symmetry_space_group_name_H-M   'P 1'
_cell_length_a   5.71539100
_cell_length_b   5.71539101
_cell_length_c   8.55810000
_cell_angle_alpha   90.00000000
_cell_angle_beta   90.00000000
_cell_angle_gamma   97.20676370
_symmetry_Int_Tables_number   1
_chemical_formula_structural   Ho2SnRh5
_chemical_formula_sum   'Ho4 Sn2 Rh10'
_cell_volume   277.34775596
_cell_formula_units_Z   2
loop_
 _symmetry_equiv_pos_site_id
 _symmetry_equiv_pos_as_xyz
  1  'x, y, z'
loop_
 _atom_site_type_symbol
 _atom_site_label
 _atom_site_symmetry_multiplicity
 _atom_site_fract_x
 _atom_site_fract_y
 _atom_site_fract_z
 _atom_site_occupancy
  Ho  Ho0  1  0.780185  0.219815  0.500000  1
  Ho  Ho1  1  0.219815  0.780185  0.000000  1
  Ho  Ho2  1  0.219815  0.780185  0.500000  1
  Ho  Ho3  1  0.780185  0.219815  0.000000  1
  Sn  Sn4  1  0.502302  0.502302  0.750000  1
  Sn  Sn5  1  0.497698  0.497698  0.250000  1
  Rh  Rh6  1  0.724054  0.724054  0.001198  1
  Rh  Rh7  1  0.724054  0.724054  0.498802  1
  Rh  Rh8  1  0.275946  0.275946  0.998802  1
  Rh  Rh9  1  0.275946  0.275946  0.501198  1
  Rh  Rh10  1  0.499802  0.000525  0.750000  1
  Rh  Rh11  1  0.500198  0.999475  0.250000  1
  Rh  Rh12  1  0.000383  0.000383  0.250000  1
  Rh  Rh13  1  0.999617  0.999617  0.750000  1
  Rh  Rh14  1  0.000525  0.499802  0.750000  1
  Rh  Rh15  1  0.999475  0.500198  0.250000  1
