# generated using pymatgen
data_Th5Sn2HgBi
_symmetry_space_group_name_H-M   'P 1'
_cell_length_a   9.62558200
_cell_length_b   9.67069441
_cell_length_c   6.67068100
_cell_angle_alpha   90.00000000
_cell_angle_beta   90.00000000
_cell_angle_gamma   119.84580053
_symmetry_Int_Tables_number   1
_chemical_formula_structural   Th5Sn2HgBi
_chemical_formula_sum   'Th10 Sn4 Hg2 Bi2'
_cell_volume   538.58987069
_cell_formula_units_Z   2
loop_
 _symmetry_equiv_pos_site_id
 _symmetry_equiv_pos_as_xyz
  1  'x, y, z'
loop_
 _atom_site_type_symbol
 _atom_site_label
 _atom_site_symmetry_multiplicity
 _atom_site_fract_x
 _atom_site_fract_y
 _atom_site_fract_z
 _atom_site_occupancy
  Th  Th0  1  0.003632  0.724257  0.750000  1
  Th  Th1  1  0.279374  0.275743  0.750000  1
  Th  Th2  1  0.333372  0.669795  0.496585  1
  Th  Th3  1  0.663579  0.330205  0.496585  1
  Th  Th4  1  0.721023  0.720008  0.250000  1
  Th  Th5  1  0.719767  0.000000  0.750000  1
  Th  Th6  1  0.001014  0.279992  0.250000  1
  Th  Th7  1  0.279902  0.000000  0.250000  1
  Th  Th8  1  0.333372  0.669795  0.003415  1
  Th  Th9  1  0.663579  0.330205  0.003415  1
  Sn  Sn10  1  0.379105  0.000000  0.750000  1
  Sn  Sn11  1  0.622221  0.000000  0.250000  1
  Sn  Sn12  1  0.378697  0.378804  0.250000  1
  Sn  Sn13  1  0.999893  0.621196  0.250000  1
  Hg  Hg14  1  0.999708  0.000000  0.001269  1
  Hg  Hg15  1  0.999708  0.000000  0.498731  1
  Bi  Bi16  1  0.621227  0.620399  0.750000  1
  Bi  Bi17  1  0.000828  0.379601  0.750000  1
