# generated using pymatgen
data_Dy4Al2GaSi3
_symmetry_space_group_name_H-M   'P 1'
_cell_length_a   6.93054296
_cell_length_b   6.93054243
_cell_length_c   4.30113900
_cell_angle_alpha   90.00000000
_cell_angle_beta   90.00000000
_cell_angle_gamma   90.75064531
_symmetry_Int_Tables_number   1
_chemical_formula_structural   Dy4Al2GaSi3
_chemical_formula_sum   'Dy4 Al2 Ga1 Si3'
_cell_volume   206.57639392
_cell_formula_units_Z   1
loop_
 _symmetry_equiv_pos_site_id
 _symmetry_equiv_pos_as_xyz
  1  'x, y, z'
loop_
 _atom_site_type_symbol
 _atom_site_label
 _atom_site_symmetry_multiplicity
 _atom_site_fract_x
 _atom_site_fract_y
 _atom_site_fract_z
 _atom_site_occupancy
  Dy  Dy0  1  0.320924  0.822742  0.500000  1
  Dy  Dy1  1  0.824636  0.675364  0.500000  1
  Dy  Dy2  1  0.176187  0.323813  0.500000  1
  Dy  Dy3  1  0.677258  0.179076  0.500000  1
  Al  Al4  1  0.498255  0.497662  0.000000  1
  Al  Al5  1  0.002338  0.001745  0.000000  1
  Ga  Ga6  1  0.625310  0.874690  0.000000  1
  Si  Si7  1  0.877178  0.376818  0.000000  1
  Si  Si8  1  0.374734  0.125266  0.000000  1
  Si  Si9  1  0.123182  0.622822  0.000000  1
