# generated using pymatgen
data_Rb2ErZr(PO4)3
_symmetry_space_group_name_H-M   'P 1'
_cell_length_a   10.49363200
_cell_length_b   10.49363200
_cell_length_c   10.49363200
_cell_angle_alpha   90.00000000
_cell_angle_beta   90.00000000
_cell_angle_gamma   90.00000000
_symmetry_Int_Tables_number   1
_chemical_formula_structural   Rb2ErZr(PO4)3
_chemical_formula_sum   'Rb8 Er4 Zr4 P12 O48'
_cell_volume   1155.52006111
_cell_formula_units_Z   4
loop_
 _symmetry_equiv_pos_site_id
 _symmetry_equiv_pos_as_xyz
  1  'x, y, z'
loop_
 _atom_site_type_symbol
 _atom_site_label
 _atom_site_symmetry_multiplicity
 _atom_site_fract_x
 _atom_site_fract_y
 _atom_site_fract_z
 _atom_site_occupancy
  Rb  Rb0  1  0.066851  0.433149  0.566851  1
  Rb  Rb1  1  0.202043  0.797957  0.297957  1
  Rb  Rb2  1  0.297957  0.202043  0.797957  1
  Rb  Rb3  1  0.433149  0.566851  0.066851  1
  Rb  Rb4  1  0.566851  0.066851  0.433149  1
  Rb  Rb5  1  0.702043  0.702043  0.702043  1
  Rb  Rb6  1  0.797957  0.297957  0.202043  1
  Rb  Rb7  1  0.933149  0.933149  0.933149  1
  Er  Er8  1  0.146350  0.146350  0.146350  1
  Er  Er9  1  0.353650  0.853650  0.646350  1
  Er  Er10  1  0.646350  0.353650  0.853650  1
  Er  Er11  1  0.853650  0.646350  0.353650  1
  Zr  Zr12  1  0.086500  0.586500  0.913500  1
  Zr  Zr13  1  0.413500  0.413500  0.413500  1
  Zr  Zr14  1  0.586500  0.913500  0.086500  1
  Zr  Zr15  1  0.913500  0.086500  0.586500  1
  P  P16  1  0.034774  0.770614  0.628421  1
  P  P17  1  0.128421  0.465226  0.229386  1
  P  P18  1  0.229386  0.128421  0.465226  1
  P  P19  1  0.270614  0.871579  0.965226  1
  P  P20  1  0.371579  0.534774  0.729386  1
  P  P21  1  0.465226  0.229386  0.128421  1
  P  P22  1  0.534774  0.729386  0.371579  1
  P  P23  1  0.628421  0.034774  0.770614  1
  P  P24  1  0.729386  0.371579  0.534774  1
  P  P25  1  0.770614  0.628421  0.034774  1
  P  P26  1  0.871579  0.965226  0.270614  1
  P  P27  1  0.965226  0.270614  0.871579  1
  O  O28  1  0.007867  0.412108  0.853404  1
  O  O29  1  0.036915  0.556430  0.298126  1
  O  O30  1  0.023489  0.702509  0.760565  1
  O  O31  1  0.056430  0.201874  0.963085  1
  O  O32  1  0.079728  0.327437  0.234347  1
  O  O33  1  0.087892  0.146596  0.507867  1
  O  O34  1  0.146596  0.507867  0.087892  1
  O  O35  1  0.172563  0.765653  0.579728  1
  O  O36  1  0.202509  0.739435  0.976511  1
  O  O37  1  0.201874  0.963085  0.056430  1
  O  O38  1  0.239435  0.523489  0.797491  1
  O  O39  1  0.234347  0.079728  0.327437  1
  O  O40  1  0.265653  0.920272  0.827437  1
  O  O41  1  0.260565  0.476511  0.297491  1
  O  O42  1  0.298126  0.036915  0.556430  1
  O  O43  1  0.297491  0.260565  0.476511  1
  O  O44  1  0.327437  0.234347  0.079728  1
  O  O45  1  0.353404  0.492133  0.587892  1
  O  O46  1  0.412108  0.853404  0.007867  1
  O  O47  1  0.420272  0.672563  0.734347  1
  O  O48  1  0.443570  0.798126  0.463085  1
  O  O49  1  0.476511  0.297491  0.260565  1
  O  O50  1  0.463085  0.443570  0.798126  1
  O  O51  1  0.492133  0.587892  0.353404  1
  O  O52  1  0.507867  0.087892  0.146596  1
  O  O53  1  0.536915  0.943570  0.701874  1
  O  O54  1  0.523489  0.797491  0.239435  1
  O  O55  1  0.556430  0.298126  0.036915  1
  O  O56  1  0.579728  0.172563  0.765653  1
  O  O57  1  0.587892  0.353404  0.492133  1
  O  O58  1  0.646596  0.992133  0.912108  1
  O  O59  1  0.672563  0.734347  0.420272  1
  O  O60  1  0.702509  0.760565  0.023489  1
  O  O61  1  0.701874  0.536915  0.943570  1
  O  O62  1  0.739435  0.976511  0.202509  1
  O  O63  1  0.734347  0.420272  0.672563  1
  O  O64  1  0.765653  0.579728  0.172563  1
  O  O65  1  0.760565  0.023489  0.702509  1
  O  O66  1  0.798126  0.463085  0.443570  1
  O  O67  1  0.797491  0.239435  0.523489  1
  O  O68  1  0.827437  0.265653  0.920272  1
  O  O69  1  0.853404  0.007867  0.412108  1
  O  O70  1  0.912108  0.646596  0.992133  1
  O  O71  1  0.920272  0.827437  0.265653  1
  O  O72  1  0.943570  0.701874  0.536915  1
  O  O73  1  0.976511  0.202509  0.739435  1
  O  O74  1  0.963085  0.056430  0.201874  1
  O  O75  1  0.992133  0.912108  0.646596  1
