# generated using pymatgen
data_Cs2LiPu3O12
_symmetry_space_group_name_H-M   'P 1'
_cell_length_a   7.49333292
_cell_length_b   7.49333262
_cell_length_c   7.49333380
_cell_angle_alpha   63.80172835
_cell_angle_beta   63.80173471
_cell_angle_gamma   63.80172178
_symmetry_Int_Tables_number   1
_chemical_formula_structural   Cs2LiPu3O12
_chemical_formula_sum   'Cs2 Li1 Pu3 O12'
_cell_volume   322.46683702
_cell_formula_units_Z   1
loop_
 _symmetry_equiv_pos_site_id
 _symmetry_equiv_pos_as_xyz
  1  'x, y, z'
loop_
 _atom_site_type_symbol
 _atom_site_label
 _atom_site_symmetry_multiplicity
 _atom_site_fract_x
 _atom_site_fract_y
 _atom_site_fract_z
 _atom_site_occupancy
  Cs  Cs0  1  0.373456  0.373456  0.373456  1
  Cs  Cs1  1  0.626544  0.626544  0.626544  1
  Li  Li2  1  0.000000  0.000000  0.000000  1
  Pu  Pu3  1  0.500000  0.000000  0.000000  1
  Pu  Pu4  1  0.000000  0.000000  0.500000  1
  Pu  Pu5  1  0.000000  0.500000  0.000000  1
  O  O6  1  0.932593  0.318682  0.318682  1
  O  O7  1  0.328572  0.937047  0.937047  1
  O  O8  1  0.318682  0.318682  0.932593  1
  O  O9  1  0.937047  0.937047  0.328572  1
  O  O10  1  0.937047  0.328572  0.937047  1
  O  O11  1  0.318682  0.932593  0.318682  1
  O  O12  1  0.067407  0.681318  0.681318  1
  O  O13  1  0.671428  0.062953  0.062953  1
  O  O14  1  0.681318  0.681318  0.067407  1
  O  O15  1  0.062953  0.062953  0.671428  1
  O  O16  1  0.062953  0.671428  0.062953  1
  O  O17  1  0.681318  0.067407  0.681318  1
