# generated using pymatgen
data_NdSm7(SiI6)2
_symmetry_space_group_name_H-M   'P 1'
_cell_length_a   4.29310100
_cell_length_b   14.33841733
_cell_length_c   15.10840472
_cell_angle_alpha   90.01705276
_cell_angle_beta   90.00000000
_cell_angle_gamma   90.00000000
_symmetry_Int_Tables_number   1
_chemical_formula_structural   NdSm7(SiI6)2
_chemical_formula_sum   'Nd1 Sm7 Si2 I12'
_cell_volume   930.01705634
_cell_formula_units_Z   1
loop_
 _symmetry_equiv_pos_site_id
 _symmetry_equiv_pos_as_xyz
  1  'x, y, z'
loop_
 _atom_site_type_symbol
 _atom_site_label
 _atom_site_symmetry_multiplicity
 _atom_site_fract_x
 _atom_site_fract_y
 _atom_site_fract_z
 _atom_site_occupancy
  Nd  Nd0  1  0.000000  0.386942  0.075627  1
  Sm  Sm1  1  0.500000  0.114270  0.347330  1
  Sm  Sm2  1  0.500000  0.885996  0.652340  1
  Sm  Sm3  1  0.500000  0.614166  0.152894  1
  Sm  Sm4  1  0.500000  0.385556  0.847273  1
  Sm  Sm5  1  0.000000  0.112402  0.574988  1
  Sm  Sm6  1  0.000000  0.887752  0.424634  1
  Sm  Sm7  1  0.000000  0.613465  0.924077  1
  Si  Si8  1  0.500000  0.000064  0.499853  1
  Si  Si9  1  0.500000  0.501592  0.998919  1
  I  I10  1  0.500000  0.243591  0.163817  1
  I  I11  1  0.500000  0.754797  0.837852  1
  I  I12  1  0.500000  0.745380  0.338188  1
  I  I13  1  0.500000  0.254332  0.662025  1
  I  I14  1  0.000000  0.257942  0.414035  1
  I  I15  1  0.000000  0.742278  0.585956  1
  I  I16  1  0.000000  0.757671  0.086118  1
  I  I17  1  0.000000  0.241024  0.912907  1
  I  I18  1  0.000000  0.999326  0.241087  1
  I  I19  1  0.000000  0.000765  0.758570  1
  I  I20  1  0.000000  0.500008  0.260168  1
  I  I21  1  0.000000  0.500679  0.741342  1
