# generated using pymatgen
data_Y6Al25Os7
_symmetry_space_group_name_H-M   'P 1'
_cell_length_a   8.88652401
_cell_length_b   8.88652391
_cell_length_c   9.57699695
_cell_angle_alpha   90.17199176
_cell_angle_beta   89.82800606
_cell_angle_gamma   119.90585017
_symmetry_Int_Tables_number   1
_chemical_formula_structural   Y6Al25Os7
_chemical_formula_sum   'Y6 Al25 Os7'
_cell_volume   655.59018394
_cell_formula_units_Z   1
loop_
 _symmetry_equiv_pos_site_id
 _symmetry_equiv_pos_as_xyz
  1  'x, y, z'
loop_
 _atom_site_type_symbol
 _atom_site_label
 _atom_site_symmetry_multiplicity
 _atom_site_fract_x
 _atom_site_fract_y
 _atom_site_fract_z
 _atom_site_occupancy
  Y  Y0  1  0.193064  0.384317  0.244245  1
  Y  Y1  1  0.806936  0.615683  0.755755  1
  Y  Y2  1  0.615683  0.806936  0.244245  1
  Y  Y3  1  0.384317  0.193064  0.755755  1
  Y  Y4  1  0.193447  0.806553  0.256754  1
  Y  Y5  1  0.806553  0.193447  0.743246  1
  Al  Al6  1  0.326507  0.673493  0.022072  1
  Al  Al7  1  0.673493  0.326507  0.977928  1
  Al  Al8  1  0.666057  0.333943  0.518027  1
  Al  Al9  1  0.333943  0.666057  0.481973  1
  Al  Al10  1  0.162634  0.326320  0.569802  1
  Al  Al11  1  0.837366  0.673680  0.430198  1
  Al  Al12  1  0.673680  0.837366  0.569802  1
  Al  Al13  1  0.851871  0.677455  0.081863  1
  Al  Al14  1  0.326320  0.162634  0.430198  1
  Al  Al15  1  0.148129  0.322545  0.918137  1
  Al  Al16  1  0.162841  0.837159  0.575960  1
  Al  Al17  1  0.322545  0.148129  0.081863  1
  Al  Al18  1  0.837159  0.162841  0.424040  1
  Al  Al19  1  0.677455  0.851871  0.918137  1
  Al  Al20  1  0.837104  0.162896  0.075650  1
  Al  Al21  1  0.162896  0.837104  0.924350  1
  Al  Al22  1  0.562382  0.120250  0.249787  1
  Al  Al23  1  0.437618  0.879750  0.750213  1
  Al  Al24  1  0.879750  0.437618  0.249787  1
  Al  Al25  1  0.120250  0.562382  0.750213  1
  Al  Al26  1  0.565854  0.434146  0.259081  1
  Al  Al27  1  0.434146  0.565854  0.740919  1
  Al  Al28  1  0.998871  0.001129  0.250708  1
  Al  Al29  1  0.001129  0.998871  0.749292  1
  Al  Al30  1  0.500000  0.500000  0.000000  1
  Os  Os31  1  0.500000  0.000000  0.000000  1
  Os  Os32  1  0.000000  0.500000  0.000000  1
  Os  Os33  1  0.500000  0.000000  0.500000  1
  Os  Os34  1  0.000000  0.500000  0.500000  1
  Os  Os35  1  0.500000  0.500000  0.500000  1
  Os  Os36  1  0.000000  0.000000  0.000000  1
  Os  Os37  1  0.000000  0.000000  0.500000  1
