# generated using pymatgen
data_TbEu9(Sn3H)2
_symmetry_space_group_name_H-M   'P 1'
_cell_length_a   9.67573546
_cell_length_b   9.67573515
_cell_length_c   9.67573503
_cell_angle_alpha   128.57363900
_cell_angle_beta   128.57363382
_cell_angle_gamma   75.69758043
_symmetry_Int_Tables_number   1
_chemical_formula_structural   TbEu9(Sn3H)2
_chemical_formula_sum   'Tb1 Eu9 Sn6 H2'
_cell_volume   538.57860285
_cell_formula_units_Z   1
loop_
 _symmetry_equiv_pos_site_id
 _symmetry_equiv_pos_as_xyz
  1  'x, y, z'
loop_
 _atom_site_type_symbol
 _atom_site_label
 _atom_site_symmetry_multiplicity
 _atom_site_fract_x
 _atom_site_fract_y
 _atom_site_fract_z
 _atom_site_occupancy
  Tb  Tb0  1  0.500000  0.500000  0.000000  1
  Eu  Eu1  1  0.000000  0.000000  0.000000  1
  Eu  Eu2  1  0.511478  0.012316  0.827181  1
  Eu  Eu3  1  0.185135  0.684296  0.172819  1
  Eu  Eu4  1  0.012316  0.185135  0.500839  1
  Eu  Eu5  1  0.684296  0.511478  0.499161  1
  Eu  Eu6  1  0.488522  0.987684  0.172819  1
  Eu  Eu7  1  0.814865  0.315704  0.827181  1
  Eu  Eu8  1  0.987684  0.814865  0.499161  1
  Eu  Eu9  1  0.315704  0.488522  0.500839  1
  Sn  Sn10  1  0.253731  0.253731  0.000000  1
  Sn  Sn11  1  0.746269  0.746269  0.000000  1
  Sn  Sn12  1  0.866908  0.378307  0.245215  1
  Sn  Sn13  1  0.133092  0.621693  0.754785  1
  Sn  Sn14  1  0.378307  0.133092  0.511399  1
  Sn  Sn15  1  0.621693  0.866908  0.488601  1
  H  H16  1  0.250000  0.750000  0.500000  1
  H  H17  1  0.750000  0.250000  0.500000  1
