# generated using pymatgen
data_ErBiAs4O9
_symmetry_space_group_name_H-M   'P 1'
_cell_length_a   6.88616676
_cell_length_b   7.54446591
_cell_length_c   9.98420372
_cell_angle_alpha   94.07877506
_cell_angle_beta   104.31862572
_cell_angle_gamma   104.64373933
_symmetry_Int_Tables_number   1
_chemical_formula_structural   ErBiAs4O9
_chemical_formula_sum   'Er2 Bi2 As8 O18'
_cell_volume   481.29748179
_cell_formula_units_Z   2
loop_
 _symmetry_equiv_pos_site_id
 _symmetry_equiv_pos_as_xyz
  1  'x, y, z'
loop_
 _atom_site_type_symbol
 _atom_site_label
 _atom_site_symmetry_multiplicity
 _atom_site_fract_x
 _atom_site_fract_y
 _atom_site_fract_z
 _atom_site_occupancy
  Er  Er0  1  0.718724  0.539361  0.410868  1
  Er  Er1  1  0.281276  0.460639  0.589132  1
  Bi  Bi2  1  0.238128  0.919784  0.619067  1
  Bi  Bi3  1  0.761872  0.080216  0.380933  1
  As  As4  1  0.677365  0.767767  0.072751  1
  As  As5  1  0.322635  0.232233  0.927249  1
  As  As6  1  0.176710  0.752993  0.913932  1
  As  As7  1  0.823290  0.247007  0.086068  1
  As  As8  1  0.745178  0.900674  0.704925  1
  As  As9  1  0.254822  0.099326  0.295075  1
  As  As10  1  0.805231  0.346556  0.698316  1
  As  As11  1  0.194769  0.653444  0.301684  1
  O  O12  1  0.718812  0.728747  0.246577  1
  O  O13  1  0.281188  0.271253  0.753423  1
  O  O14  1  0.317703  0.983213  0.878332  1
  O  O15  1  0.682297  0.016787  0.121668  1
  O  O16  1  0.608688  0.325388  0.986351  1
  O  O17  1  0.391312  0.674612  0.013649  1
  O  O18  1  0.137709  0.655966  0.738808  1
  O  O19  1  0.862291  0.344034  0.261192  1
  O  O20  1  0.832195  0.843869  0.555363  1
  O  O21  1  0.167805  0.156131  0.444637  1
  O  O22  1  0.485337  0.759114  0.667019  1
  O  O23  1  0.514663  0.240886  0.332981  1
  O  O24  1  0.381235  0.546452  0.384917  1
  O  O25  1  0.618765  0.453548  0.615083  1
  O  O26  1  0.086549  0.657948  0.452361  1
  O  O27  1  0.913451  0.342052  0.547639  1
  O  O28  1  0.358649  0.904825  0.359168  1
  O  O29  1  0.641351  0.095175  0.640832  1
