# generated using pymatgen
data_TbCoB4Ru3
_symmetry_space_group_name_H-M   'P 1'
_cell_length_a   9.12871409
_cell_length_b   7.40579837
_cell_length_c   7.40911239
_cell_angle_alpha   90.14900458
_cell_angle_beta   113.93270210
_cell_angle_gamma   114.37549066
_symmetry_Int_Tables_number   1
_chemical_formula_structural   TbCoB4Ru3
_chemical_formula_sum   'Tb4 Co4 B16 Ru12'
_cell_volume   408.23069560
_cell_formula_units_Z   4
loop_
 _symmetry_equiv_pos_site_id
 _symmetry_equiv_pos_as_xyz
  1  'x, y, z'
loop_
 _atom_site_type_symbol
 _atom_site_label
 _atom_site_symmetry_multiplicity
 _atom_site_fract_x
 _atom_site_fract_y
 _atom_site_fract_z
 _atom_site_occupancy
  Tb  Tb0  1  0.750273  0.869969  0.122387  1
  Tb  Tb1  1  0.248071  0.624167  0.371184  1
  Tb  Tb2  1  0.752303  0.376542  0.632569  1
  Tb  Tb3  1  0.249800  0.120502  0.880613  1
  Co  Co4  1  0.876036  0.557029  0.047984  1
  Co  Co5  1  0.376543  0.836553  0.047231  1
  Co  Co6  1  0.116151  0.942813  0.163278  1
  Co  Co7  1  0.630661  0.462813  0.172395  1
  B  B8  1  0.915319  0.295318  0.070673  1
  B  B9  1  0.423824  0.572005  0.128419  1
  B  B10  1  0.087767  0.209322  0.149736  1
  B  B11  1  0.575758  0.151312  0.203492  1
  B  B12  1  0.397977  0.043048  0.275742  1
  B  B13  1  0.910207  0.623565  0.348625  1
  B  B14  1  0.593118  0.642205  0.375529  1
  B  B15  1  0.082470  0.874025  0.431218  1
  B  B16  1  0.911037  0.126152  0.560007  1
  B  B17  1  0.415109  0.344272  0.624344  1
  B  B18  1  0.087001  0.377425  0.653604  1
  B  B19  1  0.584209  0.933519  0.707349  1
  B  B20  1  0.414554  0.851372  0.792094  1
  B  B21  1  0.916564  0.791319  0.859923  1
  B  B22  1  0.592462  0.442745  0.882039  1
  B  B23  1  0.091983  0.716268  0.950217  1
  Ru  Ru24  1  0.374920  0.324445  0.312986  1
  Ru  Ru25  1  0.866617  0.324630  0.331119  1
  Ru  Ru26  1  0.619669  0.953495  0.437623  1
  Ru  Ru27  1  0.126410  0.179484  0.455816  1
  Ru  Ru28  1  0.876934  0.825679  0.542129  1
  Ru  Ru29  1  0.367623  0.034000  0.543773  1
  Ru  Ru30  1  0.129932  0.682055  0.672943  1
  Ru  Ru31  1  0.627066  0.664203  0.677208  1
  Ru  Ru32  1  0.376833  0.541764  0.826241  1
  Ru  Ru33  1  0.873058  0.055735  0.833720  1
  Ru  Ru34  1  0.628236  0.174832  0.947652  1
  Ru  Ru35  1  0.133506  0.455420  0.968133  1
