# generated using pymatgen
data_Dy8Zn(Ga4Ag)3
_symmetry_space_group_name_H-M   'P 1'
_cell_length_a   7.06881400
_cell_length_b   9.01741761
_cell_length_c   9.01743200
_cell_angle_alpha   120.00006646
_cell_angle_beta   89.99996473
_cell_angle_gamma   90.00002783
_symmetry_Int_Tables_number   1
_chemical_formula_structural   Dy8Zn(Ga4Ag)3
_chemical_formula_sum   'Dy8 Zn1 Ga12 Ag3'
_cell_volume   497.78517039
_cell_formula_units_Z   1
loop_
 _symmetry_equiv_pos_site_id
 _symmetry_equiv_pos_as_xyz
  1  'x, y, z'
loop_
 _atom_site_type_symbol
 _atom_site_label
 _atom_site_symmetry_multiplicity
 _atom_site_fract_x
 _atom_site_fract_y
 _atom_site_fract_z
 _atom_site_occupancy
  Dy  Dy0  1  0.746847  0.000000  0.000000  1
  Dy  Dy1  1  0.252500  0.000000  0.000000  1
  Dy  Dy2  1  0.753164  0.488545  0.511455  1
  Dy  Dy3  1  0.252658  0.514425  0.485575  1
  Dy  Dy4  1  0.753164  0.022910  0.511455  1
  Dy  Dy5  1  0.252658  0.971150  0.485575  1
  Dy  Dy6  1  0.753164  0.488545  0.977090  1
  Dy  Dy7  1  0.252658  0.514426  0.028850  1
  Zn  Zn8  1  0.522087  0.666667  0.333333  1
  Ga  Ga9  1  0.965643  0.835212  0.164788  1
  Ga  Ga10  1  0.032783  0.165552  0.834449  1
  Ga  Ga11  1  0.965643  0.329575  0.164788  1
  Ga  Ga12  1  0.463978  0.164640  0.835360  1
  Ga  Ga13  1  0.032783  0.668897  0.834448  1
  Ga  Ga14  1  0.536840  0.831385  0.168614  1
  Ga  Ga15  1  0.965643  0.835211  0.670424  1
  Ga  Ga16  1  0.463978  0.670719  0.835360  1
  Ga  Ga17  1  0.032783  0.165552  0.331103  1
  Ga  Ga18  1  0.536840  0.337230  0.168615  1
  Ga  Ga19  1  0.463978  0.164641  0.329281  1
  Ga  Ga20  1  0.536840  0.831385  0.662769  1
  Ag  Ag21  1  0.959847  0.666667  0.333333  1
  Ag  Ag22  1  0.036555  0.333333  0.666667  1
  Ag  Ag23  1  0.466970  0.333333  0.666667  1
