# generated using pymatgen
data_Dy6Co14Si11PRh4
_symmetry_space_group_name_H-M   'P 1'
_cell_length_a   3.78949400
_cell_length_b   10.83803325
_cell_length_c   12.45060150
_cell_angle_alpha   89.94440509
_cell_angle_beta   90.00000000
_cell_angle_gamma   90.00000000
_symmetry_Int_Tables_number   1
_chemical_formula_structural   Dy6Co14Si11PRh4
_chemical_formula_sum   'Dy6 Co14 Si11 P1 Rh4'
_cell_volume   511.35420463
_cell_formula_units_Z   1
loop_
 _symmetry_equiv_pos_site_id
 _symmetry_equiv_pos_as_xyz
  1  'x, y, z'
loop_
 _atom_site_type_symbol
 _atom_site_label
 _atom_site_symmetry_multiplicity
 _atom_site_fract_x
 _atom_site_fract_y
 _atom_site_fract_z
 _atom_site_occupancy
  Dy  Dy0  1  0.000000  0.499178  0.522658  1
  Dy  Dy1  1  0.500000  0.000474  0.476265  1
  Dy  Dy2  1  0.500000  0.814507  0.204113  1
  Dy  Dy3  1  0.500000  0.187411  0.203035  1
  Dy  Dy4  1  0.000000  0.685387  0.797310  1
  Dy  Dy5  1  0.000000  0.313939  0.794472  1
  Co  Co6  1  0.000000  0.494448  0.987116  1
  Co  Co7  1  0.500000  0.001033  0.018056  1
  Co  Co8  1  0.500000  0.330034  0.997139  1
  Co  Co9  1  0.500000  0.669018  0.991314  1
  Co  Co10  1  0.000000  0.170658  0.008824  1
  Co  Co11  1  0.000000  0.830576  0.008453  1
  Co  Co12  1  0.500000  0.304790  0.428800  1
  Co  Co13  1  0.500000  0.695609  0.431042  1
  Co  Co14  1  0.000000  0.196673  0.568039  1
  Co  Co15  1  0.000000  0.804046  0.569701  1
  Co  Co16  1  0.500000  0.883567  0.709452  1
  Co  Co17  1  0.500000  0.117529  0.709101  1
  Co  Co18  1  0.000000  0.616755  0.291032  1
  Co  Co19  1  0.000000  0.382493  0.283100  1
  Si  Si20  1  0.500000  0.498406  0.888930  1
  Si  Si21  1  0.000000  0.000010  0.113323  1
  Si  Si22  1  0.500000  0.499783  0.342329  1
  Si  Si23  1  0.000000  0.000415  0.657413  1
  Si  Si24  1  0.500000  0.297334  0.612196  1
  Si  Si25  1  0.500000  0.702843  0.613937  1
  Si  Si26  1  0.000000  0.204551  0.384855  1
  Si  Si27  1  0.000000  0.796875  0.386780  1
  Si  Si28  1  0.500000  0.850602  0.897227  1
  Si  Si29  1  0.500000  0.150768  0.896796  1
  Si  Si30  1  0.000000  0.650388  0.103067  1
  P  P31  1  0.000000  0.343865  0.101465  1
  Rh  Rh32  1  0.500000  0.504752  0.152935  1
  Rh  Rh33  1  0.000000  0.000987  0.847963  1
  Rh  Rh34  1  0.500000  0.499727  0.697408  1
  Rh  Rh35  1  0.000000  0.000571  0.304354  1
