# generated using pymatgen
data_Nd2Dy2Re16Si7Ge
_symmetry_space_group_name_H-M   'P 1'
_cell_length_a   4.15519000
_cell_length_b   7.34152469
_cell_length_c   15.47379022
_cell_angle_alpha   90.24590839
_cell_angle_beta   90.00000000
_cell_angle_gamma   90.00000000
_symmetry_Int_Tables_number   1
_chemical_formula_structural   Nd2Dy2Re16Si7Ge
_chemical_formula_sum   'Nd2 Dy2 Re16 Si7 Ge1'
_cell_volume   472.03027637
_cell_formula_units_Z   1
loop_
 _symmetry_equiv_pos_site_id
 _symmetry_equiv_pos_as_xyz
  1  'x, y, z'
loop_
 _atom_site_type_symbol
 _atom_site_label
 _atom_site_symmetry_multiplicity
 _atom_site_fract_x
 _atom_site_fract_y
 _atom_site_fract_z
 _atom_site_occupancy
  Nd  Nd0  1  0.500000  0.081450  0.379136  1
  Nd  Nd1  1  0.500000  0.921612  0.621554  1
  Dy  Dy2  1  0.000000  0.579659  0.117189  1
  Dy  Dy3  1  0.000000  0.419999  0.882581  1
  Re  Re4  1  0.000000  0.142098  0.050719  1
  Re  Re5  1  0.000000  0.857218  0.949127  1
  Re  Re6  1  0.500000  0.633031  0.446880  1
  Re  Re7  1  0.500000  0.361312  0.552458  1
  Re  Re8  1  0.000000  0.729119  0.318394  1
  Re  Re9  1  0.000000  0.268250  0.681114  1
  Re  Re10  1  0.500000  0.235140  0.175802  1
  Re  Re11  1  0.500000  0.763688  0.823897  1
  Re  Re12  1  0.000000  0.429882  0.417682  1
  Re  Re13  1  0.000000  0.565895  0.582542  1
  Re  Re14  1  0.500000  0.931038  0.081166  1
  Re  Re15  1  0.500000  0.068410  0.918578  1
  Re  Re16  1  0.000000  0.986965  0.203842  1
  Re  Re17  1  0.000000  0.011842  0.796281  1
  Re  Re18  1  0.500000  0.490034  0.291110  1
  Re  Re19  1  0.500000  0.508810  0.708052  1
  Si  Si20  1  0.000000  0.176472  0.525404  1
  Si  Si21  1  0.500000  0.334224  0.022274  1
  Si  Si22  1  0.500000  0.665507  0.977609  1
  Si  Si23  1  0.000000  0.293124  0.270296  1
  Si  Si24  1  0.000000  0.706335  0.729422  1
  Si  Si25  1  0.500000  0.788503  0.224026  1
  Si  Si26  1  0.500000  0.211095  0.775899  1
  Ge  Ge27  1  0.000000  0.839290  0.476968  1
