# generated using pymatgen
data_La2Zn(AsRh2)6
_symmetry_space_group_name_H-M   'P 1'
_cell_length_a   10.02945800
_cell_length_b   10.02945914
_cell_length_c   4.02146400
_cell_angle_alpha   90.00000000
_cell_angle_beta   90.00000000
_cell_angle_gamma   120.00001603
_symmetry_Int_Tables_number   1
_chemical_formula_structural   La2Zn(AsRh2)6
_chemical_formula_sum   'La2 Zn1 As6 Rh12'
_cell_volume   350.32386555
_cell_formula_units_Z   1
loop_
 _symmetry_equiv_pos_site_id
 _symmetry_equiv_pos_as_xyz
  1  'x, y, z'
loop_
 _atom_site_type_symbol
 _atom_site_label
 _atom_site_symmetry_multiplicity
 _atom_site_fract_x
 _atom_site_fract_y
 _atom_site_fract_z
 _atom_site_occupancy
  La  La0  1  0.333333  0.666667  0.753538  1
  La  La1  1  0.666667  0.333333  0.246462  1
  Zn  Zn2  1  0.000000  0.000000  0.500000  1
  As  As3  1  0.886968  0.601287  0.749256  1
  As  As4  1  0.398713  0.285680  0.749256  1
  As  As5  1  0.714320  0.113032  0.749256  1
  As  As6  1  0.113032  0.398713  0.250744  1
  As  As7  1  0.601287  0.714320  0.250744  1
  As  As8  1  0.285680  0.886968  0.250744  1
  Rh  Rh9  1  0.615356  0.554363  0.750106  1
  Rh  Rh10  1  0.445637  0.060994  0.750106  1
  Rh  Rh11  1  0.939006  0.384644  0.750106  1
  Rh  Rh12  1  0.384644  0.445637  0.249894  1
  Rh  Rh13  1  0.554363  0.939006  0.249894  1
  Rh  Rh14  1  0.060994  0.615356  0.249894  1
  Rh  Rh15  1  0.123799  0.847407  0.751541  1
  Rh  Rh16  1  0.152593  0.276393  0.751541  1
  Rh  Rh17  1  0.723607  0.876201  0.751541  1
  Rh  Rh18  1  0.876201  0.152593  0.248459  1
  Rh  Rh19  1  0.847407  0.723607  0.248459  1
  Rh  Rh20  1  0.276393  0.123799  0.248459  1
