# generated using pymatgen
data_Yb3Pr6HoPb6
_symmetry_space_group_name_H-M   'P 1'
_cell_length_a   9.32350800
_cell_length_b   9.32350782
_cell_length_c   6.92326100
_cell_angle_alpha   90.00000000
_cell_angle_beta   90.00000000
_cell_angle_gamma   120.00000772
_symmetry_Int_Tables_number   1
_chemical_formula_structural   Yb3Pr6HoPb6
_chemical_formula_sum   'Yb3 Pr6 Ho1 Pb6'
_cell_volume   521.19469876
_cell_formula_units_Z   1
loop_
 _symmetry_equiv_pos_site_id
 _symmetry_equiv_pos_as_xyz
  1  'x, y, z'
loop_
 _atom_site_type_symbol
 _atom_site_label
 _atom_site_symmetry_multiplicity
 _atom_site_fract_x
 _atom_site_fract_y
 _atom_site_fract_z
 _atom_site_occupancy
  Yb  Yb0  1  0.333333  0.666667  0.000000  1
  Yb  Yb1  1  0.666667  0.333333  0.500000  1
  Yb  Yb2  1  0.666667  0.333333  0.000000  1
  Pr  Pr3  1  0.245711  0.000737  0.251072  1
  Pr  Pr4  1  0.245711  0.244973  0.748928  1
  Pr  Pr5  1  0.999263  0.754289  0.748928  1
  Pr  Pr6  1  0.999263  0.244973  0.251072  1
  Pr  Pr7  1  0.755027  0.754289  0.251072  1
  Pr  Pr8  1  0.755027  0.000737  0.748928  1
  Ho  Ho9  1  0.333333  0.666667  0.500000  1
  Pb  Pb10  1  0.600914  0.996914  0.252790  1
  Pb  Pb11  1  0.600914  0.604000  0.747210  1
  Pb  Pb12  1  0.003086  0.399086  0.747210  1
  Pb  Pb13  1  0.003086  0.604000  0.252790  1
  Pb  Pb14  1  0.396000  0.399086  0.252790  1
  Pb  Pb15  1  0.396000  0.996914  0.747210  1
