# generated using pymatgen
data_Ba2UBiS6
_symmetry_space_group_name_H-M   'P 1'
_cell_length_a   7.34652583
_cell_length_b   7.34642501
_cell_length_c   7.52448596
_cell_angle_alpha   119.86560297
_cell_angle_beta   119.86515489
_cell_angle_gamma   60.02479239
_symmetry_Int_Tables_number   1
_chemical_formula_structural   Ba2UBiS6
_chemical_formula_sum   'Ba2 U1 Bi1 S6'
_cell_volume   287.79433764
_cell_formula_units_Z   1
loop_
 _symmetry_equiv_pos_site_id
 _symmetry_equiv_pos_as_xyz
  1  'x, y, z'
loop_
 _atom_site_type_symbol
 _atom_site_label
 _atom_site_symmetry_multiplicity
 _atom_site_fract_x
 _atom_site_fract_y
 _atom_site_fract_z
 _atom_site_occupancy
  Ba  Ba0  1  0.747526  0.747526  0.229895  1
  Ba  Ba1  1  0.252474  0.252474  0.770104  1
  U  U2  1  0.000000  0.000000  0.000000  1
  Bi  Bi3  1  0.500000  0.500000  0.500000  1
  S  S4  1  0.698952  0.188047  0.184563  1
  S  S5  1  0.188047  0.698951  0.184564  1
  S  S6  1  0.239186  0.239186  0.337135  1
  S  S7  1  0.760814  0.760814  0.662866  1
  S  S8  1  0.811952  0.301049  0.815435  1
  S  S9  1  0.301048  0.811952  0.815436  1
