# generated using pymatgen
data_Tb2TmCo7(P3Ir)2
_symmetry_space_group_name_H-M   'P 1'
_cell_length_a   3.73729800
_cell_length_b   10.63912700
_cell_length_c   12.39897400
_cell_angle_alpha   90.00000000
_cell_angle_beta   90.00000000
_cell_angle_gamma   90.00000000
_symmetry_Int_Tables_number   1
_chemical_formula_structural   Tb2TmCo7(P3Ir)2
_chemical_formula_sum   'Tb4 Tm2 Co14 P12 Ir4'
_cell_volume   493.00289654
_cell_formula_units_Z   2
loop_
 _symmetry_equiv_pos_site_id
 _symmetry_equiv_pos_as_xyz
  1  'x, y, z'
loop_
 _atom_site_type_symbol
 _atom_site_label
 _atom_site_symmetry_multiplicity
 _atom_site_fract_x
 _atom_site_fract_y
 _atom_site_fract_z
 _atom_site_occupancy
  Tb  Tb0  1  0.000000  0.500000  0.520561  1
  Tb  Tb1  1  0.500000  0.000000  0.479954  1
  Tb  Tb2  1  0.500000  0.813141  0.205667  1
  Tb  Tb3  1  0.500000  0.186859  0.205667  1
  Tm  Tm4  1  0.000000  0.686415  0.793882  1
  Tm  Tm5  1  0.000000  0.313585  0.793882  1
  Co  Co6  1  0.000000  0.500000  0.987474  1
  Co  Co7  1  0.500000  0.000000  0.010282  1
  Co  Co8  1  0.500000  0.332586  0.992574  1
  Co  Co9  1  0.500000  0.667414  0.992574  1
  Co  Co10  1  0.000000  0.168240  0.005355  1
  Co  Co11  1  0.000000  0.831760  0.005355  1
  Co  Co12  1  0.500000  0.300178  0.429540  1
  Co  Co13  1  0.500000  0.699822  0.429540  1
  Co  Co14  1  0.000000  0.200469  0.572435  1
  Co  Co15  1  0.000000  0.799531  0.572435  1
  Co  Co16  1  0.500000  0.880161  0.711979  1
  Co  Co17  1  0.500000  0.119839  0.711979  1
  Co  Co18  1  0.000000  0.618732  0.288997  1
  Co  Co19  1  0.000000  0.381268  0.288997  1
  P  P20  1  0.500000  0.500000  0.889142  1
  P  P21  1  0.000000  0.000000  0.109259  1
  P  P22  1  0.500000  0.500000  0.350362  1
  P  P23  1  0.000000  0.000000  0.649986  1
  P  P24  1  0.500000  0.302383  0.614235  1
  P  P25  1  0.500000  0.697617  0.614235  1
  P  P26  1  0.000000  0.198328  0.387638  1
  P  P27  1  0.000000  0.801672  0.387638  1
  P  P28  1  0.500000  0.843685  0.893838  1
  P  P29  1  0.500000  0.156315  0.893838  1
  P  P30  1  0.000000  0.654495  0.104808  1
  P  P31  1  0.000000  0.345505  0.104808  1
  Ir  Ir32  1  0.500000  0.500000  0.160411  1
  Ir  Ir33  1  0.000000  0.000000  0.839181  1
  Ir  Ir34  1  0.500000  0.500000  0.705187  1
  Ir  Ir35  1  0.000000  0.000000  0.296308  1
