# generated using pymatgen
data_Rb2CrNiSe4
_symmetry_space_group_name_H-M   'P 1'
_cell_length_a   14.29652345
_cell_length_b   12.72386102
_cell_length_c   7.57107989
_cell_angle_alpha   85.58625298
_cell_angle_beta   62.54303500
_cell_angle_gamma   31.87071369
_symmetry_Int_Tables_number   1
_chemical_formula_structural   Rb2CrNiSe4
_chemical_formula_sum   'Rb4 Cr2 Ni2 Se8'
_cell_volume   478.15607027
_cell_formula_units_Z   2
loop_
 _symmetry_equiv_pos_site_id
 _symmetry_equiv_pos_as_xyz
  1  'x, y, z'
loop_
 _atom_site_type_symbol
 _atom_site_label
 _atom_site_symmetry_multiplicity
 _atom_site_fract_x
 _atom_site_fract_y
 _atom_site_fract_z
 _atom_site_occupancy
  Rb  Rb0  1  0.571799  0.571799  0.928201  1
  Rb  Rb1  1  0.928201  0.928201  0.571799  1
  Rb  Rb2  1  0.321799  0.321799  0.678201  1
  Rb  Rb3  1  0.678201  0.678201  0.321799  1
  Cr  Cr4  1  0.750000  0.750000  0.750000  1
  Cr  Cr5  1  0.500000  0.500000  0.500000  1
  Ni  Ni6  1  0.000000  0.000000  0.000000  1
  Ni  Ni7  1  0.250000  0.250000  0.250000  1
  Se  Se8  1  0.219586  0.886646  0.593506  1
  Se  Se9  1  0.300261  0.593506  0.886646  1
  Se  Se10  1  0.593506  0.300261  0.219586  1
  Se  Se11  1  0.886646  0.219586  0.300261  1
  Se  Se12  1  0.363354  0.030414  0.949739  1
  Se  Se13  1  0.949739  0.656494  0.363354  1
  Se  Se14  1  0.656494  0.949739  0.030414  1
  Se  Se15  1  0.030414  0.363354  0.656494  1
