# generated using pymatgen
data_YbDyY2(B4Ru)4
_symmetry_space_group_name_H-M   'P 1'
_cell_length_a   3.55048500
_cell_length_b   5.96582762
_cell_length_c   11.53075410
_cell_angle_alpha   89.95032043
_cell_angle_beta   90.00000000
_cell_angle_gamma   90.00000000
_symmetry_Int_Tables_number   1
_chemical_formula_structural   YbDyY2(B4Ru)4
_chemical_formula_sum   'Yb1 Dy1 Y2 B16 Ru4'
_cell_volume   244.23951544
_cell_formula_units_Z   1
loop_
 _symmetry_equiv_pos_site_id
 _symmetry_equiv_pos_as_xyz
  1  'x, y, z'
loop_
 _atom_site_type_symbol
 _atom_site_label
 _atom_site_symmetry_multiplicity
 _atom_site_fract_x
 _atom_site_fract_y
 _atom_site_fract_z
 _atom_site_occupancy
  Yb  Yb0  1  0.000000  0.629909  0.850164  1
  Dy  Dy1  1  0.000000  0.371483  0.149187  1
  Y  Y2  1  0.000000  0.128968  0.651147  1
  Y  Y3  1  0.000000  0.871618  0.350050  1
  B  B4  1  0.500000  0.475635  0.691940  1
  B  B5  1  0.500000  0.523889  0.308243  1
  B  B6  1  0.500000  0.975541  0.808740  1
  B  B7  1  0.500000  0.024749  0.191430  1
  B  B8  1  0.500000  0.288713  0.814938  1
  B  B9  1  0.500000  0.711003  0.184794  1
  B  B10  1  0.500000  0.787463  0.685938  1
  B  B11  1  0.500000  0.211470  0.314344  1
  B  B12  1  0.500000  0.364289  0.969383  1
  B  B13  1  0.500000  0.636035  0.030082  1
  B  B14  1  0.500000  0.863930  0.530338  1
  B  B15  1  0.500000  0.136217  0.469653  1
  B  B16  1  0.500000  0.388549  0.546931  1
  B  B17  1  0.500000  0.612202  0.453213  1
  B  B18  1  0.500000  0.886313  0.952854  1
  B  B19  1  0.500000  0.111667  0.046147  1
  Ru  Ru20  1  0.000000  0.139450  0.909122  1
  Ru  Ru21  1  0.000000  0.860366  0.092168  1
  Ru  Ru22  1  0.000000  0.640379  0.591277  1
  Ru  Ru23  1  0.000000  0.360164  0.407918  1
