# generated using pymatgen
data_Dy13Y4(TmBi4)3
_symmetry_space_group_name_H-M   'P 1'
_cell_length_a   8.25367337
_cell_length_b   9.52290500
_cell_length_c   12.05901400
_cell_angle_alpha   90.00000000
_cell_angle_beta   90.06606500
_cell_angle_gamma   90.00000000
_symmetry_Int_Tables_number   1
_chemical_formula_structural   Dy13Y4(TmBi4)3
_chemical_formula_sum   'Dy13 Y4 Tm3 Bi12'
_cell_volume   947.82517756
_cell_formula_units_Z   1
loop_
 _symmetry_equiv_pos_site_id
 _symmetry_equiv_pos_as_xyz
  1  'x, y, z'
loop_
 _atom_site_type_symbol
 _atom_site_label
 _atom_site_symmetry_multiplicity
 _atom_site_fract_x
 _atom_site_fract_y
 _atom_site_fract_z
 _atom_site_occupancy
  Dy  Dy0  1  0.474096  0.250000  0.488200  1
  Dy  Dy1  1  0.186611  0.750000  0.718901  1
  Dy  Dy2  1  0.686718  0.750000  0.781257  1
  Dy  Dy3  1  0.813390  0.250000  0.281016  1
  Dy  Dy4  1  0.313444  0.250000  0.218728  1
  Dy  Dy5  1  0.305822  0.436358  0.940548  1
  Dy  Dy6  1  0.806434  0.063420  0.559531  1
  Dy  Dy7  1  0.694059  0.936335  0.059545  1
  Dy  Dy8  1  0.193862  0.563639  0.440419  1
  Dy  Dy9  1  0.694059  0.563665  0.059545  1
  Dy  Dy10  1  0.193862  0.936361  0.440419  1
  Dy  Dy11  1  0.305822  0.063642  0.940548  1
  Dy  Dy12  1  0.806434  0.436580  0.559531  1
  Y  Y13  1  0.354406  0.750000  0.215434  1
  Y  Y14  1  0.854048  0.750000  0.284477  1
  Y  Y15  1  0.645853  0.250000  0.784931  1
  Y  Y16  1  0.145553  0.250000  0.715530  1
  Tm  Tm17  1  0.025447  0.750000  0.988468  1
  Tm  Tm18  1  0.525826  0.750000  0.511478  1
  Tm  Tm19  1  0.974289  0.250000  0.011515  1
  Bi  Bi20  1  0.433851  0.003009  0.673566  1
  Bi  Bi21  1  0.933891  0.496498  0.826979  1
  Bi  Bi22  1  0.566604  0.504344  0.326368  1
  Bi  Bi23  1  0.066259  0.996412  0.173010  1
  Bi  Bi24  1  0.566604  0.995656  0.326368  1
  Bi  Bi25  1  0.066259  0.503588  0.173010  1
  Bi  Bi26  1  0.433851  0.496991  0.673566  1
  Bi  Bi27  1  0.933891  0.003502  0.826979  1
  Bi  Bi28  1  0.408249  0.750000  0.957852  1
  Bi  Bi29  1  0.908111  0.750000  0.542282  1
  Bi  Bi30  1  0.591752  0.250000  0.042299  1
  Bi  Bi31  1  0.090641  0.250000  0.457703  1
