# generated using pymatgen
data_Tb5YbDyCo6Sn23
_symmetry_space_group_name_H-M   'P 1'
_cell_length_a   9.73993309
_cell_length_b   9.73907444
_cell_length_c   9.96844111
_cell_angle_alpha   90.00000153
_cell_angle_beta   89.98553949
_cell_angle_gamma   119.99708049
_symmetry_Int_Tables_number   1
_chemical_formula_structural   Tb5YbDyCo6Sn23
_chemical_formula_sum   'Tb5 Yb1 Dy1 Co6 Sn23'
_cell_volume   818.92531242
_cell_formula_units_Z   1
loop_
 _symmetry_equiv_pos_site_id
 _symmetry_equiv_pos_as_xyz
  1  'x, y, z'
loop_
 _atom_site_type_symbol
 _atom_site_label
 _atom_site_symmetry_multiplicity
 _atom_site_fract_x
 _atom_site_fract_y
 _atom_site_fract_z
 _atom_site_occupancy
  Tb  Tb0  1  0.479051  0.520916  0.305560  1
  Tb  Tb1  1  0.520942  0.479049  0.694435  1
  Tb  Tb2  1  0.479051  0.958134  0.305560  1
  Tb  Tb3  1  0.520942  0.041894  0.694435  1
  Tb  Tb4  1  0.041878  0.520938  0.305622  1
  Yb  Yb5  1  0.999997  0.999998  0.999996  1
  Dy  Dy6  1  0.958409  0.479205  0.694426  1
  Co  Co7  1  0.831809  0.168196  0.198410  1
  Co  Co8  1  0.168055  0.831596  0.801529  1
  Co  Co9  1  0.831809  0.663611  0.198410  1
  Co  Co10  1  0.168055  0.336461  0.801529  1
  Co  Co11  1  0.336397  0.168198  0.198397  1
  Co  Co12  1  0.663620  0.831811  0.801588  1
  Sn  Sn13  1  0.345363  0.999978  0.000006  1
  Sn  Sn14  1  0.654627  0.000012  0.999987  1
  Sn  Sn15  1  0.000006  0.345440  0.999900  1
  Sn  Sn16  1  0.000006  0.654566  0.999900  1
  Sn  Sn17  1  0.654627  0.654615  0.999987  1
  Sn  Sn18  1  0.345363  0.345385  0.000006  1
  Sn  Sn19  1  0.333213  0.666607  0.816275  1
  Sn  Sn20  1  0.666674  0.333336  0.183698  1
  Sn  Sn21  1  0.999984  0.999992  0.499984  1
  Sn  Sn22  1  0.781164  0.219049  0.452242  1
  Sn  Sn23  1  0.218676  0.780794  0.548045  1
  Sn  Sn24  1  0.781164  0.562115  0.452242  1
  Sn  Sn25  1  0.218676  0.437883  0.548045  1
  Sn  Sn26  1  0.437847  0.218924  0.452101  1
  Sn  Sn27  1  0.562145  0.781072  0.547898  1
  Sn  Sn28  1  0.333303  0.666652  0.117611  1
  Sn  Sn29  1  0.666996  0.333498  0.882187  1
  Sn  Sn30  1  0.116892  0.883120  0.274019  1
  Sn  Sn31  1  0.883181  0.117128  0.725973  1
  Sn  Sn32  1  0.116892  0.233772  0.274019  1
  Sn  Sn33  1  0.883181  0.766053  0.725973  1
  Sn  Sn34  1  0.766238  0.883119  0.274039  1
  Sn  Sn35  1  0.233768  0.116884  0.725965  1
