# generated using pymatgen
data_Dy2HoEr9Ni4
_symmetry_space_group_name_H-M   'P 1'
_cell_length_a   6.31647100
_cell_length_b   6.77667414
_cell_length_c   9.44806600
_cell_angle_alpha   90.00000000
_cell_angle_beta   90.00000000
_cell_angle_gamma   90.03303048
_symmetry_Int_Tables_number   1
_chemical_formula_structural   Dy2HoEr9Ni4
_chemical_formula_sum   'Dy2 Ho1 Er9 Ni4'
_cell_volume   404.42123910
_cell_formula_units_Z   1
loop_
 _symmetry_equiv_pos_site_id
 _symmetry_equiv_pos_as_xyz
  1  'x, y, z'
loop_
 _atom_site_type_symbol
 _atom_site_label
 _atom_site_symmetry_multiplicity
 _atom_site_fract_x
 _atom_site_fract_y
 _atom_site_fract_z
 _atom_site_occupancy
  Dy  Dy0  1  0.862227  0.529917  0.250000  1
  Dy  Dy1  1  0.637092  0.030623  0.250000  1
  Ho  Ho2  1  0.138427  0.469863  0.750000  1
  Er  Er3  1  0.320465  0.677892  0.065375  1
  Er  Er4  1  0.179892  0.177179  0.434927  1
  Er  Er5  1  0.679337  0.322311  0.565890  1
  Er  Er6  1  0.820007  0.822788  0.934434  1
  Er  Er7  1  0.679337  0.322311  0.934110  1
  Er  Er8  1  0.820007  0.822788  0.565566  1
  Er  Er9  1  0.320465  0.677892  0.434625  1
  Er  Er10  1  0.179892  0.177179  0.065073  1
  Er  Er11  1  0.362320  0.968293  0.750000  1
  Ni  Ni12  1  0.053876  0.891172  0.250000  1
  Ni  Ni13  1  0.444185  0.391475  0.250000  1
  Ni  Ni14  1  0.948161  0.108501  0.750000  1
  Ni  Ni15  1  0.554310  0.609816  0.750000  1
