# generated using pymatgen
data_Zr2ReTc3
_symmetry_space_group_name_H-M   'P 1'
_cell_length_a   5.31877600
_cell_length_b   5.22814936
_cell_length_c   8.74328309
_cell_angle_alpha   90.01377896
_cell_angle_beta   90.00021241
_cell_angle_gamma   120.57363478
_symmetry_Int_Tables_number   1
_chemical_formula_structural   Zr2ReTc3
_chemical_formula_sum   'Zr4 Re2 Tc6'
_cell_volume   209.32704563
_cell_formula_units_Z   2
loop_
 _symmetry_equiv_pos_site_id
 _symmetry_equiv_pos_as_xyz
  1  'x, y, z'
loop_
 _atom_site_type_symbol
 _atom_site_label
 _atom_site_symmetry_multiplicity
 _atom_site_fract_x
 _atom_site_fract_y
 _atom_site_fract_z
 _atom_site_occupancy
  Zr  Zr0  1  0.331347  0.662729  0.063729  1
  Zr  Zr1  1  0.668656  0.337294  0.563702  1
  Zr  Zr2  1  0.668632  0.337274  0.936262  1
  Zr  Zr3  1  0.331335  0.662704  0.436300  1
  Re  Re4  1  0.831063  0.662180  0.249992  1
  Re  Re5  1  0.168925  0.337830  0.750009  1
  Tc  Tc6  1  0.344376  0.171793  0.249969  1
  Tc  Tc7  1  0.827372  0.171809  0.249970  1
  Tc  Tc8  1  0.172603  0.828231  0.750031  1
  Tc  Tc9  1  0.655652  0.828246  0.750032  1
  Tc  Tc10  1  0.999968  0.999954  0.000028  1
  Tc  Tc11  1  0.999974  0.999952  0.499972  1
