# generated using pymatgen
data_LiYb2InO4
_symmetry_space_group_name_H-M   'P 1'
_cell_length_a   10.88157800
_cell_length_b   3.25600100
_cell_length_c   10.78063200
_cell_angle_alpha   90.00000000
_cell_angle_beta   90.00000000
_cell_angle_gamma   90.00000000
_symmetry_Int_Tables_number   1
_chemical_formula_structural   LiYb2InO4
_chemical_formula_sum   'Li4 Yb8 In4 O16'
_cell_volume   381.96241503
_cell_formula_units_Z   4
loop_
 _symmetry_equiv_pos_site_id
 _symmetry_equiv_pos_as_xyz
  1  'x, y, z'
loop_
 _atom_site_type_symbol
 _atom_site_label
 _atom_site_symmetry_multiplicity
 _atom_site_fract_x
 _atom_site_fract_y
 _atom_site_fract_z
 _atom_site_occupancy
  Li  Li0  1  0.854246  0.000000  0.091814  1
  Li  Li1  1  0.354246  0.000000  0.408186  1
  Li  Li2  1  0.645754  0.499999  0.591813  1
  Li  Li3  1  0.145753  0.499999  0.908186  1
  Yb  Yb4  1  0.633333  0.499999  0.072276  1
  Yb  Yb5  1  0.104447  0.000000  0.115971  1
  Yb  Yb6  1  0.604447  0.000000  0.384029  1
  Yb  Yb7  1  0.133334  0.499999  0.427724  1
  Yb  Yb8  1  0.866666  0.000000  0.572276  1
  Yb  Yb9  1  0.395552  0.499999  0.615970  1
  Yb  Yb10  1  0.895552  0.499999  0.884029  1
  Yb  Yb11  1  0.366665  0.000000  0.927723  1
  In  In12  1  0.360367  0.499999  0.204509  1
  In  In13  1  0.860368  0.499999  0.295490  1
  In  In14  1  0.139632  0.000000  0.704510  1
  In  In15  1  0.639632  0.000000  0.795489  1
  O  O16  1  0.245713  0.499999  0.043738  1
  O  O17  1  0.950783  0.499999  0.112138  1
  O  O18  1  0.477510  0.000000  0.123620  1
  O  O19  1  0.734439  0.000000  0.217124  1
  O  O20  1  0.234439  0.000000  0.282875  1
  O  O21  1  0.977510  0.000000  0.376379  1
  O  O22  1  0.450782  0.499999  0.387861  1
  O  O23  1  0.745713  0.499999  0.456261  1
  O  O24  1  0.254286  0.000000  0.543738  1
  O  O25  1  0.549217  0.000000  0.612139  1
  O  O26  1  0.022489  0.499999  0.623620  1
  O  O27  1  0.765560  0.499999  0.717125  1
  O  O28  1  0.265561  0.499999  0.782875  1
  O  O29  1  0.522488  0.499999  0.876379  1
  O  O30  1  0.049217  0.000000  0.887861  1
  O  O31  1  0.754286  0.000000  0.956261  1
