# generated using pymatgen
data_Y2FeNiIr2
_symmetry_space_group_name_H-M   'P 1'
_cell_length_a   5.33489102
_cell_length_b   5.09276313
_cell_length_c   5.33489097
_cell_angle_alpha   59.51181199
_cell_angle_beta   62.15662409
_cell_angle_gamma   59.51179868
_symmetry_Int_Tables_number   1
_chemical_formula_structural   Y2FeNiIr2
_chemical_formula_sum   'Y2 Fe1 Ni1 Ir2'
_cell_volume   103.25601270
_cell_formula_units_Z   1
loop_
 _symmetry_equiv_pos_site_id
 _symmetry_equiv_pos_as_xyz
  1  'x, y, z'
loop_
 _atom_site_type_symbol
 _atom_site_label
 _atom_site_symmetry_multiplicity
 _atom_site_fract_x
 _atom_site_fract_y
 _atom_site_fract_z
 _atom_site_occupancy
  Y  Y0  1  0.627925  0.619580  0.627925  1
  Y  Y1  1  0.372075  0.380420  0.372075  1
  Fe  Fe2  1  0.000000  0.500000  0.000000  1
  Ni  Ni3  1  0.000000  0.000000  0.000000  1
  Ir  Ir4  1  0.500000  0.000000  0.000000  1
  Ir  Ir5  1  0.000000  0.000000  0.500000  1
