# generated using pymatgen
data_Li3Y4Si8Ru
_symmetry_space_group_name_H-M   'P 1'
_cell_length_a   3.81683900
_cell_length_b   7.51545548
_cell_length_c   10.12529800
_cell_angle_alpha   89.95345714
_cell_angle_beta   90.00000000
_cell_angle_gamma   90.00000000
_symmetry_Int_Tables_number   1
_chemical_formula_structural   Li3Y4Si8Ru
_chemical_formula_sum   'Li3 Y4 Si8 Ru1'
_cell_volume   290.44694861
_cell_formula_units_Z   1
loop_
 _symmetry_equiv_pos_site_id
 _symmetry_equiv_pos_as_xyz
  1  'x, y, z'
loop_
 _atom_site_type_symbol
 _atom_site_label
 _atom_site_symmetry_multiplicity
 _atom_site_fract_x
 _atom_site_fract_y
 _atom_site_fract_z
 _atom_site_occupancy
  Li  Li0  1  0.750000  0.008459  0.605172  1
  Li  Li1  1  0.250000  0.490643  0.108663  1
  Li  Li2  1  0.750000  0.505320  0.890361  1
  Y  Y3  1  0.250000  0.139023  0.865116  1
  Y  Y4  1  0.750000  0.860227  0.137887  1
  Y  Y5  1  0.250000  0.643650  0.629228  1
  Y  Y6  1  0.750000  0.370625  0.366583  1
  Si  Si7  1  0.750000  0.260211  0.072206  1
  Si  Si8  1  0.250000  0.734646  0.931544  1
  Si  Si9  1  0.750000  0.790824  0.431791  1
  Si  Si10  1  0.250000  0.215132  0.561302  1
  Si  Si11  1  0.750000  0.843159  0.817961  1
  Si  Si12  1  0.250000  0.154491  0.192826  1
  Si  Si13  1  0.750000  0.336221  0.674444  1
  Si  Si14  1  0.250000  0.661645  0.323380  1
  Ru  Ru15  1  0.250000  0.985726  0.391538  1
