# generated using pymatgen
data_Tb3Dy3NbCo17P12
_symmetry_space_group_name_H-M   'P 1'
_cell_length_a   3.70181400
_cell_length_b   10.56713117
_cell_length_c   12.26923019
_cell_angle_alpha   90.02032879
_cell_angle_beta   90.00000000
_cell_angle_gamma   90.00000000
_symmetry_Int_Tables_number   1
_chemical_formula_structural   Tb3Dy3NbCo17P12
_chemical_formula_sum   'Tb3 Dy3 Nb1 Co17 P12'
_cell_volume   479.94224553
_cell_formula_units_Z   1
loop_
 _symmetry_equiv_pos_site_id
 _symmetry_equiv_pos_as_xyz
  1  'x, y, z'
loop_
 _atom_site_type_symbol
 _atom_site_label
 _atom_site_symmetry_multiplicity
 _atom_site_fract_x
 _atom_site_fract_y
 _atom_site_fract_z
 _atom_site_occupancy
  Tb  Tb0  1  0.000000  0.500068  0.526695  1
  Tb  Tb1  1  0.500000  0.999862  0.478088  1
  Tb  Tb2  1  0.500000  0.180288  0.207028  1
  Dy  Dy3  1  0.500000  0.819582  0.207119  1
  Dy  Dy4  1  0.000000  0.682995  0.795734  1
  Dy  Dy5  1  0.000000  0.317077  0.795957  1
  Nb  Nb6  1  0.500000  0.500076  0.154197  1
  Co  Co7  1  0.000000  0.999998  0.839140  1
  Co  Co8  1  0.500000  0.500022  0.702403  1
  Co  Co9  1  0.000000  0.999648  0.296382  1
  Co  Co10  1  0.000000  0.500022  0.984170  1
  Co  Co11  1  0.500000  0.999921  0.014045  1
  Co  Co12  1  0.500000  0.329842  0.989467  1
  Co  Co13  1  0.500000  0.670237  0.989571  1
  Co  Co14  1  0.000000  0.163748  0.003818  1
  Co  Co15  1  0.000000  0.836202  0.003943  1
  Co  Co16  1  0.500000  0.295224  0.432758  1
  Co  Co17  1  0.500000  0.704860  0.432595  1
  Co  Co18  1  0.000000  0.202666  0.569903  1
  Co  Co19  1  0.000000  0.797340  0.569808  1
  Co  Co20  1  0.500000  0.879750  0.708705  1
  Co  Co21  1  0.500000  0.120187  0.708748  1
  Co  Co22  1  0.000000  0.622788  0.294191  1
  Co  Co23  1  0.000000  0.377578  0.294375  1
  P  P24  1  0.500000  0.500028  0.881107  1
  P  P25  1  0.000000  0.999726  0.116702  1
  P  P26  1  0.500000  0.499963  0.355055  1
  P  P27  1  0.000000  0.999981  0.656563  1
  P  P28  1  0.500000  0.309252  0.617267  1
  P  P29  1  0.500000  0.690804  0.617208  1
  P  P30  1  0.000000  0.188769  0.385952  1
  P  P31  1  0.000000  0.811216  0.385617  1
  P  P32  1  0.500000  0.851146  0.890320  1
  P  P33  1  0.500000  0.148852  0.890408  1
  P  P34  1  0.000000  0.660942  0.102646  1
  P  P35  1  0.000000  0.339339  0.102320  1
