# generated using pymatgen
data_Np6Se7S3
_symmetry_space_group_name_H-M   'P 1'
_cell_length_a   7.65296800
_cell_length_b   8.11889272
_cell_length_c   12.10892136
_cell_angle_alpha   90.21783522
_cell_angle_beta   90.00000000
_cell_angle_gamma   90.00000000
_symmetry_Int_Tables_number   1
_chemical_formula_structural   Np6Se7S3
_chemical_formula_sum   'Np12 Se14 S6'
_cell_volume   752.36575599
_cell_formula_units_Z   2
loop_
 _symmetry_equiv_pos_site_id
 _symmetry_equiv_pos_as_xyz
  1  'x, y, z'
loop_
 _atom_site_type_symbol
 _atom_site_label
 _atom_site_symmetry_multiplicity
 _atom_site_fract_x
 _atom_site_fract_y
 _atom_site_fract_z
 _atom_site_occupancy
  Np  Np0  1  0.007931  0.005840  0.685677  1
  Np  Np1  1  0.507931  0.994160  0.814323  1
  Np  Np2  1  0.481946  0.493936  0.185765  1
  Np  Np3  1  0.981946  0.506064  0.314235  1
  Np  Np4  1  0.979991  0.997585  0.315773  1
  Np  Np5  1  0.479991  0.002415  0.184227  1
  Np  Np6  1  0.525080  0.501171  0.819764  1
  Np  Np7  1  0.025080  0.498829  0.680236  1
  Np  Np8  1  0.583920  0.243004  0.504128  1
  Np  Np9  1  0.083920  0.756996  0.995872  1
  Np  Np10  1  0.926142  0.244425  0.993755  1
  Np  Np11  1  0.426142  0.755575  0.506245  1
  Se  Se12  1  0.325999  0.251807  0.682298  1
  Se  Se13  1  0.825999  0.748193  0.817702  1
  Se  Se14  1  0.172811  0.246959  0.181539  1
  Se  Se15  1  0.672811  0.753041  0.318461  1
  Se  Se16  1  0.965376  0.247971  0.498324  1
  Se  Se17  1  0.465376  0.752029  0.001676  1
  Se  Se18  1  0.535978  0.244633  0.997476  1
  Se  Se19  1  0.035978  0.755367  0.502524  1
  Se  Se20  1  0.674029  0.546917  0.598227  1
  Se  Se21  1  0.174029  0.453083  0.901773  1
  Se  Se22  1  0.830422  0.953678  0.097252  1
  Se  Se23  1  0.330422  0.046322  0.402748  1
  Se  Se24  1  0.332684  0.457789  0.405280  1
  Se  Se25  1  0.832684  0.542211  0.094720  1
  S  S26  1  0.159632  0.040186  0.894110  1
  S  S27  1  0.659632  0.959814  0.605890  1
  S  S28  1  0.798230  0.255165  0.782066  1
  S  S29  1  0.298230  0.744835  0.717934  1
  S  S30  1  0.699829  0.248875  0.285025  1
  S  S31  1  0.199829  0.751125  0.214975  1
