# generated using pymatgen
data_HoTh2(SnRu)3
_symmetry_space_group_name_H-M   'P 1'
_cell_length_a   7.31892900
_cell_length_b   7.53932021
_cell_length_c   4.12489900
_cell_angle_alpha   90.00000000
_cell_angle_beta   90.00000000
_cell_angle_gamma   119.03763062
_symmetry_Int_Tables_number   1
_chemical_formula_structural   HoTh2(SnRu)3
_chemical_formula_sum   'Ho1 Th2 Sn3 Ru3'
_cell_volume   199.00045538
_cell_formula_units_Z   1
loop_
 _symmetry_equiv_pos_site_id
 _symmetry_equiv_pos_as_xyz
  1  'x, y, z'
loop_
 _atom_site_type_symbol
 _atom_site_label
 _atom_site_symmetry_multiplicity
 _atom_site_fract_x
 _atom_site_fract_y
 _atom_site_fract_z
 _atom_site_occupancy
  Ho  Ho0  1  0.588448  0.000000  0.000000  1
  Th  Th1  1  0.000827  0.585043  0.000000  1
  Th  Th2  1  0.415785  0.414957  0.000000  1
  Sn  Sn3  1  0.749322  0.763843  0.500000  1
  Sn  Sn4  1  0.985478  0.236157  0.500000  1
  Sn  Sn5  1  0.263100  0.000000  0.500000  1
  Ru  Ru6  1  0.314588  0.643680  0.500000  1
  Ru  Ru7  1  0.670910  0.356320  0.500000  1
  Ru  Ru8  1  0.011542  0.000000  0.000000  1
