# generated using pymatgen
data_Ho8InNiHg2
_symmetry_space_group_name_H-M   'P 1'
_cell_length_a   10.23394410
_cell_length_b   10.24434998
_cell_length_c   6.98080329
_cell_angle_alpha   89.91439781
_cell_angle_beta   90.00967439
_cell_angle_gamma   119.97918215
_symmetry_Int_Tables_number   1
_chemical_formula_structural   Ho8InNiHg2
_chemical_formula_sum   'Ho16 In2 Ni2 Hg4'
_cell_volume   633.94847824
_cell_formula_units_Z   2
loop_
 _symmetry_equiv_pos_site_id
 _symmetry_equiv_pos_as_xyz
  1  'x, y, z'
loop_
 _atom_site_type_symbol
 _atom_site_label
 _atom_site_symmetry_multiplicity
 _atom_site_fract_x
 _atom_site_fract_y
 _atom_site_fract_z
 _atom_site_occupancy
  Ho  Ho0  1  0.534016  0.068111  0.507445  1
  Ho  Ho1  1  0.930982  0.468281  0.511781  1
  Ho  Ho2  1  0.537298  0.468184  0.511844  1
  Ho  Ho3  1  0.466451  0.932850  0.007692  1
  Ho  Ho4  1  0.073184  0.532243  0.007799  1
  Ho  Ho5  1  0.459060  0.532257  0.007780  1
  Ho  Ho6  1  0.171702  0.343430  0.701561  1
  Ho  Ho7  1  0.654228  0.828080  0.717433  1
  Ho  Ho8  1  0.173887  0.828044  0.717309  1
  Ho  Ho9  1  0.822123  0.644288  0.197938  1
  Ho  Ho10  1  0.350388  0.180295  0.204639  1
  Ho  Ho11  1  0.829826  0.180283  0.204727  1
  Ho  Ho12  1  0.665589  0.331179  0.889897  1
  Ho  Ho13  1  0.331413  0.662882  0.394644  1
  Ho  Ho14  1  0.997849  0.995772  0.488216  1
  Ho  Ho15  1  0.999975  0.999831  0.991177  1
  In  In16  1  0.672409  0.836652  0.254776  1
  In  In17  1  0.164329  0.836706  0.254931  1
  Ni  Ni18  1  0.666139  0.332290  0.275707  1
  Ni  Ni19  1  0.333399  0.666801  0.776360  1
  Hg  Hg20  1  0.834888  0.669844  0.758035  1
  Hg  Hg21  1  0.331242  0.165395  0.758235  1
  Hg  Hg22  1  0.834142  0.165333  0.758249  1
  Hg  Hg23  1  0.165480  0.330968  0.259863  1
