# generated using pymatgen
data_Pr8Cd2OsAu
_symmetry_space_group_name_H-M   'P 1'
_cell_length_a   10.12567734
_cell_length_b   10.12567896
_cell_length_c   10.24643800
_cell_angle_alpha   59.60470004
_cell_angle_beta   59.60469466
_cell_angle_gamma   59.27809779
_symmetry_Int_Tables_number   1
_chemical_formula_structural   Pr8Cd2OsAu
_chemical_formula_sum   'Pr16 Cd4 Os2 Au2'
_cell_volume   734.32453463
_cell_formula_units_Z   2
loop_
 _symmetry_equiv_pos_site_id
 _symmetry_equiv_pos_as_xyz
  1  'x, y, z'
loop_
 _atom_site_type_symbol
 _atom_site_label
 _atom_site_symmetry_multiplicity
 _atom_site_fract_x
 _atom_site_fract_y
 _atom_site_fract_z
 _atom_site_occupancy
  Pr  Pr0  1  0.348429  0.348429  0.364003  1
  Pr  Pr1  1  0.348429  0.348429  0.939140  1
  Pr  Pr2  1  0.340631  0.957779  0.350796  1
  Pr  Pr3  1  0.957779  0.340631  0.350796  1
  Pr  Pr4  1  0.819721  0.188173  0.193941  1
  Pr  Pr5  1  0.188173  0.819721  0.798165  1
  Pr  Pr6  1  0.188173  0.819721  0.193941  1
  Pr  Pr7  1  0.819721  0.188173  0.798165  1
  Pr  Pr8  1  0.188201  0.188201  0.811799  1
  Pr  Pr9  1  0.804095  0.804095  0.195905  1
  Pr  Pr10  1  0.935730  0.556324  0.568739  1
  Pr  Pr11  1  0.556324  0.935730  0.939207  1
  Pr  Pr12  1  0.556324  0.935730  0.568739  1
  Pr  Pr13  1  0.935730  0.556324  0.939207  1
  Pr  Pr14  1  0.561269  0.561269  0.938731  1
  Pr  Pr15  1  0.936638  0.936638  0.563362  1
  Cd  Cd16  1  0.579907  0.579907  0.578706  1
  Cd  Cd17  1  0.579907  0.579907  0.261481  1
  Cd  Cd18  1  0.582487  0.258029  0.579741  1
  Cd  Cd19  1  0.258029  0.582487  0.579741  1
  Os  Os20  1  0.145645  0.145645  0.135464  1
  Os  Os21  1  0.145645  0.145645  0.573245  1
  Au  Au22  1  0.151907  0.571105  0.138493  1
  Au  Au23  1  0.571105  0.151907  0.138493  1
