# generated using pymatgen
data_Ce4Al4Os3Ru
_symmetry_space_group_name_H-M   'P 1'
_cell_length_a   4.13686400
_cell_length_b   7.16372514
_cell_length_c   15.82623352
_cell_angle_alpha   90.06468654
_cell_angle_beta   90.00000000
_cell_angle_gamma   90.00000000
_symmetry_Int_Tables_number   1
_chemical_formula_structural   Ce4Al4Os3Ru
_chemical_formula_sum   'Ce8 Al8 Os6 Ru2'
_cell_volume   469.01577582
_cell_formula_units_Z   2
loop_
 _symmetry_equiv_pos_site_id
 _symmetry_equiv_pos_as_xyz
  1  'x, y, z'
loop_
 _atom_site_type_symbol
 _atom_site_label
 _atom_site_symmetry_multiplicity
 _atom_site_fract_x
 _atom_site_fract_y
 _atom_site_fract_z
 _atom_site_occupancy
  Ce  Ce0  1  0.750000  0.955901  0.219087  1
  Ce  Ce1  1  0.250000  0.168622  0.561131  1
  Ce  Ce2  1  0.750000  0.833203  0.438920  1
  Ce  Ce3  1  0.750000  0.455777  0.280966  1
  Ce  Ce4  1  0.750000  0.332447  0.061558  1
  Ce  Ce5  1  0.250000  0.666564  0.938897  1
  Ce  Ce6  1  0.250000  0.043247  0.781219  1
  Ce  Ce7  1  0.250000  0.543827  0.718887  1
  Al  Al8  1  0.750000  0.502975  0.563521  1
  Al  Al9  1  0.750000  0.367684  0.849544  1
  Al  Al10  1  0.750000  0.003416  0.936450  1
  Al  Al11  1  0.750000  0.867483  0.651306  1
  Al  Al12  1  0.250000  0.496068  0.436293  1
  Al  Al13  1  0.250000  0.996003  0.062931  1
  Al  Al14  1  0.250000  0.634486  0.150624  1
  Al  Al15  1  0.250000  0.131146  0.350144  1
  Os  Os16  1  0.750000  0.742902  0.816430  1
  Os  Os17  1  0.250000  0.236563  0.934784  1
  Os  Os18  1  0.750000  0.264025  0.433723  1
  Os  Os19  1  0.250000  0.756917  0.316964  1
  Os  Os20  1  0.750000  0.763739  0.065765  1
  Os  Os21  1  0.750000  0.243103  0.683000  1
  Ru  Ru22  1  0.250000  0.258039  0.182614  1
  Ru  Ru23  1  0.250000  0.735862  0.565244  1
