# generated using pymatgen
data_PrGa3PtAu2
_symmetry_space_group_name_H-M   'P 1'
_cell_length_a   4.41010700
_cell_length_b   7.05069300
_cell_length_c   8.71682100
_cell_angle_alpha   90.00000000
_cell_angle_beta   90.00000000
_cell_angle_gamma   90.00000000
_symmetry_Int_Tables_number   1
_chemical_formula_structural   PrGa3PtAu2
_chemical_formula_sum   'Pr2 Ga6 Pt2 Au4'
_cell_volume   271.04353922
_cell_formula_units_Z   2
loop_
 _symmetry_equiv_pos_site_id
 _symmetry_equiv_pos_as_xyz
  1  'x, y, z'
loop_
 _atom_site_type_symbol
 _atom_site_label
 _atom_site_symmetry_multiplicity
 _atom_site_fract_x
 _atom_site_fract_y
 _atom_site_fract_z
 _atom_site_occupancy
  Pr  Pr0  1  0.500000  0.000000  0.758835  1
  Pr  Pr1  1  0.000000  0.500000  0.241165  1
  Ga  Ga2  1  0.000000  0.303228  0.894206  1
  Ga  Ga3  1  0.500000  0.196772  0.105794  1
  Ga  Ga4  1  0.000000  0.696772  0.894206  1
  Ga  Ga5  1  0.000000  0.000000  0.357840  1
  Ga  Ga6  1  0.500000  0.803228  0.105794  1
  Ga  Ga7  1  0.500000  0.500000  0.642160  1
  Pt  Pt8  1  0.500000  0.500000  0.939646  1
  Pt  Pt9  1  0.000000  0.000000  0.060354  1
  Au  Au10  1  0.000000  0.734689  0.599530  1
  Au  Au11  1  0.500000  0.765311  0.400470  1
  Au  Au12  1  0.500000  0.234689  0.400470  1
  Au  Au13  1  0.000000  0.265311  0.599530  1
