# generated using pymatgen
data_Er8Al2NiIr
_symmetry_space_group_name_H-M   'P 1'
_cell_length_a   9.41695159
_cell_length_b   9.41778394
_cell_length_c   9.42004701
_cell_angle_alpha   59.98996351
_cell_angle_beta   59.99735390
_cell_angle_gamma   59.94689503
_symmetry_Int_Tables_number   1
_chemical_formula_structural   Er8Al2NiIr
_chemical_formula_sum   'Er16 Al4 Ni2 Ir2'
_cell_volume   590.44700826
_cell_formula_units_Z   2
loop_
 _symmetry_equiv_pos_site_id
 _symmetry_equiv_pos_as_xyz
  1  'x, y, z'
loop_
 _atom_site_type_symbol
 _atom_site_label
 _atom_site_symmetry_multiplicity
 _atom_site_fract_x
 _atom_site_fract_y
 _atom_site_fract_z
 _atom_site_occupancy
  Er  Er0  1  0.351784  0.351763  0.347924  1
  Er  Er1  1  0.351876  0.351675  0.948501  1
  Er  Er2  1  0.356194  0.943651  0.350072  1
  Er  Er3  1  0.943664  0.356319  0.349993  1
  Er  Er4  1  0.806269  0.191473  0.193072  1
  Er  Er5  1  0.191450  0.806236  0.809306  1
  Er  Er6  1  0.191393  0.806239  0.193011  1
  Er  Er7  1  0.806235  0.191484  0.809269  1
  Er  Er8  1  0.192438  0.192497  0.807540  1
  Er  Er9  1  0.807879  0.807421  0.192362  1
  Er  Er10  1  0.937527  0.560899  0.564988  1
  Er  Er11  1  0.560859  0.937601  0.936659  1
  Er  Er12  1  0.560876  0.937636  0.564858  1
  Er  Er13  1  0.937587  0.560895  0.936629  1
  Er  Er14  1  0.564941  0.565189  0.934930  1
  Er  Er15  1  0.940096  0.940277  0.559796  1
  Al  Al16  1  0.577225  0.577231  0.579213  1
  Al  Al17  1  0.577191  0.577246  0.266333  1
  Al  Al18  1  0.576836  0.267770  0.577701  1
  Al  Al19  1  0.267604  0.576907  0.577742  1
  Ni  Ni20  1  0.141323  0.574813  0.141767  1
  Ni  Ni21  1  0.574906  0.140794  0.142221  1
  Ir  Ir22  1  0.141934  0.141956  0.144004  1
  Ir  Ir23  1  0.141914  0.142028  0.572104  1
