# generated using pymatgen
data_HfZrCu2(RhS4)2
_symmetry_space_group_name_H-M   'P 1'
_cell_length_a   7.15513776
_cell_length_b   7.14212140
_cell_length_c   7.15513845
_cell_angle_alpha   119.82620631
_cell_angle_beta   118.61022088
_cell_angle_gamma   91.41709762
_symmetry_Int_Tables_number   1
_chemical_formula_structural   HfZrCu2(RhS4)2
_chemical_formula_sum   'Hf1 Zr1 Cu2 Rh2 S8'
_cell_volume   261.36417881
_cell_formula_units_Z   1
loop_
 _symmetry_equiv_pos_site_id
 _symmetry_equiv_pos_as_xyz
  1  'x, y, z'
loop_
 _atom_site_type_symbol
 _atom_site_label
 _atom_site_symmetry_multiplicity
 _atom_site_fract_x
 _atom_site_fract_y
 _atom_site_fract_z
 _atom_site_occupancy
  Hf  Hf0  1  0.977142  0.254806  0.777663  1
  Zr  Zr1  1  0.026049  0.805811  0.279761  1
  Cu  Cu2  1  0.624414  0.596946  0.472531  1
  Cu  Cu3  1  0.375280  0.848172  0.972892  1
  Rh  Rh4  1  0.999160  0.238455  0.240236  1
  Rh  Rh5  1  0.498219  0.238455  0.739296  1
  S  S6  1  0.270348  0.033124  0.262775  1
  S  S7  1  0.758896  0.022839  0.267913  1
  S  S8  1  0.254927  0.022839  0.763943  1
  S  S9  1  0.242602  0.457294  0.714692  1
  S  S10  1  0.755533  0.469095  0.213562  1
  S  S11  1  0.733302  0.995444  0.762142  1
  S  S12  1  0.745107  0.502828  0.763806  1
  S  S13  1  0.239021  0.502828  0.257719  1
