# generated using pymatgen
data_Ca3Er(FeO3)4
_symmetry_space_group_name_H-M   'P 1'
_cell_length_a   5.34877475
_cell_length_b   5.52065715
_cell_length_c   7.62096200
_cell_angle_alpha   90.00000000
_cell_angle_beta   90.00000000
_cell_angle_gamma   89.82346223
_symmetry_Int_Tables_number   1
_chemical_formula_structural   Ca3Er(FeO3)4
_chemical_formula_sum   'Ca3 Er1 Fe4 O12'
_cell_volume   225.03642534
_cell_formula_units_Z   1
loop_
 _symmetry_equiv_pos_site_id
 _symmetry_equiv_pos_as_xyz
  1  'x, y, z'
loop_
 _atom_site_type_symbol
 _atom_site_label
 _atom_site_symmetry_multiplicity
 _atom_site_fract_x
 _atom_site_fract_y
 _atom_site_fract_z
 _atom_site_occupancy
  Ca  Ca0  1  0.488860  0.452203  0.250000  1
  Ca  Ca1  1  0.989336  0.051685  0.750000  1
  Ca  Ca2  1  0.012815  0.947864  0.250000  1
  Er  Er3  1  0.515828  0.564065  0.750000  1
  Fe  Fe4  1  0.499000  0.004219  0.498705  1
  Fe  Fe5  1  0.499000  0.004219  0.001295  1
  Fe  Fe6  1  0.001691  0.498006  0.000597  1
  Fe  Fe7  1  0.001691  0.498006  0.499403  1
  O  O8  1  0.203019  0.203977  0.041517  1
  O  O9  1  0.203019  0.203977  0.458483  1
  O  O10  1  0.701913  0.302935  0.947970  1
  O  O11  1  0.784439  0.784507  0.551625  1
  O  O12  1  0.294297  0.701341  0.465419  1
  O  O13  1  0.784439  0.784507  0.948375  1
  O  O14  1  0.419496  0.971265  0.750000  1
  O  O15  1  0.921198  0.522841  0.250000  1
  O  O16  1  0.101805  0.477909  0.750000  1
  O  O17  1  0.701913  0.302935  0.552030  1
  O  O18  1  0.294297  0.701341  0.034581  1
  O  O19  1  0.581947  0.022197  0.250000  1
