# generated using pymatgen
data_LaTm4(FeB3)2
_symmetry_space_group_name_H-M   'P 1'
_cell_length_a   5.40274981
_cell_length_b   5.40274948
_cell_length_c   8.17514982
_cell_angle_alpha   70.70468099
_cell_angle_beta   70.70468373
_cell_angle_gamma   60.00001472
_symmetry_Int_Tables_number   1
_chemical_formula_structural   LaTm4(FeB3)2
_chemical_formula_sum   'La1 Tm4 Fe2 B6'
_cell_volume   191.02513668
_cell_formula_units_Z   1
loop_
 _symmetry_equiv_pos_site_id
 _symmetry_equiv_pos_as_xyz
  1  'x, y, z'
loop_
 _atom_site_type_symbol
 _atom_site_label
 _atom_site_symmetry_multiplicity
 _atom_site_fract_x
 _atom_site_fract_y
 _atom_site_fract_z
 _atom_site_occupancy
  La  La0  1  0.000000  0.000000  0.000000  1
  Tm  Tm1  1  0.249612  0.249612  0.251163  1
  Tm  Tm2  1  0.750388  0.750388  0.748837  1
  Tm  Tm3  1  0.417623  0.417623  0.747131  1
  Tm  Tm4  1  0.582377  0.582377  0.252869  1
  Fe  Fe5  1  0.114305  0.114305  0.657085  1
  Fe  Fe6  1  0.885695  0.885695  0.342915  1
  B  B7  1  0.167926  0.832074  0.500000  1
  B  B8  1  0.832074  0.500000  0.500000  1
  B  B9  1  0.500000  0.167926  0.500000  1
  B  B10  1  0.167926  0.500000  0.500000  1
  B  B11  1  0.500000  0.832074  0.500000  1
  B  B12  1  0.832074  0.167926  0.500000  1
