# generated using pymatgen
data_Sc22OsRu6Rh
_symmetry_space_group_name_H-M   'P 1'
_cell_length_a   9.48515654
_cell_length_b   9.48515670
_cell_length_c   9.43795500
_cell_angle_alpha   60.16448458
_cell_angle_beta   60.16448401
_cell_angle_gamma   60.20832677
_symmetry_Int_Tables_number   1
_chemical_formula_structural   Sc22OsRu6Rh
_chemical_formula_sum   'Sc22 Os1 Ru6 Rh1'
_cell_volume   602.85058206
_cell_formula_units_Z   1
loop_
 _symmetry_equiv_pos_site_id
 _symmetry_equiv_pos_as_xyz
  1  'x, y, z'
loop_
 _atom_site_type_symbol
 _atom_site_label
 _atom_site_symmetry_multiplicity
 _atom_site_fract_x
 _atom_site_fract_y
 _atom_site_fract_z
 _atom_site_occupancy
  Sc  Sc0  1  0.843353  0.843353  0.843130  1
  Sc  Sc1  1  0.532100  0.154329  0.156785  1
  Sc  Sc2  1  0.156647  0.156647  0.529834  1
  Sc  Sc3  1  0.154329  0.532100  0.156785  1
  Sc  Sc4  1  0.843353  0.843353  0.470166  1
  Sc  Sc5  1  0.845671  0.467900  0.843215  1
  Sc  Sc6  1  0.467900  0.845671  0.843215  1
  Sc  Sc7  1  0.156647  0.156647  0.156870  1
  Sc  Sc8  1  0.196424  0.803576  0.199092  1
  Sc  Sc9  1  0.196424  0.803576  0.800908  1
  Sc  Sc10  1  0.803576  0.196424  0.199092  1
  Sc  Sc11  1  0.801637  0.801637  0.198363  1
  Sc  Sc12  1  0.198363  0.198363  0.801637  1
  Sc  Sc13  1  0.803576  0.196424  0.800908  1
  Sc  Sc14  1  0.382130  0.382130  0.385886  1
  Sc  Sc15  1  0.150256  0.616699  0.616522  1
  Sc  Sc16  1  0.616699  0.150256  0.616522  1
  Sc  Sc17  1  0.617870  0.617870  0.150147  1
  Sc  Sc18  1  0.383301  0.849744  0.383478  1
  Sc  Sc19  1  0.382130  0.382130  0.849853  1
  Sc  Sc20  1  0.849744  0.383301  0.383478  1
  Sc  Sc21  1  0.617870  0.617870  0.614114  1
  Os  Os22  1  0.500000  0.500000  0.500000  1
  Ru  Ru23  1  0.000000  0.000000  0.500000  1
  Ru  Ru24  1  0.500000  0.000000  0.500000  1
  Ru  Ru25  1  0.000000  0.500000  0.500000  1
  Ru  Ru26  1  0.500000  0.000000  0.000000  1
  Ru  Ru27  1  0.000000  0.500000  0.000000  1
  Ru  Ru28  1  0.000000  0.000000  0.000000  1
  Rh  Rh29  1  0.500000  0.500000  0.000000  1
