# generated using pymatgen
data_Ho2Tm8(InBi)3
_symmetry_space_group_name_H-M   'P 1'
_cell_length_a   6.53336400
_cell_length_b   8.93975185
_cell_length_c   8.94764600
_cell_angle_alpha   120.02317620
_cell_angle_beta   90.00003981
_cell_angle_gamma   90.00005079
_symmetry_Int_Tables_number   1
_chemical_formula_structural   Ho2Tm8(InBi)3
_chemical_formula_sum   'Ho2 Tm8 In3 Bi3'
_cell_volume   452.48092169
_cell_formula_units_Z   1
loop_
 _symmetry_equiv_pos_site_id
 _symmetry_equiv_pos_as_xyz
  1  'x, y, z'
loop_
 _atom_site_type_symbol
 _atom_site_label
 _atom_site_symmetry_multiplicity
 _atom_site_fract_x
 _atom_site_fract_y
 _atom_site_fract_z
 _atom_site_occupancy
  Ho  Ho0  1  0.749999  0.235701  0.999986  1
  Ho  Ho1  1  0.749996  0.764110  0.764167  1
  Tm  Tm2  1  0.492334  0.333372  0.666669  1
  Tm  Tm3  1  0.492333  0.666633  0.333310  1
  Tm  Tm4  1  0.007668  0.666632  0.333313  1
  Tm  Tm5  1  0.007668  0.333371  0.666668  1
  Tm  Tm6  1  0.749998  0.999924  0.236050  1
  Tm  Tm7  1  0.250001  0.763202  0.000192  1
  Tm  Tm8  1  0.249999  0.236975  0.237092  1
  Tm  Tm9  1  0.249998  0.000072  0.762653  1
  In  In10  1  0.250000  0.394330  0.000046  1
  In  In11  1  0.250000  0.605776  0.605823  1
  In  In12  1  0.250001  0.000044  0.394339  1
  Bi  Bi13  1  0.750002  0.603493  0.000434  1
  Bi  Bi14  1  0.750000  0.396378  0.396824  1
  Bi  Bi15  1  0.750000  0.999988  0.602436  1
