# generated using pymatgen
data_SrLaPr2(Si5Pt3)2
_symmetry_space_group_name_H-M   'P 1'
_cell_length_a   8.31346947
_cell_length_b   8.32221409
_cell_length_c   8.32221360
_cell_angle_alpha   136.80715033
_cell_angle_beta   105.51051854
_cell_angle_gamma   90.21862014
_symmetry_Int_Tables_number   1
_chemical_formula_structural   SrLaPr2(Si5Pt3)2
_chemical_formula_sum   'Sr1 La1 Pr2 Si10 Pt6'
_cell_volume   362.08882584
_cell_formula_units_Z   1
loop_
 _symmetry_equiv_pos_site_id
 _symmetry_equiv_pos_as_xyz
  1  'x, y, z'
loop_
 _atom_site_type_symbol
 _atom_site_label
 _atom_site_symmetry_multiplicity
 _atom_site_fract_x
 _atom_site_fract_y
 _atom_site_fract_z
 _atom_site_occupancy
  Sr  Sr0  1  0.863071  0.627993  0.235077  1
  La  La1  1  0.138020  0.371391  0.766628  1
  Pr  Pr2  1  0.395172  0.127997  0.267175  1
  Pr  Pr3  1  0.605574  0.872223  0.733351  1
  Si  Si4  1  0.499618  0.748970  0.249491  1
  Si  Si5  1  0.499618  0.250127  0.750649  1
  Si  Si6  1  0.230087  0.980970  0.750688  1
  Si  Si7  1  0.770473  0.521465  0.750730  1
  Si  Si8  1  0.770473  0.019744  0.249008  1
  Si  Si9  1  0.230087  0.479400  0.249118  1
  Si  Si10  1  0.036355  0.888068  0.148287  1
  Si  Si11  1  0.963049  0.112168  0.850881  1
  Si  Si12  1  0.737878  0.386304  0.351574  1
  Si  Si13  1  0.261069  0.612909  0.648159  1
  Pt  Pt14  1  0.000784  0.750143  0.750721  1
  Pt  Pt15  1  0.000784  0.250064  0.250641  1
  Pt  Pt16  1  0.253619  0.863970  0.389650  1
  Pt  Pt17  1  0.744393  0.135647  0.608745  1
  Pt  Pt18  1  0.474736  0.363948  0.110788  1
  Pt  Pt19  1  0.525137  0.636501  0.888637  1
