# generated using pymatgen
data_BaGa5Pt3
_symmetry_space_group_name_H-M   'P 1'
_cell_length_a   4.25724800
_cell_length_b   7.54337900
_cell_length_c   21.50616500
_cell_angle_alpha   90.00000000
_cell_angle_beta   90.00000000
_cell_angle_gamma   90.00000000
_symmetry_Int_Tables_number   1
_chemical_formula_structural   BaGa5Pt3
_chemical_formula_sum   'Ba4 Ga20 Pt12'
_cell_volume   690.64973899
_cell_formula_units_Z   4
loop_
 _symmetry_equiv_pos_site_id
 _symmetry_equiv_pos_as_xyz
  1  'x, y, z'
loop_
 _atom_site_type_symbol
 _atom_site_label
 _atom_site_symmetry_multiplicity
 _atom_site_fract_x
 _atom_site_fract_y
 _atom_site_fract_z
 _atom_site_occupancy
  Ba  Ba0  1  0.250000  0.117304  0.640450  1
  Ba  Ba1  1  0.750000  0.882696  0.359550  1
  Ba  Ba2  1  0.250000  0.382696  0.140450  1
  Ba  Ba3  1  0.750000  0.617304  0.859550  1
  Ga  Ga4  1  0.750000  0.349130  0.384758  1
  Ga  Ga5  1  0.750000  0.887769  0.980749  1
  Ga  Ga6  1  0.750000  0.686682  0.200106  1
  Ga  Ga7  1  0.250000  0.869780  0.490266  1
  Ga  Ga8  1  0.250000  0.630220  0.990266  1
  Ga  Ga9  1  0.250000  0.313318  0.799894  1
  Ga  Ga10  1  0.750000  0.078088  0.205767  1
  Ga  Ga11  1  0.250000  0.650870  0.615242  1
  Ga  Ga12  1  0.250000  0.578088  0.294233  1
  Ga  Ga13  1  0.250000  0.186682  0.299894  1
  Ga  Ga14  1  0.750000  0.150870  0.884758  1
  Ga  Ga15  1  0.250000  0.921912  0.794233  1
  Ga  Ga16  1  0.750000  0.369780  0.009734  1
  Ga  Ga17  1  0.750000  0.612231  0.480749  1
  Ga  Ga18  1  0.750000  0.130220  0.509734  1
  Ga  Ga19  1  0.250000  0.112231  0.019251  1
  Ga  Ga20  1  0.250000  0.849130  0.115242  1
  Ga  Ga21  1  0.250000  0.387769  0.519251  1
  Ga  Ga22  1  0.750000  0.421912  0.705767  1
  Ga  Ga23  1  0.750000  0.813318  0.700106  1
  Pt  Pt24  1  0.750000  0.384080  0.266870  1
  Pt  Pt25  1  0.250000  0.884080  0.233130  1
  Pt  Pt26  1  0.250000  0.615920  0.733130  1
  Pt  Pt27  1  0.750000  0.115920  0.766870  1
  Pt  Pt28  1  0.250000  0.171645  0.429950  1
  Pt  Pt29  1  0.750000  0.434449  0.583303  1
  Pt  Pt30  1  0.750000  0.065551  0.083303  1
  Pt  Pt31  1  0.250000  0.934449  0.916697  1
  Pt  Pt32  1  0.750000  0.828355  0.570050  1
  Pt  Pt33  1  0.250000  0.328355  0.929950  1
  Pt  Pt34  1  0.750000  0.671645  0.070050  1
  Pt  Pt35  1  0.250000  0.565551  0.416697  1
