# generated using pymatgen
data_Zr5Be2Nb5Sn6
_symmetry_space_group_name_H-M   'P 1'
_cell_length_a   8.45213502
_cell_length_b   8.45213519
_cell_length_c   5.68592300
_cell_angle_alpha   90.00000000
_cell_angle_beta   90.00000000
_cell_angle_gamma   120.22450920
_symmetry_Int_Tables_number   1
_chemical_formula_structural   Zr5Be2Nb5Sn6
_chemical_formula_sum   'Zr5 Be2 Nb5 Sn6'
_cell_volume   350.97607182
_cell_formula_units_Z   1
loop_
 _symmetry_equiv_pos_site_id
 _symmetry_equiv_pos_as_xyz
  1  'x, y, z'
loop_
 _atom_site_type_symbol
 _atom_site_label
 _atom_site_symmetry_multiplicity
 _atom_site_fract_x
 _atom_site_fract_y
 _atom_site_fract_z
 _atom_site_occupancy
  Zr  Zr0  1  0.258947  0.003553  0.750000  1
  Zr  Zr1  1  0.003553  0.258947  0.750000  1
  Zr  Zr2  1  0.247983  0.247983  0.250000  1
  Zr  Zr3  1  0.747518  0.999440  0.250000  1
  Zr  Zr4  1  0.999440  0.747518  0.250000  1
  Be  Be5  1  0.993662  0.993662  0.986573  1
  Be  Be6  1  0.993662  0.993662  0.513427  1
  Nb  Nb7  1  0.667049  0.333144  0.999988  1
  Nb  Nb8  1  0.333144  0.667049  0.999988  1
  Nb  Nb9  1  0.333144  0.667049  0.500012  1
  Nb  Nb10  1  0.667049  0.333144  0.500012  1
  Nb  Nb11  1  0.748274  0.748274  0.750000  1
  Sn  Sn12  1  0.399529  0.399529  0.750000  1
  Sn  Sn13  1  0.609993  0.998144  0.750000  1
  Sn  Sn14  1  0.998144  0.609993  0.750000  1
  Sn  Sn15  1  0.605081  0.605081  0.250000  1
  Sn  Sn16  1  0.393957  0.999870  0.250000  1
  Sn  Sn17  1  0.999870  0.393957  0.250000  1
