# generated using pymatgen
data_EuAl2GaAu
_symmetry_space_group_name_H-M   'P 1'
_cell_length_a   4.43220500
_cell_length_b   4.43220500
_cell_length_c   10.72146600
_cell_angle_alpha   90.00000000
_cell_angle_beta   90.00000000
_cell_angle_gamma   90.00000000
_symmetry_Int_Tables_number   1
_chemical_formula_structural   EuAl2GaAu
_chemical_formula_sum   'Eu2 Al4 Ga2 Au2'
_cell_volume   210.61720801
_cell_formula_units_Z   2
loop_
 _symmetry_equiv_pos_site_id
 _symmetry_equiv_pos_as_xyz
  1  'x, y, z'
loop_
 _atom_site_type_symbol
 _atom_site_label
 _atom_site_symmetry_multiplicity
 _atom_site_fract_x
 _atom_site_fract_y
 _atom_site_fract_z
 _atom_site_occupancy
  Eu  Eu0  1  0.000000  0.500000  0.754303  1
  Eu  Eu1  1  0.500000  0.000000  0.245697  1
  Al  Al2  1  0.000000  0.500000  0.137474  1
  Al  Al3  1  0.500000  0.000000  0.862526  1
  Al  Al4  1  0.000000  0.000000  0.500000  1
  Al  Al5  1  0.500000  0.500000  0.500000  1
  Ga  Ga6  1  0.000000  0.000000  0.000000  1
  Ga  Ga7  1  0.500000  0.500000  0.000000  1
  Au  Au8  1  0.000000  0.500000  0.371797  1
  Au  Au9  1  0.500000  0.000000  0.628203  1
