# generated using pymatgen
data_VCr3(Se2O5)6
_symmetry_space_group_name_H-M   'P 1'
_cell_length_a   11.64486000
_cell_length_b   11.18337772
_cell_length_c   15.63951300
_cell_angle_alpha   49.69718803
_cell_angle_beta   90.00000000
_cell_angle_gamma   90.00000000
_symmetry_Int_Tables_number   1
_chemical_formula_structural   VCr3(Se2O5)6
_chemical_formula_sum   'V2 Cr6 Se24 O60'
_cell_volume   1553.27419111
_cell_formula_units_Z   2
loop_
 _symmetry_equiv_pos_site_id
 _symmetry_equiv_pos_as_xyz
  1  'x, y, z'
loop_
 _atom_site_type_symbol
 _atom_site_label
 _atom_site_symmetry_multiplicity
 _atom_site_fract_x
 _atom_site_fract_y
 _atom_site_fract_z
 _atom_site_occupancy
  V  V0  1  0.000000  0.500000  0.500000  1
  V  V1  1  0.500000  0.500000  0.000000  1
  Cr  Cr2  1  0.000000  0.000000  0.500000  1
  Cr  Cr3  1  0.500000  0.000000  0.000000  1
  Cr  Cr4  1  0.500000  0.500000  0.500000  1
  Cr  Cr5  1  0.000000  0.500000  0.000000  1
  Cr  Cr6  1  0.500000  0.000000  0.500000  1
  Cr  Cr7  1  0.000000  0.000000  0.000000  1
  Se  Se8  1  0.032358  0.115922  0.743920  1
  Se  Se9  1  0.467642  0.115922  0.243920  1
  Se  Se10  1  0.967642  0.884078  0.256080  1
  Se  Se11  1  0.532358  0.884078  0.756080  1
  Se  Se12  1  0.953708  0.834339  0.753324  1
  Se  Se13  1  0.546292  0.834339  0.253324  1
  Se  Se14  1  0.046292  0.165661  0.246676  1
  Se  Se15  1  0.453708  0.165661  0.746676  1
  Se  Se16  1  0.607345  0.657497  0.608490  1
  Se  Se17  1  0.892655  0.657497  0.108490  1
  Se  Se18  1  0.392655  0.342503  0.391510  1
  Se  Se19  1  0.107345  0.342503  0.891510  1
  Se  Se20  1  0.868967  0.703751  0.548321  1
  Se  Se21  1  0.631033  0.703751  0.048321  1
  Se  Se22  1  0.131033  0.296249  0.451679  1
  Se  Se23  1  0.368967  0.296249  0.951679  1
  Se  Se24  1  0.746557  0.386430  0.484691  1
  Se  Se25  1  0.753443  0.386430  0.984691  1
  Se  Se26  1  0.253443  0.613570  0.515309  1
  Se  Se27  1  0.246557  0.613570  0.015309  1
  Se  Se28  1  0.746365  0.168129  0.420059  1
  Se  Se29  1  0.753635  0.168129  0.920059  1
  Se  Se30  1  0.253635  0.831871  0.579941  1
  Se  Se31  1  0.246365  0.831871  0.079941  1
  O  O32  1  0.926740  0.964425  0.783930  1
  O  O33  1  0.573260  0.964425  0.283930  1
  O  O34  1  0.073260  0.035575  0.216070  1
  O  O35  1  0.426740  0.035575  0.716070  1
  O  O36  1  0.971002  0.262351  0.618358  1
  O  O37  1  0.528998  0.262351  0.118358  1
  O  O38  1  0.028998  0.737649  0.381642  1
  O  O39  1  0.471002  0.737649  0.881642  1
  O  O40  1  0.982891  0.147358  0.830245  1
  O  O41  1  0.517109  0.147358  0.330245  1
  O  O42  1  0.017109  0.852642  0.169755  1
  O  O43  1  0.482891  0.852642  0.669755  1
  O  O44  1  0.050724  0.706321  0.854240  1
  O  O45  1  0.449276  0.706321  0.354240  1
  O  O46  1  0.949276  0.293679  0.145760  1
  O  O47  1  0.550724  0.293679  0.645760  1
  O  O48  1  0.047406  0.951835  0.642940  1
  O  O49  1  0.452594  0.951835  0.142940  1
  O  O50  1  0.952594  0.048165  0.357060  1
  O  O51  1  0.547406  0.048165  0.857060  1
  O  O52  1  0.755593  0.618034  0.657050  1
  O  O53  1  0.744407  0.618034  0.157050  1
  O  O54  1  0.244407  0.381966  0.342950  1
  O  O55  1  0.255593  0.381966  0.842950  1
  O  O56  1  0.617230  0.857436  0.513551  1
  O  O57  1  0.882770  0.857436  0.013551  1
  O  O58  1  0.382770  0.142564  0.486449  1
  O  O59  1  0.117230  0.142564  0.986449  1
  O  O60  1  0.617188  0.610142  0.524402  1
  O  O61  1  0.882812  0.610142  0.024402  1
  O  O62  1  0.382812  0.389858  0.475598  1
  O  O63  1  0.117188  0.389858  0.975598  1
  O  O64  1  0.956806  0.770308  0.596993  1
  O  O65  1  0.543194  0.770308  0.096993  1
  O  O66  1  0.043194  0.229692  0.403007  1
  O  O67  1  0.456806  0.229692  0.903007  1
  O  O68  1  0.932232  0.529469  0.604330  1
  O  O69  1  0.567768  0.529469  0.104330  1
  O  O70  1  0.067768  0.470531  0.395670  1
  O  O71  1  0.432232  0.470531  0.895670  1
  O  O72  1  0.788410  0.348536  0.390048  1
  O  O73  1  0.711590  0.348536  0.890048  1
  O  O74  1  0.211590  0.651464  0.609952  1
  O  O75  1  0.288410  0.651464  0.109952  1
  O  O76  1  0.622982  0.486204  0.416870  1
  O  O77  1  0.877018  0.486204  0.916870  1
  O  O78  1  0.377018  0.513796  0.583130  1
  O  O79  1  0.122982  0.513796  0.083130  1
  O  O80  1  0.841974  0.535602  0.430172  1
  O  O81  1  0.658026  0.535602  0.930172  1
  O  O82  1  0.158026  0.464398  0.569828  1
  O  O83  1  0.341974  0.464398  0.069828  1
  O  O84  1  0.839304  0.037665  0.525160  1
  O  O85  1  0.660696  0.037665  0.025160  1
  O  O86  1  0.160696  0.962335  0.474840  1
  O  O87  1  0.339304  0.962335  0.974840  1
  O  O88  1  0.624846  0.128227  0.496636  1
  O  O89  1  0.875154  0.128227  0.996636  1
  O  O90  1  0.375154  0.871773  0.503364  1
  O  O91  1  0.124846  0.871773  0.003364  1
