# generated using pymatgen
data_GdTh(TcB2)3
_symmetry_space_group_name_H-M   'P 1'
_cell_length_a   6.30439839
_cell_length_b   6.30439795
_cell_length_c   7.58912600
_cell_angle_alpha   90.70586385
_cell_angle_beta   90.70584562
_cell_angle_gamma   114.73100141
_symmetry_Int_Tables_number   1
_chemical_formula_structural   GdTh(TcB2)3
_chemical_formula_sum   'Gd2 Th2 Tc6 B12'
_cell_volume   273.89642755
_cell_formula_units_Z   2
loop_
 _symmetry_equiv_pos_site_id
 _symmetry_equiv_pos_as_xyz
  1  'x, y, z'
loop_
 _atom_site_type_symbol
 _atom_site_label
 _atom_site_symmetry_multiplicity
 _atom_site_fract_x
 _atom_site_fract_y
 _atom_site_fract_z
 _atom_site_occupancy
  Gd  Gd0  1  0.900388  0.560907  0.679793  1
  Gd  Gd1  1  0.439093  0.099612  0.820207  1
  Th  Th2  1  0.092542  0.437867  0.328627  1
  Th  Th3  1  0.562133  0.907458  0.171373  1
  Tc  Tc4  1  0.586691  0.413309  0.250000  1
  Tc  Tc5  1  0.412184  0.587816  0.750000  1
  Tc  Tc6  1  0.989676  0.802763  0.087834  1
  Tc  Tc7  1  0.197237  0.010324  0.412166  1
  Tc  Tc8  1  0.009896  0.195832  0.912043  1
  Tc  Tc9  1  0.804168  0.990104  0.587957  1
  B  B10  1  0.246346  0.150213  0.126704  1
  B  B11  1  0.849787  0.753654  0.373296  1
  B  B12  1  0.757101  0.846539  0.865145  1
  B  B13  1  0.153461  0.242899  0.634855  1
  B  B14  1  0.583830  0.160768  0.485736  1
  B  B15  1  0.839232  0.416170  0.014264  1
  B  B16  1  0.418120  0.841366  0.520874  1
  B  B17  1  0.158634  0.581880  0.979126  1
  B  B18  1  0.444055  0.350857  0.535428  1
  B  B19  1  0.649143  0.555945  0.964572  1
  B  B20  1  0.556818  0.650536  0.468301  1
  B  B21  1  0.349464  0.443182  0.031699  1
