# generated using pymatgen
data_K10Sr2TaNbP8
_symmetry_space_group_name_H-M   'P 1'
_cell_length_a   10.20377426
_cell_length_b   10.20447269
_cell_length_c   7.79740811
_cell_angle_alpha   88.62370408
_cell_angle_beta   88.61884586
_cell_angle_gamma   120.63760723
_symmetry_Int_Tables_number   1
_chemical_formula_structural   K10Sr2TaNbP8
_chemical_formula_sum   'K10 Sr2 Ta1 Nb1 P8'
_cell_volume   697.73846460
_cell_formula_units_Z   1
loop_
 _symmetry_equiv_pos_site_id
 _symmetry_equiv_pos_as_xyz
  1  'x, y, z'
loop_
 _atom_site_type_symbol
 _atom_site_label
 _atom_site_symmetry_multiplicity
 _atom_site_fract_x
 _atom_site_fract_y
 _atom_site_fract_z
 _atom_site_occupancy
  K  K0  1  0.465143  0.527304  0.498568  1
  K  K1  1  0.060129  0.528695  0.501243  1
  K  K2  1  0.527262  0.465216  0.998501  1
  K  K3  1  0.528528  0.059844  0.001041  1
  K  K4  1  0.864054  0.143024  0.678638  1
  K  K5  1  0.291018  0.152359  0.710771  1
  K  K6  1  0.854524  0.714758  0.660640  1
  K  K7  1  0.142938  0.864082  0.178807  1
  K  K8  1  0.714941  0.854616  0.160880  1
  K  K9  1  0.152291  0.290913  0.210981  1
  Sr  Sr10  1  0.464094  0.935438  0.495568  1
  Sr  Sr11  1  0.935505  0.464238  0.995425  1
  Ta  Ta12  1  0.669953  0.331497  0.393058  1
  Nb  Nb13  1  0.331610  0.669878  0.893193  1
  P  P14  1  0.685159  0.338240  0.702117  1
  P  P15  1  0.338363  0.685364  0.202940  1
  P  P16  1  0.793567  0.198003  0.286312  1
  P  P17  1  0.404741  0.189877  0.318900  1
  P  P18  1  0.800947  0.587695  0.267994  1
  P  P19  1  0.197637  0.793725  0.786273  1
  P  P20  1  0.588202  0.801221  0.767818  1
  P  P21  1  0.189393  0.404010  0.818911  1
