# generated using pymatgen
data_Ti8Tc3Os4Ru
_symmetry_space_group_name_H-M   'P 1'
_cell_length_a   6.18700800
_cell_length_b   4.37177200
_cell_length_c   8.78184600
_cell_angle_alpha   90.00000000
_cell_angle_beta   89.99968598
_cell_angle_gamma   90.00000000
_symmetry_Int_Tables_number   1
_chemical_formula_structural   Ti8Tc3Os4Ru
_chemical_formula_sum   'Ti8 Tc3 Os4 Ru1'
_cell_volume   237.53302456
_cell_formula_units_Z   1
loop_
 _symmetry_equiv_pos_site_id
 _symmetry_equiv_pos_as_xyz
  1  'x, y, z'
loop_
 _atom_site_type_symbol
 _atom_site_label
 _atom_site_symmetry_multiplicity
 _atom_site_fract_x
 _atom_site_fract_y
 _atom_site_fract_z
 _atom_site_occupancy
  Ti  Ti0  1  0.001624  0.749999  0.125007  1
  Ti  Ti1  1  0.498406  0.749999  0.125012  1
  Ti  Ti2  1  0.000112  0.249999  0.375593  1
  Ti  Ti3  1  0.499923  0.249999  0.375595  1
  Ti  Ti4  1  0.500014  0.749999  0.624994  1
  Ti  Ti5  1  0.999956  0.749999  0.624997  1
  Ti  Ti6  1  0.499905  0.249999  0.874401  1
  Ti  Ti7  1  0.000065  0.249999  0.874404  1
  Tc  Tc8  1  0.250014  0.749999  0.374012  1
  Tc  Tc9  1  0.749983  0.249999  0.625004  1
  Tc  Tc10  1  0.249982  0.749999  0.875988  1
  Os  Os11  1  0.250016  0.249999  0.125008  1
  Os  Os12  1  0.750018  0.749999  0.374127  1
  Os  Os13  1  0.249987  0.249999  0.625002  1
  Os  Os14  1  0.749984  0.749999  0.875872  1
  Ru  Ru15  1  0.750012  0.249999  0.124985  1
