# generated using pymatgen
data_DyU3Ir4
_symmetry_space_group_name_H-M   'P 1'
_cell_length_a   10.52586600
_cell_length_b   5.63035759
_cell_length_c   5.64256634
_cell_angle_alpha   81.49399075
_cell_angle_beta   90.00000000
_cell_angle_gamma   90.00000000
_symmetry_Int_Tables_number   1
_chemical_formula_structural   DyU3Ir4
_chemical_formula_sum   'Dy2 U6 Ir8'
_cell_volume   330.72493259
_cell_formula_units_Z   2
loop_
 _symmetry_equiv_pos_site_id
 _symmetry_equiv_pos_as_xyz
  1  'x, y, z'
loop_
 _atom_site_type_symbol
 _atom_site_label
 _atom_site_symmetry_multiplicity
 _atom_site_fract_x
 _atom_site_fract_y
 _atom_site_fract_z
 _atom_site_occupancy
  Dy  Dy0  1  0.500093  0.101520  0.852239  1
  Dy  Dy1  1  0.000093  0.898480  0.147761  1
  U  U2  1  0.488634  0.666515  0.405344  1
  U  U3  1  0.988634  0.333485  0.594656  1
  U  U4  1  0.218780  0.387637  0.123423  1
  U  U5  1  0.718780  0.612363  0.876577  1
  U  U6  1  0.220210  0.842885  0.626029  1
  U  U7  1  0.720210  0.157115  0.373971  1
  Ir  Ir8  1  0.770277  0.115910  0.873582  1
  Ir  Ir9  1  0.270277  0.884090  0.126418  1
  Ir  Ir10  1  0.753566  0.652716  0.373554  1
  Ir  Ir11  1  0.253566  0.347284  0.626446  1
  Ir  Ir12  1  0.957619  0.409187  0.087745  1
  Ir  Ir13  1  0.457619  0.590813  0.912255  1
  Ir  Ir14  1  0.958822  0.821218  0.657960  1
  Ir  Ir15  1  0.458822  0.178782  0.342040  1
