# generated using pymatgen
data_Nb12Al4Pt4C3N
_symmetry_space_group_name_H-M   'P 1'
_cell_length_a   7.09766053
_cell_length_b   7.09766053
_cell_length_c   7.09766053
_cell_angle_alpha   89.91913361
_cell_angle_beta   89.91913361
_cell_angle_gamma   89.91913361
_symmetry_Int_Tables_number   1
_chemical_formula_structural   Nb12Al4Pt4C3N
_chemical_formula_sum   'Nb12 Al4 Pt4 C3 N1'
_cell_volume   357.55625146
_cell_formula_units_Z   1
loop_
 _symmetry_equiv_pos_site_id
 _symmetry_equiv_pos_as_xyz
  1  'x, y, z'
loop_
 _atom_site_type_symbol
 _atom_site_label
 _atom_site_symmetry_multiplicity
 _atom_site_fract_x
 _atom_site_fract_y
 _atom_site_fract_z
 _atom_site_occupancy
  Nb  Nb0  1  0.791305  0.954714  0.378817  1
  Nb  Nb1  1  0.708125  0.045173  0.880792  1
  Nb  Nb2  1  0.209840  0.455244  0.121669  1
  Nb  Nb3  1  0.290655  0.544689  0.619937  1
  Nb  Nb4  1  0.954714  0.378817  0.791305  1
  Nb  Nb5  1  0.045173  0.880792  0.708125  1
  Nb  Nb6  1  0.455244  0.121669  0.209840  1
  Nb  Nb7  1  0.544689  0.619937  0.290655  1
  Nb  Nb8  1  0.378817  0.791305  0.954714  1
  Nb  Nb9  1  0.880792  0.708125  0.045173  1
  Nb  Nb10  1  0.121669  0.209840  0.455244  1
  Nb  Nb11  1  0.619937  0.290655  0.544689  1
  Al  Al12  1  0.570673  0.429669  0.928123  1
  Al  Al13  1  0.429669  0.928123  0.570673  1
  Al  Al14  1  0.928123  0.570673  0.429669  1
  Al  Al15  1  0.071175  0.071175  0.071175  1
  Pt  Pt16  1  0.176773  0.822077  0.323800  1
  Pt  Pt17  1  0.323800  0.176773  0.822077  1
  Pt  Pt18  1  0.822077  0.323800  0.176773  1
  Pt  Pt19  1  0.677012  0.677012  0.677012  1
  C  C20  1  0.872520  0.127744  0.625468  1
  C  C21  1  0.625468  0.872520  0.127744  1
  C  C22  1  0.127744  0.625468  0.872520  1
  N  N23  1  0.374004  0.374004  0.374004  1
