# generated using pymatgen
data_DyY2(BPt2)3
_symmetry_space_group_name_H-M   'P 1'
_cell_length_a   5.35664900
_cell_length_b   5.36225108
_cell_length_c   7.97320000
_cell_angle_alpha   90.00000000
_cell_angle_beta   90.00000000
_cell_angle_gamma   119.96544061
_symmetry_Int_Tables_number   1
_chemical_formula_structural   DyY2(BPt2)3
_chemical_formula_sum   'Dy1 Y2 B3 Pt6'
_cell_volume   198.40598088
_cell_formula_units_Z   1
loop_
 _symmetry_equiv_pos_site_id
 _symmetry_equiv_pos_as_xyz
  1  'x, y, z'
loop_
 _atom_site_type_symbol
 _atom_site_label
 _atom_site_symmetry_multiplicity
 _atom_site_fract_x
 _atom_site_fract_y
 _atom_site_fract_z
 _atom_site_occupancy
  Dy  Dy0  1  0.500000  0.000000  0.000000  1
  Y  Y1  1  0.500000  0.500000  0.333348  1
  Y  Y2  1  0.000000  0.500000  0.666652  1
  B  B3  1  0.000000  0.500000  0.166674  1
  B  B4  1  0.500000  0.500000  0.833326  1
  B  B5  1  0.500000  0.000000  0.500000  1
  Pt  Pt6  1  0.304643  0.152089  0.666890  1
  Pt  Pt7  1  0.152556  0.847911  0.333110  1
  Pt  Pt8  1  0.847841  0.695683  0.000000  1
  Pt  Pt9  1  0.847444  0.152089  0.333110  1
  Pt  Pt10  1  0.152159  0.304317  0.000000  1
  Pt  Pt11  1  0.695357  0.847911  0.666890  1
