# generated using pymatgen
data_CsHf4(ZrTe2)8
_symmetry_space_group_name_H-M   'P 1'
_cell_length_a   7.87024171
_cell_length_b   11.23271315
_cell_length_c   11.83692178
_cell_angle_alpha   118.12413675
_cell_angle_beta   109.37894930
_cell_angle_gamma   90.02051815
_symmetry_Int_Tables_number   1
_chemical_formula_structural   CsHf4(ZrTe2)8
_chemical_formula_sum   'Cs1 Hf4 Zr8 Te16'
_cell_volume   854.99714943
_cell_formula_units_Z   1
loop_
 _symmetry_equiv_pos_site_id
 _symmetry_equiv_pos_as_xyz
  1  'x, y, z'
loop_
 _atom_site_type_symbol
 _atom_site_label
 _atom_site_symmetry_multiplicity
 _atom_site_fract_x
 _atom_site_fract_y
 _atom_site_fract_z
 _atom_site_occupancy
  Cs  Cs0  1  0.500316  0.999975  0.999144  1
  Hf  Hf1  1  0.187508  0.632284  0.126657  1
  Hf  Hf2  1  0.689402  0.633696  0.126255  1
  Hf  Hf3  1  0.305205  0.491170  0.365348  1
  Hf  Hf4  1  0.811122  0.493078  0.368943  1
  Zr  Zr5  1  0.122035  0.124886  0.489115  1
  Zr  Zr6  1  0.618306  0.123838  0.491250  1
  Zr  Zr7  1  0.311140  0.366316  0.874604  1
  Zr  Zr8  1  0.812855  0.367767  0.874458  1
  Zr  Zr9  1  0.189464  0.506759  0.632068  1
  Zr  Zr10  1  0.695101  0.508757  0.635649  1
  Zr  Zr11  1  0.381098  0.875221  0.507363  1
  Zr  Zr12  1  0.877238  0.874196  0.509488  1
  Te  Te13  1  0.730021  0.057163  0.711008  1
  Te  Te14  1  0.227155  0.056969  0.706466  1
  Te  Te15  1  0.849913  0.656045  0.948650  1
  Te  Te16  1  0.346810  0.651883  0.947168  1
  Te  Te17  1  0.547873  0.295309  0.347943  1
  Te  Te18  1  0.046427  0.291206  0.342572  1
  Te  Te19  1  0.771355  0.940324  0.290748  1
  Te  Te20  1  0.268658  0.940245  0.286483  1
  Te  Te21  1  0.656869  0.352933  0.060567  1
  Te  Te22  1  0.153906  0.348837  0.058892  1
  Te  Te23  1  0.951614  0.709875  0.653604  1
  Te  Te24  1  0.450121  0.706135  0.648376  1
  Te  Te25  1  0.957584  0.331425  0.664822  1
  Te  Te26  1  0.458126  0.334004  0.666347  1
  Te  Te27  1  0.541157  0.663582  0.332205  1
  Te  Te28  1  0.041622  0.666125  0.333806  1
