# generated using pymatgen
data_Y6Co2Tc(Ni5P4)3
_symmetry_space_group_name_H-M   'P 1'
_cell_length_a   3.76694100
_cell_length_b   10.53821800
_cell_length_c   12.32169700
_cell_angle_alpha   90.00000000
_cell_angle_beta   90.00000000
_cell_angle_gamma   90.00000000
_symmetry_Int_Tables_number   1
_chemical_formula_structural   Y6Co2Tc(Ni5P4)3
_chemical_formula_sum   'Y6 Co2 Tc1 Ni15 P12'
_cell_volume   489.13250150
_cell_formula_units_Z   1
loop_
 _symmetry_equiv_pos_site_id
 _symmetry_equiv_pos_as_xyz
  1  'x, y, z'
loop_
 _atom_site_type_symbol
 _atom_site_label
 _atom_site_symmetry_multiplicity
 _atom_site_fract_x
 _atom_site_fract_y
 _atom_site_fract_z
 _atom_site_occupancy
  Y  Y0  1  0.000000  0.500000  0.523612  1
  Y  Y1  1  0.500000  0.000000  0.479944  1
  Y  Y2  1  0.500000  0.816056  0.206745  1
  Y  Y3  1  0.500000  0.183944  0.206745  1
  Y  Y4  1  0.000000  0.684424  0.793177  1
  Y  Y5  1  0.000000  0.315576  0.793177  1
  Co  Co6  1  0.000000  0.500000  0.984850  1
  Co  Co7  1  0.500000  0.000000  0.016379  1
  Tc  Tc8  1  0.500000  0.500000  0.153128  1
  Ni  Ni9  1  0.000000  0.000000  0.841716  1
  Ni  Ni10  1  0.500000  0.500000  0.701861  1
  Ni  Ni11  1  0.000000  0.000000  0.298507  1
  Ni  Ni12  1  0.500000  0.329723  0.989333  1
  Ni  Ni13  1  0.500000  0.670277  0.989333  1
  Ni  Ni14  1  0.000000  0.166183  0.006444  1
  Ni  Ni15  1  0.000000  0.833817  0.006444  1
  Ni  Ni16  1  0.500000  0.302132  0.429154  1
  Ni  Ni17  1  0.500000  0.697868  0.429154  1
  Ni  Ni18  1  0.000000  0.198502  0.571306  1
  Ni  Ni19  1  0.000000  0.801498  0.571306  1
  Ni  Ni20  1  0.500000  0.879626  0.711562  1
  Ni  Ni21  1  0.500000  0.120374  0.711562  1
  Ni  Ni22  1  0.000000  0.619536  0.289937  1
  Ni  Ni23  1  0.000000  0.380464  0.289937  1
  P  P24  1  0.500000  0.500000  0.879752  1
  P  P25  1  0.000000  0.000000  0.121278  1
  P  P26  1  0.500000  0.500000  0.347003  1
  P  P27  1  0.000000  0.000000  0.656021  1
  P  P28  1  0.500000  0.312935  0.614915  1
  P  P29  1  0.500000  0.687065  0.614915  1
  P  P30  1  0.000000  0.185685  0.385881  1
  P  P31  1  0.000000  0.814315  0.385881  1
  P  P32  1  0.500000  0.852516  0.892837  1
  P  P33  1  0.500000  0.147484  0.892837  1
  P  P34  1  0.000000  0.651737  0.106683  1
  P  P35  1  0.000000  0.348263  0.106683  1
