# generated using pymatgen
data_Pr4Al16GaSiIr6
_symmetry_space_group_name_H-M   'P 1'
_cell_length_a   7.61427663
_cell_length_b   7.60210423
_cell_length_c   9.63533128
_cell_angle_alpha   90.01612702
_cell_angle_beta   89.91782355
_cell_angle_gamma   119.46443416
_symmetry_Int_Tables_number   1
_chemical_formula_structural   Pr4Al16GaSiIr6
_chemical_formula_sum   'Pr4 Al16 Ga1 Si1 Ir6'
_cell_volume   485.59903195
_cell_formula_units_Z   1
loop_
 _symmetry_equiv_pos_site_id
 _symmetry_equiv_pos_as_xyz
  1  'x, y, z'
loop_
 _atom_site_type_symbol
 _atom_site_label
 _atom_site_symmetry_multiplicity
 _atom_site_fract_x
 _atom_site_fract_y
 _atom_site_fract_z
 _atom_site_occupancy
  Pr  Pr0  1  0.994490  0.666706  0.247350  1
  Pr  Pr1  1  0.004989  0.330074  0.753869  1
  Pr  Pr2  1  0.677079  0.000679  0.246876  1
  Pr  Pr3  1  0.329366  0.005191  0.750737  1
  Al  Al4  1  0.868401  0.870137  0.749788  1
  Al  Al5  1  0.996031  0.669187  0.925575  1
  Al  Al6  1  0.997130  0.665104  0.571842  1
  Al  Al7  1  0.335100  0.001281  0.428348  1
  Al  Al8  1  0.003382  0.335272  0.432802  1
  Al  Al9  1  0.664215  0.997106  0.571838  1
  Al  Al10  1  0.659875  0.992144  0.925264  1
  Al  Al11  1  0.334474  0.001944  0.072679  1
  Al  Al12  1  0.335037  0.334340  0.549247  1
  Al  Al13  1  0.665962  0.666401  0.452146  1
  Al  Al14  1  0.664827  0.665465  0.049645  1
  Al  Al15  1  0.338004  0.334974  0.950776  1
  Al  Al16  1  0.339627  0.546517  0.250471  1
  Al  Al17  1  0.660931  0.453796  0.750303  1
  Al  Al18  1  0.544352  0.338920  0.250024  1
  Al  Al19  1  0.452945  0.658493  0.749586  1
  Ga  Ga20  1  0.135477  0.132917  0.250366  1
  Si  Si21  1  0.003031  0.335803  0.069880  1
  Ir  Ir22  1  0.677827  0.329160  0.001986  1
  Ir  Ir23  1  0.320503  0.662279  0.000936  1
  Ir  Ir24  1  0.328571  0.669567  0.499153  1
  Ir  Ir25  1  0.670462  0.329161  0.498723  1
  Ir  Ir26  1  0.998707  0.007376  0.998248  1
  Ir  Ir27  1  0.999201  0.000003  0.501543  1
