# generated using pymatgen
data_Ho4Ga5(CoNi2)3
_symmetry_space_group_name_H-M   'P 1'
_cell_length_a   5.19385750
_cell_length_b   5.19385777
_cell_length_c   12.05553347
_cell_angle_alpha   77.56019045
_cell_angle_beta   77.56018979
_cell_angle_gamma   60.00001137
_symmetry_Int_Tables_number   1
_chemical_formula_structural   Ho4Ga5(CoNi2)3
_chemical_formula_sum   'Ho4 Ga5 Co3 Ni6'
_cell_volume   272.79004086
_cell_formula_units_Z   1
loop_
 _symmetry_equiv_pos_site_id
 _symmetry_equiv_pos_as_xyz
  1  'x, y, z'
loop_
 _atom_site_type_symbol
 _atom_site_label
 _atom_site_symmetry_multiplicity
 _atom_site_fract_x
 _atom_site_fract_y
 _atom_site_fract_z
 _atom_site_occupancy
  Ho  Ho0  1  0.954327  0.954327  0.137018  1
  Ho  Ho1  1  0.045673  0.045673  0.862982  1
  Ho  Ho2  1  0.855154  0.855154  0.434538  1
  Ho  Ho3  1  0.144846  0.144846  0.565462  1
  Ga  Ga4  1  0.500000  0.500000  0.500000  1
  Ga  Ga5  1  0.721504  0.721504  0.835490  1
  Ga  Ga6  1  0.278496  0.278496  0.164510  1
  Ga  Ga7  1  0.611548  0.611548  0.165355  1
  Ga  Ga8  1  0.388452  0.388452  0.834645  1
  Co  Co9  1  0.000000  0.500000  0.000000  1
  Co  Co10  1  0.500000  0.000000  0.000000  1
  Co  Co11  1  0.500000  0.500000  0.000000  1
  Ni  Ni12  1  0.386589  0.386589  0.332351  1
  Ni  Ni13  1  0.894473  0.386589  0.332351  1
  Ni  Ni14  1  0.386589  0.894473  0.332351  1
  Ni  Ni15  1  0.613411  0.613411  0.667649  1
  Ni  Ni16  1  0.105527  0.613411  0.667649  1
  Ni  Ni17  1  0.613411  0.105527  0.667649  1
