# generated using pymatgen
data_Lu4Ge2B4Ru3Rh7
_symmetry_space_group_name_H-M   'P 1'
_cell_length_a   9.48263100
_cell_length_b   9.47976400
_cell_length_c   3.10972500
_cell_angle_alpha   90.00000000
_cell_angle_beta   90.00000000
_cell_angle_gamma   90.00134157
_symmetry_Int_Tables_number   1
_chemical_formula_structural   Lu4Ge2B4Ru3Rh7
_chemical_formula_sum   'Lu4 Ge2 B4 Ru3 Rh7'
_cell_volume   279.54283273
_cell_formula_units_Z   1
loop_
 _symmetry_equiv_pos_site_id
 _symmetry_equiv_pos_as_xyz
  1  'x, y, z'
loop_
 _atom_site_type_symbol
 _atom_site_label
 _atom_site_symmetry_multiplicity
 _atom_site_fract_x
 _atom_site_fract_y
 _atom_site_fract_z
 _atom_site_occupancy
  Lu  Lu0  1  0.828605  0.323797  0.000000  1
  Lu  Lu1  1  0.323166  0.174212  0.000000  1
  Lu  Lu2  1  0.674462  0.825280  0.000000  1
  Lu  Lu3  1  0.174562  0.673625  0.000000  1
  Ge  Ge4  1  0.000893  0.004396  0.000000  1
  Ge  Ge5  1  0.500081  0.500213  0.000000  1
  B  B6  1  0.621453  0.121064  0.000000  1
  B  B7  1  0.118829  0.374812  0.000000  1
  B  B8  1  0.879722  0.621716  0.000000  1
  B  B9  1  0.378280  0.879230  0.000000  1
  Ru  Ru10  1  0.070539  0.214589  0.500000  1
  Ru  Ru11  1  0.499784  0.999832  0.500000  1
  Ru  Ru12  1  0.000221  0.501671  0.500000  1
  Rh  Rh13  1  0.216374  0.926513  0.500000  1
  Rh  Rh14  1  0.782375  0.070052  0.500000  1
  Rh  Rh15  1  0.928490  0.786317  0.500000  1
  Rh  Rh16  1  0.429388  0.715432  0.500000  1
  Rh  Rh17  1  0.571529  0.284755  0.500000  1
  Rh  Rh18  1  0.715657  0.571789  0.500000  1
  Rh  Rh19  1  0.285591  0.430708  0.500000  1
