# generated using pymatgen
data_DyTm23Te12
_symmetry_space_group_name_H-M   'P 1'
_cell_length_a   4.01089100
_cell_length_b   11.38182795
_cell_length_c   21.94788584
_cell_angle_alpha   89.95307800
_cell_angle_beta   90.00000000
_cell_angle_gamma   90.00000000
_symmetry_Int_Tables_number   1
_chemical_formula_structural   DyTm23Te12
_chemical_formula_sum   'Dy1 Tm23 Te12'
_cell_volume   1001.94855506
_cell_formula_units_Z   1
loop_
 _symmetry_equiv_pos_site_id
 _symmetry_equiv_pos_as_xyz
  1  'x, y, z'
loop_
 _atom_site_type_symbol
 _atom_site_label
 _atom_site_symmetry_multiplicity
 _atom_site_fract_x
 _atom_site_fract_y
 _atom_site_fract_z
 _atom_site_occupancy
  Dy  Dy0  1  0.250000  0.888343  0.483269  1
  Tm  Tm1  1  0.250000  0.150745  0.391020  1
  Tm  Tm2  1  0.750000  0.848944  0.609007  1
  Tm  Tm3  1  0.750000  0.650645  0.108576  1
  Tm  Tm4  1  0.250000  0.349300  0.891356  1
  Tm  Tm5  1  0.250000  0.452766  0.339393  1
  Tm  Tm6  1  0.750000  0.546185  0.660635  1
  Tm  Tm7  1  0.750000  0.953205  0.160397  1
  Tm  Tm8  1  0.250000  0.046565  0.839668  1
  Tm  Tm9  1  0.250000  0.735418  0.231914  1
  Tm  Tm10  1  0.750000  0.264860  0.767883  1
  Tm  Tm11  1  0.750000  0.235189  0.267731  1
  Tm  Tm12  1  0.250000  0.764695  0.732317  1
  Tm  Tm13  1  0.250000  0.115049  0.034210  1
  Tm  Tm14  1  0.750000  0.884898  0.965850  1
  Tm  Tm15  1  0.750000  0.614914  0.465867  1
  Tm  Tm16  1  0.250000  0.384709  0.534088  1
  Tm  Tm17  1  0.250000  0.417126  0.145008  1
  Tm  Tm18  1  0.750000  0.582886  0.855085  1
  Tm  Tm19  1  0.750000  0.916572  0.354181  1
  Tm  Tm20  1  0.250000  0.083039  0.644949  1
  Tm  Tm21  1  0.250000  0.612567  0.982896  1
  Tm  Tm22  1  0.750000  0.387611  0.017270  1
  Tm  Tm23  1  0.750000  0.114270  0.517446  1
  Te  Te24  1  0.250000  0.849967  0.068939  1
  Te  Te25  1  0.750000  0.149957  0.931132  1
  Te  Te26  1  0.750000  0.350379  0.431133  1
  Te  Te27  1  0.250000  0.649252  0.569093  1
  Te  Te28  1  0.250000  0.710360  0.371863  1
  Te  Te29  1  0.750000  0.289697  0.627873  1
  Te  Te30  1  0.750000  0.210726  0.127872  1
  Te  Te31  1  0.250000  0.789378  0.872237  1
  Te  Te32  1  0.250000  0.020544  0.260295  1
  Te  Te33  1  0.750000  0.979316  0.739586  1
  Te  Te34  1  0.750000  0.520534  0.239361  1
  Te  Te35  1  0.250000  0.479387  0.760600  1
