# generated using pymatgen
data_Ba6EuSc(BO3)6
_symmetry_space_group_name_H-M   'P 1'
_cell_length_a   8.18495012
_cell_length_b   8.18495025
_cell_length_c   8.18495074
_cell_angle_alpha   105.78249635
_cell_angle_beta   105.78248821
_cell_angle_gamma   105.78250531
_symmetry_Int_Tables_number   1
_chemical_formula_structural   Ba6EuSc(BO3)6
_chemical_formula_sum   'Ba6 Eu1 Sc1 B6 O18'
_cell_volume   471.00559191
_cell_formula_units_Z   1
loop_
 _symmetry_equiv_pos_site_id
 _symmetry_equiv_pos_as_xyz
  1  'x, y, z'
loop_
 _atom_site_type_symbol
 _atom_site_label
 _atom_site_symmetry_multiplicity
 _atom_site_fract_x
 _atom_site_fract_y
 _atom_site_fract_z
 _atom_site_occupancy
  Ba  Ba0  1  0.650717  0.265754  0.163439  1
  Ba  Ba1  1  0.163439  0.650717  0.265753  1
  Ba  Ba2  1  0.734246  0.836561  0.349283  1
  Ba  Ba3  1  0.265754  0.163439  0.650717  1
  Ba  Ba4  1  0.836561  0.349283  0.734246  1
  Ba  Ba5  1  0.349283  0.734246  0.836561  1
  Eu  Eu6  1  0.000000  0.000000  0.000000  1
  Sc  Sc7  1  0.500000  0.500000  0.500000  1
  B  B8  1  0.297411  0.376506  0.050426  1
  B  B9  1  0.376506  0.050427  0.297411  1
  B  B10  1  0.050427  0.297411  0.376506  1
  B  B11  1  0.949573  0.702589  0.623494  1
  B  B12  1  0.623494  0.949573  0.702589  1
  B  B13  1  0.702589  0.623494  0.949573  1
  O  O14  1  0.728822  0.809075  0.011488  1
  O  O15  1  0.795871  0.552417  0.060751  1
  O  O16  1  0.988512  0.271178  0.190925  1
  O  O17  1  0.447582  0.939248  0.204129  1
  O  O18  1  0.427051  0.490418  0.226451  1
  O  O19  1  0.190925  0.988512  0.271178  1
  O  O20  1  0.490418  0.226451  0.427050  1
  O  O21  1  0.939248  0.204130  0.447582  1
  O  O22  1  0.226451  0.427051  0.490418  1
  O  O23  1  0.773549  0.572949  0.509582  1
  O  O24  1  0.060752  0.795870  0.552418  1
  O  O25  1  0.509582  0.773549  0.572950  1
  O  O26  1  0.809075  0.011488  0.728822  1
  O  O27  1  0.572949  0.509582  0.773549  1
  O  O28  1  0.552418  0.060752  0.795871  1
  O  O29  1  0.011488  0.728822  0.809075  1
  O  O30  1  0.204129  0.447583  0.939249  1
  O  O31  1  0.271178  0.190925  0.988512  1
