# generated using pymatgen
data_Ba2LuClO3
_symmetry_space_group_name_H-M   'P 1'
_cell_length_a   4.35648600
_cell_length_b   4.35648600
_cell_length_c   15.07456600
_cell_angle_alpha   90.00000000
_cell_angle_beta   90.00000000
_cell_angle_gamma   90.00000000
_symmetry_Int_Tables_number   1
_chemical_formula_structural   Ba2LuClO3
_chemical_formula_sum   'Ba4 Lu2 Cl2 O6'
_cell_volume   286.09973992
_cell_formula_units_Z   2
loop_
 _symmetry_equiv_pos_site_id
 _symmetry_equiv_pos_as_xyz
  1  'x, y, z'
loop_
 _atom_site_type_symbol
 _atom_site_label
 _atom_site_symmetry_multiplicity
 _atom_site_fract_x
 _atom_site_fract_y
 _atom_site_fract_z
 _atom_site_occupancy
  Ba  Ba0  1  0.250000  0.250000  0.094954  1
  Ba  Ba1  1  0.250000  0.250000  0.351658  1
  Ba  Ba2  1  0.750001  0.750001  0.648343  1
  Ba  Ba3  1  0.750001  0.750001  0.905046  1
  Lu  Lu4  1  0.750001  0.750001  0.216050  1
  Lu  Lu5  1  0.250000  0.250000  0.783950  1
  Cl  Cl6  1  0.750001  0.750001  0.423572  1
  Cl  Cl7  1  0.250000  0.250000  0.576428  1
  O  O8  1  0.750001  0.750001  0.077200  1
  O  O9  1  0.750001  0.250000  0.237927  1
  O  O10  1  0.250000  0.750001  0.237927  1
  O  O11  1  0.750001  0.250000  0.762074  1
  O  O12  1  0.250000  0.750001  0.762074  1
  O  O13  1  0.250000  0.250000  0.922801  1
