# generated using pymatgen
data_LaNd7(CdPt)2
_symmetry_space_group_name_H-M   'P 1'
_cell_length_a   10.05176999
_cell_length_b   10.05176926
_cell_length_c   10.04765200
_cell_angle_alpha   60.01354214
_cell_angle_beta   60.01354453
_cell_angle_gamma   60.00215980
_symmetry_Int_Tables_number   1
_chemical_formula_structural   LaNd7(CdPt)2
_chemical_formula_sum   'La2 Nd14 Cd4 Pt4'
_cell_volume   718.01018428
_cell_formula_units_Z   2
loop_
 _symmetry_equiv_pos_site_id
 _symmetry_equiv_pos_as_xyz
  1  'x, y, z'
loop_
 _atom_site_type_symbol
 _atom_site_label
 _atom_site_symmetry_multiplicity
 _atom_site_fract_x
 _atom_site_fract_y
 _atom_site_fract_z
 _atom_site_occupancy
  La  La0  1  0.349364  0.349364  0.350115  1
  La  La1  1  0.349364  0.349364  0.951158  1
  Nd  Nd2  1  0.351118  0.946054  0.351414  1
  Nd  Nd3  1  0.946054  0.351118  0.351414  1
  Nd  Nd4  1  0.810306  0.190924  0.190763  1
  Nd  Nd5  1  0.190924  0.810306  0.808007  1
  Nd  Nd6  1  0.190924  0.810306  0.190763  1
  Nd  Nd7  1  0.810306  0.190924  0.808007  1
  Nd  Nd8  1  0.190797  0.190797  0.809203  1
  Nd  Nd9  1  0.808715  0.808715  0.191285  1
  Nd  Nd10  1  0.936359  0.564183  0.565614  1
  Nd  Nd11  1  0.564183  0.936359  0.933845  1
  Nd  Nd12  1  0.564183  0.936359  0.565614  1
  Nd  Nd13  1  0.936359  0.564183  0.933845  1
  Nd  Nd14  1  0.564553  0.564553  0.935447  1
  Nd  Nd15  1  0.935301  0.935301  0.564699  1
  Cd  Cd16  1  0.581475  0.581475  0.579657  1
  Cd  Cd17  1  0.581475  0.581475  0.257393  1
  Cd  Cd18  1  0.582022  0.257021  0.580479  1
  Cd  Cd19  1  0.257021  0.582022  0.580479  1
  Pt  Pt20  1  0.142235  0.142235  0.144470  1
  Pt  Pt21  1  0.142235  0.142235  0.571060  1
  Pt  Pt22  1  0.141693  0.573036  0.142636  1
  Pt  Pt23  1  0.573036  0.141693  0.142636  1
