# generated using pymatgen
data_La2Zn2Rh5
_symmetry_space_group_name_H-M   'P 1'
_cell_length_a   12.78210604
_cell_length_b   12.78210632
_cell_length_c   12.78210741
_cell_angle_alpha   25.05011709
_cell_angle_beta   25.05011548
_cell_angle_gamma   25.05011548
_symmetry_Int_Tables_number   1
_chemical_formula_structural   La2Zn2Rh5
_chemical_formula_sum   'La4 Zn4 Rh10'
_cell_volume   329.39770933
_cell_formula_units_Z   2
loop_
 _symmetry_equiv_pos_site_id
 _symmetry_equiv_pos_as_xyz
  1  'x, y, z'
loop_
 _atom_site_type_symbol
 _atom_site_label
 _atom_site_symmetry_multiplicity
 _atom_site_fract_x
 _atom_site_fract_y
 _atom_site_fract_z
 _atom_site_occupancy
  La  La0  1  0.950726  0.950726  0.950726  1
  La  La1  1  0.049274  0.049274  0.049274  1
  La  La2  1  0.853703  0.853703  0.853703  1
  La  La3  1  0.146297  0.146297  0.146297  1
  Zn  Zn4  1  0.721091  0.721091  0.721091  1
  Zn  Zn5  1  0.278909  0.278909  0.278909  1
  Zn  Zn6  1  0.611400  0.611400  0.611400  1
  Zn  Zn7  1  0.388600  0.388600  0.388600  1
  Rh  Rh8  1  0.500000  0.500000  0.500000  1
  Rh  Rh9  1  0.500000  0.500000  0.000000  1
  Rh  Rh10  1  0.000000  0.500000  0.500000  1
  Rh  Rh11  1  0.500000  0.000000  0.500000  1
  Rh  Rh12  1  0.388581  0.893820  0.388581  1
  Rh  Rh13  1  0.388581  0.388581  0.893820  1
  Rh  Rh14  1  0.893820  0.388581  0.388581  1
  Rh  Rh15  1  0.611419  0.106180  0.611419  1
  Rh  Rh16  1  0.611419  0.611419  0.106180  1
  Rh  Rh17  1  0.106180  0.611419  0.611419  1
