# generated using pymatgen
data_Dy4ScIrPt2
_symmetry_space_group_name_H-M   'P 1'
_cell_length_a   10.92351400
_cell_length_b   10.92351400
_cell_length_c   6.24678400
_cell_angle_alpha   90.00000000
_cell_angle_beta   90.00000000
_cell_angle_gamma   90.00000000
_symmetry_Int_Tables_number   1
_chemical_formula_structural   Dy4ScIrPt2
_chemical_formula_sum   'Dy16 Sc4 Ir4 Pt8'
_cell_volume   745.38599490
_cell_formula_units_Z   4
loop_
 _symmetry_equiv_pos_site_id
 _symmetry_equiv_pos_as_xyz
  1  'x, y, z'
loop_
 _atom_site_type_symbol
 _atom_site_label
 _atom_site_symmetry_multiplicity
 _atom_site_fract_x
 _atom_site_fract_y
 _atom_site_fract_z
 _atom_site_occupancy
  Dy  Dy0  1  0.290763  0.085706  0.377324  1
  Dy  Dy1  1  0.290763  0.914294  0.877324  1
  Dy  Dy2  1  0.709237  0.085706  0.877324  1
  Dy  Dy3  1  0.709237  0.914294  0.377324  1
  Dy  Dy4  1  0.585706  0.790763  0.877324  1
  Dy  Dy5  1  0.585706  0.209237  0.377324  1
  Dy  Dy6  1  0.414294  0.790763  0.377324  1
  Dy  Dy7  1  0.414294  0.209237  0.877324  1
  Dy  Dy8  1  0.209237  0.414294  0.622676  1
  Dy  Dy9  1  0.209237  0.585706  0.122676  1
  Dy  Dy10  1  0.790763  0.414294  0.122676  1
  Dy  Dy11  1  0.790763  0.585706  0.622676  1
  Dy  Dy12  1  0.914294  0.709237  0.122676  1
  Dy  Dy13  1  0.914294  0.290763  0.622676  1
  Dy  Dy14  1  0.085706  0.709237  0.622676  1
  Dy  Dy15  1  0.085706  0.290763  0.122676  1
  Sc  Sc16  1  0.000000  0.000000  0.500000  1
  Sc  Sc17  1  0.000000  0.000000  0.000000  1
  Sc  Sc18  1  0.500000  0.500000  0.000000  1
  Sc  Sc19  1  0.500000  0.500000  0.500000  1
  Ir  Ir20  1  0.500000  0.000000  0.121926  1
  Ir  Ir21  1  0.500000  0.000000  0.621926  1
  Ir  Ir22  1  0.000000  0.500000  0.878074  1
  Ir  Ir23  1  0.000000  0.500000  0.378074  1
  Pt  Pt24  1  0.852822  0.147178  0.250000  1
  Pt  Pt25  1  0.852822  0.852822  0.750000  1
  Pt  Pt26  1  0.147178  0.147178  0.750000  1
  Pt  Pt27  1  0.147178  0.852822  0.250000  1
  Pt  Pt28  1  0.647178  0.352822  0.750000  1
  Pt  Pt29  1  0.647178  0.647178  0.250000  1
  Pt  Pt30  1  0.352822  0.352822  0.250000  1
  Pt  Pt31  1  0.352822  0.647178  0.750000  1
