# generated using pymatgen
data_Tb2B(PdPt)3
_symmetry_space_group_name_H-M   'P 1'
_cell_length_a   5.83657233
_cell_length_b   5.83657216
_cell_length_c   6.11688056
_cell_angle_alpha   61.50465703
_cell_angle_beta   61.50466084
_cell_angle_gamma   59.99999375
_symmetry_Int_Tables_number   1
_chemical_formula_structural   Tb2B(PdPt)3
_chemical_formula_sum   'Tb2 B1 Pd3 Pt3'
_cell_volume   150.60596912
_cell_formula_units_Z   1
loop_
 _symmetry_equiv_pos_site_id
 _symmetry_equiv_pos_as_xyz
  1  'x, y, z'
loop_
 _atom_site_type_symbol
 _atom_site_label
 _atom_site_symmetry_multiplicity
 _atom_site_fract_x
 _atom_site_fract_y
 _atom_site_fract_z
 _atom_site_occupancy
  Tb  Tb0  1  0.246604  0.246604  0.260193  1
  Tb  Tb1  1  0.752142  0.752142  0.743575  1
  B  B2  1  0.502670  0.502670  0.491989  1
  Pd  Pd3  1  0.244748  0.244748  0.763964  1
  Pd  Pd4  1  0.746540  0.244748  0.763964  1
  Pd  Pd5  1  0.244748  0.746540  0.763964  1
  Pt  Pt6  1  0.247915  0.757317  0.237451  1
  Pt  Pt7  1  0.757317  0.247915  0.237451  1
  Pt  Pt8  1  0.757317  0.757317  0.237451  1
