# generated using pymatgen
data_Ca3YbHo2(Si3Ru)8
_symmetry_space_group_name_H-M   'P 1'
_cell_length_a   10.16790113
_cell_length_b   10.16789912
_cell_length_c   8.14038008
_cell_angle_alpha   89.99975112
_cell_angle_beta   89.99974633
_cell_angle_gamma   132.79797975
_symmetry_Int_Tables_number   1
_chemical_formula_structural   Ca3YbHo2(Si3Ru)8
_chemical_formula_sum   'Ca3 Yb1 Ho2 Si24 Ru8'
_cell_volume   617.52934786
_cell_formula_units_Z   1
loop_
 _symmetry_equiv_pos_site_id
 _symmetry_equiv_pos_as_xyz
  1  'x, y, z'
loop_
 _atom_site_type_symbol
 _atom_site_label
 _atom_site_symmetry_multiplicity
 _atom_site_fract_x
 _atom_site_fract_y
 _atom_site_fract_z
 _atom_site_occupancy
  Ca  Ca0  1  0.500101  0.499899  0.500000  1
  Ca  Ca1  1  0.500911  0.000784  0.749968  1
  Ca  Ca2  1  0.999216  0.499089  0.250032  1
  Yb  Yb3  1  0.999956  0.000044  0.000000  1
  Ho  Ho4  1  0.499260  0.999322  0.250035  1
  Ho  Ho5  1  0.000678  0.500740  0.749965  1
  Si  Si6  1  0.795497  0.204503  0.500000  1
  Si  Si7  1  0.294589  0.705411  0.000000  1
  Si  Si8  1  0.205157  0.794843  0.500000  1
  Si  Si9  1  0.704771  0.295229  0.000000  1
  Si  Si10  1  0.331385  0.335875  0.832454  1
  Si  Si11  1  0.664125  0.668615  0.167546  1
  Si  Si12  1  0.168262  0.163865  0.332128  1
  Si  Si13  1  0.836135  0.831738  0.667872  1
  Si  Si14  1  0.122933  0.890450  0.730145  1
  Si  Si15  1  0.109550  0.877067  0.269855  1
  Si  Si16  1  0.607487  0.374572  0.229779  1
  Si  Si17  1  0.625428  0.392513  0.770221  1
  Si  Si18  1  0.874432  0.106738  0.269694  1
  Si  Si19  1  0.893262  0.125568  0.730306  1
  Si  Si20  1  0.389812  0.622907  0.770297  1
  Si  Si21  1  0.377093  0.610188  0.229703  1
  Si  Si22  1  0.346633  0.112925  0.505580  1
  Si  Si23  1  0.887075  0.653367  0.494420  1
  Si  Si24  1  0.386350  0.153691  0.008931  1
  Si  Si25  1  0.846309  0.613650  0.991069  1
  Si  Si26  1  0.653365  0.886405  0.490497  1
  Si  Si27  1  0.113595  0.346635  0.509503  1
  Si  Si28  1  0.613062  0.846401  0.995112  1
  Si  Si29  1  0.153599  0.386938  0.004888  1
  Ru  Ru30  1  0.671163  0.328837  0.500000  1
  Ru  Ru31  1  0.169800  0.830200  0.000000  1
  Ru  Ru32  1  0.329689  0.670311  0.500000  1
  Ru  Ru33  1  0.829267  0.170733  0.000000  1
  Ru  Ru34  1  0.126374  0.126460  0.625463  1
  Ru  Ru35  1  0.873540  0.873626  0.374537  1
  Ru  Ru36  1  0.372935  0.372799  0.124736  1
  Ru  Ru37  1  0.627201  0.627065  0.875264  1
