# generated using pymatgen
data_Ce4Ta5TiSi8
_symmetry_space_group_name_H-M   'P 1'
_cell_length_a   7.09749006
_cell_length_b   7.09748911
_cell_length_c   13.19523071
_cell_angle_alpha   89.97017179
_cell_angle_beta   90.02982773
_cell_angle_gamma   90.00245423
_symmetry_Int_Tables_number   1
_chemical_formula_structural   Ce4Ta5TiSi8
_chemical_formula_sum   'Ce8 Ta10 Ti2 Si16'
_cell_volume   664.70110023
_cell_formula_units_Z   2
loop_
 _symmetry_equiv_pos_site_id
 _symmetry_equiv_pos_as_xyz
  1  'x, y, z'
loop_
 _atom_site_type_symbol
 _atom_site_label
 _atom_site_symmetry_multiplicity
 _atom_site_fract_x
 _atom_site_fract_y
 _atom_site_fract_z
 _atom_site_occupancy
  Ce  Ce0  1  0.995242  0.663695  0.032867  1
  Ce  Ce1  1  0.004888  0.336045  0.532971  1
  Ce  Ce2  1  0.663695  0.995242  0.967133  1
  Ce  Ce3  1  0.164793  0.505740  0.783162  1
  Ce  Ce4  1  0.835646  0.495188  0.282429  1
  Ce  Ce5  1  0.505740  0.164793  0.216838  1
  Ce  Ce6  1  0.495188  0.835646  0.717571  1
  Ce  Ce7  1  0.336045  0.004888  0.467029  1
  Ta  Ta8  1  0.342792  0.506040  0.374055  1
  Ta  Ta9  1  0.843642  0.994684  0.376057  1
  Ta  Ta10  1  0.005769  0.156609  0.124051  1
  Ta  Ta11  1  0.994684  0.843642  0.623943  1
  Ta  Ta12  1  0.506040  0.342792  0.625945  1
  Ta  Ta13  1  0.156609  0.005769  0.875949  1
  Ta  Ta14  1  0.669729  0.669729  0.500000  1
  Ta  Ta15  1  0.830390  0.168895  0.749609  1
  Ta  Ta16  1  0.168895  0.830390  0.250391  1
  Ta  Ta17  1  0.328956  0.328956  0.000000  1
  Ti  Ti18  1  0.492996  0.656758  0.126809  1
  Ti  Ti19  1  0.656758  0.492996  0.873191  1
  Si  Si20  1  0.041259  0.706826  0.435267  1
  Si  Si21  1  0.956683  0.293888  0.934968  1
  Si  Si22  1  0.706826  0.041259  0.564733  1
  Si  Si23  1  0.208730  0.459056  0.184841  1
  Si  Si24  1  0.792703  0.541548  0.686103  1
  Si  Si25  1  0.459056  0.208730  0.815159  1
  Si  Si26  1  0.541548  0.792703  0.313897  1
  Si  Si27  1  0.293888  0.956683  0.065032  1
  Si  Si28  1  0.797887  0.869598  0.185868  1
  Si  Si29  1  0.297771  0.629526  0.564432  1
  Si  Si30  1  0.700566  0.372688  0.062927  1
  Si  Si31  1  0.629526  0.297771  0.435568  1
  Si  Si32  1  0.372688  0.700566  0.937073  1
  Si  Si33  1  0.129709  0.203069  0.313956  1
  Si  Si34  1  0.203069  0.129709  0.686044  1
  Si  Si35  1  0.869598  0.797887  0.814132  1
