# generated using pymatgen
data_YTm7Hg4
_symmetry_space_group_name_H-M   'P 1'
_cell_length_a   5.07366800
_cell_length_b   6.91428156
_cell_length_c   9.18647775
_cell_angle_alpha   90.03264984
_cell_angle_beta   90.00000000
_cell_angle_gamma   90.00000000
_symmetry_Int_Tables_number   1
_chemical_formula_structural   YTm7Hg4
_chemical_formula_sum   'Y1 Tm7 Hg4'
_cell_volume   322.26865269
_cell_formula_units_Z   1
loop_
 _symmetry_equiv_pos_site_id
 _symmetry_equiv_pos_as_xyz
  1  'x, y, z'
loop_
 _atom_site_type_symbol
 _atom_site_label
 _atom_site_symmetry_multiplicity
 _atom_site_fract_x
 _atom_site_fract_y
 _atom_site_fract_z
 _atom_site_occupancy
  Y  Y0  1  0.750000  0.330360  0.925360  1
  Tm  Tm1  1  0.250000  0.016967  0.804928  1
  Tm  Tm2  1  0.250000  0.518539  0.692138  1
  Tm  Tm3  1  0.750000  0.980738  0.197064  1
  Tm  Tm4  1  0.750000  0.482685  0.305499  1
  Tm  Tm5  1  0.250000  0.166502  0.426878  1
  Tm  Tm6  1  0.250000  0.668420  0.073294  1
  Tm  Tm7  1  0.750000  0.832292  0.575173  1
  Hg  Hg8  1  0.250000  0.732927  0.396406  1
  Hg  Hg9  1  0.250000  0.231404  0.105569  1
  Hg  Hg10  1  0.750000  0.267270  0.599218  1
  Hg  Hg11  1  0.750000  0.771895  0.898473  1
