# generated using pymatgen
data_Tm8Al3Co
_symmetry_space_group_name_H-M   'P 1'
_cell_length_a   10.06101400
_cell_length_b   10.06101425
_cell_length_c   6.74958900
_cell_angle_alpha   90.00000000
_cell_angle_beta   90.00000000
_cell_angle_gamma   119.99999918
_symmetry_Int_Tables_number   1
_chemical_formula_structural   Tm8Al3Co
_chemical_formula_sum   'Tm16 Al6 Co2'
_cell_volume   591.68625553
_cell_formula_units_Z   2
loop_
 _symmetry_equiv_pos_site_id
 _symmetry_equiv_pos_as_xyz
  1  'x, y, z'
loop_
 _atom_site_type_symbol
 _atom_site_label
 _atom_site_symmetry_multiplicity
 _atom_site_fract_x
 _atom_site_fract_y
 _atom_site_fract_z
 _atom_site_occupancy
  Tm  Tm0  1  0.533013  0.066028  0.516128  1
  Tm  Tm1  1  0.933972  0.466987  0.516128  1
  Tm  Tm2  1  0.533013  0.466987  0.516128  1
  Tm  Tm3  1  0.466987  0.933972  0.016128  1
  Tm  Tm4  1  0.066028  0.533013  0.016128  1
  Tm  Tm5  1  0.466987  0.533013  0.016128  1
  Tm  Tm6  1  0.175543  0.351087  0.722480  1
  Tm  Tm7  1  0.648913  0.824457  0.722480  1
  Tm  Tm8  1  0.175543  0.824457  0.722480  1
  Tm  Tm9  1  0.824457  0.648913  0.222480  1
  Tm  Tm10  1  0.351087  0.175543  0.222480  1
  Tm  Tm11  1  0.824457  0.175543  0.222480  1
  Tm  Tm12  1  0.666667  0.333333  0.897100  1
  Tm  Tm13  1  0.333333  0.666667  0.397100  1
  Tm  Tm14  1  0.000000  0.000000  0.500620  1
  Tm  Tm15  1  0.000000  0.000000  0.000620  1
  Al  Al16  1  0.837429  0.674858  0.758388  1
  Al  Al17  1  0.325142  0.162571  0.758388  1
  Al  Al18  1  0.837429  0.162571  0.758388  1
  Al  Al19  1  0.162571  0.325142  0.258388  1
  Al  Al20  1  0.674858  0.837429  0.258388  1
  Al  Al21  1  0.162571  0.837429  0.258388  1
  Co  Co22  1  0.666667  0.333333  0.290295  1
  Co  Co23  1  0.333333  0.666667  0.790295  1
