# generated using pymatgen
data_Er5Be2GeP9Ir19
_symmetry_space_group_name_H-M   'P 1'
_cell_length_a   12.71295609
_cell_length_b   12.64934869
_cell_length_c   3.95649200
_cell_angle_alpha   90.00000000
_cell_angle_beta   90.00000000
_cell_angle_gamma   120.11902722
_symmetry_Int_Tables_number   1
_chemical_formula_structural   Er5Be2GeP9Ir19
_chemical_formula_sum   'Er5 Be2 Ge1 P9 Ir19'
_cell_volume   550.34305798
_cell_formula_units_Z   1
loop_
 _symmetry_equiv_pos_site_id
 _symmetry_equiv_pos_as_xyz
  1  'x, y, z'
loop_
 _atom_site_type_symbol
 _atom_site_label
 _atom_site_symmetry_multiplicity
 _atom_site_fract_x
 _atom_site_fract_y
 _atom_site_fract_z
 _atom_site_occupancy
  Er  Er0  1  0.662209  0.344874  0.000000  1
  Er  Er1  1  0.334768  0.667373  0.000000  1
  Er  Er2  1  0.817489  0.807995  0.500000  1
  Er  Er3  1  0.186167  0.003873  0.500000  1
  Er  Er4  1  0.999790  0.183216  0.500000  1
  Be  Be5  1  0.835491  0.520490  0.500000  1
  Be  Be6  1  0.477632  0.317913  0.500000  1
  Ge  Ge7  1  0.678918  0.169010  0.500000  1
  P  P8  1  0.177469  0.694508  0.500000  1
  P  P9  1  0.518968  0.822376  0.500000  1
  P  P10  1  0.305162  0.483433  0.500000  1
  P  P11  1  0.641537  0.628975  0.000000  1
  P  P12  1  0.364780  0.009044  0.000000  1
  P  P13  1  0.992836  0.361059  0.000000  1
  P  P14  1  0.178087  0.181166  0.000000  1
  P  P15  1  0.820943  0.993978  0.000000  1
  P  P16  1  0.003651  0.820546  0.000000  1
  Ir  Ir17  1  0.810870  0.175223  0.000000  1
  Ir  Ir18  1  0.825374  0.627000  0.000000  1
  Ir  Ir19  1  0.368666  0.196295  0.000000  1
  Ir  Ir20  1  0.188647  0.809692  0.000000  1
  Ir  Ir21  1  0.624013  0.809209  0.000000  1
  Ir  Ir22  1  0.188693  0.377707  0.000000  1
  Ir  Ir23  1  0.457267  0.447008  0.000000  1
  Ir  Ir24  1  0.546290  0.006753  0.000000  1
  Ir  Ir25  1  0.993711  0.545088  0.000000  1
  Ir  Ir26  1  0.281927  0.290263  0.500000  1
  Ir  Ir27  1  0.715983  0.990404  0.500000  1
  Ir  Ir28  1  0.006722  0.716497  0.500000  1
  Ir  Ir29  1  0.876259  0.359281  0.500000  1
  Ir  Ir30  1  0.645278  0.517848  0.500000  1
  Ir  Ir31  1  0.473302  0.126498  0.500000  1
  Ir  Ir32  1  0.367827  0.867488  0.500000  1
  Ir  Ir33  1  0.501813  0.631340  0.500000  1
  Ir  Ir34  1  0.130217  0.497693  0.500000  1
  Ir  Ir35  1  0.001245  0.998882  0.000000  1
