# generated using pymatgen
data_YbPrPa2(Al3Ir)6
_symmetry_space_group_name_H-M   'P 1'
_cell_length_a   7.61248423
_cell_length_b   7.61340181
_cell_length_c   9.41287200
_cell_angle_alpha   90.00000000
_cell_angle_beta   90.00000000
_cell_angle_gamma   119.56577328
_symmetry_Int_Tables_number   1
_chemical_formula_structural   YbPrPa2(Al3Ir)6
_chemical_formula_sum   'Yb1 Pr1 Pa2 Al18 Ir6'
_cell_volume   474.50592565
_cell_formula_units_Z   1
loop_
 _symmetry_equiv_pos_site_id
 _symmetry_equiv_pos_as_xyz
  1  'x, y, z'
loop_
 _atom_site_type_symbol
 _atom_site_label
 _atom_site_symmetry_multiplicity
 _atom_site_fract_x
 _atom_site_fract_y
 _atom_site_fract_z
 _atom_site_occupancy
  Yb  Yb0  1  0.671808  0.994088  0.250000  1
  Pr  Pr1  1  0.331544  0.006691  0.750000  1
  Pa  Pa2  1  0.998212  0.673101  0.250000  1
  Pa  Pa3  1  0.001657  0.327147  0.750000  1
  Al  Al4  1  0.131030  0.127594  0.250000  1
  Al  Al5  1  0.865787  0.871881  0.750000  1
  Al  Al6  1  0.998837  0.331169  0.079494  1
  Al  Al7  1  0.997077  0.665684  0.923840  1
  Al  Al8  1  0.997077  0.665684  0.576160  1
  Al  Al9  1  0.340854  0.003937  0.420665  1
  Al  Al10  1  0.998837  0.331169  0.420506  1
  Al  Al11  1  0.663407  0.996008  0.570412  1
  Al  Al12  1  0.663407  0.996008  0.929588  1
  Al  Al13  1  0.340854  0.003937  0.079335  1
  Al  Al14  1  0.334889  0.334732  0.549290  1
  Al  Al15  1  0.664399  0.667096  0.445113  1
  Al  Al16  1  0.664399  0.667096  0.054887  1
  Al  Al17  1  0.334889  0.334732  0.950710  1
  Al  Al18  1  0.339818  0.549165  0.250000  1
  Al  Al19  1  0.662071  0.454971  0.750000  1
  Al  Al20  1  0.551214  0.345339  0.250000  1
  Al  Al21  1  0.450804  0.656142  0.750000  1
  Ir  Ir22  1  0.676166  0.331241  0.999851  1
  Ir  Ir23  1  0.322349  0.667916  0.000768  1
  Ir  Ir24  1  0.322349  0.667916  0.499232  1
  Ir  Ir25  1  0.676166  0.331241  0.500149  1
  Ir  Ir26  1  0.000051  0.999157  0.000900  1
  Ir  Ir27  1  0.000051  0.999157  0.499100  1
