# generated using pymatgen
data_Rb4Na2YGaBi4
_symmetry_space_group_name_H-M   'P 1'
_cell_length_a   10.14279732
_cell_length_b   10.14279716
_cell_length_c   10.14279675
_cell_angle_alpha   136.15846534
_cell_angle_beta   62.50115934
_cell_angle_gamma   137.77167189
_symmetry_Int_Tables_number   1
_chemical_formula_structural   Rb4Na2YGaBi4
_chemical_formula_sum   'Rb4 Na2 Y1 Ga1 Bi4'
_cell_volume   479.86010560
_cell_formula_units_Z   1
loop_
 _symmetry_equiv_pos_site_id
 _symmetry_equiv_pos_as_xyz
  1  'x, y, z'
loop_
 _atom_site_type_symbol
 _atom_site_label
 _atom_site_symmetry_multiplicity
 _atom_site_fract_x
 _atom_site_fract_y
 _atom_site_fract_z
 _atom_site_occupancy
  Rb  Rb0  1  0.819830  0.257416  0.091728  1
  Rb  Rb1  1  0.680169  0.771897  0.437586  1
  Rb  Rb2  1  0.334311  0.242584  0.562414  1
  Rb  Rb3  1  0.165689  0.728102  0.908271  1
  Na  Na4  1  0.750000  0.250000  0.500000  1
  Na  Na5  1  0.250000  0.750000  0.500000  1
  Y  Y6  1  0.250000  0.250000  0.000000  1
  Ga  Ga7  1  0.750001  0.750001  0.000000  1
  Bi  Bi8  1  0.413300  0.733447  0.118887  1
  Bi  Bi9  1  0.086699  0.205585  0.320147  1
  Bi  Bi10  1  0.885437  0.766552  0.679853  1
  Bi  Bi11  1  0.614562  0.294415  0.881113  1
