# generated using pymatgen
data_V4SiB2W
_symmetry_space_group_name_H-M   'P 1'
_cell_length_a   6.79313048
_cell_length_b   6.81966607
_cell_length_c   6.81966672
_cell_angle_alpha   129.32364319
_cell_angle_beta   129.21026865
_cell_angle_gamma   74.66647258
_symmetry_Int_Tables_number   1
_chemical_formula_structural   V4SiB2W
_chemical_formula_sum   'V8 Si2 B4 W2'
_cell_volume   184.41727626
_cell_formula_units_Z   2
loop_
 _symmetry_equiv_pos_site_id
 _symmetry_equiv_pos_as_xyz
  1  'x, y, z'
loop_
 _atom_site_type_symbol
 _atom_site_label
 _atom_site_symmetry_multiplicity
 _atom_site_fract_x
 _atom_site_fract_y
 _atom_site_fract_z
 _atom_site_occupancy
  V  V0  1  0.692869  0.192501  0.159394  1
  V  V1  1  0.970946  0.468902  0.163992  1
  V  V2  1  0.192869  0.033475  0.500368  1
  V  V3  1  0.470946  0.306953  0.502044  1
  V  V4  1  0.806474  0.971559  0.502269  1
  V  V5  1  0.306474  0.804205  0.834915  1
  V  V6  1  0.001750  0.004230  0.003172  1
  V  V7  1  0.501750  0.498579  0.997520  1
  Si  Si8  1  0.249392  0.238431  0.995422  1
  Si  Si9  1  0.749392  0.753970  0.010960  1
  B  B10  1  0.616315  0.119540  0.733208  1
  B  B11  1  0.116315  0.383107  0.496774  1
  B  B12  1  0.884449  0.617015  0.496777  1
  B  B13  1  0.384449  0.887672  0.267434  1
  W  W14  1  0.527805  0.692452  0.500396  1
  W  W15  1  0.027805  0.527409  0.835353  1
