# generated using pymatgen
data_Tb10Nd6Cd4Ir3Pd
_symmetry_space_group_name_H-M   'P 1'
_cell_length_a   9.78064766
_cell_length_b   9.78064807
_cell_length_c   9.78064778
_cell_angle_alpha   60.20081734
_cell_angle_beta   60.20080809
_cell_angle_gamma   60.20082490
_symmetry_Int_Tables_number   1
_chemical_formula_structural   Tb10Nd6Cd4Ir3Pd
_chemical_formula_sum   'Tb10 Nd6 Cd4 Ir3 Pd1'
_cell_volume   664.59676576
_cell_formula_units_Z   1
loop_
 _symmetry_equiv_pos_site_id
 _symmetry_equiv_pos_as_xyz
  1  'x, y, z'
loop_
 _atom_site_type_symbol
 _atom_site_label
 _atom_site_symmetry_multiplicity
 _atom_site_fract_x
 _atom_site_fract_y
 _atom_site_fract_z
 _atom_site_occupancy
  Tb  Tb0  1  0.346638  0.346638  0.346638  1
  Tb  Tb1  1  0.352717  0.352717  0.950645  1
  Tb  Tb2  1  0.352717  0.950645  0.352717  1
  Tb  Tb3  1  0.950645  0.352717  0.352717  1
  Tb  Tb4  1  0.805666  0.188895  0.188895  1
  Tb  Tb5  1  0.186265  0.811790  0.811790  1
  Tb  Tb6  1  0.188895  0.805666  0.188895  1
  Tb  Tb7  1  0.811790  0.186265  0.811790  1
  Tb  Tb8  1  0.188895  0.188895  0.805666  1
  Tb  Tb9  1  0.811790  0.811790  0.186265  1
  Nd  Nd10  1  0.940845  0.560587  0.560587  1
  Nd  Nd11  1  0.561410  0.940234  0.940234  1
  Nd  Nd12  1  0.560587  0.940845  0.560587  1
  Nd  Nd13  1  0.940234  0.561410  0.940234  1
  Nd  Nd14  1  0.560587  0.560587  0.940845  1
  Nd  Nd15  1  0.940234  0.940234  0.561410  1
  Cd  Cd16  1  0.579973  0.579973  0.579973  1
  Cd  Cd17  1  0.579475  0.579475  0.260662  1
  Cd  Cd18  1  0.579475  0.260662  0.579475  1
  Cd  Cd19  1  0.260662  0.579475  0.579475  1
  Ir  Ir20  1  0.141743  0.141743  0.574339  1
  Ir  Ir21  1  0.141743  0.574339  0.141743  1
  Ir  Ir22  1  0.574339  0.141743  0.141743  1
  Pd  Pd23  1  0.142669  0.142669  0.142669  1
