# generated using pymatgen
data_Cs2TiAs2
_symmetry_space_group_name_H-M   'P 1'
_cell_length_a   8.98821107
_cell_length_b   8.98821125
_cell_length_c   8.98821142
_cell_angle_alpha   136.25070264
_cell_angle_beta   127.13892933
_cell_angle_gamma   70.96642069
_symmetry_Int_Tables_number   1
_chemical_formula_structural   Cs2TiAs2
_chemical_formula_sum   'Cs4 Ti2 As4'
_cell_volume   392.23165795
_cell_formula_units_Z   2
loop_
 _symmetry_equiv_pos_site_id
 _symmetry_equiv_pos_as_xyz
  1  'x, y, z'
loop_
 _atom_site_type_symbol
 _atom_site_label
 _atom_site_symmetry_multiplicity
 _atom_site_fract_x
 _atom_site_fract_y
 _atom_site_fract_z
 _atom_site_occupancy
  Cs  Cs0  1  0.690562  0.348835  0.341726  1
  Cs  Cs1  1  0.007109  0.848835  0.158274  1
  Cs  Cs2  1  0.992891  0.151165  0.841726  1
  Cs  Cs3  1  0.309438  0.651165  0.658274  1
  Ti  Ti4  1  0.500000  0.750000  0.250000  1
  Ti  Ti5  1  0.500000  0.250000  0.750000  1
  As  As6  1  0.248126  0.407325  0.840802  1
  As  As7  1  0.751874  0.592675  0.159198  1
  As  As8  1  0.433477  0.092675  0.340802  1
  As  As9  1  0.566523  0.907325  0.659198  1
