# generated using pymatgen
data_Hf4Pd2N
_symmetry_space_group_name_H-M   'P 1'
_cell_length_a   8.76332829
_cell_length_b   8.76332775
_cell_length_c   8.76332800
_cell_angle_alpha   59.99999904
_cell_angle_beta   60.00000108
_cell_angle_gamma   59.99999868
_symmetry_Int_Tables_number   1
_chemical_formula_structural   Hf4Pd2N
_chemical_formula_sum   'Hf16 Pd8 N4'
_cell_volume   475.87424532
_cell_formula_units_Z   4
loop_
 _symmetry_equiv_pos_site_id
 _symmetry_equiv_pos_as_xyz
  1  'x, y, z'
loop_
 _atom_site_type_symbol
 _atom_site_label
 _atom_site_symmetry_multiplicity
 _atom_site_fract_x
 _atom_site_fract_y
 _atom_site_fract_z
 _atom_site_occupancy
  Hf  Hf0  1  0.125000  0.625000  0.625000  1
  Hf  Hf1  1  0.625000  0.125000  0.625000  1
  Hf  Hf2  1  0.625000  0.625000  0.125000  1
  Hf  Hf3  1  0.625000  0.625000  0.625000  1
  Hf  Hf4  1  0.818580  0.818580  0.181420  1
  Hf  Hf5  1  0.181420  0.181420  0.818580  1
  Hf  Hf6  1  0.818580  0.181420  0.818580  1
  Hf  Hf7  1  0.181420  0.818580  0.181420  1
  Hf  Hf8  1  0.181420  0.818580  0.818580  1
  Hf  Hf9  1  0.818580  0.181420  0.181420  1
  Hf  Hf10  1  0.431420  0.431420  0.068580  1
  Hf  Hf11  1  0.068580  0.068580  0.431420  1
  Hf  Hf12  1  0.431420  0.068580  0.431420  1
  Hf  Hf13  1  0.068580  0.431420  0.068580  1
  Hf  Hf14  1  0.068580  0.431420  0.431420  1
  Hf  Hf15  1  0.431420  0.068580  0.068580  1
  Pd  Pd16  1  0.773979  0.408674  0.408674  1
  Pd  Pd17  1  0.408674  0.773979  0.408674  1
  Pd  Pd18  1  0.408674  0.408674  0.773979  1
  Pd  Pd19  1  0.408674  0.408674  0.408674  1
  Pd  Pd20  1  0.476021  0.841326  0.841326  1
  Pd  Pd21  1  0.841326  0.476021  0.841326  1
  Pd  Pd22  1  0.841326  0.841326  0.476021  1
  Pd  Pd23  1  0.841326  0.841326  0.841326  1
  N  N24  1  0.625000  0.125000  0.125000  1
  N  N25  1  0.125000  0.625000  0.125000  1
  N  N26  1  0.125000  0.125000  0.625000  1
  N  N27  1  0.125000  0.125000  0.125000  1
