# generated using pymatgen
data_Lu5Ge5P7Ir19
_symmetry_space_group_name_H-M   'P 1'
_cell_length_a   12.85169513
_cell_length_b   12.76519463
_cell_length_c   3.97597300
_cell_angle_alpha   90.00000000
_cell_angle_beta   90.00000000
_cell_angle_gamma   119.32958425
_symmetry_Int_Tables_number   1
_chemical_formula_structural   Lu5Ge5P7Ir19
_chemical_formula_sum   'Lu5 Ge5 P7 Ir19'
_cell_volume   568.66480458
_cell_formula_units_Z   1
loop_
 _symmetry_equiv_pos_site_id
 _symmetry_equiv_pos_as_xyz
  1  'x, y, z'
loop_
 _atom_site_type_symbol
 _atom_site_label
 _atom_site_symmetry_multiplicity
 _atom_site_fract_x
 _atom_site_fract_y
 _atom_site_fract_z
 _atom_site_occupancy
  Lu  Lu0  1  0.000189  0.816538  0.500000  1
  Lu  Lu1  1  0.181032  0.184624  0.500000  1
  Lu  Lu2  1  0.819765  0.002371  0.500000  1
  Lu  Lu3  1  0.340959  0.671504  0.000000  1
  Lu  Lu4  1  0.662489  0.330362  0.000000  1
  Ge  Ge5  1  0.521320  0.677499  0.500000  1
  Ge  Ge6  1  0.317821  0.836764  0.500000  1
  Ge  Ge7  1  0.169439  0.489561  0.500000  1
  Ge  Ge8  1  0.479891  0.158205  0.500000  1
  Ge  Ge9  1  0.681982  0.516038  0.500000  1
  P  P10  1  0.999444  0.181149  0.000000  1
  P  P11  1  0.828113  0.823784  0.000000  1
  P  P12  1  0.172735  0.001615  0.000000  1
  P  P13  1  0.823594  0.307928  0.500000  1
  P  P14  1  0.003597  0.642009  0.000000  1
  P  P15  1  0.360176  0.360334  0.000000  1
  P  P16  1  0.641430  0.000294  0.000000  1
  Ir  Ir17  1  0.995141  0.282790  0.500000  1
  Ir  Ir18  1  0.736560  0.732293  0.500000  1
  Ir  Ir19  1  0.265375  0.001164  0.500000  1
  Ir  Ir20  1  0.640286  0.817084  0.000000  1
  Ir  Ir21  1  0.185663  0.822780  0.000000  1
  Ir  Ir22  1  0.177848  0.364780  0.000000  1
  Ir  Ir23  1  0.361488  0.179068  0.000000  1
  Ir  Ir24  1  0.818829  0.631465  0.000000  1
  Ir  Ir25  1  0.821635  0.200117  0.000000  1
  Ir  Ir26  1  0.517478  0.869027  0.500000  1
  Ir  Ir27  1  0.120171  0.646745  0.500000  1
  Ir  Ir28  1  0.353528  0.476283  0.500000  1
  Ir  Ir29  1  0.482133  0.352142  0.500000  1
  Ir  Ir30  1  0.867382  0.500178  0.500000  1
  Ir  Ir31  1  0.648959  0.123732  0.500000  1
  Ir  Ir32  1  0.997803  0.003740  0.000000  1
  Ir  Ir33  1  0.004382  0.459622  0.000000  1
  Ir  Ir34  1  0.541327  0.538571  0.000000  1
  Ir  Ir35  1  0.460036  0.997842  0.000000  1
