# generated using pymatgen
data_Hf4(PaCo)3
_symmetry_space_group_name_H-M   'P 1'
_cell_length_a   8.89345502
_cell_length_b   8.94679622
_cell_length_c   5.73374330
_cell_angle_alpha   89.90973598
_cell_angle_beta   90.18161103
_cell_angle_gamma   119.80297237
_symmetry_Int_Tables_number   1
_chemical_formula_structural   Hf4(PaCo)3
_chemical_formula_sum   'Hf8 Pa6 Co6'
_cell_volume   395.88001187
_cell_formula_units_Z   2
loop_
 _symmetry_equiv_pos_site_id
 _symmetry_equiv_pos_as_xyz
  1  'x, y, z'
loop_
 _atom_site_type_symbol
 _atom_site_label
 _atom_site_symmetry_multiplicity
 _atom_site_fract_x
 _atom_site_fract_y
 _atom_site_fract_z
 _atom_site_occupancy
  Hf  Hf0  1  0.731917  0.868782  0.243118  1
  Hf  Hf1  1  0.863136  0.131218  0.743118  1
  Hf  Hf2  1  0.546838  0.461464  0.035246  1
  Hf  Hf3  1  0.085373  0.538536  0.535246  1
  Hf  Hf4  1  0.460337  0.912252  0.537853  1
  Hf  Hf5  1  0.548085  0.087748  0.037853  1
  Hf  Hf6  1  0.914819  0.457062  0.030154  1
  Hf  Hf7  1  0.457756  0.542938  0.530154  1
  Pa  Pa8  1  0.336801  0.667768  0.054743  1
  Pa  Pa9  1  0.669034  0.332232  0.554743  1
  Pa  Pa10  1  0.121144  0.870521  0.246090  1
  Pa  Pa11  1  0.250625  0.129479  0.746090  1
  Pa  Pa12  1  0.869864  0.754049  0.739839  1
  Pa  Pa13  1  0.115812  0.245951  0.239839  1
  Co  Co14  1  0.822204  0.196209  0.308177  1
  Co  Co15  1  0.625996  0.803791  0.808177  1
  Co  Co16  1  0.196673  0.374478  0.820621  1
  Co  Co17  1  0.822195  0.625522  0.320621  1
  Co  Co18  1  0.372485  0.183581  0.314161  1
  Co  Co19  1  0.188906  0.816419  0.814161  1
