# generated using pymatgen
data_Li2TbNdPd2
_symmetry_space_group_name_H-M   'P 1'
_cell_length_a   4.07824900
_cell_length_b   7.25884646
_cell_length_c   8.56069069
_cell_angle_alpha   90.86399900
_cell_angle_beta   90.00000000
_cell_angle_gamma   90.00000000
_symmetry_Int_Tables_number   1
_chemical_formula_structural   Li2TbNdPd2
_chemical_formula_sum   'Li4 Tb2 Nd2 Pd4'
_cell_volume   253.39659477
_cell_formula_units_Z   2
loop_
 _symmetry_equiv_pos_site_id
 _symmetry_equiv_pos_as_xyz
  1  'x, y, z'
loop_
 _atom_site_type_symbol
 _atom_site_label
 _atom_site_symmetry_multiplicity
 _atom_site_fract_x
 _atom_site_fract_y
 _atom_site_fract_z
 _atom_site_occupancy
  Li  Li0  1  0.250000  0.876501  0.942504  1
  Li  Li1  1  0.750000  0.123499  0.057496  1
  Li  Li2  1  0.250000  0.365864  0.557717  1
  Li  Li3  1  0.750000  0.634136  0.442283  1
  Tb  Tb4  1  0.250000  0.955141  0.317877  1
  Tb  Tb5  1  0.750000  0.044859  0.682123  1
  Nd  Nd6  1  0.250000  0.454877  0.187760  1
  Nd  Nd7  1  0.750000  0.545123  0.812240  1
  Pd  Pd8  1  0.750000  0.752941  0.124376  1
  Pd  Pd9  1  0.250000  0.247059  0.875624  1
  Pd  Pd10  1  0.750000  0.239792  0.383130  1
  Pd  Pd11  1  0.250000  0.760208  0.616870  1
