# generated using pymatgen
data_RbMn3FeO8
_symmetry_space_group_name_H-M   'P 1'
_cell_length_a   7.24550540
_cell_length_b   7.24550578
_cell_length_c   10.05299143
_cell_angle_alpha   46.42026150
_cell_angle_beta   46.42025841
_cell_angle_gamma   23.79109078
_symmetry_Int_Tables_number   1
_chemical_formula_structural   RbMn3FeO8
_chemical_formula_sum   'Rb1 Mn3 Fe1 O8'
_cell_volume   151.09625947
_cell_formula_units_Z   1
loop_
 _symmetry_equiv_pos_site_id
 _symmetry_equiv_pos_as_xyz
  1  'x, y, z'
loop_
 _atom_site_type_symbol
 _atom_site_label
 _atom_site_symmetry_multiplicity
 _atom_site_fract_x
 _atom_site_fract_y
 _atom_site_fract_z
 _atom_site_occupancy
  Rb  Rb0  1  0.000814  0.000814  0.000319  1
  Mn  Mn1  1  0.847636  0.847636  0.816141  1
  Mn  Mn2  1  0.663587  0.663587  0.487943  1
  Mn  Mn3  1  0.331009  0.331009  0.517814  1
  Fe  Fe4  1  0.150862  0.150862  0.185683  1
  O  O5  1  0.333629  0.333629  0.706868  1
  O  O6  1  0.668500  0.668500  0.296813  1
  O  O7  1  0.951278  0.951278  0.381220  1
  O  O8  1  0.043583  0.043583  0.623730  1
  O  O9  1  0.353202  0.353202  0.936009  1
  O  O10  1  0.660389  0.660389  0.037950  1
  O  O11  1  0.702175  0.702175  0.644517  1
  O  O12  1  0.293332  0.293332  0.364994  1
