# generated using pymatgen
data_U4PaSe10
_symmetry_space_group_name_H-M   'P 1'
_cell_length_a   10.71484400
_cell_length_b   10.71484400
_cell_length_c   6.58777900
_cell_angle_alpha   90.00000000
_cell_angle_beta   90.00000000
_cell_angle_gamma   90.00000000
_symmetry_Int_Tables_number   1
_chemical_formula_structural   U4PaSe10
_chemical_formula_sum   'U8 Pa2 Se20'
_cell_volume   756.32895372
_cell_formula_units_Z   2
loop_
 _symmetry_equiv_pos_site_id
 _symmetry_equiv_pos_as_xyz
  1  'x, y, z'
loop_
 _atom_site_type_symbol
 _atom_site_label
 _atom_site_symmetry_multiplicity
 _atom_site_fract_x
 _atom_site_fract_y
 _atom_site_fract_z
 _atom_site_occupancy
  U  U0  1  0.840863  0.153713  0.249374  1
  U  U1  1  0.653713  0.659137  0.249374  1
  U  U2  1  0.346287  0.340863  0.249374  1
  U  U3  1  0.159137  0.846287  0.249374  1
  U  U4  1  0.340863  0.653713  0.750626  1
  U  U5  1  0.153713  0.159137  0.750626  1
  U  U6  1  0.846287  0.840863  0.750626  1
  U  U7  1  0.659137  0.346287  0.750626  1
  Pa  Pa8  1  0.500000  0.000000  0.860055  1
  Pa  Pa9  1  0.000000  0.500000  0.139945  1
  Se  Se10  1  0.708844  0.087583  0.620705  1
  Se  Se11  1  0.587583  0.791156  0.620705  1
  Se  Se12  1  0.412417  0.208844  0.620705  1
  Se  Se13  1  0.291156  0.912417  0.620705  1
  Se  Se14  1  0.707683  0.913186  0.112966  1
  Se  Se15  1  0.586814  0.207683  0.112966  1
  Se  Se16  1  0.413186  0.792317  0.112966  1
  Se  Se17  1  0.292317  0.086814  0.112966  1
  Se  Se18  1  0.500000  0.500000  0.000000  1
  Se  Se19  1  0.000000  0.000000  0.000000  1
  Se  Se20  1  0.207683  0.413186  0.887034  1
  Se  Se21  1  0.086814  0.707683  0.887034  1
  Se  Se22  1  0.913186  0.292317  0.887034  1
  Se  Se23  1  0.792317  0.586814  0.887034  1
  Se  Se24  1  0.500000  0.500000  0.500000  1
  Se  Se25  1  0.000000  0.000000  0.500000  1
  Se  Se26  1  0.208844  0.587583  0.379295  1
  Se  Se27  1  0.087583  0.291156  0.379295  1
  Se  Se28  1  0.912417  0.708844  0.379295  1
  Se  Se29  1  0.791156  0.412417  0.379295  1
