# generated using pymatgen
data_Y4TmZr3(As3Rh4)4
_symmetry_space_group_name_H-M   'P 1'
_cell_length_a   13.34243310
_cell_length_b   13.34243359
_cell_length_c   4.01393200
_cell_angle_alpha   90.00000000
_cell_angle_beta   90.00000000
_cell_angle_gamma   120.01374465
_symmetry_Int_Tables_number   1
_chemical_formula_structural   Y4TmZr3(As3Rh4)4
_chemical_formula_sum   'Y4 Tm1 Zr3 As12 Rh16'
_cell_volume   618.74337173
_cell_formula_units_Z   1
loop_
 _symmetry_equiv_pos_site_id
 _symmetry_equiv_pos_as_xyz
  1  'x, y, z'
loop_
 _atom_site_type_symbol
 _atom_site_label
 _atom_site_symmetry_multiplicity
 _atom_site_fract_x
 _atom_site_fract_y
 _atom_site_fract_z
 _atom_site_occupancy
  Y  Y0  1  0.812873  0.000410  0.500000  1
  Y  Y1  1  0.000410  0.812873  0.500000  1
  Y  Y2  1  0.333173  0.666618  0.000000  1
  Y  Y3  1  0.666618  0.333173  0.000000  1
  Tm  Tm4  1  0.187562  0.187562  0.500000  1
  Zr  Zr5  1  0.555567  0.555567  0.000000  1
  Zr  Zr6  1  0.443981  0.000453  0.000000  1
  Zr  Zr7  1  0.000453  0.443981  0.000000  1
  As  As8  1  0.824917  0.824917  0.000000  1
  As  As9  1  0.175642  0.001003  0.000000  1
  As  As10  1  0.001003  0.175642  0.000000  1
  As  As11  1  0.170539  0.485619  0.500000  1
  As  As12  1  0.514197  0.684761  0.500000  1
  As  As13  1  0.315197  0.829807  0.500000  1
  As  As14  1  0.684761  0.514197  0.500000  1
  As  As15  1  0.829807  0.315197  0.500000  1
  As  As16  1  0.485619  0.170539  0.500000  1
  As  As17  1  0.352747  0.352747  0.000000  1
  As  As18  1  0.645588  0.999841  0.000000  1
  As  As19  1  0.999841  0.645588  0.000000  1
  Rh  Rh20  1  0.718853  0.718853  0.500000  1
  Rh  Rh21  1  0.280517  0.000271  0.500000  1
  Rh  Rh22  1  0.000271  0.280517  0.500000  1
  Rh  Rh23  1  0.176653  0.372951  0.000000  1
  Rh  Rh24  1  0.626067  0.802345  0.000000  1
  Rh  Rh25  1  0.197314  0.823911  0.000000  1
  Rh  Rh26  1  0.802345  0.626067  0.000000  1
  Rh  Rh27  1  0.823911  0.197314  0.000000  1
  Rh  Rh28  1  0.372951  0.176653  0.000000  1
  Rh  Rh29  1  0.354888  0.482172  0.500000  1
  Rh  Rh30  1  0.517537  0.872188  0.500000  1
  Rh  Rh31  1  0.127672  0.645376  0.500000  1
  Rh  Rh32  1  0.872188  0.517537  0.500000  1
  Rh  Rh33  1  0.645376  0.127672  0.500000  1
  Rh  Rh34  1  0.482172  0.354888  0.500000  1
  Rh  Rh35  1  0.000792  0.000792  0.000000  1
