# generated using pymatgen
data_Lu3B2Ir4Ru
_symmetry_space_group_name_H-M   'P 1'
_cell_length_a   3.13804200
_cell_length_b   9.82815500
_cell_length_c   9.82815500
_cell_angle_alpha   90.00000000
_cell_angle_beta   90.00000000
_cell_angle_gamma   90.00000000
_symmetry_Int_Tables_number   1
_chemical_formula_structural   Lu3B2Ir4Ru
_chemical_formula_sum   'Lu6 B4 Ir8 Ru2'
_cell_volume   303.11173204
_cell_formula_units_Z   2
loop_
 _symmetry_equiv_pos_site_id
 _symmetry_equiv_pos_as_xyz
  1  'x, y, z'
loop_
 _atom_site_type_symbol
 _atom_site_label
 _atom_site_symmetry_multiplicity
 _atom_site_fract_x
 _atom_site_fract_y
 _atom_site_fract_z
 _atom_site_occupancy
  Lu  Lu0  1  0.000000  0.173712  0.673712  1
  Lu  Lu1  1  0.000000  0.826288  0.326288  1
  Lu  Lu2  1  0.000000  0.326288  0.173712  1
  Lu  Lu3  1  0.000000  0.673712  0.826288  1
  Lu  Lu4  1  0.000000  0.000000  0.000000  1
  Lu  Lu5  1  0.000000  0.500000  0.500000  1
  B  B6  1  0.000000  0.618896  0.118896  1
  B  B7  1  0.000000  0.381104  0.881104  1
  B  B8  1  0.000000  0.881104  0.618896  1
  B  B9  1  0.000000  0.118896  0.381104  1
  Ir  Ir10  1  0.500000  0.072782  0.226629  1
  Ir  Ir11  1  0.500000  0.927218  0.773371  1
  Ir  Ir12  1  0.500000  0.773371  0.072782  1
  Ir  Ir13  1  0.500000  0.427218  0.726629  1
  Ir  Ir14  1  0.500000  0.226629  0.927218  1
  Ir  Ir15  1  0.500000  0.572782  0.273371  1
  Ir  Ir16  1  0.500000  0.726629  0.572782  1
  Ir  Ir17  1  0.500000  0.273371  0.427218  1
  Ru  Ru18  1  0.500000  0.000000  0.500000  1
  Ru  Ru19  1  0.500000  0.500000  0.000000  1
