# generated using pymatgen
data_Ta4VGeB2
_symmetry_space_group_name_H-M   'P 1'
_cell_length_a   7.26462871
_cell_length_b   7.26462904
_cell_length_c   7.26462918
_cell_angle_alpha   129.78927604
_cell_angle_beta   129.78927858
_cell_angle_gamma   73.74386972
_symmetry_Int_Tables_number   1
_chemical_formula_structural   Ta4VGeB2
_chemical_formula_sum   'Ta8 V2 Ge2 B4'
_cell_volume   220.84742741
_cell_formula_units_Z   2
loop_
 _symmetry_equiv_pos_site_id
 _symmetry_equiv_pos_as_xyz
  1  'x, y, z'
loop_
 _atom_site_type_symbol
 _atom_site_label
 _atom_site_symmetry_multiplicity
 _atom_site_fract_x
 _atom_site_fract_y
 _atom_site_fract_z
 _atom_site_occupancy
  Ta  Ta0  1  0.533199  0.697697  0.500000  1
  Ta  Ta1  1  0.197697  0.033199  0.500000  1
  Ta  Ta2  1  0.033199  0.533199  0.835502  1
  Ta  Ta3  1  0.697697  0.197697  0.164498  1
  Ta  Ta4  1  0.466801  0.302303  0.500000  1
  Ta  Ta5  1  0.802303  0.966801  0.500000  1
  Ta  Ta6  1  0.966801  0.466801  0.164498  1
  Ta  Ta7  1  0.302303  0.802303  0.835502  1
  V  V8  1  0.500000  0.500000  0.000000  1
  V  V9  1  0.000000  0.000000  0.000000  1
  Ge  Ge10  1  0.250000  0.250000  0.000000  1
  Ge  Ge11  1  0.750000  0.750000  0.000000  1
  B  B12  1  0.876925  0.623075  0.500000  1
  B  B13  1  0.123075  0.376925  0.500000  1
  B  B14  1  0.376925  0.876925  0.253848  1
  B  B15  1  0.623075  0.123075  0.746152  1
