# generated using pymatgen
data_Ca20(TlGa3)3
_symmetry_space_group_name_H-M   'P 1'
_cell_length_a   8.11547800
_cell_length_b   8.11547800
_cell_length_c   14.73995000
_cell_angle_alpha   90.00000000
_cell_angle_beta   90.00000000
_cell_angle_gamma   90.00000000
_symmetry_Int_Tables_number   1
_chemical_formula_structural   Ca20(TlGa3)3
_chemical_formula_sum   'Ca20 Tl3 Ga9'
_cell_volume   970.78759885
_cell_formula_units_Z   1
loop_
 _symmetry_equiv_pos_site_id
 _symmetry_equiv_pos_as_xyz
  1  'x, y, z'
loop_
 _atom_site_type_symbol
 _atom_site_label
 _atom_site_symmetry_multiplicity
 _atom_site_fract_x
 _atom_site_fract_y
 _atom_site_fract_z
 _atom_site_occupancy
  Ca  Ca0  1  0.681356  0.171387  0.105753  1
  Ca  Ca1  1  0.177391  0.675701  0.608864  1
  Ca  Ca2  1  0.318644  0.828613  0.105753  1
  Ca  Ca3  1  0.822609  0.324299  0.608864  1
  Ca  Ca4  1  0.828613  0.681356  0.105753  1
  Ca  Ca5  1  0.324299  0.177391  0.608864  1
  Ca  Ca6  1  0.171387  0.318644  0.105753  1
  Ca  Ca7  1  0.675701  0.822609  0.608864  1
  Ca  Ca8  1  0.828613  0.318644  0.894247  1
  Ca  Ca9  1  0.324299  0.822609  0.391136  1
  Ca  Ca10  1  0.171387  0.681356  0.894247  1
  Ca  Ca11  1  0.675701  0.177391  0.391136  1
  Ca  Ca12  1  0.681356  0.828613  0.894247  1
  Ca  Ca13  1  0.177391  0.324299  0.391136  1
  Ca  Ca14  1  0.318644  0.171387  0.894247  1
  Ca  Ca15  1  0.822609  0.675701  0.391136  1
  Ca  Ca16  1  0.500000  0.500000  0.754806  1
  Ca  Ca17  1  0.000000  0.000000  0.249038  1
  Ca  Ca18  1  0.000000  0.000000  0.750962  1
  Ca  Ca19  1  0.500000  0.500000  0.245194  1
  Tl  Tl20  1  0.500000  0.500000  0.500000  1
  Tl  Tl21  1  0.500000  0.500000  0.000000  1
  Tl  Tl22  1  0.000000  0.000000  0.500000  1
  Ga  Ga23  1  0.609889  0.110641  0.751687  1
  Ga  Ga24  1  0.110641  0.609889  0.248313  1
  Ga  Ga25  1  0.889359  0.390111  0.248313  1
  Ga  Ga26  1  0.390111  0.889359  0.751687  1
  Ga  Ga27  1  0.889359  0.609889  0.751687  1
  Ga  Ga28  1  0.390111  0.110641  0.248313  1
  Ga  Ga29  1  0.110641  0.390111  0.751687  1
  Ga  Ga30  1  0.609889  0.889359  0.248313  1
  Ga  Ga31  1  0.000000  0.000000  0.000000  1
