# generated using pymatgen
data_Li4FeH6
_symmetry_space_group_name_H-M   'P 1'
_cell_length_a   5.51835534
_cell_length_b   5.51835524
_cell_length_c   5.51835447
_cell_angle_alpha   90.21346920
_cell_angle_beta   90.21346467
_cell_angle_gamma   90.21346709
_symmetry_Int_Tables_number   1
_chemical_formula_structural   Li4FeH6
_chemical_formula_sum   'Li8 Fe2 H12'
_cell_volume   168.04277503
_cell_formula_units_Z   2
loop_
 _symmetry_equiv_pos_site_id
 _symmetry_equiv_pos_as_xyz
  1  'x, y, z'
loop_
 _atom_site_type_symbol
 _atom_site_label
 _atom_site_symmetry_multiplicity
 _atom_site_fract_x
 _atom_site_fract_y
 _atom_site_fract_z
 _atom_site_occupancy
  Li  Li0  1  0.250000  0.250000  0.250000  1
  Li  Li1  1  0.750000  0.750000  0.750000  1
  Li  Li2  1  0.867238  0.632762  0.250000  1
  Li  Li3  1  0.250000  0.867238  0.632762  1
  Li  Li4  1  0.632762  0.250000  0.867238  1
  Li  Li5  1  0.750000  0.132762  0.367238  1
  Li  Li6  1  0.367238  0.750000  0.132762  1
  Li  Li7  1  0.132762  0.367238  0.750000  1
  Fe  Fe8  1  0.500000  0.500000  0.500000  1
  Fe  Fe9  1  0.000000  0.000000  0.000000  1
  H  H10  1  0.219100  0.548043  0.440988  1
  H  H11  1  0.440988  0.219100  0.548043  1
  H  H12  1  0.548043  0.440988  0.219100  1
  H  H13  1  0.940988  0.048043  0.719100  1
  H  H14  1  0.719100  0.940988  0.048043  1
  H  H15  1  0.048043  0.719100  0.940988  1
  H  H16  1  0.780900  0.451957  0.559012  1
  H  H17  1  0.559012  0.780900  0.451957  1
  H  H18  1  0.451957  0.559012  0.780900  1
  H  H19  1  0.059012  0.951957  0.280900  1
  H  H20  1  0.280900  0.059012  0.951957  1
  H  H21  1  0.951957  0.280900  0.059012  1
