# generated using pymatgen
data_Lu4NpPaTc6
_symmetry_space_group_name_H-M   'P 1'
_cell_length_a   5.32724157
_cell_length_b   5.32724150
_cell_length_c   9.11928200
_cell_angle_alpha   90.00000000
_cell_angle_beta   90.00000000
_cell_angle_gamma   114.87731357
_symmetry_Int_Tables_number   1
_chemical_formula_structural   Lu4NpPaTc6
_chemical_formula_sum   'Lu4 Np1 Pa1 Tc6'
_cell_volume   234.78673852
_cell_formula_units_Z   1
loop_
 _symmetry_equiv_pos_site_id
 _symmetry_equiv_pos_as_xyz
  1  'x, y, z'
loop_
 _atom_site_type_symbol
 _atom_site_label
 _atom_site_symmetry_multiplicity
 _atom_site_fract_x
 _atom_site_fract_y
 _atom_site_fract_z
 _atom_site_occupancy
  Lu  Lu0  1  0.335912  0.664088  0.435589  1
  Lu  Lu1  1  0.665959  0.334041  0.564146  1
  Lu  Lu2  1  0.665959  0.334041  0.935854  1
  Lu  Lu3  1  0.335912  0.664088  0.064411  1
  Np  Np4  1  0.846297  0.153703  0.250000  1
  Pa  Pa5  1  0.147640  0.852360  0.750000  1
  Tc  Tc6  1  0.991943  0.008057  0.476452  1
  Tc  Tc7  1  0.991943  0.008057  0.023548  1
  Tc  Tc8  1  0.837033  0.622324  0.250000  1
  Tc  Tc9  1  0.377676  0.162967  0.250000  1
  Tc  Tc10  1  0.162870  0.359143  0.750000  1
  Tc  Tc11  1  0.640857  0.837130  0.750000  1
