# generated using pymatgen
data_Ce2Pr(RhPb)3
_symmetry_space_group_name_H-M   'P 1'
_cell_length_a   7.77366782
_cell_length_b   7.77366790
_cell_length_c   4.03809100
_cell_angle_alpha   90.00000000
_cell_angle_beta   90.00000000
_cell_angle_gamma   120.61737305
_symmetry_Int_Tables_number   1
_chemical_formula_structural   Ce2Pr(RhPb)3
_chemical_formula_sum   'Ce2 Pr1 Rh3 Pb3'
_cell_volume   210.00187232
_cell_formula_units_Z   1
loop_
 _symmetry_equiv_pos_site_id
 _symmetry_equiv_pos_as_xyz
  1  'x, y, z'
loop_
 _atom_site_type_symbol
 _atom_site_label
 _atom_site_symmetry_multiplicity
 _atom_site_fract_x
 _atom_site_fract_y
 _atom_site_fract_z
 _atom_site_occupancy
  Ce  Ce0  1  0.588812  0.999627  0.500000  1
  Ce  Ce1  1  0.999627  0.588812  0.500000  1
  Pr  Pr2  1  0.407676  0.407676  0.500000  1
  Rh  Rh3  1  0.994250  0.994250  0.500000  1
  Rh  Rh4  1  0.679058  0.330602  0.000000  1
  Rh  Rh5  1  0.330602  0.679058  0.000000  1
  Pb  Pb6  1  0.739909  0.739909  0.000000  1
  Pb  Pb7  1  0.258240  0.001827  0.000000  1
  Pb  Pb8  1  0.001827  0.258240  0.000000  1
