# generated using pymatgen
data_Pr3Ho3Al25Os7
_symmetry_space_group_name_H-M   'P 1'
_cell_length_a   8.95551367
_cell_length_b   8.94402076
_cell_length_c   9.63903344
_cell_angle_alpha   90.33943518
_cell_angle_beta   89.54526314
_cell_angle_gamma   120.21448502
_symmetry_Int_Tables_number   1
_chemical_formula_structural   Pr3Ho3Al25Os7
_chemical_formula_sum   'Pr3 Ho3 Al25 Os7'
_cell_volume   667.15993183
_cell_formula_units_Z   1
loop_
 _symmetry_equiv_pos_site_id
 _symmetry_equiv_pos_as_xyz
  1  'x, y, z'
loop_
 _atom_site_type_symbol
 _atom_site_label
 _atom_site_symmetry_multiplicity
 _atom_site_fract_x
 _atom_site_fract_y
 _atom_site_fract_z
 _atom_site_occupancy
  Pr  Pr0  1  0.192033  0.379855  0.243183  1
  Pr  Pr1  1  0.807086  0.620503  0.756653  1
  Pr  Pr2  1  0.619648  0.807373  0.243760  1
  Ho  Ho3  1  0.386587  0.194931  0.755540  1
  Ho  Ho4  1  0.194918  0.803274  0.256947  1
  Ho  Ho5  1  0.804225  0.195465  0.742179  1
  Al  Al6  1  0.325907  0.674557  0.016515  1
  Al  Al7  1  0.673241  0.325984  0.978433  1
  Al  Al8  1  0.664964  0.333114  0.517764  1
  Al  Al9  1  0.333281  0.665509  0.485534  1
  Al  Al10  1  0.161591  0.324963  0.571983  1
  Al  Al11  1  0.839057  0.673186  0.429947  1
  Al  Al12  1  0.673274  0.838450  0.571770  1
  Al  Al13  1  0.855101  0.677741  0.083329  1
  Al  Al14  1  0.325726  0.160477  0.432149  1
  Al  Al15  1  0.146423  0.321219  0.915256  1
  Al  Al16  1  0.163284  0.838785  0.575814  1
  Al  Al17  1  0.321554  0.145223  0.080821  1
  Al  Al18  1  0.836777  0.162806  0.425632  1
  Al  Al19  1  0.678086  0.855879  0.915796  1
  Al  Al20  1  0.836191  0.163380  0.072521  1
  Al  Al21  1  0.164026  0.839104  0.924735  1
  Al  Al22  1  0.561101  0.120225  0.249042  1
  Al  Al23  1  0.437418  0.881842  0.750083  1
  Al  Al24  1  0.878686  0.437291  0.249735  1
  Al  Al25  1  0.119954  0.561783  0.750277  1
  Al  Al26  1  0.567323  0.431323  0.260901  1
  Al  Al27  1  0.430883  0.565079  0.741093  1
  Al  Al28  1  0.003322  0.996465  0.251193  1
  Al  Al29  1  0.004416  0.007021  0.749474  1
  Al  Al30  1  0.499512  0.499303  0.999656  1
  Os  Os31  1  0.499053  0.001332  0.998086  1
  Os  Os32  1  0.999655  0.499657  0.999710  1
  Os  Os33  1  0.498891  0.000358  0.501132  1
  Os  Os34  1  0.999145  0.499309  0.500533  1
  Os  Os35  1  0.498973  0.497843  0.501980  1
  Os  Os36  1  0.999550  0.999774  0.000110  1
  Os  Os37  1  0.999138  0.999617  0.500734  1
