# generated using pymatgen
data_Rb2NaIrO6
_symmetry_space_group_name_H-M   'P 1'
_cell_length_a   6.09848394
_cell_length_b   6.09848463
_cell_length_c   6.09848500
_cell_angle_alpha   60.00000343
_cell_angle_beta   59.99999968
_cell_angle_gamma   60.00000041
_symmetry_Int_Tables_number   1
_chemical_formula_structural   Rb2NaIrO6
_chemical_formula_sum   'Rb2 Na1 Ir1 O6'
_cell_volume   160.38021523
_cell_formula_units_Z   1
loop_
 _symmetry_equiv_pos_site_id
 _symmetry_equiv_pos_as_xyz
  1  'x, y, z'
loop_
 _atom_site_type_symbol
 _atom_site_label
 _atom_site_symmetry_multiplicity
 _atom_site_fract_x
 _atom_site_fract_y
 _atom_site_fract_z
 _atom_site_occupancy
  Rb  Rb0  1  0.750000  0.750000  0.750000  1
  Rb  Rb1  1  0.250000  0.250000  0.250000  1
  Na  Na2  1  0.500000  0.500000  0.500000  1
  Ir  Ir3  1  0.000000  0.000000  0.000000  1
  O  O4  1  0.783048  0.216952  0.216952  1
  O  O5  1  0.216952  0.216952  0.783048  1
  O  O6  1  0.216952  0.783048  0.783048  1
  O  O7  1  0.216952  0.783048  0.216952  1
  O  O8  1  0.783048  0.216952  0.783048  1
  O  O9  1  0.783048  0.783048  0.216952  1
