# generated using pymatgen
data_Ho8MgCdIr2
_symmetry_space_group_name_H-M   'P 1'
_cell_length_a   9.61767594
_cell_length_b   9.61767574
_cell_length_c   9.66751500
_cell_angle_alpha   59.82843410
_cell_angle_beta   59.82843480
_cell_angle_gamma   59.69713269
_symmetry_Int_Tables_number   1
_chemical_formula_structural   Ho8MgCdIr2
_chemical_formula_sum   'Ho16 Mg2 Cd2 Ir4'
_cell_volume   629.23120826
_cell_formula_units_Z   2
loop_
 _symmetry_equiv_pos_site_id
 _symmetry_equiv_pos_as_xyz
  1  'x, y, z'
loop_
 _atom_site_type_symbol
 _atom_site_label
 _atom_site_symmetry_multiplicity
 _atom_site_fract_x
 _atom_site_fract_y
 _atom_site_fract_z
 _atom_site_occupancy
  Ho  Ho0  1  0.598177  0.598177  0.598158  1
  Ho  Ho1  1  0.598177  0.598177  0.205489  1
  Ho  Ho2  1  0.597588  0.207432  0.597491  1
  Ho  Ho3  1  0.207432  0.597588  0.597491  1
  Ho  Ho4  1  0.060835  0.437636  0.439536  1
  Ho  Ho5  1  0.437636  0.060835  0.061994  1
  Ho  Ho6  1  0.437636  0.060835  0.439536  1
  Ho  Ho7  1  0.060835  0.437636  0.061994  1
  Ho  Ho8  1  0.439922  0.439922  0.060078  1
  Ho  Ho9  1  0.062487  0.062487  0.437513  1
  Ho  Ho10  1  0.189937  0.812668  0.812472  1
  Ho  Ho11  1  0.812668  0.189937  0.184923  1
  Ho  Ho12  1  0.812668  0.189937  0.812472  1
  Ho  Ho13  1  0.189937  0.812668  0.184923  1
  Ho  Ho14  1  0.813230  0.813230  0.186770  1
  Ho  Ho15  1  0.187629  0.187629  0.812371  1
  Mg  Mg16  1  0.826598  0.826598  0.830247  1
  Mg  Mg17  1  0.826598  0.826598  0.516557  1
  Cd  Cd18  1  0.831658  0.505384  0.831478  1
  Cd  Cd19  1  0.505384  0.831658  0.831478  1
  Ir  Ir20  1  0.392358  0.392358  0.390201  1
  Ir  Ir21  1  0.392358  0.392358  0.825084  1
  Ir  Ir22  1  0.393119  0.825137  0.390873  1
  Ir  Ir23  1  0.825137  0.393119  0.390873  1
