# generated using pymatgen
data_Tm2CuOsRu2
_symmetry_space_group_name_H-M   'P 1'
_cell_length_a   5.29010608
_cell_length_b   5.12408598
_cell_length_c   8.77653800
_cell_angle_alpha   90.00000000
_cell_angle_beta   90.00000000
_cell_angle_gamma   118.53505031
_symmetry_Int_Tables_number   1
_chemical_formula_structural   Tm2CuOsRu2
_chemical_formula_sum   'Tm4 Cu2 Os2 Ru4'
_cell_volume   209.00572216
_cell_formula_units_Z   2
loop_
 _symmetry_equiv_pos_site_id
 _symmetry_equiv_pos_as_xyz
  1  'x, y, z'
loop_
 _atom_site_type_symbol
 _atom_site_label
 _atom_site_symmetry_multiplicity
 _atom_site_fract_x
 _atom_site_fract_y
 _atom_site_fract_z
 _atom_site_occupancy
  Tm  Tm0  1  0.677163  0.338758  0.563512  1
  Tm  Tm1  1  0.341446  0.671817  0.436141  1
  Tm  Tm2  1  0.341446  0.671817  0.063859  1
  Tm  Tm3  1  0.677163  0.338758  0.936488  1
  Cu  Cu4  1  0.810640  0.652265  0.250000  1
  Cu  Cu5  1  0.810745  0.157603  0.250000  1
  Os  Os6  1  0.166373  0.335172  0.750000  1
  Os  Os7  1  0.167416  0.827810  0.750000  1
  Ru  Ru8  1  0.024737  0.013959  0.497615  1
  Ru  Ru9  1  0.024737  0.013959  0.002385  1
  Ru  Ru10  1  0.651314  0.825446  0.750000  1
  Ru  Ru11  1  0.306817  0.152636  0.250000  1
