# generated using pymatgen
data_La3Fe10N11
_symmetry_space_group_name_H-M   'P 1'
_cell_length_a   8.87098220
_cell_length_b   8.87098245
_cell_length_c   8.87098200
_cell_angle_alpha   60.00000169
_cell_angle_beta   60.00000075
_cell_angle_gamma   60.00000144
_symmetry_Int_Tables_number   1
_chemical_formula_structural   La3Fe10N11
_chemical_formula_sum   'La6 Fe20 N22'
_cell_volume   493.62840328
_cell_formula_units_Z   2
loop_
 _symmetry_equiv_pos_site_id
 _symmetry_equiv_pos_as_xyz
  1  'x, y, z'
loop_
 _atom_site_type_symbol
 _atom_site_label
 _atom_site_symmetry_multiplicity
 _atom_site_fract_x
 _atom_site_fract_y
 _atom_site_fract_z
 _atom_site_occupancy
  La  La0  1  0.697885  0.302115  0.302115  1
  La  La1  1  0.302115  0.697885  0.697885  1
  La  La2  1  0.302115  0.697885  0.302115  1
  La  La3  1  0.697885  0.302115  0.697885  1
  La  La4  1  0.302115  0.302115  0.697885  1
  La  La5  1  0.697885  0.697885  0.302115  1
  Fe  Fe6  1  0.096052  0.096052  0.096052  1
  Fe  Fe7  1  0.903948  0.903948  0.903948  1
  Fe  Fe8  1  0.096052  0.096052  0.711846  1
  Fe  Fe9  1  0.096052  0.711846  0.096052  1
  Fe  Fe10  1  0.903948  0.903948  0.288154  1
  Fe  Fe11  1  0.903948  0.288154  0.903948  1
  Fe  Fe12  1  0.711846  0.096052  0.096052  1
  Fe  Fe13  1  0.288154  0.903948  0.903948  1
  Fe  Fe14  1  0.399936  0.100064  0.100064  1
  Fe  Fe15  1  0.600064  0.899936  0.899936  1
  Fe  Fe16  1  0.100064  0.399936  0.399936  1
  Fe  Fe17  1  0.100064  0.399936  0.100064  1
  Fe  Fe18  1  0.600064  0.899936  0.600064  1
  Fe  Fe19  1  0.899936  0.600064  0.600064  1
  Fe  Fe20  1  0.899936  0.600064  0.899936  1
  Fe  Fe21  1  0.399936  0.100064  0.399936  1
  Fe  Fe22  1  0.100064  0.100064  0.399936  1
  Fe  Fe23  1  0.899936  0.899936  0.600064  1
  Fe  Fe24  1  0.399936  0.399936  0.100064  1
  Fe  Fe25  1  0.600064  0.600064  0.899936  1
  N  N26  1  0.345034  0.000000  0.000000  1
  N  N27  1  0.654966  0.000000  0.000000  1
  N  N28  1  0.000000  0.345034  0.654966  1
  N  N29  1  0.000000  0.654966  0.345034  1
  N  N30  1  0.000000  0.345034  0.000000  1
  N  N31  1  0.654966  0.000000  0.345034  1
  N  N32  1  0.000000  0.654966  0.000000  1
  N  N33  1  0.345034  0.000000  0.654966  1
  N  N34  1  0.000000  0.000000  0.345034  1
  N  N35  1  0.000000  0.000000  0.654966  1
  N  N36  1  0.654966  0.345034  0.000000  1
  N  N37  1  0.345034  0.654966  0.000000  1
  N  N38  1  0.354792  0.354792  0.354792  1
  N  N39  1  0.645208  0.645208  0.645208  1
  N  N40  1  0.354792  0.354792  0.935624  1
  N  N41  1  0.354792  0.935624  0.354792  1
  N  N42  1  0.645208  0.645208  0.064376  1
  N  N43  1  0.645208  0.064376  0.645208  1
  N  N44  1  0.935624  0.354792  0.354792  1
  N  N45  1  0.064376  0.645208  0.645208  1
  N  N46  1  0.500000  0.500000  0.500000  1
  N  N47  1  0.000000  0.000000  0.000000  1
