# generated using pymatgen
data_Sc12InFe3Ag
_symmetry_space_group_name_H-M   'P 1'
_cell_length_a   7.74555558
_cell_length_b   7.74555555
_cell_length_c   7.74555543
_cell_angle_alpha   106.06402869
_cell_angle_beta   110.57710857
_cell_angle_gamma   111.82796794
_symmetry_Int_Tables_number   1
_chemical_formula_structural   Sc12InFe3Ag
_chemical_formula_sum   'Sc12 In1 Fe3 Ag1'
_cell_volume   356.72705546
_cell_formula_units_Z   1
loop_
 _symmetry_equiv_pos_site_id
 _symmetry_equiv_pos_as_xyz
  1  'x, y, z'
loop_
 _atom_site_type_symbol
 _atom_site_label
 _atom_site_symmetry_multiplicity
 _atom_site_fract_x
 _atom_site_fract_y
 _atom_site_fract_z
 _atom_site_occupancy
  Sc  Sc0  1  0.307177  0.305421  0.612597  1
  Sc  Sc1  1  0.692823  0.694579  0.387403  1
  Sc  Sc2  1  0.692823  0.305421  0.998243  1
  Sc  Sc3  1  0.307177  0.694579  0.001757  1
  Sc  Sc4  1  0.190294  0.418241  0.227945  1
  Sc  Sc5  1  0.809706  0.581759  0.772055  1
  Sc  Sc6  1  0.190294  0.962348  0.772055  1
  Sc  Sc7  1  0.948896  0.196641  0.752255  1
  Sc  Sc8  1  0.809706  0.037652  0.227945  1
  Sc  Sc9  1  0.051104  0.803359  0.247745  1
  Sc  Sc10  1  0.444386  0.196641  0.247745  1
  Sc  Sc11  1  0.555614  0.803359  0.752255  1
  In  In12  1  0.000000  0.500000  0.500000  1
  Fe  Fe13  1  0.377547  0.377547  0.000000  1
  Fe  Fe14  1  0.622453  0.622453  0.000000  1
  Fe  Fe15  1  0.000000  0.000000  0.000000  1
  Ag  Ag16  1  0.500000  0.000000  0.500000  1
