# generated using pymatgen
data_Nd9Ho(IrPt2)2
_symmetry_space_group_name_H-M   'P 1'
_cell_length_a   11.41610000
_cell_length_b   11.41610000
_cell_length_c   6.50375800
_cell_angle_alpha   90.00000000
_cell_angle_beta   90.00000000
_cell_angle_gamma   90.00000000
_symmetry_Int_Tables_number   1
_chemical_formula_structural   Nd9Ho(IrPt2)2
_chemical_formula_sum   'Nd18 Ho2 Ir4 Pt8'
_cell_volume   847.61747501
_cell_formula_units_Z   2
loop_
 _symmetry_equiv_pos_site_id
 _symmetry_equiv_pos_as_xyz
  1  'x, y, z'
loop_
 _atom_site_type_symbol
 _atom_site_label
 _atom_site_symmetry_multiplicity
 _atom_site_fract_x
 _atom_site_fract_y
 _atom_site_fract_z
 _atom_site_occupancy
  Nd  Nd0  1  0.294817  0.088323  0.373601  1
  Nd  Nd1  1  0.294817  0.911677  0.873601  1
  Nd  Nd2  1  0.705183  0.088323  0.873601  1
  Nd  Nd3  1  0.705183  0.911677  0.373601  1
  Nd  Nd4  1  0.587895  0.792705  0.875111  1
  Nd  Nd5  1  0.587895  0.207295  0.375111  1
  Nd  Nd6  1  0.412105  0.792705  0.375111  1
  Nd  Nd7  1  0.412105  0.207295  0.875111  1
  Nd  Nd8  1  0.207295  0.412105  0.624889  1
  Nd  Nd9  1  0.207295  0.587895  0.124889  1
  Nd  Nd10  1  0.792705  0.412105  0.124889  1
  Nd  Nd11  1  0.792705  0.587895  0.624889  1
  Nd  Nd12  1  0.911677  0.705183  0.126399  1
  Nd  Nd13  1  0.911677  0.294817  0.626399  1
  Nd  Nd14  1  0.088323  0.705183  0.626399  1
  Nd  Nd15  1  0.088323  0.294817  0.126399  1
  Nd  Nd16  1  0.000000  0.000000  0.500000  1
  Nd  Nd17  1  0.000000  0.000000  0.000000  1
  Ho  Ho18  1  0.500000  0.500000  0.000000  1
  Ho  Ho19  1  0.500000  0.500000  0.500000  1
  Ir  Ir20  1  0.500000  0.000000  0.117042  1
  Ir  Ir21  1  0.500000  0.000000  0.617042  1
  Ir  Ir22  1  0.000000  0.500000  0.882958  1
  Ir  Ir23  1  0.000000  0.500000  0.382958  1
  Pt  Pt24  1  0.845925  0.154075  0.250000  1
  Pt  Pt25  1  0.845925  0.845925  0.750000  1
  Pt  Pt26  1  0.154075  0.154075  0.750000  1
  Pt  Pt27  1  0.154075  0.845925  0.250000  1
  Pt  Pt28  1  0.648531  0.351469  0.750000  1
  Pt  Pt29  1  0.648531  0.648531  0.250000  1
  Pt  Pt30  1  0.351469  0.351469  0.250000  1
  Pt  Pt31  1  0.351469  0.648531  0.750000  1
