# generated using pymatgen
data_Mg3Nb(GaRh2)4
_symmetry_space_group_name_H-M   'P 1'
_cell_length_a   6.12453000
_cell_length_b   6.12497700
_cell_length_c   6.23711600
_cell_angle_alpha   90.00016687
_cell_angle_beta   90.00003708
_cell_angle_gamma   90.00185225
_symmetry_Int_Tables_number   1
_chemical_formula_structural   Mg3Nb(GaRh2)4
_chemical_formula_sum   'Mg3 Nb1 Ga4 Rh8'
_cell_volume   233.97047119
_cell_formula_units_Z   1
loop_
 _symmetry_equiv_pos_site_id
 _symmetry_equiv_pos_as_xyz
  1  'x, y, z'
loop_
 _atom_site_type_symbol
 _atom_site_label
 _atom_site_symmetry_multiplicity
 _atom_site_fract_x
 _atom_site_fract_y
 _atom_site_fract_z
 _atom_site_occupancy
  Mg  Mg0  1  0.250116  0.749999  0.000000  1
  Mg  Mg1  1  0.750162  0.250000  0.500001  1
  Mg  Mg2  1  0.249849  0.750000  0.500002  1
  Nb  Nb3  1  0.749885  0.250000  0.000008  1
  Ga  Ga4  1  0.250041  0.250000  0.000001  1
  Ga  Ga5  1  0.749909  0.750000  0.000000  1
  Ga  Ga6  1  0.750136  0.750000  0.499992  1
  Ga  Ga7  1  0.249845  0.250000  0.500008  1
  Rh  Rh8  1  0.998385  0.001666  0.249793  1
  Rh  Rh9  1  0.998387  0.498330  0.249793  1
  Rh  Rh10  1  0.501627  0.001688  0.249962  1
  Rh  Rh11  1  0.501629  0.498315  0.249962  1
  Rh  Rh12  1  0.501627  0.001685  0.750035  1
  Rh  Rh13  1  0.501627  0.498310  0.750036  1
  Rh  Rh14  1  0.998387  0.001664  0.750206  1
  Rh  Rh15  1  0.998388  0.498343  0.750206  1
