# generated using pymatgen
data_Ta2Be(TcTe2)2
_symmetry_space_group_name_H-M   'P 1'
_cell_length_a   4.64165800
_cell_length_b   10.83983400
_cell_length_c   18.77056100
_cell_angle_alpha   90.00000000
_cell_angle_beta   90.00000000
_cell_angle_gamma   90.00000000
_symmetry_Int_Tables_number   1
_chemical_formula_structural   Ta2Be(TcTe2)2
_chemical_formula_sum   'Ta8 Be4 Tc8 Te16'
_cell_volume   944.43706399
_cell_formula_units_Z   4
loop_
 _symmetry_equiv_pos_site_id
 _symmetry_equiv_pos_as_xyz
  1  'x, y, z'
loop_
 _atom_site_type_symbol
 _atom_site_label
 _atom_site_symmetry_multiplicity
 _atom_site_fract_x
 _atom_site_fract_y
 _atom_site_fract_z
 _atom_site_occupancy
  Ta  Ta0  1  0.000000  0.677852  0.445830  1
  Ta  Ta1  1  0.000000  0.322148  0.554170  1
  Ta  Ta2  1  0.000000  0.177852  0.054170  1
  Ta  Ta3  1  0.000000  0.822148  0.945830  1
  Ta  Ta4  1  0.000000  0.406074  0.397190  1
  Ta  Ta5  1  0.000000  0.593926  0.602810  1
  Ta  Ta6  1  0.000000  0.906074  0.102810  1
  Ta  Ta7  1  0.000000  0.093926  0.897190  1
  Be  Be8  1  0.264084  0.500000  0.500000  1
  Be  Be9  1  0.735916  0.000000  0.000000  1
  Be  Be10  1  0.735916  0.500000  0.500000  1
  Be  Be11  1  0.264084  0.000000  0.000000  1
  Tc  Tc12  1  0.500000  0.558385  0.391264  1
  Tc  Tc13  1  0.500000  0.441615  0.608736  1
  Tc  Tc14  1  0.500000  0.058385  0.108736  1
  Tc  Tc15  1  0.500000  0.941615  0.891264  1
  Tc  Tc16  1  0.500000  0.688038  0.533768  1
  Tc  Tc17  1  0.500000  0.311962  0.466232  1
  Tc  Tc18  1  0.500000  0.188038  0.966232  1
  Tc  Tc19  1  0.500000  0.811962  0.033768  1
  Te  Te20  1  0.000000  0.844921  0.561854  1
  Te  Te21  1  0.000000  0.155079  0.438146  1
  Te  Te22  1  0.000000  0.344921  0.938146  1
  Te  Te23  1  0.000000  0.655079  0.061854  1
  Te  Te24  1  0.500000  0.335825  0.319241  1
  Te  Te25  1  0.500000  0.664175  0.680759  1
  Te  Te26  1  0.500000  0.835825  0.180759  1
  Te  Te27  1  0.500000  0.164175  0.819241  1
  Te  Te28  1  0.500000  0.813054  0.404731  1
  Te  Te29  1  0.500000  0.186946  0.595269  1
  Te  Te30  1  0.500000  0.313054  0.095269  1
  Te  Te31  1  0.500000  0.686946  0.904731  1
  Te  Te32  1  0.000000  0.606825  0.300540  1
  Te  Te33  1  0.000000  0.393175  0.699460  1
  Te  Te34  1  0.000000  0.106825  0.199460  1
  Te  Te35  1  0.000000  0.893175  0.800540  1
