# generated using pymatgen
data_CaLa6SeBr12
_symmetry_space_group_name_H-M   'P 1'
_cell_length_a   9.56627903
_cell_length_b   9.56464102
_cell_length_c   9.56744404
_cell_angle_alpha   106.93776841
_cell_angle_beta   107.07795265
_cell_angle_gamma   106.84279910
_symmetry_Int_Tables_number   1
_chemical_formula_structural   CaLa6SeBr12
_chemical_formula_sum   'Ca1 La6 Se1 Br12'
_cell_volume   729.97680967
_cell_formula_units_Z   1
loop_
 _symmetry_equiv_pos_site_id
 _symmetry_equiv_pos_as_xyz
  1  'x, y, z'
loop_
 _atom_site_type_symbol
 _atom_site_label
 _atom_site_symmetry_multiplicity
 _atom_site_fract_x
 _atom_site_fract_y
 _atom_site_fract_z
 _atom_site_occupancy
  Ca  Ca0  1  0.500000  0.500000  0.500000  1
  La  La1  1  0.323419  0.107479  0.028143  1
  La  La2  1  0.027456  0.323266  0.107693  1
  La  La3  1  0.108359  0.028043  0.323895  1
  La  La4  1  0.891641  0.971957  0.676106  1
  La  La5  1  0.972544  0.676735  0.892308  1
  La  La6  1  0.676582  0.892521  0.971858  1
  Se  Se7  1  0.000000  0.000000  0.000000  1
  Br  Br8  1  0.682543  0.227717  0.072135  1
  Br  Br9  1  0.381641  0.461096  0.166402  1
  Br  Br10  1  0.072299  0.682848  0.227703  1
  Br  Br11  1  0.772839  0.928113  0.316823  1
  Br  Br12  1  0.462051  0.166703  0.382993  1
  Br  Br13  1  0.166760  0.382255  0.461627  1
  Br  Br14  1  0.833240  0.617746  0.538373  1
  Br  Br15  1  0.537949  0.833298  0.617007  1
  Br  Br16  1  0.227162  0.071888  0.683177  1
  Br  Br17  1  0.927701  0.317152  0.772298  1
  Br  Br18  1  0.618360  0.538904  0.833598  1
  Br  Br19  1  0.317458  0.772283  0.927865  1
