# generated using pymatgen
data_La6Dy3Y(Sn5Ir2)4
_symmetry_space_group_name_H-M   'P 1'
_cell_length_a   14.18957311
_cell_length_b   14.18957311
_cell_length_c   4.65574800
_cell_angle_alpha   90.00000000
_cell_angle_beta   90.00000000
_cell_angle_gamma   89.98560900
_symmetry_Int_Tables_number   1
_chemical_formula_structural   La6Dy3Y(Sn5Ir2)4
_chemical_formula_sum   'La6 Dy3 Y1 Sn20 Ir8'
_cell_volume   937.40682636
_cell_formula_units_Z   1
loop_
 _symmetry_equiv_pos_site_id
 _symmetry_equiv_pos_as_xyz
  1  'x, y, z'
loop_
 _atom_site_type_symbol
 _atom_site_label
 _atom_site_symmetry_multiplicity
 _atom_site_fract_x
 _atom_site_fract_y
 _atom_site_fract_z
 _atom_site_occupancy
  La  La0  1  0.499975  0.499998  0.000000  1
  La  La1  1  0.000002  0.000025  0.000000  1
  La  La2  1  0.887013  0.387003  0.500000  1
  La  La3  1  0.112997  0.612987  0.500000  1
  La  La4  1  0.386991  0.113009  0.500000  1
  La  La5  1  0.612978  0.887022  0.500000  1
  Dy  Dy6  1  0.675588  0.175604  0.500000  1
  Dy  Dy7  1  0.324396  0.824412  0.500000  1
  Dy  Dy8  1  0.175595  0.324405  0.500000  1
  Y  Y9  1  0.824369  0.675631  0.500000  1
  Sn  Sn10  1  0.570070  0.070062  0.000000  1
  Sn  Sn11  1  0.429938  0.929930  0.000000  1
  Sn  Sn12  1  0.070077  0.429923  0.000000  1
  Sn  Sn13  1  0.929959  0.570041  0.000000  1
  Sn  Sn14  1  0.655479  0.698246  0.000000  1
  Sn  Sn15  1  0.344482  0.301728  0.000000  1
  Sn  Sn16  1  0.155530  0.801726  0.000000  1
  Sn  Sn17  1  0.844496  0.198263  0.000000  1
  Sn  Sn18  1  0.301737  0.655504  0.000000  1
  Sn  Sn19  1  0.698274  0.344470  0.000000  1
  Sn  Sn20  1  0.198272  0.155518  0.000000  1
  Sn  Sn21  1  0.801754  0.844521  0.000000  1
  Sn  Sn22  1  0.663404  0.506158  0.500000  1
  Sn  Sn23  1  0.336570  0.493831  0.500000  1
  Sn  Sn24  1  0.163441  0.993856  0.500000  1
  Sn  Sn25  1  0.836583  0.006179  0.500000  1
  Sn  Sn26  1  0.493821  0.663417  0.500000  1
  Sn  Sn27  1  0.506144  0.336559  0.500000  1
  Sn  Sn28  1  0.006169  0.163430  0.500000  1
  Sn  Sn29  1  0.993842  0.836596  0.500000  1
  Ir  Ir30  1  0.747251  0.529371  0.000000  1
  Ir  Ir31  1  0.252700  0.470539  0.000000  1
  Ir  Ir32  1  0.247294  0.970513  0.000000  1
  Ir  Ir33  1  0.752700  0.029468  0.000000  1
  Ir  Ir34  1  0.470532  0.747300  0.000000  1
  Ir  Ir35  1  0.529487  0.252706  0.000000  1
  Ir  Ir36  1  0.029461  0.247300  0.000000  1
  Ir  Ir37  1  0.970629  0.752749  0.000000  1
