# generated using pymatgen
data_ErTi2Nb3(B2Ru5)2
_symmetry_space_group_name_H-M   'P 1'
_cell_length_a   9.40770981
_cell_length_b   9.40770940
_cell_length_c   3.04780500
_cell_angle_alpha   90.00000000
_cell_angle_beta   90.00000000
_cell_angle_gamma   90.26519718
_symmetry_Int_Tables_number   1
_chemical_formula_structural   ErTi2Nb3(B2Ru5)2
_chemical_formula_sum   'Er1 Ti2 Nb3 B4 Ru10'
_cell_volume   269.74309186
_cell_formula_units_Z   1
loop_
 _symmetry_equiv_pos_site_id
 _symmetry_equiv_pos_as_xyz
  1  'x, y, z'
loop_
 _atom_site_type_symbol
 _atom_site_label
 _atom_site_symmetry_multiplicity
 _atom_site_fract_x
 _atom_site_fract_y
 _atom_site_fract_z
 _atom_site_occupancy
  Er  Er0  1  0.824384  0.675616  0.000000  1
  Ti  Ti1  1  0.501268  0.500916  0.000000  1
  Ti  Ti2  1  0.999084  0.998732  0.000000  1
  Nb  Nb3  1  0.177434  0.322566  0.000000  1
  Nb  Nb4  1  0.324182  0.823211  0.000000  1
  Nb  Nb5  1  0.676789  0.175818  0.000000  1
  B  B6  1  0.621029  0.878971  0.000000  1
  B  B7  1  0.374513  0.125487  0.000000  1
  B  B8  1  0.125272  0.622220  0.000000  1
  B  B9  1  0.877780  0.374728  0.000000  1
  Ru  Ru10  1  0.558557  0.721236  0.500000  1
  Ru  Ru11  1  0.428155  0.285211  0.500000  1
  Ru  Ru12  1  0.081063  0.785215  0.500000  1
  Ru  Ru13  1  0.931551  0.213940  0.500000  1
  Ru  Ru14  1  0.286060  0.568449  0.500000  1
  Ru  Ru15  1  0.714785  0.418937  0.500000  1
  Ru  Ru16  1  0.214789  0.071845  0.500000  1
  Ru  Ru17  1  0.778764  0.941443  0.500000  1
  Ru  Ru18  1  0.496678  0.003322  0.500000  1
  Ru  Ru19  1  0.007862  0.492138  0.500000  1
