# generated using pymatgen
data_Cs5Hg6
_symmetry_space_group_name_H-M   'P 1'
_cell_length_a   19.47695342
_cell_length_b   19.47695239
_cell_length_c   5.91538700
_cell_angle_alpha   90.00000000
_cell_angle_beta   90.00000000
_cell_angle_gamma   166.37064754
_symmetry_Int_Tables_number   1
_chemical_formula_structural   Cs5Hg6
_chemical_formula_sum   'Cs5 Hg6'
_cell_volume   528.77904043
_cell_formula_units_Z   1
loop_
 _symmetry_equiv_pos_site_id
 _symmetry_equiv_pos_as_xyz
  1  'x, y, z'
loop_
 _atom_site_type_symbol
 _atom_site_label
 _atom_site_symmetry_multiplicity
 _atom_site_fract_x
 _atom_site_fract_y
 _atom_site_fract_z
 _atom_site_occupancy
  Cs  Cs0  1  0.000000  0.000000  0.000000  1
  Cs  Cs1  1  0.615320  0.384680  0.000000  1
  Cs  Cs2  1  0.384680  0.615320  0.000000  1
  Cs  Cs3  1  0.804859  0.195140  0.500000  1
  Cs  Cs4  1  0.195140  0.804859  0.500000  1
  Hg  Hg5  1  0.721882  0.278118  0.000000  1
  Hg  Hg6  1  0.278118  0.721882  0.000000  1
  Hg  Hg7  1  0.907206  0.092794  0.500000  1
  Hg  Hg8  1  0.539396  0.460603  0.500000  1
  Hg  Hg9  1  0.460603  0.539396  0.500000  1
  Hg  Hg10  1  0.092794  0.907206  0.500000  1
