# generated using pymatgen
data_YbGd3HfIr3
_symmetry_space_group_name_H-M   'P 1'
_cell_length_a   10.89178200
_cell_length_b   10.81595500
_cell_length_c   6.27151900
_cell_angle_alpha   90.00000000
_cell_angle_beta   90.00000000
_cell_angle_gamma   90.00000000
_symmetry_Int_Tables_number   1
_chemical_formula_structural   YbGd3HfIr3
_chemical_formula_sum   'Yb4 Gd12 Hf4 Ir12'
_cell_volume   738.81644620
_cell_formula_units_Z   4
loop_
 _symmetry_equiv_pos_site_id
 _symmetry_equiv_pos_as_xyz
  1  'x, y, z'
loop_
 _atom_site_type_symbol
 _atom_site_label
 _atom_site_symmetry_multiplicity
 _atom_site_fract_x
 _atom_site_fract_y
 _atom_site_fract_z
 _atom_site_occupancy
  Yb  Yb0  1  0.287884  0.084660  0.373394  1
  Yb  Yb1  1  0.287884  0.915340  0.873394  1
  Yb  Yb2  1  0.712116  0.084660  0.873394  1
  Yb  Yb3  1  0.712116  0.915340  0.373394  1
  Gd  Gd4  1  0.584903  0.793433  0.873821  1
  Gd  Gd5  1  0.584903  0.206567  0.373821  1
  Gd  Gd6  1  0.415097  0.793433  0.373821  1
  Gd  Gd7  1  0.415097  0.206567  0.873821  1
  Gd  Gd8  1  0.212772  0.413961  0.627163  1
  Gd  Gd9  1  0.212772  0.586039  0.127163  1
  Gd  Gd10  1  0.787228  0.413961  0.127163  1
  Gd  Gd11  1  0.787228  0.586039  0.627163  1
  Gd  Gd12  1  0.913469  0.712905  0.128352  1
  Gd  Gd13  1  0.913469  0.287095  0.628352  1
  Gd  Gd14  1  0.086531  0.712905  0.628352  1
  Gd  Gd15  1  0.086531  0.287095  0.128352  1
  Hf  Hf16  1  0.000000  0.000000  0.496578  1
  Hf  Hf17  1  0.000000  0.000000  0.996578  1
  Hf  Hf18  1  0.500000  0.500000  0.998167  1
  Hf  Hf19  1  0.500000  0.500000  0.498167  1
  Ir  Ir20  1  0.863199  0.145676  0.250314  1
  Ir  Ir21  1  0.863199  0.854324  0.750314  1
  Ir  Ir22  1  0.136801  0.145676  0.750314  1
  Ir  Ir23  1  0.136801  0.854324  0.250314  1
  Ir  Ir24  1  0.640322  0.359890  0.747555  1
  Ir  Ir25  1  0.640322  0.640110  0.247555  1
  Ir  Ir26  1  0.359678  0.359890  0.247555  1
  Ir  Ir27  1  0.359678  0.640110  0.747555  1
  Ir  Ir28  1  0.500000  0.000000  0.123264  1
  Ir  Ir29  1  0.500000  0.000000  0.623264  1
  Ir  Ir30  1  0.000000  0.500000  0.880792  1
  Ir  Ir31  1  0.000000  0.500000  0.380792  1
