# generated using pymatgen
data_Er2Lu3(ReO6)2
_symmetry_space_group_name_H-M   'P 1'
_cell_length_a   6.73829972
_cell_length_b   6.73829935
_cell_length_c   7.42448102
_cell_angle_alpha   73.98431885
_cell_angle_beta   73.98431987
_cell_angle_gamma   49.35195733
_symmetry_Int_Tables_number   1
_chemical_formula_structural   Er2Lu3(ReO6)2
_chemical_formula_sum   'Er2 Lu3 Re2 O12'
_cell_volume   243.69634870
_cell_formula_units_Z   1
loop_
 _symmetry_equiv_pos_site_id
 _symmetry_equiv_pos_as_xyz
  1  'x, y, z'
loop_
 _atom_site_type_symbol
 _atom_site_label
 _atom_site_symmetry_multiplicity
 _atom_site_fract_x
 _atom_site_fract_y
 _atom_site_fract_z
 _atom_site_occupancy
  Er  Er0  1  0.697490  0.697490  0.641144  1
  Er  Er1  1  0.302510  0.302510  0.358856  1
  Lu  Lu2  1  0.314334  0.314334  0.823208  1
  Lu  Lu3  1  0.685666  0.685666  0.176792  1
  Lu  Lu4  1  0.000000  0.000000  0.500000  1
  Re  Re5  1  0.214766  0.785234  0.000000  1
  Re  Re6  1  0.785234  0.214766  0.000000  1
  O  O7  1  0.500423  0.500423  0.180516  1
  O  O8  1  0.499577  0.499577  0.819484  1
  O  O9  1  0.000776  0.000776  0.210342  1
  O  O10  1  0.999224  0.999224  0.789658  1
  O  O11  1  0.914750  0.420674  0.914776  1
  O  O12  1  0.579326  0.085250  0.085224  1
  O  O13  1  0.085250  0.579326  0.085224  1
  O  O14  1  0.595318  0.099971  0.575410  1
  O  O15  1  0.900029  0.404682  0.424590  1
  O  O16  1  0.404682  0.900029  0.424590  1
  O  O17  1  0.099971  0.595318  0.575410  1
  O  O18  1  0.420674  0.914750  0.914776  1
