# generated using pymatgen
data_Pr4Nd2Zn4IrPd12
_symmetry_space_group_name_H-M   'P 1'
_cell_length_a   8.40319554
_cell_length_b   8.40319622
_cell_length_c   8.40322902
_cell_angle_alpha   109.46740666
_cell_angle_beta   109.46741044
_cell_angle_gamma   109.47868145
_symmetry_Int_Tables_number   1
_chemical_formula_structural   Pr4Nd2Zn4IrPd12
_chemical_formula_sum   'Pr4 Nd2 Zn4 Ir1 Pd12'
_cell_volume   456.78744103
_cell_formula_units_Z   1
loop_
 _symmetry_equiv_pos_site_id
 _symmetry_equiv_pos_as_xyz
  1  'x, y, z'
loop_
 _atom_site_type_symbol
 _atom_site_label
 _atom_site_symmetry_multiplicity
 _atom_site_fract_x
 _atom_site_fract_y
 _atom_site_fract_z
 _atom_site_occupancy
  Pr  Pr0  1  0.702763  0.702763  0.999870  1
  Pr  Pr1  1  0.297464  0.999937  0.297401  1
  Pr  Pr2  1  0.999937  0.297464  0.297401  1
  Pr  Pr3  1  0.297107  0.297107  0.999870  1
  Nd  Nd4  1  0.702479  0.999940  0.702419  1
  Nd  Nd5  1  0.999940  0.702479  0.702419  1
  Zn  Zn6  1  0.999921  0.999921  0.500177  1
  Zn  Zn7  1  0.999922  0.499922  0.999844  1
  Zn  Zn8  1  0.499922  0.999922  0.999844  1
  Zn  Zn9  1  0.500255  0.500255  0.500177  1
  Ir  Ir10  1  0.999419  0.999419  0.998837  1
  Pd  Pd11  1  0.331523  0.331523  0.663047  1
  Pd  Pd12  1  0.668477  0.000006  0.331893  1
  Pd  Pd13  1  0.000006  0.668477  0.331893  1
  Pd  Pd14  1  0.668509  0.331323  0.999832  1
  Pd  Pd15  1  0.331887  0.663415  0.331893  1
  Pd  Pd16  1  0.999828  0.331686  0.668507  1
  Pd  Pd17  1  0.331323  0.668509  0.999832  1
  Pd  Pd18  1  0.331686  0.999828  0.668507  1
  Pd  Pd19  1  0.663415  0.331887  0.331893  1
  Pd  Pd20  1  0.668716  0.668716  0.337431  1
  Pd  Pd21  1  0.668679  0.336820  0.668507  1
  Pd  Pd22  1  0.336820  0.668679  0.668507  1
