# generated using pymatgen
data_Lu5(MnTe)2
_symmetry_space_group_name_H-M   'P 1'
_cell_length_a   7.62329796
_cell_length_b   7.62329753
_cell_length_c   15.21714500
_cell_angle_alpha   90.00000000
_cell_angle_beta   90.00000000
_cell_angle_gamma   150.50442304
_symmetry_Int_Tables_number   1
_chemical_formula_structural   Lu5(MnTe)2
_chemical_formula_sum   'Lu10 Mn4 Te4'
_cell_volume   435.41010605
_cell_formula_units_Z   2
loop_
 _symmetry_equiv_pos_site_id
 _symmetry_equiv_pos_as_xyz
  1  'x, y, z'
loop_
 _atom_site_type_symbol
 _atom_site_label
 _atom_site_symmetry_multiplicity
 _atom_site_fract_x
 _atom_site_fract_y
 _atom_site_fract_z
 _atom_site_occupancy
  Lu  Lu0  1  0.962747  0.037253  0.115889  1
  Lu  Lu1  1  0.037253  0.962747  0.884111  1
  Lu  Lu2  1  0.037253  0.962747  0.615889  1
  Lu  Lu3  1  0.962747  0.037253  0.384111  1
  Lu  Lu4  1  0.741312  0.258688  0.635012  1
  Lu  Lu5  1  0.258688  0.741312  0.364988  1
  Lu  Lu6  1  0.258688  0.741312  0.135012  1
  Lu  Lu7  1  0.741312  0.258688  0.864988  1
  Lu  Lu8  1  0.600080  0.399920  0.250000  1
  Lu  Lu9  1  0.399920  0.600080  0.750000  1
  Mn  Mn10  1  0.409825  0.590175  0.250000  1
  Mn  Mn11  1  0.590175  0.409825  0.750000  1
  Mn  Mn12  1  0.839222  0.160778  0.250000  1
  Mn  Mn13  1  0.160778  0.839222  0.750000  1
  Te  Te14  1  0.621076  0.378924  0.039795  1
  Te  Te15  1  0.378924  0.621076  0.960205  1
  Te  Te16  1  0.378924  0.621076  0.539795  1
  Te  Te17  1  0.621076  0.378924  0.460205  1
