# generated using pymatgen
data_Tb5DyMn2(CrC6)2
_symmetry_space_group_name_H-M   'P 1'
_cell_length_a   8.12020002
_cell_length_b   8.11954313
_cell_length_c   5.01093600
_cell_angle_alpha   90.00000000
_cell_angle_beta   90.00000000
_cell_angle_gamma   119.99519647
_symmetry_Int_Tables_number   1
_chemical_formula_structural   Tb5DyMn2(CrC6)2
_chemical_formula_sum   'Tb5 Dy1 Mn2 Cr2 C12'
_cell_volume   286.13357899
_cell_formula_units_Z   1
loop_
 _symmetry_equiv_pos_site_id
 _symmetry_equiv_pos_as_xyz
  1  'x, y, z'
loop_
 _atom_site_type_symbol
 _atom_site_label
 _atom_site_symmetry_multiplicity
 _atom_site_fract_x
 _atom_site_fract_y
 _atom_site_fract_z
 _atom_site_occupancy
  Tb  Tb0  1  0.936598  0.620990  0.250000  1
  Tb  Tb1  1  0.684367  0.063295  0.250000  1
  Tb  Tb2  1  0.315689  0.936604  0.750000  1
  Tb  Tb3  1  0.063462  0.378978  0.750000  1
  Tb  Tb4  1  0.379105  0.315799  0.250000  1
  Dy  Dy5  1  0.622070  0.684919  0.750000  1
  Mn  Mn6  1  0.666619  0.333398  0.750000  1
  Mn  Mn7  1  0.333441  0.666648  0.250000  1
  Cr  Cr8  1  0.999909  0.999897  0.500100  1
  Cr  Cr9  1  0.999909  0.999897  0.999900  1
  C  C10  1  0.961557  0.771179  0.750000  1
  C  C11  1  0.190741  0.961839  0.250000  1
  C  C12  1  0.771162  0.809196  0.250000  1
  C  C13  1  0.228874  0.190725  0.750000  1
  C  C14  1  0.808672  0.037541  0.750000  1
  C  C15  1  0.038128  0.228894  0.250000  1
  C  C16  1  0.863739  0.576399  0.750000  1
  C  C17  1  0.287827  0.864098  0.250000  1
  C  C18  1  0.576380  0.711910  0.250000  1
  C  C19  1  0.423669  0.288126  0.750000  1
  C  C20  1  0.135856  0.423687  0.250000  1
  C  C21  1  0.712226  0.135980  0.750000  1
