# generated using pymatgen
data_Nd2AlGa3Au4
_symmetry_space_group_name_H-M   'P 1'
_cell_length_a   4.48959200
_cell_length_b   4.48959200
_cell_length_c   10.33276800
_cell_angle_alpha   90.00000000
_cell_angle_beta   90.00000000
_cell_angle_gamma   90.00000000
_symmetry_Int_Tables_number   1
_chemical_formula_structural   Nd2AlGa3Au4
_chemical_formula_sum   'Nd2 Al1 Ga3 Au4'
_cell_volume   208.27178027
_cell_formula_units_Z   1
loop_
 _symmetry_equiv_pos_site_id
 _symmetry_equiv_pos_as_xyz
  1  'x, y, z'
loop_
 _atom_site_type_symbol
 _atom_site_label
 _atom_site_symmetry_multiplicity
 _atom_site_fract_x
 _atom_site_fract_y
 _atom_site_fract_z
 _atom_site_occupancy
  Nd  Nd0  1  0.000000  0.500000  0.249297  1
  Nd  Nd1  1  0.500000  0.000000  0.751034  1
  Al  Al2  1  0.500000  0.000000  0.127523  1
  Ga  Ga3  1  0.000000  0.000000  0.499786  1
  Ga  Ga4  1  0.500000  0.500000  0.499786  1
  Ga  Ga5  1  0.000000  0.500000  0.870447  1
  Au  Au6  1  0.000000  0.000000  0.003153  1
  Au  Au7  1  0.500000  0.500000  0.003153  1
  Au  Au8  1  0.000000  0.500000  0.627896  1
  Au  Au9  1  0.500000  0.000000  0.367925  1
