# generated using pymatgen
data_Sc5Cd3Ni2Hg
_symmetry_space_group_name_H-M   'P 1'
_cell_length_a   3.27120700
_cell_length_b   7.56700127
_cell_length_c   17.47332355
_cell_angle_alpha   89.81587374
_cell_angle_beta   90.00000000
_cell_angle_gamma   90.00000000
_symmetry_Int_Tables_number   1
_chemical_formula_structural   Sc5Cd3Ni2Hg
_chemical_formula_sum   'Sc10 Cd6 Ni4 Hg2'
_cell_volume   432.51892023
_cell_formula_units_Z   2
loop_
 _symmetry_equiv_pos_site_id
 _symmetry_equiv_pos_as_xyz
  1  'x, y, z'
loop_
 _atom_site_type_symbol
 _atom_site_label
 _atom_site_symmetry_multiplicity
 _atom_site_fract_x
 _atom_site_fract_y
 _atom_site_fract_z
 _atom_site_occupancy
  Sc  Sc0  1  0.500000  0.119895  0.912644  1
  Sc  Sc1  1  0.500000  0.624266  0.587686  1
  Sc  Sc2  1  0.500000  0.375585  0.413036  1
  Sc  Sc3  1  0.500000  0.874850  0.088565  1
  Sc  Sc4  1  0.500000  0.999863  0.500193  1
  Sc  Sc5  1  0.500000  0.758441  0.781319  1
  Sc  Sc6  1  0.500000  0.735240  0.277455  1
  Sc  Sc7  1  0.500000  0.262715  0.721079  1
  Sc  Sc8  1  0.500000  0.503619  0.000196  1
  Sc  Sc9  1  0.500000  0.244574  0.218631  1
  Cd  Cd10  1  0.000000  0.203550  0.066521  1
  Cd  Cd11  1  0.000000  0.705201  0.431178  1
  Cd  Cd12  1  0.000000  0.935449  0.651738  1
  Cd  Cd13  1  0.000000  0.064637  0.347958  1
  Cd  Cd14  1  0.000000  0.295177  0.568314  1
  Cd  Cd15  1  0.000000  0.432371  0.849533  1
  Ni  Ni16  1  0.000000  0.455935  0.305178  1
  Ni  Ni17  1  0.000000  0.544133  0.695868  1
  Ni  Ni18  1  0.000000  0.042620  0.803808  1
  Ni  Ni19  1  0.000000  0.961692  0.195516  1
  Hg  Hg20  1  0.000000  0.564774  0.150463  1
  Hg  Hg21  1  0.000000  0.795410  0.933121  1
