# generated using pymatgen
data_Dy8MgSc11Si15Au
_symmetry_space_group_name_H-M   'P 1'
_cell_length_a   7.09370301
_cell_length_b   7.36696571
_cell_length_c   14.08728489
_cell_angle_alpha   89.92304807
_cell_angle_beta   89.61556070
_cell_angle_gamma   90.24233855
_symmetry_Int_Tables_number   1
_chemical_formula_structural   Dy8MgSc11Si15Au
_chemical_formula_sum   'Dy8 Mg1 Sc11 Si15 Au1'
_cell_volume   736.16451334
_cell_formula_units_Z   1
loop_
 _symmetry_equiv_pos_site_id
 _symmetry_equiv_pos_as_xyz
  1  'x, y, z'
loop_
 _atom_site_type_symbol
 _atom_site_label
 _atom_site_symmetry_multiplicity
 _atom_site_fract_x
 _atom_site_fract_y
 _atom_site_fract_z
 _atom_site_occupancy
  Dy  Dy0  1  0.012798  0.175944  0.096990  1
  Dy  Dy1  1  0.988598  0.821104  0.902845  1
  Dy  Dy2  1  0.484548  0.675114  0.903195  1
  Dy  Dy3  1  0.990331  0.824076  0.597866  1
  Dy  Dy4  1  0.510904  0.324771  0.096240  1
  Dy  Dy5  1  0.009874  0.174885  0.399749  1
  Dy  Dy6  1  0.509376  0.323959  0.401239  1
  Dy  Dy7  1  0.489422  0.674627  0.600076  1
  Mg  Mg8  1  0.160006  0.503455  0.749603  1
  Sc  Sc9  1  0.837194  0.498322  0.250506  1
  Sc  Sc10  1  0.338306  0.000544  0.249174  1
  Sc  Sc11  1  0.662925  0.997066  0.751346  1
  Sc  Sc12  1  0.337828  0.179281  0.625970  1
  Sc  Sc13  1  0.666603  0.823904  0.373262  1
  Sc  Sc14  1  0.168128  0.672434  0.373127  1
  Sc  Sc15  1  0.670486  0.823949  0.125340  1
  Sc  Sc16  1  0.831831  0.328137  0.624806  1
  Sc  Sc17  1  0.327403  0.179192  0.876374  1
  Sc  Sc18  1  0.832876  0.323869  0.876059  1
  Sc  Sc19  1  0.171357  0.676444  0.124860  1
  Si  Si20  1  0.033004  0.109633  0.750153  1
  Si  Si21  1  0.968202  0.884010  0.249052  1
  Si  Si22  1  0.466654  0.615479  0.248346  1
  Si  Si23  1  0.541009  0.383080  0.752889  1
  Si  Si24  1  0.287838  0.882498  0.751055  1
  Si  Si25  1  0.711967  0.128385  0.248742  1
  Si  Si26  1  0.213041  0.371375  0.248227  1
  Si  Si27  1  0.779194  0.628382  0.752382  1
  Si  Si28  1  0.833028  0.537998  0.460090  1
  Si  Si29  1  0.340806  0.962055  0.461183  1
  Si  Si30  1  0.843841  0.536048  0.038315  1
  Si  Si31  1  0.657545  0.035129  0.537975  1
  Si  Si32  1  0.157048  0.462646  0.965288  1
  Si  Si33  1  0.656865  0.033877  0.960756  1
  Si  Si34  1  0.344722  0.965803  0.039134  1
  Au  Au35  1  0.164441  0.462527  0.537780  1
