# generated using pymatgen
data_Hf3Al3GeIr2
_symmetry_space_group_name_H-M   'P 1'
_cell_length_a   6.76661400
_cell_length_b   6.76661433
_cell_length_c   3.97623000
_cell_angle_alpha   90.00000000
_cell_angle_beta   90.00000000
_cell_angle_gamma   119.99999840
_symmetry_Int_Tables_number   1
_chemical_formula_structural   Hf3Al3GeIr2
_chemical_formula_sum   'Hf3 Al3 Ge1 Ir2'
_cell_volume   157.66850995
_cell_formula_units_Z   1
loop_
 _symmetry_equiv_pos_site_id
 _symmetry_equiv_pos_as_xyz
  1  'x, y, z'
loop_
 _atom_site_type_symbol
 _atom_site_label
 _atom_site_symmetry_multiplicity
 _atom_site_fract_x
 _atom_site_fract_y
 _atom_site_fract_z
 _atom_site_occupancy
  Hf  Hf0  1  0.403756  0.986538  0.499999  1
  Hf  Hf1  1  0.013462  0.417218  0.499999  1
  Hf  Hf2  1  0.582782  0.596244  0.499999  1
  Al  Al3  1  0.751054  0.989172  0.000000  1
  Al  Al4  1  0.238117  0.248945  0.000000  1
  Al  Al5  1  0.010828  0.761883  0.000000  1
  Ge  Ge6  1  0.666667  0.333333  0.000000  1
  Ir  Ir7  1  0.333333  0.666667  0.000000  1
  Ir  Ir8  1  0.000000  0.000000  0.499999  1
