# generated using pymatgen
data_TbEu5WO12
_symmetry_space_group_name_H-M   'P 1'
_cell_length_a   6.63552037
_cell_length_b   6.59941954
_cell_length_c   6.59067521
_cell_angle_alpha   98.08411729
_cell_angle_beta   98.45805504
_cell_angle_gamma   98.63922372
_symmetry_Int_Tables_number   1
_chemical_formula_structural   TbEu5WO12
_chemical_formula_sum   'Tb1 Eu5 W1 O12'
_cell_volume   278.29684062
_cell_formula_units_Z   1
loop_
 _symmetry_equiv_pos_site_id
 _symmetry_equiv_pos_as_xyz
  1  'x, y, z'
loop_
 _atom_site_type_symbol
 _atom_site_label
 _atom_site_symmetry_multiplicity
 _atom_site_fract_x
 _atom_site_fract_y
 _atom_site_fract_z
 _atom_site_occupancy
  Tb  Tb0  1  0.139578  0.303446  0.612062  1
  Eu  Eu1  1  0.392191  0.860316  0.696451  1
  Eu  Eu2  1  0.693964  0.393372  0.857789  1
  Eu  Eu3  1  0.304091  0.604621  0.141673  1
  Eu  Eu4  1  0.605869  0.139998  0.305498  1
  Eu  Eu5  1  0.860563  0.693827  0.395868  1
  W  W6  1  0.000841  0.001512  0.001154  1
  O  O7  1  0.071199  0.293917  0.957978  1
  O  O8  1  0.032958  0.935620  0.706101  1
  O  O9  1  0.399963  0.560899  0.821017  1
  O  O10  1  0.175078  0.586378  0.436410  1
  O  O11  1  0.710224  0.032358  0.932391  1
  O  O12  1  0.430060  0.175021  0.591589  1
  O  O13  1  0.567118  0.822023  0.407592  1
  O  O14  1  0.292233  0.968066  0.068032  1
  O  O15  1  0.823688  0.403144  0.566042  1
  O  O16  1  0.592849  0.434354  0.175823  1
  O  O17  1  0.978278  0.080363  0.293773  1
  O  O18  1  0.929255  0.710765  0.032759  1
