# generated using pymatgen
data_HoEr4In4IrPt
_symmetry_space_group_name_H-M   'P 1'
_cell_length_a   3.60572500
_cell_length_b   8.10197864
_cell_length_c   18.19075508
_cell_angle_alpha   89.94844684
_cell_angle_beta   90.00000000
_cell_angle_gamma   90.00000000
_symmetry_Int_Tables_number   1
_chemical_formula_structural   HoEr4In4IrPt
_chemical_formula_sum   'Ho2 Er8 In8 Ir2 Pt2'
_cell_volume   531.41553419
_cell_formula_units_Z   2
loop_
 _symmetry_equiv_pos_site_id
 _symmetry_equiv_pos_as_xyz
  1  'x, y, z'
loop_
 _atom_site_type_symbol
 _atom_site_label
 _atom_site_symmetry_multiplicity
 _atom_site_fract_x
 _atom_site_fract_y
 _atom_site_fract_z
 _atom_site_occupancy
  Ho  Ho0  1  0.000000  0.000000  0.000000  1
  Ho  Ho1  1  0.000000  0.500000  0.500000  1
  Er  Er2  1  0.000000  0.115155  0.412019  1
  Er  Er3  1  0.000000  0.884845  0.587981  1
  Er  Er4  1  0.000000  0.383314  0.913677  1
  Er  Er5  1  0.000000  0.616686  0.086323  1
  Er  Er6  1  0.000000  0.235837  0.222080  1
  Er  Er7  1  0.000000  0.764163  0.777920  1
  Er  Er8  1  0.000000  0.248707  0.720302  1
  Er  Er9  1  0.000000  0.751293  0.279698  1
  In  In10  1  0.500000  0.423554  0.351120  1
  In  In11  1  0.500000  0.576446  0.648880  1
  In  In12  1  0.500000  0.074587  0.850735  1
  In  In13  1  0.500000  0.925413  0.149265  1
  In  In14  1  0.500000  0.292718  0.066609  1
  In  In15  1  0.500000  0.707282  0.933391  1
  In  In16  1  0.500000  0.206333  0.567432  1
  In  In17  1  0.500000  0.793667  0.432568  1
  Ir  Ir18  1  0.500000  0.021563  0.303830  1
  Ir  Ir19  1  0.500000  0.978437  0.696170  1
  Pt  Pt20  1  0.500000  0.477455  0.803437  1
  Pt  Pt21  1  0.500000  0.522545  0.196563  1
