# generated using pymatgen
data_NaDy7(Si4W3)4
_symmetry_space_group_name_H-M   'P 1'
_cell_length_a   6.75104989
_cell_length_b   6.92606722
_cell_length_c   12.93813443
_cell_angle_alpha   89.98405766
_cell_angle_beta   89.89551770
_cell_angle_gamma   89.82873791
_symmetry_Int_Tables_number   1
_chemical_formula_structural   NaDy7(Si4W3)4
_chemical_formula_sum   'Na1 Dy7 Si16 W12'
_cell_volume   604.96047455
_cell_formula_units_Z   1
loop_
 _symmetry_equiv_pos_site_id
 _symmetry_equiv_pos_as_xyz
  1  'x, y, z'
loop_
 _atom_site_type_symbol
 _atom_site_label
 _atom_site_symmetry_multiplicity
 _atom_site_fract_x
 _atom_site_fract_y
 _atom_site_fract_z
 _atom_site_occupancy
  Na  Na0  1  0.991445  0.834305  0.588143  1
  Dy  Dy1  1  0.497774  0.668986  0.593851  1
  Dy  Dy2  1  0.997505  0.830320  0.906668  1
  Dy  Dy3  1  0.504935  0.331428  0.093401  1
  Dy  Dy4  1  0.003201  0.164872  0.410578  1
  Dy  Dy5  1  0.502840  0.332103  0.408412  1
  Dy  Dy6  1  0.005139  0.167943  0.093756  1
  Dy  Dy7  1  0.496690  0.669981  0.904585  1
  Si  Si8  1  0.659796  0.956558  0.454885  1
  Si  Si9  1  0.163580  0.544430  0.045299  1
  Si  Si10  1  0.337086  0.043943  0.954397  1
  Si  Si11  1  0.841590  0.462183  0.547605  1
  Si  Si12  1  0.333543  0.038543  0.547274  1
  Si  Si13  1  0.837165  0.455263  0.955154  1
  Si  Si14  1  0.664054  0.956345  0.045370  1
  Si  Si15  1  0.159363  0.545963  0.454417  1
  Si  Si16  1  0.465058  0.373764  0.750738  1
  Si  Si17  1  0.966588  0.123859  0.747785  1
  Si  Si18  1  0.534481  0.627927  0.250199  1
  Si  Si19  1  0.035009  0.869727  0.251380  1
  Si  Si20  1  0.704772  0.867307  0.746145  1
  Si  Si21  1  0.191632  0.639808  0.745272  1
  Si  Si22  1  0.302113  0.133573  0.250884  1
  Si  Si23  1  0.803963  0.364156  0.251577  1
  W  W24  1  0.663612  0.167442  0.625070  1
  W  W25  1  0.168635  0.338774  0.874639  1
  W  W26  1  0.333343  0.837552  0.125828  1
  W  W27  1  0.828217  0.660852  0.374182  1
  W  W28  1  0.333825  0.837051  0.374204  1
  W  W29  1  0.830980  0.660841  0.125671  1
  W  W30  1  0.667950  0.162867  0.873398  1
  W  W31  1  0.169347  0.334962  0.627045  1
  W  W32  1  0.837465  0.492301  0.751764  1
  W  W33  1  0.337519  0.004313  0.751266  1
  W  W34  1  0.164711  0.502405  0.249762  1
  W  W35  1  0.665072  0.997353  0.249397  1
