# generated using pymatgen
data_Lu4Ga3Co4Si
_symmetry_space_group_name_H-M   'P 1'
_cell_length_a   4.27067600
_cell_length_b   6.82707697
_cell_length_c   6.87451236
_cell_angle_alpha   89.81788646
_cell_angle_beta   90.00000000
_cell_angle_gamma   90.00000000
_symmetry_Int_Tables_number   1
_chemical_formula_structural   Lu4Ga3Co4Si
_chemical_formula_sum   'Lu4 Ga3 Co4 Si1'
_cell_volume   200.43387701
_cell_formula_units_Z   1
loop_
 _symmetry_equiv_pos_site_id
 _symmetry_equiv_pos_as_xyz
  1  'x, y, z'
loop_
 _atom_site_type_symbol
 _atom_site_label
 _atom_site_symmetry_multiplicity
 _atom_site_fract_x
 _atom_site_fract_y
 _atom_site_fract_z
 _atom_site_occupancy
  Lu  Lu0  1  0.750000  0.513937  0.805695  1
  Lu  Lu1  1  0.750000  0.020523  0.695287  1
  Lu  Lu2  1  0.250000  0.483449  0.196863  1
  Lu  Lu3  1  0.250000  0.987243  0.304431  1
  Ga  Ga4  1  0.750000  0.200752  0.105805  1
  Ga  Ga5  1  0.750000  0.700070  0.395208  1
  Ga  Ga6  1  0.250000  0.802191  0.893155  1
  Co  Co7  1  0.750000  0.340926  0.446699  1
  Co  Co8  1  0.750000  0.843880  0.063264  1
  Co  Co9  1  0.250000  0.640683  0.563193  1
  Co  Co10  1  0.250000  0.164315  0.924876  1
  Si  Si11  1  0.250000  0.302032  0.605525  1
