# generated using pymatgen
data_Rb2Cr3(ClF3)2
_symmetry_space_group_name_H-M   'P 1'
_cell_length_a   11.69051000
_cell_length_b   6.78790870
_cell_length_c   7.66350388
_cell_angle_alpha   58.12351598
_cell_angle_beta   90.00000000
_cell_angle_gamma   90.00000000
_symmetry_Int_Tables_number   1
_chemical_formula_structural   Rb2Cr3(ClF3)2
_chemical_formula_sum   'Rb4 Cr6 Cl4 F12'
_cell_volume   516.41748426
_cell_formula_units_Z   2
loop_
 _symmetry_equiv_pos_site_id
 _symmetry_equiv_pos_as_xyz
  1  'x, y, z'
loop_
 _atom_site_type_symbol
 _atom_site_label
 _atom_site_symmetry_multiplicity
 _atom_site_fract_x
 _atom_site_fract_y
 _atom_site_fract_z
 _atom_site_occupancy
  Rb  Rb0  1  0.049984  0.307164  0.359349  1
  Rb  Rb1  1  0.950016  0.692836  0.640651  1
  Rb  Rb2  1  0.450016  0.307164  0.859349  1
  Rb  Rb3  1  0.549984  0.692836  0.140651  1
  Cr  Cr4  1  0.247212  0.844155  0.776381  1
  Cr  Cr5  1  0.747212  0.155845  0.723619  1
  Cr  Cr6  1  0.000000  0.000000  0.000000  1
  Cr  Cr7  1  0.252788  0.844155  0.276381  1
  Cr  Cr8  1  0.752788  0.155845  0.223619  1
  Cr  Cr9  1  0.500000  0.000000  0.500000  1
  Cl  Cl10  1  0.330370  0.323758  0.470328  1
  Cl  Cl11  1  0.169630  0.323758  0.970328  1
  Cl  Cl12  1  0.830370  0.676242  0.029672  1
  Cl  Cl13  1  0.669630  0.676242  0.529672  1
  F  F14  1  0.692377  0.147019  0.979810  1
  F  F15  1  0.092567  0.757022  0.242893  1
  F  F16  1  0.087301  0.938156  0.801757  1
  F  F17  1  0.907433  0.242978  0.757107  1
  F  F18  1  0.912699  0.061844  0.198243  1
  F  F19  1  0.587301  0.061844  0.698243  1
  F  F20  1  0.592567  0.242978  0.257107  1
  F  F21  1  0.407433  0.757022  0.742893  1
  F  F22  1  0.807623  0.147019  0.479810  1
  F  F23  1  0.412699  0.938156  0.301757  1
  F  F24  1  0.192377  0.852981  0.520190  1
  F  F25  1  0.307623  0.852981  0.020190  1
