# generated using pymatgen
data_Tb2SmTaO7
_symmetry_space_group_name_H-M   'P 1'
_cell_length_a   6.50597230
_cell_length_b   6.50597255
_cell_length_c   7.59099900
_cell_angle_alpha   90.00000000
_cell_angle_beta   90.00000000
_cell_angle_gamma   109.47913323
_symmetry_Int_Tables_number   1
_chemical_formula_structural   Tb2SmTaO7
_chemical_formula_sum   'Tb4 Sm2 Ta2 O14'
_cell_volume   302.91857133
_cell_formula_units_Z   2
loop_
 _symmetry_equiv_pos_site_id
 _symmetry_equiv_pos_as_xyz
  1  'x, y, z'
loop_
 _atom_site_type_symbol
 _atom_site_label
 _atom_site_symmetry_multiplicity
 _atom_site_fract_x
 _atom_site_fract_y
 _atom_site_fract_z
 _atom_site_occupancy
  Tb  Tb0  1  0.534171  0.000512  0.750000  1
  Tb  Tb1  1  0.000512  0.534171  0.250000  1
  Tb  Tb2  1  0.465829  0.999488  0.250000  1
  Tb  Tb3  1  0.999488  0.465829  0.750000  1
  Sm  Sm4  1  0.500000  0.500000  0.500000  1
  Sm  Sm5  1  0.500000  0.500000  0.000000  1
  Ta  Ta6  1  0.000000  0.000000  0.500000  1
  Ta  Ta7  1  0.000000  0.000000  0.000000  1
  O  O8  1  0.679705  0.929687  0.468563  1
  O  O9  1  0.929687  0.679705  0.531437  1
  O  O10  1  0.679705  0.929687  0.031437  1
  O  O11  1  0.929687  0.679705  0.968563  1
  O  O12  1  0.320295  0.070313  0.531437  1
  O  O13  1  0.070313  0.320295  0.468563  1
  O  O14  1  0.320295  0.070313  0.968563  1
  O  O15  1  0.070313  0.320295  0.031437  1
  O  O16  1  0.936516  0.063484  0.750000  1
  O  O17  1  0.063484  0.936516  0.250000  1
  O  O18  1  0.367328  0.632671  0.750000  1
  O  O19  1  0.632671  0.367328  0.250000  1
  O  O20  1  0.638793  0.361207  0.750000  1
  O  O21  1  0.361207  0.638793  0.250000  1
