# generated using pymatgen
data_Zr2H6OsRh
_symmetry_space_group_name_H-M   'P 1'
_cell_length_a   5.63003157
_cell_length_b   5.63003144
_cell_length_c   4.47845300
_cell_angle_alpha   90.00000000
_cell_angle_beta   90.00000000
_cell_angle_gamma   140.67702614
_symmetry_Int_Tables_number   1
_chemical_formula_structural   Zr2H6OsRh
_chemical_formula_sum   'Zr2 H6 Os1 Rh1'
_cell_volume   89.95540948
_cell_formula_units_Z   1
loop_
 _symmetry_equiv_pos_site_id
 _symmetry_equiv_pos_as_xyz
  1  'x, y, z'
loop_
 _atom_site_type_symbol
 _atom_site_label
 _atom_site_symmetry_multiplicity
 _atom_site_fract_x
 _atom_site_fract_y
 _atom_site_fract_z
 _atom_site_occupancy
  Zr  Zr0  1  0.128999  0.871004  0.250000  1
  Zr  Zr1  1  0.870899  0.129104  0.750001  1
  H  H2  1  0.694300  0.305702  0.024517  1
  H  H3  1  0.913512  0.086491  0.250000  1
  H  H4  1  0.694300  0.305702  0.475485  1
  H  H5  1  0.307020  0.692982  0.527147  1
  H  H6  1  0.084955  0.915048  0.750001  1
  H  H7  1  0.307020  0.692982  0.972853  1
  Os  Os8  1  0.581326  0.418677  0.750001  1
  Rh  Rh9  1  0.417684  0.582319  0.250000  1
