# generated using pymatgen
data_La3Pr12Th(CdIr)4
_symmetry_space_group_name_H-M   'P 1'
_cell_length_a   10.07300657
_cell_length_b   10.07300499
_cell_length_c   10.07300579
_cell_angle_alpha   60.06052317
_cell_angle_beta   60.06052963
_cell_angle_gamma   60.06052581
_symmetry_Int_Tables_number   1
_chemical_formula_structural   La3Pr12Th(CdIr)4
_chemical_formula_sum   'La3 Pr12 Th1 Cd4 Ir4'
_cell_volume   723.69836199
_cell_formula_units_Z   1
loop_
 _symmetry_equiv_pos_site_id
 _symmetry_equiv_pos_as_xyz
  1  'x, y, z'
loop_
 _atom_site_type_symbol
 _atom_site_label
 _atom_site_symmetry_multiplicity
 _atom_site_fract_x
 _atom_site_fract_y
 _atom_site_fract_z
 _atom_site_occupancy
  La  La0  1  0.347752  0.347752  0.956865  1
  La  La1  1  0.347752  0.956865  0.347752  1
  La  La2  1  0.956865  0.347752  0.347752  1
  Pr  Pr3  1  0.810168  0.189844  0.189844  1
  Pr  Pr4  1  0.189728  0.809731  0.809731  1
  Pr  Pr5  1  0.189844  0.810168  0.189844  1
  Pr  Pr6  1  0.809731  0.189728  0.809731  1
  Pr  Pr7  1  0.189844  0.189844  0.810168  1
  Pr  Pr8  1  0.809731  0.809731  0.189728  1
  Pr  Pr9  1  0.939910  0.562050  0.562050  1
  Pr  Pr10  1  0.561136  0.938169  0.938169  1
  Pr  Pr11  1  0.562050  0.939910  0.562050  1
  Pr  Pr12  1  0.938169  0.561136  0.938169  1
  Pr  Pr13  1  0.562050  0.562050  0.939910  1
  Pr  Pr14  1  0.938169  0.938169  0.561136  1
  Th  Th15  1  0.344688  0.344688  0.344688  1
  Cd  Cd16  1  0.579465  0.579465  0.579465  1
  Cd  Cd17  1  0.578593  0.578593  0.260025  1
  Cd  Cd18  1  0.578593  0.260025  0.578593  1
  Cd  Cd19  1  0.260025  0.578593  0.578593  1
  Ir  Ir20  1  0.142462  0.142462  0.142462  1
  Ir  Ir21  1  0.146877  0.146877  0.569518  1
  Ir  Ir22  1  0.146877  0.569518  0.146877  1
  Ir  Ir23  1  0.569518  0.146877  0.146877  1
