# generated using pymatgen
data_Lu20(HgBi3)3
_symmetry_space_group_name_H-M   'P 1'
_cell_length_a   8.06502722
_cell_length_b   9.35077300
_cell_length_c   11.77788651
_cell_angle_alpha   90.00000000
_cell_angle_beta   89.84677365
_cell_angle_gamma   90.00000000
_symmetry_Int_Tables_number   1
_chemical_formula_structural   Lu20(HgBi3)3
_chemical_formula_sum   'Lu20 Hg3 Bi9'
_cell_volume   888.21716963
_cell_formula_units_Z   1
loop_
 _symmetry_equiv_pos_site_id
 _symmetry_equiv_pos_as_xyz
  1  'x, y, z'
loop_
 _atom_site_type_symbol
 _atom_site_label
 _atom_site_symmetry_multiplicity
 _atom_site_fract_x
 _atom_site_fract_y
 _atom_site_fract_z
 _atom_site_occupancy
  Lu  Lu0  1  0.032737  0.250000  0.507747  1
  Lu  Lu1  1  0.965112  0.750000  0.492197  1
  Lu  Lu2  1  0.464114  0.750000  0.007398  1
  Lu  Lu3  1  0.521467  0.250000  0.991394  1
  Lu  Lu4  1  0.348358  0.250000  0.290343  1
  Lu  Lu5  1  0.653674  0.750000  0.706891  1
  Lu  Lu6  1  0.145199  0.750000  0.791643  1
  Lu  Lu7  1  0.849334  0.250000  0.216631  1
  Lu  Lu8  1  0.196316  0.250000  0.778403  1
  Lu  Lu9  1  0.814937  0.750000  0.214349  1
  Lu  Lu10  1  0.316716  0.750000  0.285395  1
  Lu  Lu11  1  0.681692  0.250000  0.711507  1
  Lu  Lu12  1  0.193180  0.055494  0.060813  1
  Lu  Lu13  1  0.810033  0.929193  0.943067  1
  Lu  Lu14  1  0.312268  0.938388  0.557001  1
  Lu  Lu15  1  0.810033  0.570807  0.943067  1
  Lu  Lu16  1  0.686723  0.062187  0.444921  1
  Lu  Lu17  1  0.193180  0.444506  0.060813  1
  Lu  Lu18  1  0.686723  0.437813  0.444921  1
  Lu  Lu19  1  0.312268  0.561612  0.557001  1
  Hg  Hg20  1  0.405827  0.250000  0.539384  1
  Hg  Hg21  1  0.591908  0.750000  0.458915  1
  Hg  Hg22  1  0.093100  0.750000  0.041565  1
  Bi  Bi23  1  0.906754  0.250000  0.955064  1
  Bi  Bi24  1  0.058499  0.000477  0.322664  1
  Bi  Bi25  1  0.941598  0.000072  0.677607  1
  Bi  Bi26  1  0.443276  0.998528  0.822641  1
  Bi  Bi27  1  0.941598  0.499928  0.677607  1
  Bi  Bi28  1  0.560800  0.001870  0.176873  1
  Bi  Bi29  1  0.058499  0.499523  0.322664  1
  Bi  Bi30  1  0.560800  0.498130  0.176873  1
  Bi  Bi31  1  0.443276  0.501472  0.822641  1
