# generated using pymatgen
data_Tb3Nd5Pt4
_symmetry_space_group_name_H-M   'P 1'
_cell_length_a   4.86266900
_cell_length_b   7.32522778
_cell_length_c   8.99031496
_cell_angle_alpha   89.78087203
_cell_angle_beta   90.00000000
_cell_angle_gamma   90.00000000
_symmetry_Int_Tables_number   1
_chemical_formula_structural   Tb3Nd5Pt4
_chemical_formula_sum   'Tb3 Nd5 Pt4'
_cell_volume   320.23409764
_cell_formula_units_Z   1
loop_
 _symmetry_equiv_pos_site_id
 _symmetry_equiv_pos_as_xyz
  1  'x, y, z'
loop_
 _atom_site_type_symbol
 _atom_site_label
 _atom_site_symmetry_multiplicity
 _atom_site_fract_x
 _atom_site_fract_y
 _atom_site_fract_z
 _atom_site_occupancy
  Tb  Tb0  1  0.250000  0.857852  0.920723  1
  Tb  Tb1  1  0.250000  0.354321  0.582724  1
  Tb  Tb2  1  0.750000  0.144024  0.080234  1
  Nd  Nd3  1  0.750000  0.646502  0.415010  1
  Nd  Nd4  1  0.250000  0.489120  0.168403  1
  Nd  Nd5  1  0.250000  0.995657  0.331017  1
  Nd  Nd6  1  0.750000  0.509268  0.827330  1
  Nd  Nd7  1  0.750000  0.007624  0.673800  1
  Pt  Pt8  1  0.250000  0.250753  0.909114  1
  Pt  Pt9  1  0.250000  0.750834  0.597782  1
  Pt  Pt10  1  0.750000  0.750224  0.082928  1
  Pt  Pt11  1  0.750000  0.243824  0.410935  1
