# generated using pymatgen
data_Ta4Mn4Si3P
_symmetry_space_group_name_H-M   'P 1'
_cell_length_a   3.55624300
_cell_length_b   6.30692304
_cell_length_c   7.38765012
_cell_angle_alpha   90.02541754
_cell_angle_beta   90.00000000
_cell_angle_gamma   90.00000000
_symmetry_Int_Tables_number   1
_chemical_formula_structural   Ta4Mn4Si3P
_chemical_formula_sum   'Ta4 Mn4 Si3 P1'
_cell_volume   165.69722560
_cell_formula_units_Z   1
loop_
 _symmetry_equiv_pos_site_id
 _symmetry_equiv_pos_as_xyz
  1  'x, y, z'
loop_
 _atom_site_type_symbol
 _atom_site_label
 _atom_site_symmetry_multiplicity
 _atom_site_fract_x
 _atom_site_fract_y
 _atom_site_fract_z
 _atom_site_occupancy
  Ta  Ta0  1  0.750000  0.968286  0.828803  1
  Ta  Ta1  1  0.250000  0.533051  0.325511  1
  Ta  Ta2  1  0.250000  0.027538  0.171891  1
  Ta  Ta3  1  0.750000  0.467044  0.671422  1
  Mn  Mn4  1  0.750000  0.366445  0.062064  1
  Mn  Mn5  1  0.250000  0.641800  0.943028  1
  Mn  Mn6  1  0.750000  0.858804  0.434885  1
  Mn  Mn7  1  0.250000  0.137462  0.561240  1
  Si  Si8  1  0.250000  0.766161  0.630972  1
  Si  Si9  1  0.750000  0.232369  0.369232  1
  Si  Si10  1  0.250000  0.268346  0.871135  1
  P  P11  1  0.750000  0.732693  0.129817  1
