# generated using pymatgen
data_SrTh5(SnIr)6
_symmetry_space_group_name_H-M   'P 1'
_cell_length_a   7.57753722
_cell_length_b   7.60638429
_cell_length_c   8.28932600
_cell_angle_alpha   90.00000000
_cell_angle_beta   90.00000000
_cell_angle_gamma   119.85539124
_symmetry_Int_Tables_number   1
_chemical_formula_structural   SrTh5(SnIr)6
_chemical_formula_sum   'Sr1 Th5 Sn6 Ir6'
_cell_volume   414.36893825
_cell_formula_units_Z   1
loop_
 _symmetry_equiv_pos_site_id
 _symmetry_equiv_pos_as_xyz
  1  'x, y, z'
loop_
 _atom_site_type_symbol
 _atom_site_label
 _atom_site_symmetry_multiplicity
 _atom_site_fract_x
 _atom_site_fract_y
 _atom_site_fract_z
 _atom_site_occupancy
  Sr  Sr0  1  0.412330  0.000292  0.750000  1
  Th  Th1  1  0.410070  0.999904  0.250000  1
  Th  Th2  1  0.585189  0.588933  0.750000  1
  Th  Th3  1  0.590537  0.583818  0.250000  1
  Th  Th4  1  0.006363  0.415950  0.250000  1
  Th  Th5  1  0.995874  0.410817  0.750000  1
  Sn  Sn6  1  0.249716  0.245019  0.503594  1
  Sn  Sn7  1  0.249716  0.245019  0.996406  1
  Sn  Sn8  1  0.743572  0.000086  0.005022  1
  Sn  Sn9  1  0.004986  0.755197  0.503490  1
  Sn  Sn10  1  0.743572  0.000086  0.494978  1
  Sn  Sn11  1  0.004986  0.755197  0.996510  1
  Ir  Ir12  1  0.679988  0.347620  0.491795  1
  Ir  Ir13  1  0.679988  0.347620  0.008205  1
  Ir  Ir14  1  0.332344  0.652243  0.008215  1
  Ir  Ir15  1  0.332344  0.652243  0.491785  1
  Ir  Ir16  1  0.976715  0.999995  0.750000  1
  Ir  Ir17  1  0.001711  0.999963  0.250000  1
