# generated using pymatgen
data_Yb4DyU7S20
_symmetry_space_group_name_H-M   'P 1'
_cell_length_a   7.35680208
_cell_length_b   7.97798578
_cell_length_c   11.59998200
_cell_angle_alpha   89.88479053
_cell_angle_beta   89.83344268
_cell_angle_gamma   89.89366307
_symmetry_Int_Tables_number   1
_chemical_formula_structural   Yb4DyU7S20
_chemical_formula_sum   'Yb4 Dy1 U7 S20'
_cell_volume   680.82608949
_cell_formula_units_Z   1
loop_
 _symmetry_equiv_pos_site_id
 _symmetry_equiv_pos_as_xyz
  1  'x, y, z'
loop_
 _atom_site_type_symbol
 _atom_site_label
 _atom_site_symmetry_multiplicity
 _atom_site_fract_x
 _atom_site_fract_y
 _atom_site_fract_z
 _atom_site_occupancy
  Yb  Yb0  1  0.020913  0.001911  0.321095  1
  Yb  Yb1  1  0.524145  0.000997  0.177958  1
  Yb  Yb2  1  0.978763  0.001456  0.676136  1
  Yb  Yb3  1  0.476750  0.000343  0.824560  1
  Dy  Dy4  1  0.020280  0.499321  0.320326  1
  U  U5  1  0.519265  0.501954  0.178738  1
  U  U6  1  0.979546  0.501658  0.679020  1
  U  U7  1  0.478965  0.498269  0.821508  1
  U  U8  1  0.074745  0.749608  0.009475  1
  U  U9  1  0.576029  0.248195  0.491950  1
  U  U10  1  0.924834  0.249677  0.990469  1
  U  U11  1  0.422815  0.749757  0.509149  1
  S  S12  1  0.165725  0.452303  0.094806  1
  S  S13  1  0.660298  0.543554  0.401512  1
  S  S14  1  0.835181  0.546973  0.902450  1
  S  S15  1  0.336158  0.451091  0.599581  1
  S  S16  1  0.458823  0.734520  0.000368  1
  S  S17  1  0.957420  0.265566  0.501532  1
  S  S18  1  0.541790  0.266790  0.999343  1
  S  S19  1  0.043013  0.736743  0.503036  1
  S  S20  1  0.333446  0.263464  0.313253  1
  S  S21  1  0.827613  0.736265  0.184167  1
  S  S22  1  0.667376  0.729833  0.687177  1
  S  S23  1  0.169464  0.266464  0.812424  1
  S  S24  1  0.664233  0.955892  0.407824  1
  S  S25  1  0.165349  0.044075  0.090635  1
  S  S26  1  0.338921  0.042731  0.595872  1
  S  S27  1  0.837474  0.958092  0.904592  1
  S  S28  1  0.301772  0.743269  0.281904  1
  S  S29  1  0.801863  0.257986  0.216014  1
  S  S30  1  0.698432  0.259343  0.719145  1
  S  S31  1  0.198601  0.741896  0.783981  1
