# generated using pymatgen
data_DyPu(MnB4)2
_symmetry_space_group_name_H-M   'P 1'
_cell_length_a   5.88244600
_cell_length_b   11.38327200
_cell_length_c   3.38732500
_cell_angle_alpha   90.00000000
_cell_angle_beta   90.00000000
_cell_angle_gamma   90.00000000
_symmetry_Int_Tables_number   1
_chemical_formula_structural   DyPu(MnB4)2
_chemical_formula_sum   'Dy2 Pu2 Mn4 B16'
_cell_volume   226.82030487
_cell_formula_units_Z   2
loop_
 _symmetry_equiv_pos_site_id
 _symmetry_equiv_pos_as_xyz
  1  'x, y, z'
loop_
 _atom_site_type_symbol
 _atom_site_label
 _atom_site_symmetry_multiplicity
 _atom_site_fract_x
 _atom_site_fract_y
 _atom_site_fract_z
 _atom_site_occupancy
  Dy  Dy0  1  0.373945  0.650523  0.000000  1
  Dy  Dy1  1  0.873946  0.849478  0.000000  1
  Pu  Pu2  1  0.126627  0.150779  0.000000  1
  Pu  Pu3  1  0.626627  0.349221  0.000000  1
  Mn  Mn4  1  0.631436  0.089774  0.000000  1
  Mn  Mn5  1  0.131436  0.410226  0.000000  1
  Mn  Mn6  1  0.868537  0.581231  0.000000  1
  Mn  Mn7  1  0.368536  0.918769  0.000000  1
  B  B8  1  0.863071  0.034753  0.500001  1
  B  B9  1  0.385551  0.048532  0.500001  1
  B  B10  1  0.783446  0.186780  0.500001  1
  B  B11  1  0.475345  0.193027  0.500001  1
  B  B12  1  0.975345  0.306973  0.500001  1
  B  B13  1  0.283446  0.313220  0.500001  1
  B  B14  1  0.885551  0.451468  0.500001  1
  B  B15  1  0.363071  0.465247  0.500001  1
  B  B16  1  0.637282  0.530898  0.500001  1
  B  B17  1  0.111283  0.544818  0.500001  1
  B  B18  1  0.718903  0.683463  0.500001  1
  B  B19  1  0.024573  0.689445  0.500001  1
  B  B20  1  0.524573  0.810555  0.500001  1
  B  B21  1  0.218903  0.816537  0.500001  1
  B  B22  1  0.611283  0.955182  0.500001  1
  B  B23  1  0.137284  0.969102  0.500001  1
