# generated using pymatgen
data_Tm3Mn(Co4P3)2
_symmetry_space_group_name_H-M   'P 1'
_cell_length_a   3.66588900
_cell_length_b   10.49101700
_cell_length_c   12.13150400
_cell_angle_alpha   90.00000000
_cell_angle_beta   90.00000000
_cell_angle_gamma   90.00000000
_symmetry_Int_Tables_number   1
_chemical_formula_structural   Tm3Mn(Co4P3)2
_chemical_formula_sum   'Tm6 Mn2 Co16 P12'
_cell_volume   466.56434552
_cell_formula_units_Z   2
loop_
 _symmetry_equiv_pos_site_id
 _symmetry_equiv_pos_as_xyz
  1  'x, y, z'
loop_
 _atom_site_type_symbol
 _atom_site_label
 _atom_site_symmetry_multiplicity
 _atom_site_fract_x
 _atom_site_fract_y
 _atom_site_fract_z
 _atom_site_occupancy
  Tm  Tm0  1  0.000000  0.500000  0.523008  1
  Tm  Tm1  1  0.500000  0.000000  0.476992  1
  Tm  Tm2  1  0.500000  0.818410  0.205298  1
  Tm  Tm3  1  0.500000  0.181590  0.205298  1
  Tm  Tm4  1  0.000000  0.681590  0.794702  1
  Tm  Tm5  1  0.000000  0.318410  0.794702  1
  Mn  Mn6  1  0.500000  0.500000  0.159275  1
  Mn  Mn7  1  0.000000  0.000000  0.840725  1
  Co  Co8  1  0.500000  0.500000  0.702564  1
  Co  Co9  1  0.000000  0.000000  0.297436  1
  Co  Co10  1  0.000000  0.500000  0.986136  1
  Co  Co11  1  0.500000  0.000000  0.013864  1
  Co  Co12  1  0.500000  0.332880  0.993387  1
  Co  Co13  1  0.500000  0.667120  0.993387  1
  Co  Co14  1  0.000000  0.167120  0.006613  1
  Co  Co15  1  0.000000  0.832880  0.006613  1
  Co  Co16  1  0.500000  0.296830  0.430712  1
  Co  Co17  1  0.500000  0.703170  0.430712  1
  Co  Co18  1  0.000000  0.203170  0.569288  1
  Co  Co19  1  0.000000  0.796830  0.569288  1
  Co  Co20  1  0.500000  0.878720  0.708774  1
  Co  Co21  1  0.500000  0.121280  0.708774  1
  Co  Co22  1  0.000000  0.621280  0.291226  1
  Co  Co23  1  0.000000  0.378720  0.291226  1
  P  P24  1  0.500000  0.500000  0.881808  1
  P  P25  1  0.000000  0.000000  0.118192  1
  P  P26  1  0.500000  0.500000  0.346210  1
  P  P27  1  0.000000  0.000000  0.653790  1
  P  P28  1  0.500000  0.312286  0.616575  1
  P  P29  1  0.500000  0.687714  0.616575  1
  P  P30  1  0.000000  0.187714  0.383425  1
  P  P31  1  0.000000  0.812286  0.383425  1
  P  P32  1  0.500000  0.847089  0.891916  1
  P  P33  1  0.500000  0.152911  0.891916  1
  P  P34  1  0.000000  0.652911  0.108084  1
  P  P35  1  0.000000  0.347089  0.108084  1
