# generated using pymatgen
data_HfZr17Ta2(ReO)6
_symmetry_space_group_name_H-M   'P 1'
_cell_length_a   8.63548782
_cell_length_b   8.63548790
_cell_length_c   8.59110100
_cell_angle_alpha   90.00000000
_cell_angle_beta   90.00000000
_cell_angle_gamma   120.07444808
_symmetry_Int_Tables_number   1
_chemical_formula_structural   HfZr17Ta2(ReO)6
_chemical_formula_sum   'Hf1 Zr17 Ta2 Re6 O6'
_cell_volume   554.40472262
_cell_formula_units_Z   1
loop_
 _symmetry_equiv_pos_site_id
 _symmetry_equiv_pos_as_xyz
  1  'x, y, z'
loop_
 _atom_site_type_symbol
 _atom_site_label
 _atom_site_symmetry_multiplicity
 _atom_site_fract_x
 _atom_site_fract_y
 _atom_site_fract_z
 _atom_site_occupancy
  Hf  Hf0  1  0.545522  0.454478  0.750000  1
  Zr  Zr1  1  0.453656  0.907295  0.250000  1
  Zr  Zr2  1  0.546257  0.093264  0.750000  1
  Zr  Zr3  1  0.092705  0.546344  0.250000  1
  Zr  Zr4  1  0.906736  0.453743  0.750000  1
  Zr  Zr5  1  0.453825  0.546175  0.250000  1
  Zr  Zr6  1  0.203452  0.406793  0.563147  1
  Zr  Zr7  1  0.796519  0.593132  0.437659  1
  Zr  Zr8  1  0.593207  0.796548  0.563147  1
  Zr  Zr9  1  0.796519  0.593132  0.062341  1
  Zr  Zr10  1  0.406868  0.203481  0.437659  1
  Zr  Zr11  1  0.203452  0.406793  0.936853  1
  Zr  Zr12  1  0.203439  0.796561  0.562706  1
  Zr  Zr13  1  0.406868  0.203481  0.062341  1
  Zr  Zr14  1  0.796613  0.203387  0.437276  1
  Zr  Zr15  1  0.593207  0.796548  0.936853  1
  Zr  Zr16  1  0.796613  0.203387  0.062724  1
  Zr  Zr17  1  0.203439  0.796561  0.937294  1
  Ta  Ta18  1  0.000026  0.999974  0.999816  1
  Ta  Ta19  1  0.000026  0.999974  0.500184  1
  Re  Re20  1  0.110965  0.221312  0.250000  1
  Re  Re21  1  0.887684  0.777478  0.750000  1
  Re  Re22  1  0.778688  0.889035  0.250000  1
  Re  Re23  1  0.222522  0.112316  0.750000  1
  Re  Re24  1  0.110514  0.889486  0.250000  1
  Re  Re25  1  0.889527  0.110473  0.750000  1
  O  O26  1  0.500060  0.000006  0.000007  1
  O  O27  1  0.999994  0.499940  0.000007  1
  O  O28  1  0.500060  0.000006  0.499993  1
  O  O29  1  0.500521  0.499479  0.997054  1
  O  O30  1  0.999994  0.499940  0.499993  1
  O  O31  1  0.500521  0.499479  0.502946  1
