# generated using pymatgen
data_MoPdPt7
_symmetry_space_group_name_H-M   'P 1'
_cell_length_a   6.29492166
_cell_length_b   6.29492514
_cell_length_c   6.29492133
_cell_angle_alpha   95.93161972
_cell_angle_beta   95.24729660
_cell_angle_gamma   143.62993405
_symmetry_Int_Tables_number   1
_chemical_formula_structural   MoPdPt7
_chemical_formula_sum   'Mo1 Pd1 Pt7'
_cell_volume   140.52816908
_cell_formula_units_Z   1
loop_
 _symmetry_equiv_pos_site_id
 _symmetry_equiv_pos_as_xyz
  1  'x, y, z'
loop_
 _atom_site_type_symbol
 _atom_site_label
 _atom_site_symmetry_multiplicity
 _atom_site_fract_x
 _atom_site_fract_y
 _atom_site_fract_z
 _atom_site_occupancy
  Mo  Mo0  1  0.000000  0.001166  0.001165  1
  Pd  Pd1  1  0.000000  0.669598  0.669597  1
  Pt  Pt2  1  0.660525  0.338565  0.999088  1
  Pt  Pt3  1  0.338086  0.661409  0.999495  1
  Pt  Pt4  1  0.328632  0.999860  0.328491  1
  Pt  Pt5  1  0.999999  0.329572  0.329573  1
  Pt  Pt6  1  0.661914  0.661409  0.323323  1
  Pt  Pt7  1  0.339476  0.338564  0.678039  1
  Pt  Pt8  1  0.671369  0.999860  0.671228  1
