# generated using pymatgen
data_Li4Er4IrPt3
_symmetry_space_group_name_H-M   'P 1'
_cell_length_a   3.96450000
_cell_length_b   6.97989312
_cell_length_c   8.35806381
_cell_angle_alpha   89.81157532
_cell_angle_beta   90.00000000
_cell_angle_gamma   90.00000000
_symmetry_Int_Tables_number   1
_chemical_formula_structural   Li4Er4IrPt3
_chemical_formula_sum   'Li4 Er4 Ir1 Pt3'
_cell_volume   231.28130499
_cell_formula_units_Z   1
loop_
 _symmetry_equiv_pos_site_id
 _symmetry_equiv_pos_as_xyz
  1  'x, y, z'
loop_
 _atom_site_type_symbol
 _atom_site_label
 _atom_site_symmetry_multiplicity
 _atom_site_fract_x
 _atom_site_fract_y
 _atom_site_fract_z
 _atom_site_occupancy
  Li  Li0  1  0.250000  0.876598  0.943831  1
  Li  Li1  1  0.750000  0.122729  0.056275  1
  Li  Li2  1  0.750000  0.625674  0.446519  1
  Li  Li3  1  0.250000  0.376919  0.555631  1
  Er  Er4  1  0.250000  0.449318  0.176450  1
  Er  Er5  1  0.750000  0.554816  0.817492  1
  Er  Er6  1  0.750000  0.041722  0.676345  1
  Er  Er7  1  0.250000  0.947044  0.327814  1
  Ir  Ir8  1  0.250000  0.759995  0.629557  1
  Pt  Pt9  1  0.750000  0.244513  0.370682  1
  Pt  Pt10  1  0.750000  0.742838  0.128654  1
  Pt  Pt11  1  0.250000  0.257831  0.870753  1
