# generated using pymatgen
data_Sc8Cr3B24Rh
_symmetry_space_group_name_H-M   'P 1'
_cell_length_a   3.39349200
_cell_length_b   8.88758041
_cell_length_c   11.18523777
_cell_angle_alpha   90.06451448
_cell_angle_beta   90.00000000
_cell_angle_gamma   90.00000000
_symmetry_Int_Tables_number   1
_chemical_formula_structural   Sc8Cr3B24Rh
_chemical_formula_sum   'Sc8 Cr3 B24 Rh1'
_cell_volume   337.34580814
_cell_formula_units_Z   1
loop_
 _symmetry_equiv_pos_site_id
 _symmetry_equiv_pos_as_xyz
  1  'x, y, z'
loop_
 _atom_site_type_symbol
 _atom_site_label
 _atom_site_symmetry_multiplicity
 _atom_site_fract_x
 _atom_site_fract_y
 _atom_site_fract_z
 _atom_site_occupancy
  Sc  Sc0  1  0.000000  0.946681  0.370398  1
  Sc  Sc1  1  0.000000  0.056024  0.629732  1
  Sc  Sc2  1  0.000000  0.556132  0.870760  1
  Sc  Sc3  1  0.000000  0.177949  0.913734  1
  Sc  Sc4  1  0.000000  0.824515  0.081588  1
  Sc  Sc5  1  0.000000  0.679589  0.590428  1
  Sc  Sc6  1  0.000000  0.316073  0.416306  1
  Sc  Sc7  1  0.000000  0.441046  0.127527  1
  Cr  Cr8  1  0.000000  0.140476  0.181065  1
  Cr  Cr9  1  0.000000  0.360135  0.679464  1
  Cr  Cr10  1  0.000000  0.859631  0.819800  1
  B  B11  1  0.500000  0.369314  0.816704  1
  B  B12  1  0.500000  0.980956  0.211576  1
  B  B13  1  0.500000  0.553384  0.436309  1
  B  B14  1  0.500000  0.294679  0.236785  1
  B  B15  1  0.500000  0.205396  0.736199  1
  B  B16  1  0.500000  0.099863  0.472780  1
  B  B17  1  0.500000  0.795753  0.262377  1
  B  B18  1  0.500000  0.446177  0.565253  1
  B  B19  1  0.500000  0.247936  0.579908  1
  B  B20  1  0.500000  0.479425  0.287556  1
  B  B21  1  0.500000  0.705278  0.763874  1
  B  B22  1  0.500000  0.752782  0.422439  1
  B  B23  1  0.500000  0.519499  0.712030  1
  B  B24  1  0.500000  0.899519  0.527627  1
  B  B25  1  0.500000  0.053715  0.065197  1
  B  B26  1  0.500000  0.600104  0.027259  1
  B  B27  1  0.500000  0.748528  0.920123  1
  B  B28  1  0.500000  0.019465  0.787866  1
  B  B29  1  0.500000  0.399783  0.972427  1
  B  B30  1  0.500000  0.947006  0.934139  1
  B  B31  1  0.500000  0.631590  0.180786  1
  B  B32  1  0.500000  0.251176  0.079194  1
  B  B33  1  0.500000  0.868956  0.683354  1
  B  B34  1  0.500000  0.131213  0.317410  1
  Rh  Rh35  1  0.000000  0.640250  0.320025  1
