# generated using pymatgen
data_ErNi21GeB6
_symmetry_space_group_name_H-M   'P 1'
_cell_length_a   7.46978289
_cell_length_b   7.46978316
_cell_length_c   7.46978400
_cell_angle_alpha   60.00000514
_cell_angle_beta   60.00000394
_cell_angle_gamma   60.00000894
_symmetry_Int_Tables_number   1
_chemical_formula_structural   ErNi21GeB6
_chemical_formula_sum   'Er1 Ni21 Ge1 B6'
_cell_volume   294.71964077
_cell_formula_units_Z   1
loop_
 _symmetry_equiv_pos_site_id
 _symmetry_equiv_pos_as_xyz
  1  'x, y, z'
loop_
 _atom_site_type_symbol
 _atom_site_label
 _atom_site_symmetry_multiplicity
 _atom_site_fract_x
 _atom_site_fract_y
 _atom_site_fract_z
 _atom_site_occupancy
  Er  Er0  1  0.250000  0.250000  0.250000  1
  Ni  Ni1  1  0.336574  0.000155  0.000155  1
  Ni  Ni2  1  0.663115  0.000155  0.000155  1
  Ni  Ni3  1  0.000155  0.336574  0.663115  1
  Ni  Ni4  1  0.000155  0.663115  0.336574  1
  Ni  Ni5  1  0.000155  0.336574  0.000155  1
  Ni  Ni6  1  0.663115  0.000155  0.336574  1
  Ni  Ni7  1  0.000155  0.663115  0.000155  1
  Ni  Ni8  1  0.336574  0.000155  0.663115  1
  Ni  Ni9  1  0.000155  0.000155  0.336574  1
  Ni  Ni10  1  0.000155  0.000155  0.663115  1
  Ni  Ni11  1  0.663115  0.336574  0.000155  1
  Ni  Ni12  1  0.336574  0.663115  0.000155  1
  Ni  Ni13  1  0.392147  0.392147  0.392147  1
  Ni  Ni14  1  0.622404  0.622404  0.622404  1
  Ni  Ni15  1  0.392147  0.392147  0.823557  1
  Ni  Ni16  1  0.392147  0.823557  0.392147  1
  Ni  Ni17  1  0.622404  0.622404  0.132790  1
  Ni  Ni18  1  0.622404  0.132790  0.622404  1
  Ni  Ni19  1  0.823557  0.392147  0.392147  1
  Ni  Ni20  1  0.132790  0.622404  0.622404  1
  Ni  Ni21  1  0.000000  0.000000  0.000000  1
  Ge  Ge22  1  0.750000  0.750000  0.750000  1
  B  B23  1  0.729122  0.270878  0.270878  1
  B  B24  1  0.270878  0.729122  0.729122  1
  B  B25  1  0.270878  0.729122  0.270878  1
  B  B26  1  0.729122  0.270878  0.729122  1
  B  B27  1  0.270878  0.270878  0.729122  1
  B  B28  1  0.729122  0.729122  0.270878  1
