# generated using pymatgen
data_Nb8NiSbS16
_symmetry_space_group_name_H-M   'P 1'
_cell_length_a   6.73318700
_cell_length_b   6.73318812
_cell_length_c   12.89445500
_cell_angle_alpha   90.00000000
_cell_angle_beta   90.00000000
_cell_angle_gamma   119.99999939
_symmetry_Int_Tables_number   1
_chemical_formula_structural   Nb8NiSbS16
_chemical_formula_sum   'Nb8 Ni1 Sb1 S16'
_cell_volume   506.26167332
_cell_formula_units_Z   1
loop_
 _symmetry_equiv_pos_site_id
 _symmetry_equiv_pos_as_xyz
  1  'x, y, z'
loop_
 _atom_site_type_symbol
 _atom_site_label
 _atom_site_symmetry_multiplicity
 _atom_site_fract_x
 _atom_site_fract_y
 _atom_site_fract_z
 _atom_site_occupancy
  Nb  Nb0  1  0.987430  0.493716  0.270753  1
  Nb  Nb1  1  0.012570  0.506284  0.729247  1
  Nb  Nb2  1  0.493716  0.506284  0.729247  1
  Nb  Nb3  1  0.506284  0.012570  0.270753  1
  Nb  Nb4  1  0.000000  0.000000  0.729129  1
  Nb  Nb5  1  0.000000  0.000000  0.270871  1
  Nb  Nb6  1  0.506284  0.493716  0.270753  1
  Nb  Nb7  1  0.493716  0.987430  0.729247  1
  Ni  Ni8  1  0.000000  0.000000  0.500000  1
  Sb  Sb9  1  0.000000  0.000000  0.000000  1
  S  S10  1  0.333333  0.666667  0.605348  1
  S  S11  1  0.666667  0.333333  0.144852  1
  S  S12  1  0.666667  0.333333  0.394652  1
  S  S13  1  0.333333  0.666667  0.855148  1
  S  S14  1  0.167022  0.334045  0.389199  1
  S  S15  1  0.831848  0.168152  0.850637  1
  S  S16  1  0.336304  0.168152  0.850637  1
  S  S17  1  0.665955  0.832978  0.389199  1
  S  S18  1  0.167022  0.832978  0.389199  1
  S  S19  1  0.831848  0.663696  0.850637  1
  S  S20  1  0.168152  0.336304  0.149363  1
  S  S21  1  0.832978  0.167022  0.610801  1
  S  S22  1  0.334045  0.167022  0.610801  1
  S  S23  1  0.663696  0.831848  0.149363  1
  S  S24  1  0.168152  0.831848  0.149363  1
  S  S25  1  0.832978  0.665955  0.610801  1
