# generated using pymatgen
data_Ca3DyLu4(B6Os)4
_symmetry_space_group_name_H-M   'P 1'
_cell_length_a   3.61496200
_cell_length_b   9.10941797
_cell_length_c   11.51428700
_cell_angle_alpha   89.94501461
_cell_angle_beta   90.00000000
_cell_angle_gamma   90.00000000
_symmetry_Int_Tables_number   1
_chemical_formula_structural   Ca3DyLu4(B6Os)4
_chemical_formula_sum   'Ca3 Dy1 Lu4 B24 Os4'
_cell_volume   379.16759686
_cell_formula_units_Z   1
loop_
 _symmetry_equiv_pos_site_id
 _symmetry_equiv_pos_as_xyz
  1  'x, y, z'
loop_
 _atom_site_type_symbol
 _atom_site_label
 _atom_site_symmetry_multiplicity
 _atom_site_fract_x
 _atom_site_fract_y
 _atom_site_fract_z
 _atom_site_occupancy
  Ca  Ca0  1  0.000000  0.323518  0.414757  1
  Ca  Ca1  1  0.000000  0.676419  0.585026  1
  Ca  Ca2  1  0.000000  0.822125  0.085848  1
  Dy  Dy3  1  0.000000  0.176403  0.914718  1
  Lu  Lu4  1  0.000000  0.942061  0.367824  1
  Lu  Lu5  1  0.000000  0.057260  0.630526  1
  Lu  Lu6  1  0.000000  0.443679  0.131600  1
  Lu  Lu7  1  0.000000  0.557917  0.869053  1
  B  B8  1  0.500000  0.553485  0.432583  1
  B  B9  1  0.500000  0.445617  0.568545  1
  B  B10  1  0.500000  0.054658  0.066902  1
  B  B11  1  0.500000  0.945958  0.932717  1
  B  B12  1  0.500000  0.750090  0.416942  1
  B  B13  1  0.500000  0.249760  0.583357  1
  B  B14  1  0.500000  0.250412  0.081835  1
  B  B15  1  0.500000  0.750379  0.917548  1
  B  B16  1  0.500000  0.792038  0.264166  1
  B  B17  1  0.500000  0.207487  0.736238  1
  B  B18  1  0.500000  0.292356  0.234260  1
  B  B19  1  0.500000  0.708829  0.765427  1
  B  B20  1  0.500000  0.630305  0.185357  1
  B  B21  1  0.500000  0.369203  0.815991  1
  B  B22  1  0.500000  0.130482  0.313732  1
  B  B23  1  0.500000  0.870064  0.684923  1
  B  B24  1  0.500000  0.982751  0.211243  1
  B  B25  1  0.500000  0.017415  0.787898  1
  B  B26  1  0.500000  0.483226  0.287846  1
  B  B27  1  0.500000  0.516304  0.713064  1
  B  B28  1  0.500000  0.597568  0.026823  1
  B  B29  1  0.500000  0.401586  0.973159  1
  B  B30  1  0.500000  0.095886  0.473264  1
  B  B31  1  0.500000  0.904140  0.525843  1
  Os  Os32  1  0.000000  0.639810  0.319700  1
  Os  Os33  1  0.000000  0.358683  0.682395  1
  Os  Os34  1  0.000000  0.139802  0.179785  1
  Os  Os35  1  0.000000  0.862322  0.819107  1
