# generated using pymatgen
data_Nd2InSnPt4
_symmetry_space_group_name_H-M   'P 1'
_cell_length_a   4.62027200
_cell_length_b   4.62027207
_cell_length_c   9.36565500
_cell_angle_alpha   90.00000000
_cell_angle_beta   90.00000000
_cell_angle_gamma   119.99999953
_symmetry_Int_Tables_number   1
_chemical_formula_structural   Nd2InSnPt4
_chemical_formula_sum   'Nd2 In1 Sn1 Pt4'
_cell_volume   173.14257933
_cell_formula_units_Z   1
loop_
 _symmetry_equiv_pos_site_id
 _symmetry_equiv_pos_as_xyz
  1  'x, y, z'
loop_
 _atom_site_type_symbol
 _atom_site_label
 _atom_site_symmetry_multiplicity
 _atom_site_fract_x
 _atom_site_fract_y
 _atom_site_fract_z
 _atom_site_occupancy
  Nd  Nd0  1  0.666668  0.333334  0.250210  1
  Nd  Nd1  1  0.333334  0.666667  0.749790  1
  In  In2  1  0.000000  0.000000  0.500000  1
  Sn  Sn3  1  0.000000  0.000000  0.000000  1
  Pt  Pt4  1  0.333334  0.666667  0.087917  1
  Pt  Pt5  1  0.333334  0.666667  0.411947  1
  Pt  Pt6  1  0.666668  0.333334  0.588053  1
  Pt  Pt7  1  0.666668  0.333334  0.912083  1
