# generated using pymatgen
data_SrBi2Pt4PbO14
_symmetry_space_group_name_H-M   'P 1'
_cell_length_a   7.48297168
_cell_length_b   7.41578608
_cell_length_c   7.36015758
_cell_angle_alpha   59.74966601
_cell_angle_beta   59.95244628
_cell_angle_gamma   60.29657027
_symmetry_Int_Tables_number   1
_chemical_formula_structural   SrBi2Pt4PbO14
_chemical_formula_sum   'Sr1 Bi2 Pt4 Pb1 O14'
_cell_volume   288.78779295
_cell_formula_units_Z   1
loop_
 _symmetry_equiv_pos_site_id
 _symmetry_equiv_pos_as_xyz
  1  'x, y, z'
loop_
 _atom_site_type_symbol
 _atom_site_label
 _atom_site_symmetry_multiplicity
 _atom_site_fract_x
 _atom_site_fract_y
 _atom_site_fract_z
 _atom_site_occupancy
  Sr  Sr0  1  0.125000  0.125000  0.625000  1
  Bi  Bi1  1  0.125000  0.625000  0.125000  1
  Bi  Bi2  1  0.125000  0.125000  0.125000  1
  Pt  Pt3  1  0.625000  0.625000  0.125000  1
  Pt  Pt4  1  0.625000  0.125000  0.625000  1
  Pt  Pt5  1  0.125000  0.625000  0.625000  1
  Pt  Pt6  1  0.625000  0.625000  0.625000  1
  Pb  Pb7  1  0.625000  0.125000  0.125000  1
  O  O8  1  0.276818  0.248388  0.226408  1
  O  O9  1  0.973182  0.001612  0.023592  1
  O  O10  1  0.549761  0.957286  0.535666  1
  O  O11  1  0.294186  0.708430  0.288954  1
  O  O12  1  0.544081  0.540746  0.959162  1
  O  O13  1  0.956768  0.547582  0.536977  1
  O  O14  1  0.544081  0.956011  0.959162  1
  O  O15  1  0.956768  0.958672  0.536977  1
  O  O16  1  0.955814  0.541570  0.961046  1
  O  O17  1  0.705919  0.293989  0.290838  1
  O  O18  1  0.293232  0.702418  0.713023  1
  O  O19  1  0.700239  0.292714  0.714334  1
  O  O20  1  0.293232  0.291328  0.713023  1
  O  O21  1  0.705919  0.709254  0.290838  1
