# generated using pymatgen
data_Li2Er2TmAgSn3
_symmetry_space_group_name_H-M   'P 1'
_cell_length_a   7.26073750
_cell_length_b   7.25779809
_cell_length_c   4.55946200
_cell_angle_alpha   90.00000000
_cell_angle_beta   90.00000000
_cell_angle_gamma   119.98661580
_symmetry_Int_Tables_number   1
_chemical_formula_structural   Li2Er2TmAgSn3
_chemical_formula_sum   'Li2 Er2 Tm1 Ag1 Sn3'
_cell_volume   208.10782324
_cell_formula_units_Z   1
loop_
 _symmetry_equiv_pos_site_id
 _symmetry_equiv_pos_as_xyz
  1  'x, y, z'
loop_
 _atom_site_type_symbol
 _atom_site_label
 _atom_site_symmetry_multiplicity
 _atom_site_fract_x
 _atom_site_fract_y
 _atom_site_fract_z
 _atom_site_occupancy
  Li  Li0  1  0.765791  0.770298  0.000000  1
  Li  Li1  1  0.234209  0.004507  0.000000  1
  Er  Er2  1  0.431112  0.432665  0.500000  1
  Er  Er3  1  0.568888  0.001553  0.500000  1
  Tm  Tm4  1  0.000000  0.555435  0.500000  1
  Ag  Ag5  1  0.000000  0.237973  0.000000  1
  Sn  Sn6  1  0.662533  0.334467  0.000000  1
  Sn  Sn7  1  0.337467  0.671935  0.000000  1
  Sn  Sn8  1  0.000000  0.991167  0.500000  1
