# generated using pymatgen
data_La9Nd6Th(CdIr)4
_symmetry_space_group_name_H-M   'P 1'
_cell_length_a   10.08465608
_cell_length_b   10.08465641
_cell_length_c   10.08465701
_cell_angle_alpha   60.04284799
_cell_angle_beta   60.04284490
_cell_angle_gamma   60.04285644
_symmetry_Int_Tables_number   1
_chemical_formula_structural   La9Nd6Th(CdIr)4
_chemical_formula_sum   'La9 Nd6 Th1 Cd4 Ir4'
_cell_volume   725.92196173
_cell_formula_units_Z   1
loop_
 _symmetry_equiv_pos_site_id
 _symmetry_equiv_pos_as_xyz
  1  'x, y, z'
loop_
 _atom_site_type_symbol
 _atom_site_label
 _atom_site_symmetry_multiplicity
 _atom_site_fract_x
 _atom_site_fract_y
 _atom_site_fract_z
 _atom_site_occupancy
  La  La0  1  0.347510  0.347510  0.958040  1
  La  La1  1  0.347510  0.958040  0.347510  1
  La  La2  1  0.958040  0.347510  0.347510  1
  La  La3  1  0.809161  0.190575  0.190575  1
  La  La4  1  0.192019  0.806753  0.806753  1
  La  La5  1  0.190575  0.809161  0.190575  1
  La  La6  1  0.806753  0.192019  0.806753  1
  La  La7  1  0.190575  0.190575  0.809161  1
  La  La8  1  0.806753  0.806753  0.192019  1
  Nd  Nd9  1  0.939687  0.563995  0.563995  1
  Nd  Nd10  1  0.562184  0.936177  0.936177  1
  Nd  Nd11  1  0.563995  0.939687  0.563995  1
  Nd  Nd12  1  0.936177  0.562184  0.936177  1
  Nd  Nd13  1  0.563995  0.563995  0.939687  1
  Nd  Nd14  1  0.936177  0.936177  0.562184  1
  Th  Th15  1  0.344855  0.344855  0.344855  1
  Cd  Cd16  1  0.580296  0.580296  0.580296  1
  Cd  Cd17  1  0.579262  0.579262  0.257577  1
  Cd  Cd18  1  0.579262  0.257577  0.579262  1
  Cd  Cd19  1  0.257577  0.579262  0.579262  1
  Ir  Ir20  1  0.141373  0.141373  0.141373  1
  Ir  Ir21  1  0.146583  0.146583  0.573098  1
  Ir  Ir22  1  0.146583  0.573098  0.146583  1
  Ir  Ir23  1  0.573098  0.146583  0.146583  1
