# generated using pymatgen
data_Y6BeSi11Pt8
_symmetry_space_group_name_H-M   'P 1'
_cell_length_a   4.26965300
_cell_length_b   8.61697485
_cell_length_c   12.89358600
_cell_angle_alpha   80.42702797
_cell_angle_beta   90.00000000
_cell_angle_gamma   90.00000000
_symmetry_Int_Tables_number   1
_chemical_formula_structural   Y6BeSi11Pt8
_chemical_formula_sum   'Y6 Be1 Si11 Pt8'
_cell_volume   467.76841980
_cell_formula_units_Z   1
loop_
 _symmetry_equiv_pos_site_id
 _symmetry_equiv_pos_as_xyz
  1  'x, y, z'
loop_
 _atom_site_type_symbol
 _atom_site_label
 _atom_site_symmetry_multiplicity
 _atom_site_fract_x
 _atom_site_fract_y
 _atom_site_fract_z
 _atom_site_occupancy
  Y  Y0  1  0.250000  0.763058  0.439766  1
  Y  Y1  1  0.250000  0.590513  0.184914  1
  Y  Y2  1  0.750000  0.238452  0.555784  1
  Y  Y3  1  0.750000  0.410992  0.814516  1
  Y  Y4  1  0.750000  0.930855  0.815744  1
  Y  Y5  1  0.250000  0.069780  0.184931  1
  Be  Be6  1  0.250000  0.409704  0.425921  1
  Si  Si7  1  0.750000  0.579935  0.563393  1
  Si  Si8  1  0.750000  0.130173  0.006348  1
  Si  Si9  1  0.750000  0.873831  0.570138  1
  Si  Si10  1  0.250000  0.696841  0.713314  1
  Si  Si11  1  0.750000  0.307688  0.294294  1
  Si  Si12  1  0.750000  0.805194  0.276471  1
  Si  Si13  1  0.250000  0.873125  0.993500  1
  Si  Si14  1  0.250000  0.193350  0.722057  1
  Si  Si15  1  0.250000  0.378022  0.004037  1
  Si  Si16  1  0.250000  0.130368  0.430122  1
  Si  Si17  1  0.750000  0.618965  0.999728  1
  Pt  Pt18  1  0.750000  0.351785  0.103129  1
  Pt  Pt19  1  0.250000  0.967589  0.624692  1
  Pt  Pt20  1  0.750000  0.852027  0.085774  1
  Pt  Pt21  1  0.750000  0.028547  0.376016  1
  Pt  Pt22  1  0.250000  0.645329  0.900966  1
  Pt  Pt23  1  0.250000  0.151375  0.912698  1
  Pt  Pt24  1  0.750000  0.534389  0.375558  1
  Pt  Pt25  1  0.250000  0.468115  0.626187  1
