# generated using pymatgen
data_LiNb8(SiSn2)2
_symmetry_space_group_name_H-M   'P 1'
_cell_length_a   4.99492895
_cell_length_b   7.90067317
_cell_length_c   7.90066874
_cell_angle_alpha   95.73152358
_cell_angle_beta   108.42767240
_cell_angle_gamma   71.57226098
_symmetry_Int_Tables_number   1
_chemical_formula_structural   LiNb8(SiSn2)2
_chemical_formula_sum   'Li1 Nb8 Si2 Sn4'
_cell_volume   280.63146692
_cell_formula_units_Z   1
loop_
 _symmetry_equiv_pos_site_id
 _symmetry_equiv_pos_as_xyz
  1  'x, y, z'
loop_
 _atom_site_type_symbol
 _atom_site_label
 _atom_site_symmetry_multiplicity
 _atom_site_fract_x
 _atom_site_fract_y
 _atom_site_fract_z
 _atom_site_occupancy
  Li  Li0  1  0.250001  0.499999  0.500001  1
  Nb  Nb1  1  0.412412  0.877638  0.715634  1
  Nb  Nb2  1  0.574413  0.122362  0.284365  1
  Nb  Nb3  1  0.925583  0.284366  0.122362  1
  Nb  Nb4  1  0.087591  0.715635  0.877638  1
  Nb  Nb5  1  0.710027  0.715528  0.122320  1
  Nb  Nb6  1  0.303235  0.284472  0.877680  1
  Nb  Nb7  1  0.789973  0.122320  0.715528  1
  Nb  Nb8  1  0.196765  0.877680  0.284472  1
  Si  Si9  1  0.250000  0.000000  0.000000  1
  Si  Si10  1  0.750000  0.000000  0.000000  1
  Sn  Sn11  1  0.374073  0.500047  0.201655  1
  Sn  Sn12  1  0.672462  0.499953  0.798345  1
  Sn  Sn13  1  0.827535  0.798345  0.499953  1
  Sn  Sn14  1  0.125929  0.201655  0.500047  1
