# generated using pymatgen
data_TbY2WO7
_symmetry_space_group_name_H-M   'P 1'
_cell_length_a   6.49407230
_cell_length_b   6.49406873
_cell_length_c   7.51394200
_cell_angle_alpha   90.00000000
_cell_angle_beta   90.00000000
_cell_angle_gamma   109.20233558
_symmetry_Int_Tables_number   1
_chemical_formula_structural   TbY2WO7
_chemical_formula_sum   'Tb2 Y4 W2 O14'
_cell_volume   299.25456572
_cell_formula_units_Z   2
loop_
 _symmetry_equiv_pos_site_id
 _symmetry_equiv_pos_as_xyz
  1  'x, y, z'
loop_
 _atom_site_type_symbol
 _atom_site_label
 _atom_site_symmetry_multiplicity
 _atom_site_fract_x
 _atom_site_fract_y
 _atom_site_fract_z
 _atom_site_occupancy
  Tb  Tb0  1  0.518114  0.518114  0.250000  1
  Tb  Tb1  1  0.481886  0.481886  0.750000  1
  Y  Y2  1  0.998713  0.467246  0.497433  1
  Y  Y3  1  0.532754  0.001287  0.502567  1
  Y  Y4  1  0.001287  0.532754  0.997433  1
  Y  Y5  1  0.467246  0.998713  0.002567  1
  W  W6  1  0.000898  0.000898  0.250000  1
  W  W7  1  0.999102  0.999102  0.750000  1
  O  O8  1  0.067270  0.318057  0.218033  1
  O  O9  1  0.681943  0.932729  0.781967  1
  O  O10  1  0.932730  0.681943  0.718033  1
  O  O11  1  0.318057  0.067271  0.281967  1
  O  O12  1  0.675257  0.919158  0.222459  1
  O  O13  1  0.080841  0.324743  0.777541  1
  O  O14  1  0.324743  0.080842  0.722459  1
  O  O15  1  0.919159  0.675257  0.277541  1
  O  O16  1  0.368458  0.631541  0.500000  1
  O  O17  1  0.631542  0.368459  0.000000  1
  O  O18  1  0.362991  0.637009  0.000000  1
  O  O19  1  0.637009  0.362991  0.500000  1
  O  O20  1  0.926292  0.073708  0.500000  1
  O  O21  1  0.073708  0.926292  0.000000  1
