# generated using pymatgen
data_Ce8Nb12Si15Sn
_symmetry_space_group_name_H-M   'P 1'
_cell_length_a   7.12252638
_cell_length_b   7.15260108
_cell_length_c   13.30340470
_cell_angle_alpha   89.90621457
_cell_angle_beta   89.84387532
_cell_angle_gamma   89.85500060
_symmetry_Int_Tables_number   1
_chemical_formula_structural   Ce8Nb12Si15Sn
_chemical_formula_sum   'Ce8 Nb12 Si15 Sn1'
_cell_volume   677.73090967
_cell_formula_units_Z   1
loop_
 _symmetry_equiv_pos_site_id
 _symmetry_equiv_pos_as_xyz
  1  'x, y, z'
loop_
 _atom_site_type_symbol
 _atom_site_label
 _atom_site_symmetry_multiplicity
 _atom_site_fract_x
 _atom_site_fract_y
 _atom_site_fract_z
 _atom_site_occupancy
  Ce  Ce0  1  0.991701  0.342512  0.218015  1
  Ce  Ce1  1  0.003724  0.664099  0.717112  1
  Ce  Ce2  1  0.163863  0.497615  0.468798  1
  Ce  Ce3  1  0.514376  0.823253  0.025929  1
  Ce  Ce4  1  0.834314  0.503838  0.965008  1
  Ce  Ce5  1  0.496661  0.163475  0.534138  1
  Ce  Ce6  1  0.335645  0.997418  0.782437  1
  Ce  Ce7  1  0.673026  0.006563  0.286066  1
  Nb  Nb8  1  0.164508  0.173738  0.992896  1
  Nb  Nb9  1  0.831775  0.830436  0.500692  1
  Nb  Nb10  1  0.330740  0.658677  0.252013  1
  Nb  Nb11  1  0.668745  0.330397  0.749960  1
  Nb  Nb12  1  0.153881  0.994911  0.381751  1
  Nb  Nb13  1  0.842931  0.005389  0.873089  1
  Nb  Nb14  1  0.506477  0.657310  0.623899  1
  Nb  Nb15  1  0.342201  0.492677  0.875236  1
  Nb  Nb16  1  0.499594  0.354022  0.122869  1
  Nb  Nb17  1  0.659125  0.507473  0.378347  1
  Nb  Nb18  1  0.995471  0.157375  0.626551  1
  Nb  Nb19  1  0.988586  0.831843  0.120566  1
  Si  Si20  1  0.708647  0.957777  0.685781  1
  Si  Si21  1  0.458268  0.792790  0.435994  1
  Si  Si22  1  0.206110  0.540569  0.063350  1
  Si  Si23  1  0.540990  0.206384  0.935846  1
  Si  Si24  1  0.792738  0.457727  0.565678  1
  Si  Si25  1  0.040016  0.293304  0.812203  1
  Si  Si26  1  0.960856  0.709114  0.315049  1
  Si  Si27  1  0.375256  0.302704  0.318395  1
  Si  Si28  1  0.627583  0.702125  0.811749  1
  Si  Si29  1  0.204555  0.871533  0.566152  1
  Si  Si30  1  0.128638  0.797195  0.935302  1
  Si  Si31  1  0.796218  0.129607  0.063342  1
  Si  Si32  1  0.872712  0.206469  0.439065  1
  Si  Si33  1  0.297598  0.372399  0.686006  1
  Si  Si34  1  0.699425  0.632264  0.188851  1
  Sn  Sn35  1  0.293049  0.035019  0.181862  1
