# generated using pymatgen
data_Ti8Al14Fe7Si
_symmetry_space_group_name_H-M   'P 1'
_cell_length_a   8.42870182
_cell_length_b   8.42870212
_cell_length_c   8.42870300
_cell_angle_alpha   120.09242108
_cell_angle_beta   119.89151972
_cell_angle_gamma   90.01399375
_symmetry_Int_Tables_number   1
_chemical_formula_structural   Ti8Al14Fe7Si
_chemical_formula_sum   'Ti8 Al14 Fe7 Si1'
_cell_volume   423.46564495
_cell_formula_units_Z   1
loop_
 _symmetry_equiv_pos_site_id
 _symmetry_equiv_pos_as_xyz
  1  'x, y, z'
loop_
 _atom_site_type_symbol
 _atom_site_label
 _atom_site_symmetry_multiplicity
 _atom_site_fract_x
 _atom_site_fract_y
 _atom_site_fract_z
 _atom_site_occupancy
  Ti  Ti0  1  0.792981  0.287966  0.075200  1
  Ti  Ti1  1  0.212831  0.288012  0.495016  1
  Ti  Ti2  1  0.209643  0.709644  0.499999  1
  Ti  Ti3  1  0.212771  0.717742  0.924768  1
  Ti  Ti4  1  0.792990  0.717796  0.504998  1
  Ti  Ti5  1  0.784412  0.284461  0.500035  1
  Ti  Ti6  1  0.379856  0.119459  0.739543  1
  Ti  Ti7  1  0.379803  0.640230  0.260450  1
  Al  Al8  1  0.160304  0.339777  0.179591  1
  Al  Al9  1  0.160076  0.980705  0.820341  1
  Al  Al10  1  0.157751  0.341806  0.815815  1
  Al  Al11  1  0.526017  0.342047  0.184228  1
  Al  Al12  1  0.841194  0.658577  0.817275  1
  Al  Al13  1  0.841448  0.023926  0.182780  1
  Al  Al14  1  0.839800  0.659255  0.180588  1
  Al  Al15  1  0.478655  0.659016  0.819252  1
  Al  Al16  1  0.380538  0.119426  0.261372  1
  Al  Al17  1  0.858078  0.119322  0.738760  1
  Al  Al18  1  0.619101  0.878531  0.259602  1
  Al  Al19  1  0.619039  0.359530  0.740468  1
  Al  Al20  1  0.619479  0.879666  0.739605  1
  Al  Al21  1  0.140044  0.879761  0.260311  1
  Fe  Fe22  1  0.001329  0.999899  0.501607  1
  Fe  Fe23  1  0.498229  0.999900  0.998424  1
  Fe  Fe24  1  0.498555  0.498578  0.999983  1
  Fe  Fe25  1  0.498322  0.499739  0.498432  1
  Fe  Fe26  1  0.001374  0.499784  0.001499  1
  Fe  Fe27  1  0.000668  0.000681  0.000004  1
  Fe  Fe28  1  0.497969  0.998013  0.500040  1
  Si  Si29  1  0.996743  0.496748  0.500014  1
