# generated using pymatgen
data_Pr7NdZn8(IrRh)4
_symmetry_space_group_name_H-M   'P 1'
_cell_length_a   4.06087200
_cell_length_b   7.33804806
_cell_length_c   16.63869013
_cell_angle_alpha   90.10197954
_cell_angle_beta   90.00000000
_cell_angle_gamma   90.00000000
_symmetry_Int_Tables_number   1
_chemical_formula_structural   Pr7NdZn8(IrRh)4
_chemical_formula_sum   'Pr7 Nd1 Zn8 Ir4 Rh4'
_cell_volume   495.81344367
_cell_formula_units_Z   1
loop_
 _symmetry_equiv_pos_site_id
 _symmetry_equiv_pos_as_xyz
  1  'x, y, z'
loop_
 _atom_site_type_symbol
 _atom_site_label
 _atom_site_symmetry_multiplicity
 _atom_site_fract_x
 _atom_site_fract_y
 _atom_site_fract_z
 _atom_site_occupancy
  Pr  Pr0  1  0.250000  0.166839  0.939284  1
  Pr  Pr1  1  0.250000  0.667127  0.560453  1
  Pr  Pr2  1  0.750000  0.334025  0.439360  1
  Pr  Pr3  1  0.750000  0.953524  0.283738  1
  Pr  Pr4  1  0.750000  0.832652  0.060226  1
  Pr  Pr5  1  0.750000  0.451945  0.217019  1
  Pr  Pr6  1  0.250000  0.047013  0.716462  1
  Nd  Nd7  1  0.250000  0.546966  0.783510  1
  Zn  Zn8  1  0.750000  0.000877  0.560410  1
  Zn  Zn9  1  0.250000  0.623704  0.349711  1
  Zn  Zn10  1  0.750000  0.375633  0.651217  1
  Zn  Zn11  1  0.250000  0.498108  0.060513  1
  Zn  Zn12  1  0.750000  0.501318  0.939103  1
  Zn  Zn13  1  0.250000  0.998268  0.439611  1
  Zn  Zn14  1  0.250000  0.125214  0.150983  1
  Zn  Zn15  1  0.750000  0.875602  0.848911  1
  Ir  Ir16  1  0.750000  0.756830  0.434865  1
  Ir  Ir17  1  0.250000  0.245115  0.312704  1
  Ir  Ir18  1  0.750000  0.255419  0.813741  1
  Ir  Ir19  1  0.750000  0.754058  0.687260  1
  Rh  Rh20  1  0.250000  0.243019  0.564732  1
  Rh  Rh21  1  0.250000  0.745864  0.185621  1
  Rh  Rh22  1  0.750000  0.256598  0.064829  1
  Rh  Rh23  1  0.250000  0.744280  0.935735  1
