# generated using pymatgen
data_Mn4CrP4W3
_symmetry_space_group_name_H-M   'P 1'
_cell_length_a   3.62113900
_cell_length_b   5.93872762
_cell_length_c   6.81833525
_cell_angle_alpha   90.19949907
_cell_angle_beta   90.00000000
_cell_angle_gamma   90.00000000
_symmetry_Int_Tables_number   1
_chemical_formula_structural   Mn4CrP4W3
_chemical_formula_sum   'Mn4 Cr1 P4 W3'
_cell_volume   146.62712557
_cell_formula_units_Z   1
loop_
 _symmetry_equiv_pos_site_id
 _symmetry_equiv_pos_as_xyz
  1  'x, y, z'
loop_
 _atom_site_type_symbol
 _atom_site_label
 _atom_site_symmetry_multiplicity
 _atom_site_fract_x
 _atom_site_fract_y
 _atom_site_fract_z
 _atom_site_occupancy
  Mn  Mn0  1  0.250000  0.646607  0.058681  1
  Mn  Mn1  1  0.750000  0.353693  0.939135  1
  Mn  Mn2  1  0.250000  0.147899  0.439125  1
  Mn  Mn3  1  0.750000  0.853454  0.559943  1
  Cr  Cr4  1  0.250000  0.525108  0.677059  1
  P  P5  1  0.250000  0.275075  0.124719  1
  P  P6  1  0.750000  0.718613  0.866859  1
  P  P7  1  0.250000  0.773022  0.383198  1
  P  P8  1  0.750000  0.232874  0.624104  1
  W  W9  1  0.750000  0.971021  0.172111  1
  W  W10  1  0.250000  0.023135  0.825396  1
  W  W11  1  0.750000  0.479500  0.329670  1
