# generated using pymatgen
data_TbDy3Lu2(Al3Ru)8
_symmetry_space_group_name_H-M   'P 1'
_cell_length_a   8.77322730
_cell_length_b   8.77870711
_cell_length_c   9.60819700
_cell_angle_alpha   90.00242591
_cell_angle_beta   89.99893361
_cell_angle_gamma   120.04164973
_symmetry_Int_Tables_number   1
_chemical_formula_structural   TbDy3Lu2(Al3Ru)8
_chemical_formula_sum   'Tb1 Dy3 Lu2 Al24 Ru8'
_cell_volume   640.58984408
_cell_formula_units_Z   1
loop_
 _symmetry_equiv_pos_site_id
 _symmetry_equiv_pos_as_xyz
  1  'x, y, z'
loop_
 _atom_site_type_symbol
 _atom_site_label
 _atom_site_symmetry_multiplicity
 _atom_site_fract_x
 _atom_site_fract_y
 _atom_site_fract_z
 _atom_site_occupancy
  Tb  Tb0  1  0.192846  0.385554  0.749952  1
  Dy  Dy1  1  0.387767  0.194131  0.249989  1
  Dy  Dy2  1  0.611539  0.805664  0.749986  1
  Dy  Dy3  1  0.194257  0.805668  0.749984  1
  Lu  Lu4  1  0.804935  0.195669  0.249979  1
  Lu  Lu5  1  0.805076  0.610115  0.249985  1
  Al  Al6  1  0.439198  0.877011  0.249997  1
  Al  Al7  1  0.122259  0.561558  0.250034  1
  Al  Al8  1  0.439386  0.562795  0.250037  1
  Al  Al9  1  0.562451  0.124450  0.750001  1
  Al  Al10  1  0.875468  0.437805  0.750040  1
  Al  Al11  1  0.562639  0.437909  0.750034  1
  Al  Al12  1  0.162348  0.836964  0.421966  1
  Al  Al13  1  0.162298  0.325695  0.421424  1
  Al  Al14  1  0.675146  0.837786  0.421835  1
  Al  Al15  1  0.836750  0.162979  0.575803  1
  Al  Al16  1  0.837117  0.674103  0.575804  1
  Al  Al17  1  0.326483  0.163033  0.576467  1
  Al  Al18  1  0.836752  0.162936  0.924182  1
  Al  Al19  1  0.837101  0.674077  0.924227  1
  Al  Al20  1  0.326439  0.162995  0.923521  1
  Al  Al21  1  0.162347  0.836917  0.078023  1
  Al  Al22  1  0.162290  0.325677  0.078566  1
  Al  Al23  1  0.675089  0.837733  0.078152  1
  Al  Al24  1  0.333386  0.666573  0.516521  1
  Al  Al25  1  0.667323  0.333812  0.479877  1
  Al  Al26  1  0.667278  0.333726  0.020105  1
  Al  Al27  1  0.333329  0.666461  0.983408  1
  Al  Al28  1  0.997981  0.999462  0.249979  1
  Al  Al29  1  0.998953  0.997609  0.749978  1
  Ru  Ru30  1  0.000326  0.000367  0.499857  1
  Ru  Ru31  1  0.000291  0.000339  0.000118  1
  Ru  Ru32  1  0.501102  0.001030  0.499072  1
  Ru  Ru33  1  0.999155  0.499931  0.498446  1
  Ru  Ru34  1  0.501378  0.500408  0.498865  1
  Ru  Ru35  1  0.501071  0.000933  0.000928  1
  Ru  Ru36  1  0.999147  0.499790  0.001647  1
  Ru  Ru37  1  0.501295  0.500339  0.001208  1
