# generated using pymatgen
data_PrScSi(PRu2)6
_symmetry_space_group_name_H-M   'P 1'
_cell_length_a   9.44725300
_cell_length_b   9.44725130
_cell_length_c   3.95121300
_cell_angle_alpha   90.00000000
_cell_angle_beta   90.00000000
_cell_angle_gamma   119.99999544
_symmetry_Int_Tables_number   1
_chemical_formula_structural   PrScSi(PRu2)6
_chemical_formula_sum   'Pr1 Sc1 Si1 P6 Ru12'
_cell_volume   305.40216239
_cell_formula_units_Z   1
loop_
 _symmetry_equiv_pos_site_id
 _symmetry_equiv_pos_as_xyz
  1  'x, y, z'
loop_
 _atom_site_type_symbol
 _atom_site_label
 _atom_site_symmetry_multiplicity
 _atom_site_fract_x
 _atom_site_fract_y
 _atom_site_fract_z
 _atom_site_occupancy
  Pr  Pr0  1  0.333333  0.666667  0.000000  1
  Sc  Sc1  1  0.666667  0.333333  0.500000  1
  Si  Si2  1  0.000000  0.000000  0.000000  1
  P  P3  1  0.606189  0.719556  0.500000  1
  P  P4  1  0.280444  0.886633  0.500000  1
  P  P5  1  0.113367  0.393811  0.500000  1
  P  P6  1  0.885186  0.570013  0.000000  1
  P  P7  1  0.429987  0.315174  0.000000  1
  P  P8  1  0.684826  0.114814  0.000000  1
  Ru  Ru9  1  0.559562  0.959079  0.500000  1
  Ru  Ru10  1  0.399518  0.440438  0.500000  1
  Ru  Ru11  1  0.912823  0.118830  0.500000  1
  Ru  Ru12  1  0.206007  0.087177  0.500000  1
  Ru  Ru13  1  0.881170  0.793993  0.500000  1
  Ru  Ru14  1  0.721027  0.888108  0.000000  1
  Ru  Ru15  1  0.111892  0.832917  0.000000  1
  Ru  Ru16  1  0.167083  0.278973  0.000000  1
  Ru  Ru17  1  0.423849  0.072677  0.000000  1
  Ru  Ru18  1  0.927323  0.351173  0.000000  1
  Ru  Ru19  1  0.648827  0.576151  0.000000  1
  Ru  Ru20  1  0.040921  0.600482  0.500000  1
