# generated using pymatgen
data_Tm4Tc3Os2Ru3
_symmetry_space_group_name_H-M   'P 1'
_cell_length_a   5.19071123
_cell_length_b   5.20053892
_cell_length_c   8.98837300
_cell_angle_alpha   90.00000000
_cell_angle_beta   90.00000000
_cell_angle_gamma   118.07980018
_symmetry_Int_Tables_number   1
_chemical_formula_structural   Tm4Tc3Os2Ru3
_chemical_formula_sum   'Tm4 Tc3 Os2 Ru3'
_cell_volume   214.07653909
_cell_formula_units_Z   1
loop_
 _symmetry_equiv_pos_site_id
 _symmetry_equiv_pos_as_xyz
  1  'x, y, z'
loop_
 _atom_site_type_symbol
 _atom_site_label
 _atom_site_symmetry_multiplicity
 _atom_site_fract_x
 _atom_site_fract_y
 _atom_site_fract_z
 _atom_site_occupancy
  Tm  Tm0  1  0.666248  0.330264  0.565048  1
  Tm  Tm1  1  0.331198  0.668381  0.433227  1
  Tm  Tm2  1  0.331198  0.668381  0.066773  1
  Tm  Tm3  1  0.666248  0.330264  0.934952  1
  Tc  Tc4  1  0.173199  0.830458  0.750000  1
  Tc  Tc5  1  0.660656  0.830071  0.750000  1
  Tc  Tc6  1  0.835706  0.172796  0.250000  1
  Os  Os7  1  0.173148  0.343648  0.750000  1
  Os  Os8  1  0.833631  0.660726  0.250000  1
  Ru  Ru9  1  0.988987  0.994811  0.498386  1
  Ru  Ru10  1  0.988987  0.994811  0.001614  1
  Ru  Ru11  1  0.350793  0.175388  0.250000  1
