# generated using pymatgen
data_Ho2Al9Os2Rh
_symmetry_space_group_name_H-M   'P 1'
_cell_length_a   7.53947909
_cell_length_b   7.53947086
_cell_length_c   9.58198600
_cell_angle_alpha   90.00000000
_cell_angle_beta   90.00000000
_cell_angle_gamma   119.79680254
_symmetry_Int_Tables_number   1
_chemical_formula_structural   Ho2Al9Os2Rh
_chemical_formula_sum   'Ho4 Al18 Os4 Rh2'
_cell_volume   472.66557819
_cell_formula_units_Z   2
loop_
 _symmetry_equiv_pos_site_id
 _symmetry_equiv_pos_as_xyz
  1  'x, y, z'
loop_
 _atom_site_type_symbol
 _atom_site_label
 _atom_site_symmetry_multiplicity
 _atom_site_fract_x
 _atom_site_fract_y
 _atom_site_fract_z
 _atom_site_occupancy
  Ho  Ho0  1  0.997473  0.667018  0.250000  1
  Ho  Ho1  1  0.002527  0.332982  0.750000  1
  Ho  Ho2  1  0.667017  0.997472  0.250000  1
  Ho  Ho3  1  0.332983  0.002528  0.750000  1
  Al  Al4  1  0.126337  0.126337  0.250000  1
  Al  Al5  1  0.873663  0.873663  0.750000  1
  Al  Al6  1  0.003061  0.335462  0.072191  1
  Al  Al7  1  0.996939  0.664538  0.927809  1
  Al  Al8  1  0.996939  0.664538  0.572191  1
  Al  Al9  1  0.335461  0.003060  0.427809  1
  Al  Al10  1  0.003061  0.335462  0.427809  1
  Al  Al11  1  0.664539  0.996940  0.572191  1
  Al  Al12  1  0.664539  0.996940  0.927809  1
  Al  Al13  1  0.335461  0.003060  0.072191  1
  Al  Al14  1  0.336795  0.336794  0.551884  1
  Al  Al15  1  0.663205  0.663206  0.448116  1
  Al  Al16  1  0.663205  0.663206  0.051884  1
  Al  Al17  1  0.336795  0.336794  0.948116  1
  Al  Al18  1  0.337159  0.548130  0.250000  1
  Al  Al19  1  0.662841  0.451870  0.750000  1
  Al  Al20  1  0.548130  0.337159  0.250000  1
  Al  Al21  1  0.451870  0.662841  0.750000  1
  Os  Os22  1  0.673143  0.326859  0.999999  1
  Os  Os23  1  0.326857  0.673141  0.000001  1
  Os  Os24  1  0.326857  0.673141  0.499999  1
  Os  Os25  1  0.673143  0.326859  0.500001  1
  Rh  Rh26  1  0.000000  0.000000  0.000000  1
  Rh  Rh27  1  0.000000  0.000000  0.500000  1
