# generated using pymatgen
data_NdSm(Co3Si2)2
_symmetry_space_group_name_H-M   'P 1'
_cell_length_a   6.33847872
_cell_length_b   6.33847856
_cell_length_c   6.33847931
_cell_angle_alpha   130.37211703
_cell_angle_beta   114.17087091
_cell_angle_gamma   86.72040133
_symmetry_Int_Tables_number   1
_chemical_formula_structural   NdSm(Co3Si2)2
_chemical_formula_sum   'Nd1 Sm1 Co6 Si4'
_cell_volume   168.88900655
_cell_formula_units_Z   1
loop_
 _symmetry_equiv_pos_site_id
 _symmetry_equiv_pos_as_xyz
  1  'x, y, z'
loop_
 _atom_site_type_symbol
 _atom_site_label
 _atom_site_symmetry_multiplicity
 _atom_site_fract_x
 _atom_site_fract_y
 _atom_site_fract_z
 _atom_site_occupancy
  Nd  Nd0  1  0.750000  0.468816  0.718816  1
  Sm  Sm1  1  0.250000  0.532484  0.282484  1
  Co  Co2  1  0.000896  0.999474  0.500370  1
  Co  Co3  1  0.499104  0.999474  0.998579  1
  Co  Co4  1  0.721844  0.998821  0.721916  1
  Co  Co5  1  0.223094  0.500072  0.721916  1
  Co  Co6  1  0.276906  0.998821  0.276978  1
  Co  Co7  1  0.778156  0.500072  0.276978  1
  Si  Si8  1  0.080431  0.875505  0.795074  1
  Si  Si9  1  0.920253  0.126161  0.205908  1
  Si  Si10  1  0.579747  0.785657  0.205908  1
  Si  Si11  1  0.419569  0.214641  0.795074  1
