# generated using pymatgen
data_Ca4Mg(RuO4)3
_symmetry_space_group_name_H-M   'P 1'
_cell_length_a   5.40975600
_cell_length_b   5.60254732
_cell_length_c   7.75209400
_cell_angle_alpha   89.99247394
_cell_angle_beta   89.83748739
_cell_angle_gamma   89.98653209
_symmetry_Int_Tables_number   1
_chemical_formula_structural   Ca4Mg(RuO4)3
_chemical_formula_sum   'Ca4 Mg1 Ru3 O12'
_cell_volume   234.95272046
_cell_formula_units_Z   1
loop_
 _symmetry_equiv_pos_site_id
 _symmetry_equiv_pos_as_xyz
  1  'x, y, z'
loop_
 _atom_site_type_symbol
 _atom_site_label
 _atom_site_symmetry_multiplicity
 _atom_site_fract_x
 _atom_site_fract_y
 _atom_site_fract_z
 _atom_site_occupancy
  Ca  Ca0  1  0.511077  0.553014  0.239535  1
  Ca  Ca1  1  0.983446  0.059933  0.237991  1
  Ca  Ca2  1  0.488923  0.446986  0.760465  1
  Ca  Ca3  1  0.016554  0.940067  0.762009  1
  Mg  Mg4  1  0.000000  0.500000  0.000000  1
  Ru  Ru5  1  0.500000  0.000000  0.500000  1
  Ru  Ru6  1  0.000000  0.500000  0.500000  1
  Ru  Ru7  1  0.500000  0.000000  0.000000  1
  O  O8  1  0.792297  0.803373  0.044543  1
  O  O9  1  0.695567  0.299360  0.449366  1
  O  O10  1  0.198783  0.200000  0.551757  1
  O  O11  1  0.306848  0.711363  0.953604  1
  O  O12  1  0.207703  0.196627  0.955457  1
  O  O13  1  0.304433  0.700640  0.550634  1
  O  O14  1  0.801217  0.800000  0.448243  1
  O  O15  1  0.693152  0.288637  0.046396  1
  O  O16  1  0.402720  0.970418  0.251450  1
  O  O17  1  0.090798  0.472884  0.258773  1
  O  O18  1  0.597280  0.029582  0.748550  1
  O  O19  1  0.909202  0.527116  0.741227  1
