# generated using pymatgen
data_Ho4B4SbIr9
_symmetry_space_group_name_H-M   'P 1'
_cell_length_a   10.85303410
_cell_length_b   10.85303386
_cell_length_c   10.85303366
_cell_angle_alpha   29.66765946
_cell_angle_beta   29.66766025
_cell_angle_gamma   29.66766285
_symmetry_Int_Tables_number   1
_chemical_formula_structural   Ho4B4SbIr9
_chemical_formula_sum   'Ho4 B4 Sb1 Ir9'
_cell_volume   277.28236630
_cell_formula_units_Z   1
loop_
 _symmetry_equiv_pos_site_id
 _symmetry_equiv_pos_as_xyz
  1  'x, y, z'
loop_
 _atom_site_type_symbol
 _atom_site_label
 _atom_site_symmetry_multiplicity
 _atom_site_fract_x
 _atom_site_fract_y
 _atom_site_fract_z
 _atom_site_occupancy
  Ho  Ho0  1  0.149110  0.149110  0.149110  1
  Ho  Ho1  1  0.950741  0.950741  0.950741  1
  Ho  Ho2  1  0.850890  0.850890  0.850890  1
  Ho  Ho3  1  0.049259  0.049259  0.049259  1
  B  B4  1  0.616681  0.616681  0.616681  1
  B  B5  1  0.716704  0.716704  0.716704  1
  B  B6  1  0.383319  0.383319  0.383319  1
  B  B7  1  0.283296  0.283296  0.283296  1
  Sb  Sb8  1  0.500000  0.500000  0.500000  1
  Ir  Ir9  1  0.403218  0.905819  0.403218  1
  Ir  Ir10  1  0.905819  0.403218  0.403218  1
  Ir  Ir11  1  0.500000  0.500000  0.000000  1
  Ir  Ir12  1  0.500000  0.000000  0.500000  1
  Ir  Ir13  1  0.000000  0.500000  0.500000  1
  Ir  Ir14  1  0.596782  0.094181  0.596782  1
  Ir  Ir15  1  0.596782  0.596782  0.094181  1
  Ir  Ir16  1  0.094181  0.596782  0.596782  1
  Ir  Ir17  1  0.403218  0.403218  0.905819  1
