# generated using pymatgen
data_Ti5Mn3(SiW)12
_symmetry_space_group_name_H-M   'P 1'
_cell_length_a   7.25739066
_cell_length_b   7.25739142
_cell_length_c   13.60743427
_cell_angle_alpha   90.26599604
_cell_angle_beta   89.73400521
_cell_angle_gamma   140.90791588
_symmetry_Int_Tables_number   1
_chemical_formula_structural   Ti5Mn3(SiW)12
_chemical_formula_sum   'Ti5 Mn3 Si12 W12'
_cell_volume   451.92290469
_cell_formula_units_Z   1
loop_
 _symmetry_equiv_pos_site_id
 _symmetry_equiv_pos_as_xyz
  1  'x, y, z'
loop_
 _atom_site_type_symbol
 _atom_site_label
 _atom_site_symmetry_multiplicity
 _atom_site_fract_x
 _atom_site_fract_y
 _atom_site_fract_z
 _atom_site_occupancy
  Ti  Ti0  1  0.424226  0.068990  0.402118  1
  Ti  Ti1  1  0.929265  0.571135  0.903327  1
  Ti  Ti2  1  0.068990  0.424226  0.597882  1
  Ti  Ti3  1  0.571135  0.929265  0.096673  1
  Ti  Ti4  1  0.998735  0.998735  0.500000  1
  Mn  Mn5  1  0.499490  0.499490  0.000000  1
  Mn  Mn6  1  0.495450  0.495450  0.500000  1
  Mn  Mn7  1  0.001731  0.001731  0.000000  1
  Si  Si8  1  0.249741  0.749192  0.750508  1
  Si  Si9  1  0.749192  0.249741  0.249492  1
  Si  Si10  1  0.749466  0.250340  0.750335  1
  Si  Si11  1  0.250340  0.749466  0.249665  1
  Si  Si12  1  0.261391  0.264814  0.662422  1
  Si  Si13  1  0.750193  0.753269  0.157319  1
  Si  Si14  1  0.264814  0.261391  0.337578  1
  Si  Si15  1  0.753269  0.750193  0.842681  1
  Si  Si16  1  0.577003  0.898945  0.500745  1
  Si  Si17  1  0.093908  0.408224  0.000889  1
  Si  Si18  1  0.898945  0.577003  0.499255  1
  Si  Si19  1  0.408224  0.093908  0.999111  1
  W  W20  1  0.070487  0.423635  0.398331  1
  W  W21  1  0.573686  0.929444  0.898959  1
  W  W22  1  0.423635  0.070487  0.601669  1
  W  W23  1  0.929444  0.573686  0.101041  1
  W  W24  1  0.849487  0.650647  0.679938  1
  W  W25  1  0.349562  0.149287  0.177595  1
  W  W26  1  0.650647  0.849487  0.320062  1
  W  W27  1  0.149287  0.349562  0.822405  1
  W  W28  1  0.655941  0.852729  0.678529  1
  W  W29  1  0.150944  0.348641  0.177225  1
  W  W30  1  0.852729  0.655941  0.321471  1
  W  W31  1  0.348641  0.150944  0.822775  1
