# generated using pymatgen
data_Lu8Ta(B8Ir)3
_symmetry_space_group_name_H-M   'P 1'
_cell_length_a   3.58733200
_cell_length_b   9.09960357
_cell_length_c   11.47744957
_cell_angle_alpha   89.76379075
_cell_angle_beta   90.00000000
_cell_angle_gamma   90.00000000
_symmetry_Int_Tables_number   1
_chemical_formula_structural   Lu8Ta(B8Ir)3
_chemical_formula_sum   'Lu8 Ta1 B24 Ir3'
_cell_volume   374.65863494
_cell_formula_units_Z   1
loop_
 _symmetry_equiv_pos_site_id
 _symmetry_equiv_pos_as_xyz
  1  'x, y, z'
loop_
 _atom_site_type_symbol
 _atom_site_label
 _atom_site_symmetry_multiplicity
 _atom_site_fract_x
 _atom_site_fract_y
 _atom_site_fract_z
 _atom_site_occupancy
  Lu  Lu0  1  0.000000  0.320994  0.413561  1
  Lu  Lu1  1  0.000000  0.680373  0.584574  1
  Lu  Lu2  1  0.000000  0.816961  0.088827  1
  Lu  Lu3  1  0.000000  0.179231  0.914609  1
  Lu  Lu4  1  0.000000  0.946660  0.376001  1
  Lu  Lu5  1  0.000000  0.057218  0.626947  1
  Lu  Lu6  1  0.000000  0.444115  0.123542  1
  Lu  Lu7  1  0.000000  0.556228  0.872336  1
  Ta  Ta8  1  0.000000  0.637837  0.320953  1
  B  B9  1  0.500000  0.548951  0.439020  1
  B  B10  1  0.500000  0.446602  0.567592  1
  B  B11  1  0.500000  0.052411  0.065364  1
  B  B12  1  0.500000  0.946010  0.935092  1
  B  B13  1  0.500000  0.753272  0.424654  1
  B  B14  1  0.500000  0.250847  0.579609  1
  B  B15  1  0.500000  0.249838  0.077936  1
  B  B16  1  0.500000  0.749358  0.920963  1
  B  B17  1  0.500000  0.798250  0.262440  1
  B  B18  1  0.500000  0.206406  0.736453  1
  B  B19  1  0.500000  0.291570  0.232782  1
  B  B20  1  0.500000  0.708060  0.763720  1
  B  B21  1  0.500000  0.631595  0.180273  1
  B  B22  1  0.500000  0.367645  0.817145  1
  B  B23  1  0.500000  0.131585  0.315663  1
  B  B24  1  0.500000  0.869854  0.683062  1
  B  B25  1  0.500000  0.981355  0.212497  1
  B  B26  1  0.500000  0.019248  0.787456  1
  B  B27  1  0.500000  0.473411  0.285665  1
  B  B28  1  0.500000  0.519157  0.713220  1
  B  B29  1  0.500000  0.606121  0.026058  1
  B  B30  1  0.500000  0.392167  0.968940  1
  B  B31  1  0.500000  0.109005  0.471588  1
  B  B32  1  0.500000  0.896861  0.531650  1
  Ir  Ir33  1  0.000000  0.360217  0.681020  1
  Ir  Ir34  1  0.000000  0.137893  0.177327  1
  Ir  Ir35  1  0.000000  0.862698  0.821463  1
