# generated using pymatgen
data_Th4In3Cu20Sn
_symmetry_space_group_name_H-M   'P 1'
_cell_length_a   5.09450200
_cell_length_b   8.35568632
_cell_length_c   10.65706641
_cell_angle_alpha   89.96814537
_cell_angle_beta   90.00000000
_cell_angle_gamma   90.00000000
_symmetry_Int_Tables_number   1
_chemical_formula_structural   Th4In3Cu20Sn
_chemical_formula_sum   'Th4 In3 Cu20 Sn1'
_cell_volume   453.65057961
_cell_formula_units_Z   1
loop_
 _symmetry_equiv_pos_site_id
 _symmetry_equiv_pos_as_xyz
  1  'x, y, z'
loop_
 _atom_site_type_symbol
 _atom_site_label
 _atom_site_symmetry_multiplicity
 _atom_site_fract_x
 _atom_site_fract_y
 _atom_site_fract_z
 _atom_site_occupancy
  Th  Th0  1  0.750000  0.245540  0.943051  1
  Th  Th1  1  0.250000  0.752759  0.059549  1
  Th  Th2  1  0.750000  0.747169  0.558195  1
  Th  Th3  1  0.250000  0.252835  0.439034  1
  In  In4  1  0.250000  0.638773  0.360495  1
  In  In5  1  0.750000  0.861671  0.860483  1
  In  In6  1  0.250000  0.138626  0.139116  1
  Cu  Cu7  1  0.001237  0.431924  0.187532  1
  Cu  Cu8  1  0.500733  0.568833  0.812781  1
  Cu  Cu9  1  0.498148  0.931653  0.312412  1
  Cu  Cu10  1  0.998847  0.068425  0.687278  1
  Cu  Cu11  1  0.999267  0.568833  0.812781  1
  Cu  Cu12  1  0.498763  0.431924  0.187532  1
  Cu  Cu13  1  0.501153  0.068425  0.687278  1
  Cu  Cu14  1  0.001852  0.931653  0.312412  1
  Cu  Cu15  1  0.750000  0.438672  0.394440  1
  Cu  Cu16  1  0.250000  0.562931  0.605158  1
  Cu  Cu17  1  0.750000  0.938375  0.105914  1
  Cu  Cu18  1  0.250000  0.060805  0.894207  1
  Cu  Cu19  1  0.750000  0.181615  0.255585  1
  Cu  Cu20  1  0.250000  0.818284  0.744491  1
  Cu  Cu21  1  0.750000  0.681661  0.244811  1
  Cu  Cu22  1  0.250000  0.317640  0.755494  1
  Cu  Cu23  1  0.750000  0.082888  0.483053  1
  Cu  Cu24  1  0.250000  0.917692  0.516575  1
  Cu  Cu25  1  0.750000  0.583725  0.016507  1
  Cu  Cu26  1  0.250000  0.415821  0.983233  1
  Sn  Sn27  1  0.750000  0.360845  0.640602  1
