# generated using pymatgen
data_Lu3HfGa2Ir3
_symmetry_space_group_name_H-M   'P 1'
_cell_length_a   7.07785004
_cell_length_b   6.95981444
_cell_length_c   4.09900900
_cell_angle_alpha   90.00000000
_cell_angle_beta   90.00000000
_cell_angle_gamma   119.44985594
_symmetry_Int_Tables_number   1
_chemical_formula_structural   Lu3HfGa2Ir3
_chemical_formula_sum   'Lu3 Hf1 Ga2 Ir3'
_cell_volume   175.82858791
_cell_formula_units_Z   1
loop_
 _symmetry_equiv_pos_site_id
 _symmetry_equiv_pos_as_xyz
  1  'x, y, z'
loop_
 _atom_site_type_symbol
 _atom_site_label
 _atom_site_symmetry_multiplicity
 _atom_site_fract_x
 _atom_site_fract_y
 _atom_site_fract_z
 _atom_site_occupancy
  Lu  Lu0  1  0.000000  0.389787  0.500000  1
  Lu  Lu1  1  0.573070  0.584174  0.500000  1
  Lu  Lu2  1  0.426930  0.011106  0.500000  1
  Hf  Hf3  1  0.000000  0.759066  0.000000  1
  Ga  Ga4  1  0.253674  0.253459  0.000000  1
  Ga  Ga5  1  0.746326  0.999786  0.000000  1
  Ir  Ir6  1  0.328305  0.667887  0.000000  1
  Ir  Ir7  1  0.671695  0.339581  0.000000  1
  Ir  Ir8  1  0.000000  0.995154  0.500000  1
