# generated using pymatgen
data_SmLu5ZrCo17P12
_symmetry_space_group_name_H-M   'P 1'
_cell_length_a   3.68743400
_cell_length_b   10.55175100
_cell_length_c   12.24376300
_cell_angle_alpha   90.00000000
_cell_angle_beta   90.00000000
_cell_angle_gamma   90.00000000
_symmetry_Int_Tables_number   1
_chemical_formula_structural   SmLu5ZrCo17P12
_chemical_formula_sum   'Sm1 Lu5 Zr1 Co17 P12'
_cell_volume   476.39117139
_cell_formula_units_Z   1
loop_
 _symmetry_equiv_pos_site_id
 _symmetry_equiv_pos_as_xyz
  1  'x, y, z'
loop_
 _atom_site_type_symbol
 _atom_site_label
 _atom_site_symmetry_multiplicity
 _atom_site_fract_x
 _atom_site_fract_y
 _atom_site_fract_z
 _atom_site_occupancy
  Sm  Sm0  1  0.500000  0.000000  0.476298  1
  Lu  Lu1  1  0.000000  0.500000  0.530009  1
  Lu  Lu2  1  0.500000  0.822158  0.207051  1
  Lu  Lu3  1  0.500000  0.177842  0.207051  1
  Lu  Lu4  1  0.000000  0.681990  0.795854  1
  Lu  Lu5  1  0.000000  0.318010  0.795854  1
  Zr  Zr6  1  0.500000  0.500000  0.155526  1
  Co  Co7  1  0.000000  0.000000  0.836532  1
  Co  Co8  1  0.500000  0.500000  0.702463  1
  Co  Co9  1  0.000000  0.000000  0.293412  1
  Co  Co10  1  0.000000  0.500000  0.983021  1
  Co  Co11  1  0.500000  0.000000  0.013708  1
  Co  Co12  1  0.500000  0.326836  0.987495  1
  Co  Co13  1  0.500000  0.673164  0.987495  1
  Co  Co14  1  0.000000  0.161637  0.001420  1
  Co  Co15  1  0.000000  0.838363  0.001420  1
  Co  Co16  1  0.500000  0.295607  0.434753  1
  Co  Co17  1  0.500000  0.704393  0.434753  1
  Co  Co18  1  0.000000  0.203882  0.571153  1
  Co  Co19  1  0.000000  0.796118  0.571153  1
  Co  Co20  1  0.500000  0.878794  0.708261  1
  Co  Co21  1  0.500000  0.121206  0.708261  1
  Co  Co22  1  0.000000  0.623635  0.297312  1
  Co  Co23  1  0.000000  0.376365  0.297312  1
  P  P24  1  0.500000  0.500000  0.880358  1
  P  P25  1  0.000000  0.000000  0.116644  1
  P  P26  1  0.500000  0.500000  0.364419  1
  P  P27  1  0.000000  0.000000  0.656017  1
  P  P28  1  0.500000  0.310856  0.618835  1
  P  P29  1  0.500000  0.689144  0.618835  1
  P  P30  1  0.000000  0.189438  0.384584  1
  P  P31  1  0.000000  0.810562  0.384584  1
  P  P32  1  0.500000  0.851387  0.887667  1
  P  P33  1  0.500000  0.148613  0.887667  1
  P  P34  1  0.000000  0.666320  0.101410  1
  P  P35  1  0.000000  0.333680  0.101410  1
