# generated using pymatgen
data_Nd2YSi6(Pd4Pt)4
_symmetry_space_group_name_H-M   'P 1'
_cell_length_a   8.75730510
_cell_length_b   8.77124792
_cell_length_c   8.77124706
_cell_angle_alpha   59.89486306
_cell_angle_beta   60.05257066
_cell_angle_gamma   60.05257056
_symmetry_Int_Tables_number   1
_chemical_formula_structural   Nd2YSi6(Pd4Pt)4
_chemical_formula_sum   'Nd2 Y1 Si6 Pd16 Pt4'
_cell_volume   476.40469884
_cell_formula_units_Z   1
loop_
 _symmetry_equiv_pos_site_id
 _symmetry_equiv_pos_as_xyz
  1  'x, y, z'
loop_
 _atom_site_type_symbol
 _atom_site_label
 _atom_site_symmetry_multiplicity
 _atom_site_fract_x
 _atom_site_fract_y
 _atom_site_fract_z
 _atom_site_occupancy
  Nd  Nd0  1  0.250000  0.250000  0.250000  1
  Nd  Nd1  1  0.750000  0.750000  0.750000  1
  Y  Y2  1  0.000000  0.000000  0.000000  1
  Si  Si3  1  0.731711  0.268289  0.268289  1
  Si  Si4  1  0.268289  0.731711  0.731711  1
  Si  Si5  1  0.264219  0.735781  0.264219  1
  Si  Si6  1  0.735781  0.264219  0.735781  1
  Si  Si7  1  0.264219  0.264219  0.735781  1
  Si  Si8  1  0.735781  0.735781  0.264219  1
  Pd  Pd9  1  0.997730  0.346326  0.002270  1
  Pd  Pd10  1  0.653674  0.002270  0.346326  1
  Pd  Pd11  1  0.002270  0.653674  0.997730  1
  Pd  Pd12  1  0.346326  0.997730  0.653674  1
  Pd  Pd13  1  0.997730  0.002270  0.346326  1
  Pd  Pd14  1  0.002270  0.997730  0.653674  1
  Pd  Pd15  1  0.653674  0.346326  0.002270  1
  Pd  Pd16  1  0.346326  0.653674  0.997730  1
  Pd  Pd17  1  0.384762  0.385554  0.385554  1
  Pd  Pd18  1  0.615238  0.614446  0.614446  1
  Pd  Pd19  1  0.385554  0.384762  0.844130  1
  Pd  Pd20  1  0.385554  0.844130  0.384762  1
  Pd  Pd21  1  0.614446  0.615238  0.155870  1
  Pd  Pd22  1  0.614446  0.155870  0.615238  1
  Pd  Pd23  1  0.844130  0.385554  0.385554  1
  Pd  Pd24  1  0.155870  0.614446  0.614446  1
  Pt  Pt25  1  0.345168  0.000000  0.000000  1
  Pt  Pt26  1  0.654832  0.000000  0.000000  1
  Pt  Pt27  1  0.000000  0.345168  0.654832  1
  Pt  Pt28  1  0.000000  0.654832  0.345168  1
