# generated using pymatgen
data_K2PaCl6
_symmetry_space_group_name_H-M   'P 1'
_cell_length_a   8.23019100
_cell_length_b   7.57801105
_cell_length_c   12.53299671
_cell_angle_alpha   55.20328624
_cell_angle_beta   90.00000000
_cell_angle_gamma   90.00000000
_symmetry_Int_Tables_number   1
_chemical_formula_structural   K2PaCl6
_chemical_formula_sum   'K4 Pa2 Cl12'
_cell_volume   641.88830670
_cell_formula_units_Z   2
loop_
 _symmetry_equiv_pos_site_id
 _symmetry_equiv_pos_as_xyz
  1  'x, y, z'
loop_
 _atom_site_type_symbol
 _atom_site_label
 _atom_site_symmetry_multiplicity
 _atom_site_fract_x
 _atom_site_fract_y
 _atom_site_fract_z
 _atom_site_occupancy
  K  K0  1  0.084278  0.734452  0.748804  1
  K  K1  1  0.915722  0.265548  0.251196  1
  K  K2  1  0.584278  0.265548  0.751196  1
  K  K3  1  0.415722  0.734452  0.248804  1
  Pa  Pa4  1  0.500000  0.000000  0.500000  1
  Pa  Pa5  1  0.000000  0.000000  0.000000  1
  Cl  Cl6  1  0.346870  0.648076  0.554649  1
  Cl  Cl7  1  0.653130  0.351924  0.445351  1
  Cl  Cl8  1  0.846870  0.351924  0.945351  1
  Cl  Cl9  1  0.153130  0.648076  0.054649  1
  Cl  Cl10  1  0.784458  0.799480  0.558265  1
  Cl  Cl11  1  0.215542  0.200520  0.441735  1
  Cl  Cl12  1  0.284458  0.200520  0.941735  1
  Cl  Cl13  1  0.715542  0.799480  0.058265  1
  Cl  Cl14  1  0.457125  0.873133  0.743403  1
  Cl  Cl15  1  0.542875  0.126867  0.256597  1
  Cl  Cl16  1  0.957125  0.126867  0.756597  1
  Cl  Cl17  1  0.042875  0.873133  0.243403  1
