# generated using pymatgen
data_TaTl5O5
_symmetry_space_group_name_H-M   'P 1'
_cell_length_a   8.01230100
_cell_length_b   8.01229968
_cell_length_c   13.76946400
_cell_angle_alpha   90.00000000
_cell_angle_beta   90.00000000
_cell_angle_gamma   95.15445272
_symmetry_Int_Tables_number   1
_chemical_formula_structural   TaTl5O5
_chemical_formula_sum   'Ta4 Tl20 O20'
_cell_volume   880.38307678
_cell_formula_units_Z   4
loop_
 _symmetry_equiv_pos_site_id
 _symmetry_equiv_pos_as_xyz
  1  'x, y, z'
loop_
 _atom_site_type_symbol
 _atom_site_label
 _atom_site_symmetry_multiplicity
 _atom_site_fract_x
 _atom_site_fract_y
 _atom_site_fract_z
 _atom_site_occupancy
  Ta  Ta0  1  0.247185  0.752815  0.394812  1
  Ta  Ta1  1  0.752815  0.247185  0.894812  1
  Ta  Ta2  1  0.010180  0.989820  0.981016  1
  Ta  Ta3  1  0.989820  0.010180  0.481016  1
  Tl  Tl4  1  0.736218  0.263782  0.600269  1
  Tl  Tl5  1  0.263782  0.736218  0.100269  1
  Tl  Tl6  1  0.484744  0.515256  0.257432  1
  Tl  Tl7  1  0.515256  0.484744  0.757432  1
  Tl  Tl8  1  0.318504  0.357168  0.505915  1
  Tl  Tl9  1  0.681496  0.642832  0.005915  1
  Tl  Tl10  1  0.642832  0.681496  0.505915  1
  Tl  Tl11  1  0.357168  0.318504  0.005915  1
  Tl  Tl12  1  0.199128  0.123382  0.246306  1
  Tl  Tl13  1  0.800872  0.876618  0.746306  1
  Tl  Tl14  1  0.876618  0.800872  0.246306  1
  Tl  Tl15  1  0.123382  0.199128  0.746306  1
  Tl  Tl16  1  0.963129  0.367971  0.112694  1
  Tl  Tl17  1  0.036871  0.632029  0.612694  1
  Tl  Tl18  1  0.632029  0.036871  0.112694  1
  Tl  Tl19  1  0.367971  0.963129  0.612694  1
  Tl  Tl20  1  0.920414  0.403318  0.364746  1
  Tl  Tl21  1  0.079586  0.596682  0.864746  1
  Tl  Tl22  1  0.596682  0.079586  0.364746  1
  Tl  Tl23  1  0.403318  0.920414  0.864746  1
  O  O24  1  0.065305  0.934695  0.843545  1
  O  O25  1  0.934695  0.065305  0.343545  1
  O  O26  1  0.945543  0.054457  0.115077  1
  O  O27  1  0.054457  0.945543  0.615077  1
  O  O28  1  0.817593  0.182407  0.760861  1
  O  O29  1  0.182407  0.817593  0.260861  1
  O  O30  1  0.690833  0.309167  0.032787  1
  O  O31  1  0.309167  0.690833  0.532787  1
  O  O32  1  0.250146  0.019329  0.013232  1
  O  O33  1  0.749854  0.980671  0.513232  1
  O  O34  1  0.980671  0.749854  0.013232  1
  O  O35  1  0.019329  0.250146  0.513232  1
  O  O36  1  0.487901  0.778422  0.360968  1
  O  O37  1  0.512099  0.221578  0.860968  1
  O  O38  1  0.221578  0.512099  0.360968  1
  O  O39  1  0.778422  0.487901  0.860968  1
  O  O40  1  0.244118  0.000012  0.439937  1
  O  O41  1  0.755882  0.999988  0.939937  1
  O  O42  1  0.999988  0.755882  0.439937  1
  O  O43  1  0.000012  0.244118  0.939937  1
