# generated using pymatgen
data_Er5TmMnSb2
_symmetry_space_group_name_H-M   'P 1'
_cell_length_a   8.08957600
_cell_length_b   8.08663748
_cell_length_c   4.20628400
_cell_angle_alpha   90.00000000
_cell_angle_beta   90.00000000
_cell_angle_gamma   120.01202125
_symmetry_Int_Tables_number   1
_chemical_formula_structural   Er5TmMnSb2
_chemical_formula_sum   'Er5 Tm1 Mn1 Sb2'
_cell_volume   238.27053319
_cell_formula_units_Z   1
loop_
 _symmetry_equiv_pos_site_id
 _symmetry_equiv_pos_as_xyz
  1  'x, y, z'
loop_
 _atom_site_type_symbol
 _atom_site_label
 _atom_site_symmetry_multiplicity
 _atom_site_fract_x
 _atom_site_fract_y
 _atom_site_fract_z
 _atom_site_occupancy
  Er  Er0  1  0.000130  0.236063  0.500000  1
  Er  Er1  1  0.764067  0.763937  0.500000  1
  Er  Er2  1  0.603057  0.000000  0.000000  1
  Er  Er3  1  0.000213  0.603754  0.000000  1
  Er  Er4  1  0.396459  0.396246  0.000000  1
  Tm  Tm5  1  0.235724  0.000000  0.500000  1
  Mn  Mn6  1  0.000824  0.000000  0.000000  1
  Sb  Sb7  1  0.333383  0.667240  0.500000  1
  Sb  Sb8  1  0.666144  0.332760  0.500000  1
