# generated using pymatgen
data_Y2Tm14CdIn3Ir4
_symmetry_space_group_name_H-M   'P 1'
_cell_length_a   9.55594891
_cell_length_b   9.56617297
_cell_length_c   9.55925900
_cell_angle_alpha   60.02390903
_cell_angle_beta   59.98854431
_cell_angle_gamma   59.94286632
_symmetry_Int_Tables_number   1
_chemical_formula_structural   Y2Tm14CdIn3Ir4
_chemical_formula_sum   'Y2 Tm14 Cd1 In3 Ir4'
_cell_volume   617.69509853
_cell_formula_units_Z   1
loop_
 _symmetry_equiv_pos_site_id
 _symmetry_equiv_pos_as_xyz
  1  'x, y, z'
loop_
 _atom_site_type_symbol
 _atom_site_label
 _atom_site_symmetry_multiplicity
 _atom_site_fract_x
 _atom_site_fract_y
 _atom_site_fract_z
 _atom_site_occupancy
  Y  Y0  1  0.565425  0.562783  0.935896  1
  Y  Y1  1  0.940036  0.936528  0.561718  1
  Tm  Tm2  1  0.349956  0.349153  0.346329  1
  Tm  Tm3  1  0.349956  0.349153  0.954562  1
  Tm  Tm4  1  0.349467  0.952862  0.348836  1
  Tm  Tm5  1  0.951825  0.349466  0.349355  1
  Tm  Tm6  1  0.808135  0.190633  0.192545  1
  Tm  Tm7  1  0.189470  0.809707  0.810047  1
  Tm  Tm8  1  0.189470  0.809707  0.190776  1
  Tm  Tm9  1  0.808135  0.190633  0.808687  1
  Tm  Tm10  1  0.190559  0.190359  0.809541  1
  Tm  Tm11  1  0.807559  0.807958  0.192242  1
  Tm  Tm12  1  0.942424  0.559687  0.559597  1
  Tm  Tm13  1  0.560620  0.940278  0.939872  1
  Tm  Tm14  1  0.560620  0.940278  0.559231  1
  Tm  Tm15  1  0.942424  0.559687  0.938292  1
  Cd  Cd16  1  0.252755  0.581189  0.583029  1
  In  In17  1  0.581031  0.583844  0.583218  1
  In  In18  1  0.581031  0.583844  0.251909  1
  In  In19  1  0.580283  0.251265  0.584227  1
  Ir  Ir20  1  0.141513  0.142194  0.140085  1
  Ir  Ir21  1  0.141513  0.142194  0.576209  1
  Ir  Ir22  1  0.138664  0.577252  0.142043  1
  Ir  Ir23  1  0.577131  0.139350  0.141760  1
