# generated using pymatgen
data_Th3Ta2InRh10
_symmetry_space_group_name_H-M   'P 1'
_cell_length_a   4.30323600
_cell_length_b   5.86793653
_cell_length_c   11.51373300
_cell_angle_alpha   88.76934120
_cell_angle_beta   90.00000000
_cell_angle_gamma   90.00000000
_symmetry_Int_Tables_number   1
_chemical_formula_structural   Th3Ta2InRh10
_chemical_formula_sum   'Th3 Ta2 In1 Rh10'
_cell_volume   290.66754195
_cell_formula_units_Z   1
loop_
 _symmetry_equiv_pos_site_id
 _symmetry_equiv_pos_as_xyz
  1  'x, y, z'
loop_
 _atom_site_type_symbol
 _atom_site_label
 _atom_site_symmetry_multiplicity
 _atom_site_fract_x
 _atom_site_fract_y
 _atom_site_fract_z
 _atom_site_occupancy
  Th  Th0  1  0.500000  0.177883  0.642638  1
  Th  Th1  1  0.500000  0.821981  0.354055  1
  Th  Th2  1  0.500000  0.667294  0.859788  1
  Ta  Ta3  1  0.500000  0.341633  0.144330  1
  Ta  Ta4  1  0.000000  0.025111  0.010701  1
  In  In5  1  0.000000  0.497328  0.496606  1
  Rh  Rh6  1  0.500000  0.176419  0.911652  1
  Rh  Rh7  1  0.500000  0.800392  0.100364  1
  Rh  Rh8  1  0.500000  0.698710  0.612254  1
  Rh  Rh9  1  0.500000  0.304519  0.369581  1
  Rh  Rh10  1  0.000000  0.429002  0.750624  1
  Rh  Rh11  1  0.000000  0.560289  0.243378  1
  Rh  Rh12  1  0.000000  0.001348  0.495710  1
  Rh  Rh13  1  0.000000  0.476493  0.011523  1
  Rh  Rh14  1  0.000000  0.090709  0.230106  1
  Rh  Rh15  1  0.000000  0.930891  0.766689  1
