# generated using pymatgen
data_Yb10ZnNi4Bi
_symmetry_space_group_name_H-M   'P 1'
_cell_length_a   8.86993510
_cell_length_b   8.86993399
_cell_length_c   8.86993600
_cell_angle_alpha   129.38733877
_cell_angle_beta   129.38732454
_cell_angle_gamma   74.38812834
_symmetry_Int_Tables_number   1
_chemical_formula_structural   Yb10ZnNi4Bi
_chemical_formula_sum   'Yb10 Zn1 Ni4 Bi1'
_cell_volume   406.29741495
_cell_formula_units_Z   1
loop_
 _symmetry_equiv_pos_site_id
 _symmetry_equiv_pos_as_xyz
  1  'x, y, z'
loop_
 _atom_site_type_symbol
 _atom_site_label
 _atom_site_symmetry_multiplicity
 _atom_site_fract_x
 _atom_site_fract_y
 _atom_site_fract_z
 _atom_site_occupancy
  Yb  Yb0  1  0.995667  0.995659  0.999969  1
  Yb  Yb1  1  0.504341  0.504333  0.000031  1
  Yb  Yb2  1  0.805896  0.295454  0.838212  1
  Yb  Yb3  1  0.204546  0.694104  0.161788  1
  Yb  Yb4  1  0.457306  0.967618  0.161740  1
  Yb  Yb5  1  0.295606  0.457260  0.489630  1
  Yb  Yb6  1  0.042740  0.204394  0.510370  1
  Yb  Yb7  1  0.532382  0.042694  0.838260  1
  Yb  Yb8  1  0.694061  0.532368  0.489622  1
  Yb  Yb9  1  0.967632  0.805939  0.510378  1
  Zn  Zn10  1  0.250015  0.249985  0.000000  1
  Ni  Ni11  1  0.112258  0.612679  0.725505  1
  Ni  Ni12  1  0.887321  0.387742  0.274495  1
  Ni  Ni13  1  0.613190  0.886810  0.500000  1
  Ni  Ni14  1  0.387013  0.112987  0.500000  1
  Bi  Bi15  1  0.750026  0.749974  0.000000  1
