# generated using pymatgen
data_Yb8Cu2SbPd22
_symmetry_space_group_name_H-M   'P 1'
_cell_length_a   8.19019000
_cell_length_b   8.39022600
_cell_length_c   8.39022600
_cell_angle_alpha   90.00000000
_cell_angle_beta   90.00000000
_cell_angle_gamma   90.00000000
_symmetry_Int_Tables_number   1
_chemical_formula_structural   Yb8Cu2SbPd22
_chemical_formula_sum   'Yb8 Cu2 Sb1 Pd22'
_cell_volume   576.55573341
_cell_formula_units_Z   1
loop_
 _symmetry_equiv_pos_site_id
 _symmetry_equiv_pos_as_xyz
  1  'x, y, z'
loop_
 _atom_site_type_symbol
 _atom_site_label
 _atom_site_symmetry_multiplicity
 _atom_site_fract_x
 _atom_site_fract_y
 _atom_site_fract_z
 _atom_site_occupancy
  Yb  Yb0  1  0.747492  0.745710  0.254290  1
  Yb  Yb1  1  0.747492  0.254290  0.745710  1
  Yb  Yb2  1  0.252405  0.748928  0.748928  1
  Yb  Yb3  1  0.747492  0.745710  0.745710  1
  Yb  Yb4  1  0.747492  0.254290  0.254290  1
  Yb  Yb5  1  0.252405  0.251072  0.748928  1
  Yb  Yb6  1  0.252405  0.748928  0.251072  1
  Yb  Yb7  1  0.252405  0.251072  0.251072  1
  Cu  Cu8  1  0.728178  0.000000  0.500000  1
  Cu  Cu9  1  0.728178  0.500000  0.000000  1
  Sb  Sb10  1  0.010539  0.000000  0.000000  1
  Pd  Pd11  1  0.986010  0.000000  0.311827  1
  Pd  Pd12  1  0.507820  0.000000  0.726052  1
  Pd  Pd13  1  0.000682  0.734146  0.500000  1
  Pd  Pd14  1  0.507820  0.000000  0.273948  1
  Pd  Pd15  1  0.000682  0.265854  0.500000  1
  Pd  Pd16  1  0.507820  0.726052  0.000000  1
  Pd  Pd17  1  0.258722  0.500000  0.500000  1
  Pd  Pd18  1  0.503012  0.500000  0.746893  1
  Pd  Pd19  1  0.503012  0.500000  0.253107  1
  Pd  Pd20  1  0.503012  0.253107  0.500000  1
  Pd  Pd21  1  0.503012  0.746893  0.500000  1
  Pd  Pd22  1  0.744054  0.500000  0.500000  1
  Pd  Pd23  1  0.326318  0.000000  0.000000  1
  Pd  Pd24  1  0.986010  0.000000  0.688173  1
  Pd  Pd25  1  0.000682  0.500000  0.265854  1
  Pd  Pd26  1  0.986010  0.311827  0.000000  1
  Pd  Pd27  1  0.986010  0.688173  0.000000  1
  Pd  Pd28  1  0.693133  0.000000  0.000000  1
  Pd  Pd29  1  0.260596  0.500000  0.000000  1
  Pd  Pd30  1  0.260596  0.000000  0.500000  1
  Pd  Pd31  1  0.000682  0.500000  0.734146  1
  Pd  Pd32  1  0.507820  0.273948  0.000000  1
