# generated using pymatgen
data_Sc4ReCl4
_symmetry_space_group_name_H-M   'P 1'
_cell_length_a   8.09120897
_cell_length_b   8.09120941
_cell_length_c   6.21195065
_cell_angle_alpha   89.42262294
_cell_angle_beta   89.42262629
_cell_angle_gamma   89.34163447
_symmetry_Int_Tables_number   1
_chemical_formula_structural   Sc4ReCl4
_chemical_formula_sum   'Sc8 Re2 Cl8'
_cell_volume   406.61423672
_cell_formula_units_Z   2
loop_
 _symmetry_equiv_pos_site_id
 _symmetry_equiv_pos_as_xyz
  1  'x, y, z'
loop_
 _atom_site_type_symbol
 _atom_site_label
 _atom_site_symmetry_multiplicity
 _atom_site_fract_x
 _atom_site_fract_y
 _atom_site_fract_z
 _atom_site_occupancy
  Sc  Sc0  1  0.103927  0.741200  0.983002  1
  Sc  Sc1  1  0.258800  0.896073  0.516998  1
  Sc  Sc2  1  0.896073  0.258800  0.016998  1
  Sc  Sc3  1  0.741200  0.103927  0.483002  1
  Sc  Sc4  1  0.742857  0.897326  0.012639  1
  Sc  Sc5  1  0.102674  0.257143  0.487361  1
  Sc  Sc6  1  0.257143  0.102674  0.987361  1
  Sc  Sc7  1  0.897326  0.742857  0.512639  1
  Re  Re8  1  0.009751  0.990249  0.250000  1
  Re  Re9  1  0.990249  0.009751  0.750000  1
  Cl  Cl10  1  0.422244  0.819205  0.898340  1
  Cl  Cl11  1  0.180795  0.577756  0.601660  1
  Cl  Cl12  1  0.577756  0.180795  0.101660  1
  Cl  Cl13  1  0.819205  0.422244  0.398340  1
  Cl  Cl14  1  0.807129  0.581320  0.896272  1
  Cl  Cl15  1  0.418680  0.192871  0.603728  1
  Cl  Cl16  1  0.192871  0.418680  0.103728  1
  Cl  Cl17  1  0.581320  0.807129  0.396272  1
