# generated using pymatgen
data_Gd4MnRh3O14
_symmetry_space_group_name_H-M   'P 1'
_cell_length_a   7.24783620
_cell_length_b   7.24783773
_cell_length_c   7.26954050
_cell_angle_alpha   60.09870541
_cell_angle_beta   60.09870209
_cell_angle_gamma   60.00000299
_symmetry_Int_Tables_number   1
_chemical_formula_structural   Gd4MnRh3O14
_chemical_formula_sum   'Gd4 Mn1 Rh3 O14'
_cell_volume   270.43015773
_cell_formula_units_Z   1
loop_
 _symmetry_equiv_pos_site_id
 _symmetry_equiv_pos_as_xyz
  1  'x, y, z'
loop_
 _atom_site_type_symbol
 _atom_site_label
 _atom_site_symmetry_multiplicity
 _atom_site_fract_x
 _atom_site_fract_y
 _atom_site_fract_z
 _atom_site_occupancy
  Gd  Gd0  1  0.125000  0.625000  0.125000  1
  Gd  Gd1  1  0.125000  0.125000  0.625000  1
  Gd  Gd2  1  0.625000  0.125000  0.125000  1
  Gd  Gd3  1  0.125000  0.125000  0.125000  1
  Mn  Mn4  1  0.625000  0.625000  0.125000  1
  Rh  Rh5  1  0.625000  0.625000  0.625000  1
  Rh  Rh6  1  0.125000  0.625000  0.625000  1
  Rh  Rh7  1  0.625000  0.125000  0.625000  1
  O  O8  1  0.290482  0.709729  0.709306  1
  O  O9  1  0.542778  0.953116  0.961328  1
  O  O10  1  0.707222  0.707222  0.288672  1
  O  O11  1  0.290482  0.290482  0.709306  1
  O  O12  1  0.000071  0.000071  0.999787  1
  O  O13  1  0.709729  0.290482  0.709306  1
  O  O14  1  0.296884  0.707222  0.288672  1
  O  O15  1  0.953116  0.542778  0.961328  1
  O  O16  1  0.542778  0.542778  0.961328  1
  O  O17  1  0.959518  0.959518  0.540694  1
  O  O18  1  0.249929  0.249929  0.250213  1
  O  O19  1  0.540271  0.959518  0.540694  1
  O  O20  1  0.707222  0.296884  0.288672  1
  O  O21  1  0.959518  0.540271  0.540694  1
