# generated using pymatgen
data_HfSnBr6
_symmetry_space_group_name_H-M   'P 1'
_cell_length_a   7.21241300
_cell_length_b   7.21241149
_cell_length_c   6.96300300
_cell_angle_alpha   90.00000000
_cell_angle_beta   90.00000000
_cell_angle_gamma   119.99999318
_symmetry_Int_Tables_number   1
_chemical_formula_structural   HfSnBr6
_chemical_formula_sum   'Hf1 Sn1 Br6'
_cell_volume   313.68108231
_cell_formula_units_Z   1
loop_
 _symmetry_equiv_pos_site_id
 _symmetry_equiv_pos_as_xyz
  1  'x, y, z'
loop_
 _atom_site_type_symbol
 _atom_site_label
 _atom_site_symmetry_multiplicity
 _atom_site_fract_x
 _atom_site_fract_y
 _atom_site_fract_z
 _atom_site_occupancy
  Hf  Hf0  1  0.333333  0.666667  0.000000  1
  Sn  Sn1  1  0.666667  0.333333  0.000000  1
  Br  Br2  1  0.628047  0.664893  0.221413  1
  Br  Br3  1  0.335107  0.371953  0.778587  1
  Br  Br4  1  0.036846  0.371953  0.221413  1
  Br  Br5  1  0.335107  0.963154  0.221413  1
  Br  Br6  1  0.628047  0.963154  0.778587  1
  Br  Br7  1  0.036846  0.664893  0.778587  1
