# generated using pymatgen
data_CaPr4Nd2CoI12
_symmetry_space_group_name_H-M   'P 1'
_cell_length_a   9.96152023
_cell_length_b   10.08108159
_cell_length_c   10.07561435
_cell_angle_alpha   106.94794355
_cell_angle_beta   107.07366968
_cell_angle_gamma   106.78996771
_symmetry_Int_Tables_number   1
_chemical_formula_structural   CaPr4Nd2CoI12
_chemical_formula_sum   'Ca1 Pr4 Nd2 Co1 I12'
_cell_volume   844.09090045
_cell_formula_units_Z   1
loop_
 _symmetry_equiv_pos_site_id
 _symmetry_equiv_pos_as_xyz
  1  'x, y, z'
loop_
 _atom_site_type_symbol
 _atom_site_label
 _atom_site_symmetry_multiplicity
 _atom_site_fract_x
 _atom_site_fract_y
 _atom_site_fract_z
 _atom_site_occupancy
  Ca  Ca0  1  0.500000  0.500000  0.500000  1
  Pr  Pr1  1  0.100613  0.305064  0.025974  1
  Pr  Pr2  1  0.289367  0.025047  0.094932  1
  Pr  Pr3  1  0.899387  0.694936  0.974026  1
  Pr  Pr4  1  0.710633  0.974953  0.905068  1
  Nd  Nd5  1  0.974356  0.900005  0.695970  1
  Nd  Nd6  1  0.025644  0.099995  0.304030  1
  Co  Co7  1  0.000000  0.000000  0.000000  1
  I  I8  1  0.536297  0.617150  0.840293  1
  I  I9  1  0.463703  0.382850  0.159707  1
  I  I10  1  0.318737  0.927005  0.773870  1
  I  I11  1  0.382950  0.158573  0.461325  1
  I  I12  1  0.927495  0.775774  0.320474  1
  I  I13  1  0.681263  0.072995  0.226130  1
  I  I14  1  0.072505  0.224226  0.679526  1
  I  I15  1  0.770660  0.317990  0.925664  1
  I  I16  1  0.229340  0.682010  0.074336  1
  I  I17  1  0.843776  0.540010  0.617315  1
  I  I18  1  0.156224  0.459990  0.382685  1
  I  I19  1  0.617050  0.841427  0.538675  1
