# generated using pymatgen
data_Ce3Zn3CuIrAu
_symmetry_space_group_name_H-M   'P 1'
_cell_length_a   7.32062400
_cell_length_b   7.32062456
_cell_length_c   3.97591500
_cell_angle_alpha   90.00000000
_cell_angle_beta   90.00000000
_cell_angle_gamma   119.99999748
_symmetry_Int_Tables_number   1
_chemical_formula_structural   Ce3Zn3CuIrAu
_chemical_formula_sum   'Ce3 Zn3 Cu1 Ir1 Au1'
_cell_volume   184.52872016
_cell_formula_units_Z   1
loop_
 _symmetry_equiv_pos_site_id
 _symmetry_equiv_pos_as_xyz
  1  'x, y, z'
loop_
 _atom_site_type_symbol
 _atom_site_label
 _atom_site_symmetry_multiplicity
 _atom_site_fract_x
 _atom_site_fract_y
 _atom_site_fract_z
 _atom_site_occupancy
  Ce  Ce0  1  0.984187  0.405572  0.000000  1
  Ce  Ce1  1  0.594428  0.578616  0.000000  1
  Ce  Ce2  1  0.421384  0.015813  0.000000  1
  Zn  Zn3  1  0.998972  0.764518  0.500000  1
  Zn  Zn4  1  0.235482  0.234454  0.500000  1
  Zn  Zn5  1  0.765546  0.001028  0.500000  1
  Cu  Cu6  1  0.000000  0.000000  0.000000  1
  Ir  Ir7  1  0.666667  0.333333  0.500000  1
  Au  Au8  1  0.333333  0.666667  0.500000  1
