# generated using pymatgen
data_Sm8Gd12Si15Sb
_symmetry_space_group_name_H-M   'P 1'
_cell_length_a   7.55990800
_cell_length_b   7.82967919
_cell_length_c   14.82358400
_cell_angle_alpha   90.00000000
_cell_angle_beta   90.00000000
_cell_angle_gamma   89.75227081
_symmetry_Int_Tables_number   1
_chemical_formula_structural   Sm8Gd12Si15Sb
_chemical_formula_sum   'Sm8 Gd12 Si15 Sb1'
_cell_volume   877.42425826
_cell_formula_units_Z   1
loop_
 _symmetry_equiv_pos_site_id
 _symmetry_equiv_pos_as_xyz
  1  'x, y, z'
loop_
 _atom_site_type_symbol
 _atom_site_label
 _atom_site_symmetry_multiplicity
 _atom_site_fract_x
 _atom_site_fract_y
 _atom_site_fract_z
 _atom_site_occupancy
  Sm  Sm0  1  0.981430  0.825450  0.092299  1
  Sm  Sm1  1  0.465798  0.682515  0.402568  1
  Sm  Sm2  1  0.529478  0.315007  0.900456  1
  Sm  Sm3  1  0.029017  0.186397  0.600027  1
  Sm  Sm4  1  0.029017  0.186397  0.899973  1
  Sm  Sm5  1  0.529478  0.315007  0.599544  1
  Sm  Sm6  1  0.465798  0.682515  0.097432  1
  Sm  Sm7  1  0.981430  0.825450  0.407701  1
  Gd  Gd8  1  0.641114  0.006930  0.250000  1
  Gd  Gd9  1  0.157939  0.504735  0.250000  1
  Gd  Gd10  1  0.853551  0.484541  0.750000  1
  Gd  Gd11  1  0.352561  0.014957  0.750000  1
  Gd  Gd12  1  0.682194  0.819822  0.877177  1
  Gd  Gd13  1  0.183021  0.679237  0.623013  1
  Gd  Gd14  1  0.819905  0.315103  0.120263  1
  Gd  Gd15  1  0.311467  0.178305  0.379969  1
  Gd  Gd16  1  0.311467  0.178305  0.120031  1
  Gd  Gd17  1  0.819905  0.315103  0.379737  1
  Gd  Gd18  1  0.183021  0.679237  0.876987  1
  Gd  Gd19  1  0.682194  0.819822  0.622823  1
  Si  Si20  1  0.264022  0.875894  0.250000  1
  Si  Si21  1  0.736562  0.120823  0.750000  1
  Si  Si22  1  0.238063  0.378191  0.750000  1
  Si  Si23  1  0.020641  0.103007  0.250000  1
  Si  Si24  1  0.516253  0.376275  0.250000  1
  Si  Si25  1  0.476704  0.603226  0.750000  1
  Si  Si26  1  0.975519  0.896424  0.750000  1
  Si  Si27  1  0.856937  0.530742  0.960527  1
  Si  Si28  1  0.355759  0.968660  0.540518  1
  Si  Si29  1  0.640600  0.024831  0.040394  1
  Si  Si30  1  0.141369  0.472760  0.460048  1
  Si  Si31  1  0.141369  0.472760  0.039952  1
  Si  Si32  1  0.640600  0.024831  0.459606  1
  Si  Si33  1  0.355759  0.968660  0.959482  1
  Si  Si34  1  0.856937  0.530742  0.539473  1
  Sb  Sb35  1  0.773125  0.637341  0.250000  1
