# generated using pymatgen
data_Nd3Er2ThGa4
_symmetry_space_group_name_H-M   'P 1'
_cell_length_a   7.71928934
_cell_length_b   7.71928934
_cell_length_c   4.51950800
_cell_angle_alpha   90.00000000
_cell_angle_beta   90.00000000
_cell_angle_gamma   89.89336955
_symmetry_Int_Tables_number   1
_chemical_formula_structural   Nd3Er2ThGa4
_chemical_formula_sum   'Nd3 Er2 Th1 Ga4'
_cell_volume   269.30539093
_cell_formula_units_Z   1
loop_
 _symmetry_equiv_pos_site_id
 _symmetry_equiv_pos_as_xyz
  1  'x, y, z'
loop_
 _atom_site_type_symbol
 _atom_site_label
 _atom_site_symmetry_multiplicity
 _atom_site_fract_x
 _atom_site_fract_y
 _atom_site_fract_z
 _atom_site_occupancy
  Nd  Nd0  1  0.825849  0.325438  0.500000  1
  Nd  Nd1  1  0.174561  0.674150  0.500000  1
  Nd  Nd2  1  0.674229  0.825770  0.500000  1
  Er  Er3  1  0.999797  0.999616  0.000000  1
  Er  Er4  1  0.500384  0.500203  0.000000  1
  Th  Th5  1  0.326222  0.173777  0.500000  1
  Ga  Ga6  1  0.619290  0.121119  0.000000  1
  Ga  Ga7  1  0.121180  0.378819  0.000000  1
  Ga  Ga8  1  0.879606  0.620394  0.000000  1
  Ga  Ga9  1  0.378880  0.880710  0.000000  1
