# generated using pymatgen
data_TmLu3B12OsW
_symmetry_space_group_name_H-M   'P 1'
_cell_length_a   3.57865900
_cell_length_b   9.12922700
_cell_length_c   11.51573301
_cell_angle_alpha   89.83507621
_cell_angle_beta   90.00000000
_cell_angle_gamma   90.00000000
_symmetry_Int_Tables_number   1
_chemical_formula_structural   TmLu3B12OsW
_chemical_formula_sum   'Tm2 Lu6 B24 Os2 W2'
_cell_volume   376.22193414
_cell_formula_units_Z   2
loop_
 _symmetry_equiv_pos_site_id
 _symmetry_equiv_pos_as_xyz
  1  'x, y, z'
loop_
 _atom_site_type_symbol
 _atom_site_label
 _atom_site_symmetry_multiplicity
 _atom_site_fract_x
 _atom_site_fract_y
 _atom_site_fract_z
 _atom_site_occupancy
  Tm  Tm0  1  0.000000  0.321441  0.413939  1
  Tm  Tm1  1  0.000000  0.678559  0.586061  1
  Lu  Lu2  1  0.000000  0.820704  0.086434  1
  Lu  Lu3  1  0.000000  0.179296  0.913566  1
  Lu  Lu4  1  0.000000  0.945167  0.371646  1
  Lu  Lu5  1  0.000000  0.054833  0.628354  1
  Lu  Lu6  1  0.000000  0.442710  0.127085  1
  Lu  Lu7  1  0.000000  0.557290  0.872915  1
  B  B8  1  0.500000  0.551163  0.434729  1
  B  B9  1  0.500000  0.448837  0.565271  1
  B  B10  1  0.500000  0.053801  0.065867  1
  B  B11  1  0.500000  0.946199  0.934133  1
  B  B12  1  0.500000  0.752338  0.422035  1
  B  B13  1  0.500000  0.247662  0.577965  1
  B  B14  1  0.500000  0.249583  0.080028  1
  B  B15  1  0.500000  0.750417  0.919972  1
  B  B16  1  0.500000  0.796897  0.262509  1
  B  B17  1  0.500000  0.203103  0.737490  1
  B  B18  1  0.500000  0.290922  0.233643  1
  B  B19  1  0.500000  0.709078  0.766358  1
  B  B20  1  0.500000  0.631548  0.180903  1
  B  B21  1  0.500000  0.368452  0.819097  1
  B  B22  1  0.500000  0.130177  0.314019  1
  B  B23  1  0.500000  0.869823  0.685981  1
  B  B24  1  0.500000  0.982335  0.211561  1
  B  B25  1  0.500000  0.017665  0.788439  1
  B  B26  1  0.500000  0.476631  0.286013  1
  B  B27  1  0.500000  0.523369  0.713987  1
  B  B28  1  0.500000  0.602956  0.027433  1
  B  B29  1  0.500000  0.397044  0.972567  1
  B  B30  1  0.500000  0.102035  0.470831  1
  B  B31  1  0.500000  0.897965  0.529169  1
  Os  Os32  1  0.000000  0.137715  0.177888  1
  Os  Os33  1  0.000000  0.862285  0.822112  1
  W  W34  1  0.000000  0.639048  0.319128  1
  W  W35  1  0.000000  0.360952  0.680872  1
