# generated using pymatgen
data_Dy10Cd7InAu4
_symmetry_space_group_name_H-M   'P 1'
_cell_length_a   3.65276900
_cell_length_b   8.17238036
_cell_length_c   18.53262519
_cell_angle_alpha   89.94841514
_cell_angle_beta   90.00000000
_cell_angle_gamma   90.00000000
_symmetry_Int_Tables_number   1
_chemical_formula_structural   Dy10Cd7InAu4
_chemical_formula_sum   'Dy10 Cd7 In1 Au4'
_cell_volume   553.23232328
_cell_formula_units_Z   1
loop_
 _symmetry_equiv_pos_site_id
 _symmetry_equiv_pos_as_xyz
  1  'x, y, z'
loop_
 _atom_site_type_symbol
 _atom_site_label
 _atom_site_symmetry_multiplicity
 _atom_site_fract_x
 _atom_site_fract_y
 _atom_site_fract_z
 _atom_site_occupancy
  Dy  Dy0  1  0.500000  0.383305  0.580951  1
  Dy  Dy1  1  0.500000  0.881849  0.919135  1
  Dy  Dy2  1  0.500000  0.116358  0.080707  1
  Dy  Dy3  1  0.500000  0.755652  0.716590  1
  Dy  Dy4  1  0.500000  0.255285  0.782997  1
  Dy  Dy5  1  0.500000  0.499006  0.000014  1
  Dy  Dy6  1  0.500000  0.746851  0.217616  1
  Dy  Dy7  1  0.500000  0.243408  0.283962  1
  Dy  Dy8  1  0.500000  0.001386  0.499203  1
  Dy  Dy9  1  0.500000  0.617461  0.419514  1
  Cd  Cd10  1  0.000000  0.788017  0.066765  1
  Cd  Cd11  1  0.000000  0.928637  0.354335  1
  Cd  Cd12  1  0.000000  0.070997  0.645729  1
  Cd  Cd13  1  0.000000  0.568822  0.854395  1
  Cd  Cd14  1  0.000000  0.714513  0.566862  1
  Cd  Cd15  1  0.000000  0.212885  0.932552  1
  Cd  Cd16  1  0.000000  0.287212  0.432377  1
  In  In17  1  0.000000  0.428645  0.145696  1
  Au  Au18  1  0.000000  0.968171  0.802754  1
  Au  Au19  1  0.000000  0.531264  0.302914  1
  Au  Au20  1  0.000000  0.468726  0.697419  1
  Au  Au21  1  0.000000  0.031549  0.197511  1
