# generated using pymatgen
data_Ho17Th3(Ir5Os)2
_symmetry_space_group_name_H-M   'P 1'
_cell_length_a   10.95004621
_cell_length_b   10.93105889
_cell_length_c   6.35773194
_cell_angle_alpha   90.08398711
_cell_angle_beta   89.71237350
_cell_angle_gamma   90.00484867
_symmetry_Int_Tables_number   1
_chemical_formula_structural   Ho17Th3(Ir5Os)2
_chemical_formula_sum   'Ho17 Th3 Ir10 Os2'
_cell_volume   760.98213010
_cell_formula_units_Z   1
loop_
 _symmetry_equiv_pos_site_id
 _symmetry_equiv_pos_as_xyz
  1  'x, y, z'
loop_
 _atom_site_type_symbol
 _atom_site_label
 _atom_site_symmetry_multiplicity
 _atom_site_fract_x
 _atom_site_fract_y
 _atom_site_fract_z
 _atom_site_occupancy
  Ho  Ho0  1  0.704876  0.909479  0.377607  1
  Ho  Ho1  1  0.591128  0.787963  0.877572  1
  Ho  Ho2  1  0.590718  0.209188  0.377580  1
  Ho  Ho3  1  0.417443  0.788025  0.378439  1
  Ho  Ho4  1  0.411754  0.213836  0.876161  1
  Ho  Ho5  1  0.207974  0.413755  0.621865  1
  Ho  Ho6  1  0.207697  0.587599  0.122063  1
  Ho  Ho7  1  0.791538  0.413834  0.121565  1
  Ho  Ho8  1  0.792194  0.587314  0.620707  1
  Ho  Ho9  1  0.911513  0.707968  0.120562  1
  Ho  Ho10  1  0.913802  0.293273  0.617785  1
  Ho  Ho11  1  0.084701  0.706511  0.619144  1
  Ho  Ho12  1  0.085333  0.293795  0.117308  1
  Ho  Ho13  1  0.995631  0.998642  0.500514  1
  Ho  Ho14  1  0.000245  0.999646  0.001418  1
  Ho  Ho15  1  0.500365  0.500231  0.002862  1
  Ho  Ho16  1  0.501873  0.499171  0.502701  1
  Th  Th17  1  0.295716  0.091624  0.377723  1
  Th  Th18  1  0.294022  0.906943  0.877429  1
  Th  Th19  1  0.704701  0.088480  0.880028  1
  Ir  Ir20  1  0.846447  0.154311  0.244407  1
  Ir  Ir21  1  0.845321  0.846964  0.751910  1
  Ir  Ir22  1  0.154404  0.152579  0.744706  1
  Ir  Ir23  1  0.154804  0.847643  0.248410  1
  Ir  Ir24  1  0.655276  0.347483  0.752324  1
  Ir  Ir25  1  0.655039  0.650608  0.250588  1
  Ir  Ir26  1  0.344579  0.348896  0.254160  1
  Ir  Ir27  1  0.345691  0.652280  0.752158  1
  Ir  Ir28  1  0.999311  0.500286  0.877874  1
  Ir  Ir29  1  0.999641  0.500883  0.378082  1
  Os  Os30  1  0.496735  0.000867  0.124050  1
  Os  Os31  1  0.499527  0.999922  0.630303  1
