# generated using pymatgen
data_Hf3Zn2AuN
_symmetry_space_group_name_H-M   'P 1'
_cell_length_a   8.57235061
_cell_length_b   8.57235085
_cell_length_c   8.57235100
_cell_angle_alpha   59.99999557
_cell_angle_beta   59.99999465
_cell_angle_gamma   59.99999959
_symmetry_Int_Tables_number   1
_chemical_formula_structural   Hf3Zn2AuN
_chemical_formula_sum   'Hf12 Zn8 Au4 N4'
_cell_volume   445.43544972
_cell_formula_units_Z   4
loop_
 _symmetry_equiv_pos_site_id
 _symmetry_equiv_pos_as_xyz
  1  'x, y, z'
loop_
 _atom_site_type_symbol
 _atom_site_label
 _atom_site_symmetry_multiplicity
 _atom_site_fract_x
 _atom_site_fract_y
 _atom_site_fract_z
 _atom_site_occupancy
  Hf  Hf0  1  0.814194  0.185806  0.185806  1
  Hf  Hf1  1  0.185806  0.814194  0.185806  1
  Hf  Hf2  1  0.814194  0.814194  0.185806  1
  Hf  Hf3  1  0.185806  0.814194  0.814194  1
  Hf  Hf4  1  0.814194  0.185806  0.814194  1
  Hf  Hf5  1  0.185806  0.185806  0.814194  1
  Hf  Hf6  1  0.435806  0.064194  0.064194  1
  Hf  Hf7  1  0.064194  0.435806  0.064194  1
  Hf  Hf8  1  0.435806  0.435806  0.064194  1
  Hf  Hf9  1  0.064194  0.435806  0.435806  1
  Hf  Hf10  1  0.435806  0.064194  0.435806  1
  Hf  Hf11  1  0.064194  0.064194  0.435806  1
  Zn  Zn12  1  0.414800  0.414800  0.755598  1
  Zn  Zn13  1  0.414800  0.414800  0.414800  1
  Zn  Zn14  1  0.755598  0.414800  0.414800  1
  Zn  Zn15  1  0.414800  0.755598  0.414800  1
  Zn  Zn16  1  0.835200  0.835200  0.494402  1
  Zn  Zn17  1  0.835200  0.835200  0.835200  1
  Zn  Zn18  1  0.494402  0.835200  0.835200  1
  Zn  Zn19  1  0.835200  0.494402  0.835200  1
  Au  Au20  1  0.625000  0.625000  0.125000  1
  Au  Au21  1  0.625000  0.625000  0.625000  1
  Au  Au22  1  0.125000  0.625000  0.625000  1
  Au  Au23  1  0.625000  0.125000  0.625000  1
  N  N24  1  0.125000  0.125000  0.625000  1
  N  N25  1  0.125000  0.125000  0.125000  1
  N  N26  1  0.625000  0.125000  0.125000  1
  N  N27  1  0.125000  0.625000  0.125000  1
