# generated using pymatgen
data_Tb8Cu3Si12H
_symmetry_space_group_name_H-M   'P 1'
_cell_length_a   7.89970400
_cell_length_b   7.89970457
_cell_length_c   8.29873800
_cell_angle_alpha   90.00000000
_cell_angle_beta   90.00000000
_cell_angle_gamma   119.99999763
_symmetry_Int_Tables_number   1
_chemical_formula_structural   Tb8Cu3Si12H
_chemical_formula_sum   'Tb8 Cu3 Si12 H1'
_cell_volume   448.50197955
_cell_formula_units_Z   1
loop_
 _symmetry_equiv_pos_site_id
 _symmetry_equiv_pos_as_xyz
  1  'x, y, z'
loop_
 _atom_site_type_symbol
 _atom_site_label
 _atom_site_symmetry_multiplicity
 _atom_site_fract_x
 _atom_site_fract_y
 _atom_site_fract_z
 _atom_site_occupancy
  Tb  Tb0  1  0.000000  0.000000  0.743711  1
  Tb  Tb1  1  0.000000  0.000000  0.234053  1
  Tb  Tb2  1  0.500594  0.499406  0.739860  1
  Tb  Tb3  1  0.500594  0.001189  0.739860  1
  Tb  Tb4  1  0.998811  0.499406  0.739860  1
  Tb  Tb5  1  0.498476  0.501524  0.235952  1
  Tb  Tb6  1  0.003048  0.501524  0.235952  1
  Tb  Tb7  1  0.498476  0.996952  0.235952  1
  Cu  Cu8  1  0.666667  0.333333  0.986365  1
  Cu  Cu9  1  0.666667  0.333333  0.492958  1
  Cu  Cu10  1  0.333333  0.666667  0.479006  1
  Si  Si11  1  0.832982  0.167018  0.986751  1
  Si  Si12  1  0.832982  0.665965  0.986751  1
  Si  Si13  1  0.334035  0.167018  0.986751  1
  Si  Si14  1  0.830212  0.169788  0.482527  1
  Si  Si15  1  0.830212  0.660424  0.482527  1
  Si  Si16  1  0.339576  0.169788  0.482527  1
  Si  Si17  1  0.167208  0.832792  0.499585  1
  Si  Si18  1  0.665585  0.832792  0.499585  1
  Si  Si19  1  0.167208  0.334415  0.499585  1
  Si  Si20  1  0.180139  0.819861  0.988733  1
  Si  Si21  1  0.639722  0.819861  0.988733  1
  Si  Si22  1  0.180139  0.360278  0.988733  1
  H  H23  1  0.333333  0.666667  0.263679  1
