# generated using pymatgen
data_Pr6AlSi5Rh12
_symmetry_space_group_name_H-M   'P 1'
_cell_length_a   5.70685000
_cell_length_b   5.70684807
_cell_length_c   15.24015700
_cell_angle_alpha   90.00000000
_cell_angle_beta   90.00000000
_cell_angle_gamma   119.99998801
_symmetry_Int_Tables_number   1
_chemical_formula_structural   Pr6AlSi5Rh12
_chemical_formula_sum   'Pr6 Al1 Si5 Rh12'
_cell_volume   429.84600369
_cell_formula_units_Z   1
loop_
 _symmetry_equiv_pos_site_id
 _symmetry_equiv_pos_as_xyz
  1  'x, y, z'
loop_
 _atom_site_type_symbol
 _atom_site_label
 _atom_site_symmetry_multiplicity
 _atom_site_fract_x
 _atom_site_fract_y
 _atom_site_fract_z
 _atom_site_occupancy
  Pr  Pr0  1  0.666667  0.333333  0.961742  1
  Pr  Pr1  1  0.666667  0.333333  0.537752  1
  Pr  Pr2  1  0.333333  0.666667  0.038258  1
  Pr  Pr3  1  0.666667  0.333333  0.750176  1
  Pr  Pr4  1  0.333333  0.666667  0.462248  1
  Pr  Pr5  1  0.333333  0.666667  0.249824  1
  Al  Al6  1  0.000000  0.000000  0.500000  1
  Si  Si7  1  0.666667  0.333333  0.247868  1
  Si  Si8  1  0.000000  0.000000  0.249046  1
  Si  Si9  1  0.000000  0.000000  0.750954  1
  Si  Si10  1  0.333333  0.666667  0.752132  1
  Si  Si11  1  0.000000  0.000000  0.000000  1
  Rh  Rh12  1  0.165285  0.330571  0.866914  1
  Rh  Rh13  1  0.166691  0.333382  0.636838  1
  Rh  Rh14  1  0.669429  0.834715  0.866914  1
  Rh  Rh15  1  0.333382  0.166691  0.363162  1
  Rh  Rh16  1  0.833309  0.666618  0.363162  1
  Rh  Rh17  1  0.833309  0.166691  0.363162  1
  Rh  Rh18  1  0.834715  0.165285  0.133086  1
  Rh  Rh19  1  0.330571  0.165285  0.133086  1
  Rh  Rh20  1  0.666618  0.833309  0.636838  1
  Rh  Rh21  1  0.166691  0.833309  0.636838  1
  Rh  Rh22  1  0.834715  0.669429  0.133086  1
  Rh  Rh23  1  0.165285  0.834715  0.866914  1
