# generated using pymatgen
data_AlFeH7
_symmetry_space_group_name_H-M   'P 1'
_cell_length_a   2.99417153
_cell_length_b   4.37203626
_cell_length_c   9.58717920
_cell_angle_alpha   124.77488878
_cell_angle_beta   72.39977770
_cell_angle_gamma   109.66181600
_symmetry_Int_Tables_number   1
_chemical_formula_structural   AlFeH7
_chemical_formula_sum   'Al1 Fe1 H7'
_cell_volume   96.08179990
_cell_formula_units_Z   1
loop_
 _symmetry_equiv_pos_site_id
 _symmetry_equiv_pos_as_xyz
  1  'x, y, z'
loop_
 _atom_site_type_symbol
 _atom_site_label
 _atom_site_symmetry_multiplicity
 _atom_site_fract_x
 _atom_site_fract_y
 _atom_site_fract_z
 _atom_site_occupancy
  Al  Al0  1  0.904742  0.140066  0.901253  1
  Fe  Fe1  1  0.186796  0.717316  0.910897  1
  H  H2  1  0.367307  0.777367  0.754748  1
  H  H3  1  0.006035  0.659393  0.066691  1
  H  H4  1  0.256100  0.150009  0.057417  1
  H  H5  1  0.480693  0.888847  0.443061  1
  H  H6  1  0.627709  0.750649  0.988905  1
  H  H7  1  0.488733  0.681317  0.384891  1
  H  H8  1  0.143849  0.297119  0.751492  1
