# generated using pymatgen
data_CdIrF7
_symmetry_space_group_name_H-M   'P 1'
_cell_length_a   7.21487600
_cell_length_b   8.03808300
_cell_length_c   10.56294200
_cell_angle_alpha   90.00000000
_cell_angle_beta   90.00000000
_cell_angle_gamma   90.00000000
_symmetry_Int_Tables_number   1
_chemical_formula_structural   CdIrF7
_chemical_formula_sum   'Cd4 Ir4 F28'
_cell_volume   612.58485129
_cell_formula_units_Z   4
loop_
 _symmetry_equiv_pos_site_id
 _symmetry_equiv_pos_as_xyz
  1  'x, y, z'
loop_
 _atom_site_type_symbol
 _atom_site_label
 _atom_site_symmetry_multiplicity
 _atom_site_fract_x
 _atom_site_fract_y
 _atom_site_fract_z
 _atom_site_occupancy
  Cd  Cd0  1  0.250000  0.137603  0.243962  1
  Cd  Cd1  1  0.750000  0.862397  0.756038  1
  Cd  Cd2  1  0.750000  0.362397  0.743962  1
  Cd  Cd3  1  0.250000  0.637603  0.256038  1
  Ir  Ir4  1  0.250000  0.298838  0.558169  1
  Ir  Ir5  1  0.750000  0.701162  0.441831  1
  Ir  Ir6  1  0.250000  0.798838  0.941831  1
  Ir  Ir7  1  0.750000  0.201162  0.058169  1
  F  F8  1  0.750000  0.411364  0.131559  1
  F  F9  1  0.568954  0.272694  0.934457  1
  F  F10  1  0.933993  0.123124  0.178815  1
  F  F11  1  0.750000  0.986265  0.982559  1
  F  F12  1  0.068954  0.727306  0.065543  1
  F  F13  1  0.066007  0.876876  0.821185  1
  F  F14  1  0.433993  0.876876  0.821185  1
  F  F15  1  0.250000  0.513735  0.482559  1
  F  F16  1  0.931046  0.772694  0.565543  1
  F  F17  1  0.431046  0.227306  0.434457  1
  F  F18  1  0.250000  0.890724  0.313545  1
  F  F19  1  0.750000  0.911364  0.368441  1
  F  F20  1  0.750000  0.486265  0.517441  1
  F  F21  1  0.568954  0.772694  0.565543  1
  F  F22  1  0.250000  0.588636  0.868441  1
  F  F23  1  0.566007  0.623124  0.321185  1
  F  F24  1  0.750000  0.609276  0.813545  1
  F  F25  1  0.250000  0.013735  0.017441  1
  F  F26  1  0.066007  0.376876  0.678815  1
  F  F27  1  0.250000  0.390724  0.186455  1
  F  F28  1  0.933993  0.623124  0.321185  1
  F  F29  1  0.433993  0.376876  0.678815  1
  F  F30  1  0.931046  0.272694  0.934457  1
  F  F31  1  0.068954  0.227306  0.434457  1
  F  F32  1  0.566007  0.123124  0.178815  1
  F  F33  1  0.431046  0.727306  0.065543  1
  F  F34  1  0.750000  0.109276  0.686455  1
  F  F35  1  0.250000  0.088636  0.631559  1
