# generated using pymatgen
data_RbLaSiSe4
_symmetry_space_group_name_H-M   'P 1'
_cell_length_a   7.15197400
_cell_length_b   6.88868482
_cell_length_c   19.13079965
_cell_angle_alpha   72.06478974
_cell_angle_beta   90.00000000
_cell_angle_gamma   90.00000000
_symmetry_Int_Tables_number   1
_chemical_formula_structural   RbLaSiSe4
_chemical_formula_sum   'Rb4 La4 Si4 Se16'
_cell_volume   896.72845599
_cell_formula_units_Z   4
loop_
 _symmetry_equiv_pos_site_id
 _symmetry_equiv_pos_as_xyz
  1  'x, y, z'
loop_
 _atom_site_type_symbol
 _atom_site_label
 _atom_site_symmetry_multiplicity
 _atom_site_fract_x
 _atom_site_fract_y
 _atom_site_fract_z
 _atom_site_occupancy
  Rb  Rb0  1  0.252209  0.718303  0.034959  1
  Rb  Rb1  1  0.247791  0.718303  0.534959  1
  Rb  Rb2  1  0.752209  0.281697  0.465041  1
  Rb  Rb3  1  0.747791  0.281697  0.965041  1
  La  La4  1  0.770320  0.228052  0.225852  1
  La  La5  1  0.229680  0.771948  0.774148  1
  La  La6  1  0.729680  0.228052  0.725852  1
  La  La7  1  0.270320  0.771948  0.274148  1
  Si  Si8  1  0.260664  0.212179  0.838977  1
  Si  Si9  1  0.239336  0.212179  0.338977  1
  Si  Si10  1  0.760664  0.787821  0.661023  1
  Si  Si11  1  0.739336  0.787821  0.161023  1
  Se  Se12  1  0.495260  0.985787  0.645926  1
  Se  Se13  1  0.189803  0.404839  0.219287  1
  Se  Se14  1  0.504740  0.014213  0.354074  1
  Se  Se15  1  0.995260  0.014213  0.854074  1
  Se  Se16  1  0.310197  0.404839  0.719287  1
  Se  Se17  1  0.253534  0.410345  0.914130  1
  Se  Se18  1  0.746466  0.589655  0.085870  1
  Se  Se19  1  0.810197  0.595161  0.780713  1
  Se  Se20  1  0.753534  0.589655  0.585870  1
  Se  Se21  1  0.246466  0.410345  0.414130  1
  Se  Se22  1  0.497434  0.974819  0.863523  1
  Se  Se23  1  0.997434  0.025181  0.636477  1
  Se  Se24  1  0.502566  0.025181  0.136477  1
  Se  Se25  1  0.004740  0.985787  0.145926  1
  Se  Se26  1  0.002566  0.974819  0.363523  1
  Se  Se27  1  0.689803  0.595161  0.280713  1
