# generated using pymatgen
data_PrNd(TaN2)2
_symmetry_space_group_name_H-M   'P 1'
_cell_length_a   3.39514200
_cell_length_b   5.83785991
_cell_length_c   11.09396175
_cell_angle_alpha   89.93578122
_cell_angle_beta   90.00000000
_cell_angle_gamma   90.00000000
_symmetry_Int_Tables_number   1
_chemical_formula_structural   PrNd(TaN2)2
_chemical_formula_sum   'Pr2 Nd2 Ta4 N8'
_cell_volume   219.88621508
_cell_formula_units_Z   2
loop_
 _symmetry_equiv_pos_site_id
 _symmetry_equiv_pos_as_xyz
  1  'x, y, z'
loop_
 _atom_site_type_symbol
 _atom_site_label
 _atom_site_symmetry_multiplicity
 _atom_site_fract_x
 _atom_site_fract_y
 _atom_site_fract_z
 _atom_site_occupancy
  Pr  Pr0  1  0.250000  0.585547  0.863720  1
  Pr  Pr1  1  0.750000  0.414453  0.136280  1
  Nd  Nd2  1  0.750000  0.914498  0.363785  1
  Nd  Nd3  1  0.250000  0.085502  0.636215  1
  Ta  Ta4  1  0.250000  0.919659  0.111975  1
  Ta  Ta5  1  0.750000  0.080341  0.888025  1
  Ta  Ta6  1  0.750000  0.580651  0.611337  1
  Ta  Ta7  1  0.250000  0.419349  0.388663  1
  N  N8  1  0.250000  0.665099  0.247512  1
  N  N9  1  0.750000  0.334901  0.752488  1
  N  N10  1  0.750000  0.837442  0.745639  1
  N  N11  1  0.250000  0.162558  0.254361  1
  N  N12  1  0.250000  0.720924  0.513397  1
  N  N13  1  0.750000  0.279076  0.486603  1
  N  N14  1  0.750000  0.782325  0.013831  1
  N  N15  1  0.250000  0.217675  0.986169  1
