# generated using pymatgen
data_Dy4Al3Tc3Mo2
_symmetry_space_group_name_H-M   'P 1'
_cell_length_a   5.55863795
_cell_length_b   5.45098080
_cell_length_c   8.79519000
_cell_angle_alpha   90.00000000
_cell_angle_beta   90.00000000
_cell_angle_gamma   119.36134365
_symmetry_Int_Tables_number   1
_chemical_formula_structural   Dy4Al3Tc3Mo2
_chemical_formula_sum   'Dy4 Al3 Tc3 Mo2'
_cell_volume   232.26190840
_cell_formula_units_Z   1
loop_
 _symmetry_equiv_pos_site_id
 _symmetry_equiv_pos_as_xyz
  1  'x, y, z'
loop_
 _atom_site_type_symbol
 _atom_site_label
 _atom_site_symmetry_multiplicity
 _atom_site_fract_x
 _atom_site_fract_y
 _atom_site_fract_z
 _atom_site_occupancy
  Dy  Dy0  1  0.327567  0.663784  0.439044  1
  Dy  Dy1  1  0.670482  0.335241  0.560150  1
  Dy  Dy2  1  0.670482  0.335241  0.939850  1
  Dy  Dy3  1  0.327567  0.663784  0.060956  1
  Al  Al4  1  0.333487  0.166744  0.250000  1
  Al  Al5  1  0.185298  0.844631  0.750000  1
  Al  Al6  1  0.185298  0.340668  0.750000  1
  Tc  Tc7  1  0.973416  0.986708  0.504418  1
  Tc  Tc8  1  0.973416  0.986708  0.995582  1
  Tc  Tc9  1  0.685084  0.842542  0.750000  1
  Mo  Mo10  1  0.833952  0.167724  0.250000  1
  Mo  Mo11  1  0.833952  0.666228  0.250000  1
