# generated using pymatgen
data_Pr7Nd9Mg2(AgIr2)2
_symmetry_space_group_name_H-M   'P 1'
_cell_length_a   9.97103489
_cell_length_b   9.97103434
_cell_length_c   9.95489900
_cell_angle_alpha   60.05305833
_cell_angle_beta   60.05307703
_cell_angle_gamma   60.53415177
_symmetry_Int_Tables_number   1
_chemical_formula_structural   Pr7Nd9Mg2(AgIr2)2
_chemical_formula_sum   'Pr7 Nd9 Mg2 Ag2 Ir4'
_cell_volume   703.19471601
_cell_formula_units_Z   1
loop_
 _symmetry_equiv_pos_site_id
 _symmetry_equiv_pos_as_xyz
  1  'x, y, z'
loop_
 _atom_site_type_symbol
 _atom_site_label
 _atom_site_symmetry_multiplicity
 _atom_site_fract_x
 _atom_site_fract_y
 _atom_site_fract_z
 _atom_site_occupancy
  Pr  Pr0  1  0.805342  0.805343  0.194658  1
  Pr  Pr1  1  0.936213  0.560443  0.562516  1
  Pr  Pr2  1  0.560445  0.936215  0.940825  1
  Pr  Pr3  1  0.560442  0.936212  0.562516  1
  Pr  Pr4  1  0.936215  0.560443  0.940826  1
  Pr  Pr5  1  0.560094  0.560095  0.939907  1
  Pr  Pr6  1  0.937664  0.937664  0.562335  1
  Nd  Nd7  1  0.347176  0.347176  0.346397  1
  Nd  Nd8  1  0.347176  0.347176  0.959253  1
  Nd  Nd9  1  0.347173  0.956102  0.348360  1
  Nd  Nd10  1  0.956101  0.347173  0.348361  1
  Nd  Nd11  1  0.810791  0.188609  0.189460  1
  Nd  Nd12  1  0.188609  0.810791  0.811143  1
  Nd  Nd13  1  0.188610  0.810790  0.189460  1
  Nd  Nd14  1  0.810791  0.188609  0.811142  1
  Nd  Nd15  1  0.188694  0.188694  0.811306  1
  Mg  Mg16  1  0.580111  0.276872  0.571508  1
  Mg  Mg17  1  0.276872  0.580110  0.571509  1
  Ag  Ag18  1  0.580200  0.580200  0.583990  1
  Ag  Ag19  1  0.580200  0.580200  0.255610  1
  Ir  Ir20  1  0.141626  0.141626  0.140480  1
  Ir  Ir21  1  0.141625  0.141627  0.576268  1
  Ir  Ir22  1  0.142666  0.575165  0.141086  1
  Ir  Ir23  1  0.575164  0.142666  0.141085  1
