# generated using pymatgen
data_Y4Ho4Ti9Si16Tc3
_symmetry_space_group_name_H-M   'P 1'
_cell_length_a   6.97844292
_cell_length_b   6.97883933
_cell_length_c   12.82054947
_cell_angle_alpha   90.07516879
_cell_angle_beta   89.93237673
_cell_angle_gamma   90.02019905
_symmetry_Int_Tables_number   1
_chemical_formula_structural   Y4Ho4Ti9Si16Tc3
_chemical_formula_sum   'Y4 Ho4 Ti9 Si16 Tc3'
_cell_volume   624.37810726
_cell_formula_units_Z   1
loop_
 _symmetry_equiv_pos_site_id
 _symmetry_equiv_pos_as_xyz
  1  'x, y, z'
loop_
 _atom_site_type_symbol
 _atom_site_label
 _atom_site_symmetry_multiplicity
 _atom_site_fract_x
 _atom_site_fract_y
 _atom_site_fract_z
 _atom_site_occupancy
  Y  Y0  1  0.340675  0.001964  0.467380  1
  Y  Y1  1  0.498169  0.841782  0.719395  1
  Y  Y2  1  0.500716  0.158493  0.217583  1
  Y  Y3  1  0.841914  0.498235  0.280631  1
  Ho  Ho4  1  0.158237  0.500210  0.782379  1
  Ho  Ho5  1  0.658694  0.999560  0.968278  1
  Ho  Ho6  1  0.001531  0.340905  0.532900  1
  Ho  Ho7  1  0.999574  0.658697  0.031406  1
  Ti  Ti8  1  0.674066  0.673794  0.500122  1
  Ti  Ti9  1  0.151936  0.005594  0.877359  1
  Ti  Ti10  1  0.494637  0.654067  0.124579  1
  Ti  Ti11  1  0.504862  0.347836  0.628236  1
  Ti  Ti12  1  0.654015  0.494712  0.875171  1
  Ti  Ti13  1  0.347425  0.504815  0.372125  1
  Ti  Ti14  1  0.846947  0.992121  0.376206  1
  Ti  Ti15  1  0.005654  0.152065  0.122468  1
  Ti  Ti16  1  0.992328  0.846641  0.624099  1
  Si  Si17  1  0.198709  0.130012  0.684460  1
  Si  Si18  1  0.370404  0.699950  0.933384  1
  Si  Si19  1  0.631703  0.297917  0.435438  1
  Si  Si20  1  0.700446  0.370931  0.066132  1
  Si  Si21  1  0.296940  0.630434  0.565189  1
  Si  Si22  1  0.799829  0.869992  0.183511  1
  Si  Si23  1  0.128893  0.199476  0.315565  1
  Si  Si24  1  0.870509  0.799142  0.816460  1
  Si  Si25  1  0.290183  0.951648  0.066504  1
  Si  Si26  1  0.547377  0.789625  0.315800  1
  Si  Si27  1  0.451649  0.211374  0.817199  1
  Si  Si28  1  0.790644  0.546852  0.684094  1
  Si  Si29  1  0.210953  0.452304  0.182733  1
  Si  Si30  1  0.709003  0.049751  0.567701  1
  Si  Si31  1  0.952163  0.290631  0.933197  1
  Si  Si32  1  0.049067  0.707846  0.432604  1
  Tc  Tc33  1  0.327985  0.328344  0.999802  1
  Tc  Tc34  1  0.173717  0.827931  0.248302  1
  Tc  Tc35  1  0.828443  0.174348  0.751605  1
