# generated using pymatgen
data_Dy4YSi6P6Ir19
_symmetry_space_group_name_H-M   'P 1'
_cell_length_a   12.79872200
_cell_length_b   12.79872253
_cell_length_c   3.95108800
_cell_angle_alpha   90.00000000
_cell_angle_beta   90.00000000
_cell_angle_gamma   119.99999863
_symmetry_Int_Tables_number   1
_chemical_formula_structural   Dy4YSi6P6Ir19
_chemical_formula_sum   'Dy4 Y1 Si6 P6 Ir19'
_cell_volume   560.50639247
_cell_formula_units_Z   1
loop_
 _symmetry_equiv_pos_site_id
 _symmetry_equiv_pos_as_xyz
  1  'x, y, z'
loop_
 _atom_site_type_symbol
 _atom_site_label
 _atom_site_symmetry_multiplicity
 _atom_site_fract_x
 _atom_site_fract_y
 _atom_site_fract_z
 _atom_site_occupancy
  Dy  Dy0  1  0.666667  0.333333  0.500000  1
  Dy  Dy1  1  0.001557  0.816045  0.000000  1
  Dy  Dy2  1  0.183955  0.185512  0.000000  1
  Dy  Dy3  1  0.814488  0.998443  0.000000  1
  Y  Y4  1  0.333333  0.666667  0.500000  1
  Si  Si5  1  0.000772  0.635832  0.500000  1
  Si  Si6  1  0.364168  0.364941  0.500000  1
  Si  Si7  1  0.635059  0.999228  0.500000  1
  Si  Si8  1  0.519664  0.682224  0.000000  1
  Si  Si9  1  0.317776  0.837440  0.000000  1
  Si  Si10  1  0.162560  0.480336  0.000000  1
  P  P11  1  0.483644  0.177610  0.000000  1
  P  P12  1  0.693966  0.516356  0.000000  1
  P  P13  1  0.822390  0.306034  0.000000  1
  P  P14  1  0.996318  0.176401  0.500000  1
  P  P15  1  0.823599  0.819917  0.500000  1
  P  P16  1  0.180083  0.003682  0.500000  1
  Ir  Ir17  1  0.515437  0.869097  0.000000  1
  Ir  Ir18  1  0.130903  0.646341  0.000000  1
  Ir  Ir19  1  0.353659  0.484563  0.000000  1
  Ir  Ir20  1  0.494437  0.368333  0.000000  1
  Ir  Ir21  1  0.873895  0.505563  0.000000  1
  Ir  Ir22  1  0.631667  0.126105  0.000000  1
  Ir  Ir23  1  0.014522  0.457509  0.500000  1
  Ir  Ir24  1  0.542491  0.557013  0.500000  1
  Ir  Ir25  1  0.442987  0.985478  0.500000  1
  Ir  Ir26  1  0.993674  0.277762  0.000000  1
  Ir  Ir27  1  0.722238  0.715912  0.000000  1
  Ir  Ir28  1  0.284088  0.006326  0.000000  1
  Ir  Ir29  1  0.632680  0.808791  0.500000  1
  Ir  Ir30  1  0.191209  0.823889  0.500000  1
  Ir  Ir31  1  0.176111  0.367320  0.500000  1
  Ir  Ir32  1  0.381796  0.182696  0.500000  1
  Ir  Ir33  1  0.800899  0.618204  0.500000  1
  Ir  Ir34  1  0.817304  0.199101  0.500000  1
  Ir  Ir35  1  0.000000  0.000000  0.500000  1
