# generated using pymatgen
data_Dy5YHo2(WO6)4
_symmetry_space_group_name_H-M   'P 1'
_cell_length_a   5.39751000
_cell_length_b   7.70644197
_cell_length_c   11.47417461
_cell_angle_alpha   75.51066339
_cell_angle_beta   90.00031399
_cell_angle_gamma   90.00020566
_symmetry_Int_Tables_number   1
_chemical_formula_structural   Dy5YHo2(WO6)4
_chemical_formula_sum   'Dy5 Y1 Ho2 W4 O24'
_cell_volume   462.09504258
_cell_formula_units_Z   1
loop_
 _symmetry_equiv_pos_site_id
 _symmetry_equiv_pos_as_xyz
  1  'x, y, z'
loop_
 _atom_site_type_symbol
 _atom_site_label
 _atom_site_symmetry_multiplicity
 _atom_site_fract_x
 _atom_site_fract_y
 _atom_site_fract_z
 _atom_site_occupancy
  Dy  Dy0  1  0.739399  0.000302  0.750041  1
  Dy  Dy1  1  0.261276  0.000300  0.250039  1
  Dy  Dy2  1  0.185807  0.795590  0.577409  1
  Dy  Dy3  1  0.814412  0.795422  0.077759  1
  Dy  Dy4  1  0.316290  0.499724  0.250158  1
  Y  Y5  1  0.683819  0.499715  0.750162  1
  Ho  Ho6  1  0.185878  0.204926  0.922208  1
  Ho  Ho7  1  0.814352  0.205098  0.421848  1
  W  W8  1  0.254539  0.723438  0.885544  1
  W  W9  1  0.745466  0.723060  0.385220  1
  W  W10  1  0.254515  0.276245  0.614392  1
  W  W11  1  0.745504  0.276631  0.114723  1
  O  O12  1  0.043070  0.940001  0.895868  1
  O  O13  1  0.530747  0.848466  0.930752  1
  O  O14  1  0.956663  0.940147  0.395154  1
  O  O15  1  0.458159  0.789884  0.727919  1
  O  O16  1  0.469689  0.848575  0.430647  1
  O  O17  1  0.981328  0.710795  0.771753  1
  O  O18  1  0.541106  0.789264  0.227877  1
  O  O19  1  0.850244  0.634667  0.547840  1
  O  O20  1  0.360489  0.489619  0.886444  1
  O  O21  1  0.018669  0.709676  0.271917  1
  O  O22  1  0.361129  0.509597  0.613500  1
  O  O23  1  0.851478  0.364758  0.952146  1
  O  O24  1  0.150724  0.635177  0.048405  1
  O  O25  1  0.638530  0.489497  0.386159  1
  O  O26  1  0.981880  0.289228  0.728779  1
  O  O27  1  0.637880  0.509717  0.113785  1
  O  O28  1  0.149479  0.364260  0.451573  1
  O  O29  1  0.457252  0.209647  0.772561  1
  O  O30  1  0.018104  0.290348  0.228613  1
  O  O31  1  0.531474  0.151921  0.568814  1
  O  O32  1  0.542023  0.210259  0.272603  1
  O  O33  1  0.041785  0.061191  0.603874  1
  O  O34  1  0.468931  0.151816  0.068916  1
  O  O35  1  0.957908  0.061041  0.104596  1
