# generated using pymatgen
data_YbPuTa8O22
_symmetry_space_group_name_H-M   'P 1'
_cell_length_a   6.29818000
_cell_length_b   6.29817924
_cell_length_c   12.42165300
_cell_angle_alpha   90.00000000
_cell_angle_beta   90.00000000
_cell_angle_gamma   120.00000399
_symmetry_Int_Tables_number   1
_chemical_formula_structural   YbPuTa8O22
_chemical_formula_sum   'Yb1 Pu1 Ta8 O22'
_cell_volume   426.71714415
_cell_formula_units_Z   1
loop_
 _symmetry_equiv_pos_site_id
 _symmetry_equiv_pos_as_xyz
  1  'x, y, z'
loop_
 _atom_site_type_symbol
 _atom_site_label
 _atom_site_symmetry_multiplicity
 _atom_site_fract_x
 _atom_site_fract_y
 _atom_site_fract_z
 _atom_site_occupancy
  Yb  Yb0  1  0.666667  0.333333  0.250000  1
  Pu  Pu1  1  0.333333  0.666667  0.750000  1
  Ta  Ta2  1  0.666667  0.333333  0.750000  1
  Ta  Ta3  1  0.333333  0.666667  0.250000  1
  Ta  Ta4  1  0.643817  0.000972  0.498005  1
  Ta  Ta5  1  0.643817  0.642846  0.001995  1
  Ta  Ta6  1  0.999028  0.356183  0.001995  1
  Ta  Ta7  1  0.999028  0.642846  0.498005  1
  Ta  Ta8  1  0.357154  0.356183  0.498005  1
  Ta  Ta9  1  0.357154  0.000972  0.001995  1
  O  O10  1  0.333333  0.666667  0.534457  1
  O  O11  1  0.666667  0.333333  0.035329  1
  O  O12  1  0.666667  0.333333  0.464671  1
  O  O13  1  0.333333  0.666667  0.965543  1
  O  O14  1  0.244314  0.000202  0.498219  1
  O  O15  1  0.244314  0.244113  0.001781  1
  O  O16  1  0.999798  0.755686  0.001781  1
  O  O17  1  0.999798  0.244113  0.498219  1
  O  O18  1  0.755887  0.755686  0.498219  1
  O  O19  1  0.755887  0.000202  0.001781  1
  O  O20  1  0.380802  0.947059  0.156873  1
  O  O21  1  0.433318  0.378852  0.655351  1
  O  O22  1  0.945533  0.566682  0.655351  1
  O  O23  1  0.052941  0.433743  0.156873  1
  O  O24  1  0.566257  0.619198  0.156873  1
  O  O25  1  0.433318  0.054467  0.844649  1
  O  O26  1  0.621148  0.566682  0.844649  1
  O  O27  1  0.621148  0.054467  0.655351  1
  O  O28  1  0.945533  0.378852  0.844649  1
  O  O29  1  0.052941  0.619198  0.343127  1
  O  O30  1  0.566257  0.947059  0.343127  1
  O  O31  1  0.380802  0.433743  0.343127  1
