# generated using pymatgen
data_La8Nd8Cd4Co3Pd
_symmetry_space_group_name_H-M   'P 1'
_cell_length_a   9.94098269
_cell_length_b   9.89519223
_cell_length_c   9.96588400
_cell_angle_alpha   59.76339394
_cell_angle_beta   59.91710343
_cell_angle_gamma   60.39003385
_symmetry_Int_Tables_number   1
_chemical_formula_structural   La8Nd8Cd4Co3Pd
_chemical_formula_sum   'La8 Nd8 Cd4 Co3 Pd1'
_cell_volume   693.51761982
_cell_formula_units_Z   1
loop_
 _symmetry_equiv_pos_site_id
 _symmetry_equiv_pos_as_xyz
  1  'x, y, z'
loop_
 _atom_site_type_symbol
 _atom_site_label
 _atom_site_symmetry_multiplicity
 _atom_site_fract_x
 _atom_site_fract_y
 _atom_site_fract_z
 _atom_site_occupancy
  La  La0  1  0.334855  0.351284  0.354378  1
  La  La1  1  0.334855  0.351284  0.959483  1
  La  La2  1  0.338486  0.958292  0.351611  1
  La  La3  1  0.964490  0.349114  0.343197  1
  La  La4  1  0.825176  0.188400  0.191024  1
  La  La5  1  0.188889  0.810859  0.812412  1
  La  La6  1  0.188889  0.810859  0.187839  1
  La  La7  1  0.825176  0.188400  0.795400  1
  Nd  Nd8  1  0.193623  0.190670  0.807853  1
  Nd  Nd9  1  0.815892  0.795601  0.194253  1
  Nd  Nd10  1  0.933325  0.565393  0.566825  1
  Nd  Nd11  1  0.562959  0.937227  0.935976  1
  Nd  Nd12  1  0.562959  0.937227  0.563837  1
  Nd  Nd13  1  0.933325  0.565393  0.934456  1
  Nd  Nd14  1  0.562579  0.562168  0.937626  1
  Nd  Nd15  1  0.934804  0.936711  0.564242  1
  Cd  Cd16  1  0.580840  0.580380  0.578644  1
  Cd  Cd17  1  0.580840  0.580380  0.260137  1
  Cd  Cd18  1  0.579112  0.259892  0.580499  1
  Cd  Cd19  1  0.255775  0.580348  0.581939  1
  Co  Co20  1  0.137853  0.139791  0.145120  1
  Co  Co21  1  0.137853  0.139791  0.577235  1
  Co  Co22  1  0.148376  0.577128  0.137247  1
  Pd  Pd23  1  0.579068  0.143402  0.138764  1
