# generated using pymatgen
data_Tb3Dy2Np2O12
_symmetry_space_group_name_H-M   'P 1'
_cell_length_a   6.56220309
_cell_length_b   6.65848341
_cell_length_c   6.57538642
_cell_angle_alpha   99.70411569
_cell_angle_beta   98.79230824
_cell_angle_gamma   99.00612596
_symmetry_Int_Tables_number   1
_chemical_formula_structural   Tb3Dy2Np2O12
_chemical_formula_sum   'Tb3 Dy2 Np2 O12'
_cell_volume   274.92327838
_cell_formula_units_Z   1
loop_
 _symmetry_equiv_pos_site_id
 _symmetry_equiv_pos_as_xyz
  1  'x, y, z'
loop_
 _atom_site_type_symbol
 _atom_site_label
 _atom_site_symmetry_multiplicity
 _atom_site_fract_x
 _atom_site_fract_y
 _atom_site_fract_z
 _atom_site_occupancy
  Tb  Tb0  1  0.305379  0.611285  0.141387  1
  Tb  Tb1  1  0.144521  0.313111  0.607095  1
  Tb  Tb2  1  0.607046  0.134736  0.311497  1
  Dy  Dy3  1  0.859856  0.692813  0.393960  1
  Dy  Dy4  1  0.390454  0.855980  0.685061  1
  Np  Np5  1  0.693932  0.398043  0.862461  1
  Np  Np6  1  0.000258  0.002888  0.999246  1
  O  O7  1  0.435845  0.177302  0.595082  1
  O  O8  1  0.587820  0.422549  0.164522  1
  O  O9  1  0.175574  0.581989  0.433741  1
  O  O10  1  0.565481  0.818363  0.409025  1
  O  O11  1  0.427446  0.571745  0.822308  1
  O  O12  1  0.812030  0.419090  0.575380  1
  O  O13  1  0.068712  0.319636  0.939614  1
  O  O14  1  0.689494  0.051909  0.926767  1
  O  O15  1  0.053700  0.922612  0.685092  1
  O  O16  1  0.926574  0.682794  0.057952  1
  O  O17  1  0.310756  0.946465  0.073025  1
  O  O18  1  0.945121  0.076691  0.316783  1
