# generated using pymatgen
data_Ca4Y5Ho(AgPb3)2
_symmetry_space_group_name_H-M   'P 1'
_cell_length_a   9.35617815
_cell_length_b   9.35327113
_cell_length_c   6.84931700
_cell_angle_alpha   90.00000000
_cell_angle_beta   90.00000000
_cell_angle_gamma   119.98973529
_symmetry_Int_Tables_number   1
_chemical_formula_structural   Ca4Y5Ho(AgPb3)2
_chemical_formula_sum   'Ca4 Y5 Ho1 Ag2 Pb6'
_cell_volume   519.14038660
_cell_formula_units_Z   1
loop_
 _symmetry_equiv_pos_site_id
 _symmetry_equiv_pos_as_xyz
  1  'x, y, z'
loop_
 _atom_site_type_symbol
 _atom_site_label
 _atom_site_symmetry_multiplicity
 _atom_site_fract_x
 _atom_site_fract_y
 _atom_site_fract_z
 _atom_site_occupancy
  Ca  Ca0  1  0.666836  0.333569  0.500088  1
  Ca  Ca1  1  0.333164  0.666734  0.500088  1
  Ca  Ca2  1  0.333164  0.666734  0.999912  1
  Ca  Ca3  1  0.666836  0.333569  0.999912  1
  Y  Y4  1  0.729466  0.729490  0.250000  1
  Y  Y5  1  0.270534  0.000024  0.250000  1
  Y  Y6  1  0.000000  0.270312  0.250000  1
  Y  Y7  1  0.270577  0.270740  0.750000  1
  Y  Y8  1  0.729423  0.000162  0.750000  1
  Ho  Ho9  1  0.000000  0.729934  0.750000  1
  Ag  Ag10  1  0.000000  0.998970  0.500975  1
  Ag  Ag11  1  0.000000  0.998970  0.999025  1
  Pb  Pb12  1  0.379813  0.379885  0.250000  1
  Pb  Pb13  1  0.620187  0.000072  0.250000  1
  Pb  Pb14  1  0.000000  0.620314  0.250000  1
  Pb  Pb15  1  0.620963  0.620456  0.750000  1
  Pb  Pb16  1  0.379037  0.999493  0.750000  1
  Pb  Pb17  1  0.000000  0.380573  0.750000  1
