# generated using pymatgen
data_Tb3Lu2(CoTe)2
_symmetry_space_group_name_H-M   'P 1'
_cell_length_a   7.69768450
_cell_length_b   7.69768364
_cell_length_c   15.00244587
_cell_angle_alpha   90.00616475
_cell_angle_beta   89.99383462
_cell_angle_gamma   150.11502364
_symmetry_Int_Tables_number   1
_chemical_formula_structural   Tb3Lu2(CoTe)2
_chemical_formula_sum   'Tb6 Lu4 Co4 Te4'
_cell_volume   442.93358693
_cell_formula_units_Z   2
loop_
 _symmetry_equiv_pos_site_id
 _symmetry_equiv_pos_as_xyz
  1  'x, y, z'
loop_
 _atom_site_type_symbol
 _atom_site_label
 _atom_site_symmetry_multiplicity
 _atom_site_fract_x
 _atom_site_fract_y
 _atom_site_fract_z
 _atom_site_occupancy
  Tb  Tb0  1  0.961630  0.038370  0.125229  1
  Tb  Tb1  1  0.038370  0.961630  0.874771  1
  Tb  Tb2  1  0.037021  0.962979  0.626922  1
  Tb  Tb3  1  0.962979  0.037021  0.373078  1
  Tb  Tb4  1  0.743116  0.256884  0.631443  1
  Tb  Tb5  1  0.256884  0.743116  0.368557  1
  Lu  Lu6  1  0.258403  0.741597  0.133805  1
  Lu  Lu7  1  0.741597  0.258403  0.866195  1
  Lu  Lu8  1  0.607578  0.392422  0.248641  1
  Lu  Lu9  1  0.392422  0.607578  0.751359  1
  Co  Co10  1  0.411368  0.588632  0.248605  1
  Co  Co11  1  0.588632  0.411368  0.751395  1
  Co  Co12  1  0.816263  0.183737  0.247923  1
  Co  Co13  1  0.183737  0.816263  0.752077  1
  Te  Te14  1  0.621427  0.378573  0.037807  1
  Te  Te15  1  0.378573  0.621427  0.962193  1
  Te  Te16  1  0.382532  0.617468  0.538414  1
  Te  Te17  1  0.617468  0.382532  0.461586  1
