# generated using pymatgen
data_Nd3ZrZn2Pt3
_symmetry_space_group_name_H-M   'P 1'
_cell_length_a   7.49005000
_cell_length_b   7.38940616
_cell_length_c   4.13862300
_cell_angle_alpha   90.00000000
_cell_angle_beta   90.00000000
_cell_angle_gamma   119.55649107
_symmetry_Int_Tables_number   1
_chemical_formula_structural   Nd3ZrZn2Pt3
_chemical_formula_sum   'Nd3 Zr1 Zn2 Pt3'
_cell_volume   199.25276557
_cell_formula_units_Z   1
loop_
 _symmetry_equiv_pos_site_id
 _symmetry_equiv_pos_as_xyz
  1  'x, y, z'
loop_
 _atom_site_type_symbol
 _atom_site_label
 _atom_site_symmetry_multiplicity
 _atom_site_fract_x
 _atom_site_fract_y
 _atom_site_fract_z
 _atom_site_occupancy
  Nd  Nd0  1  0.000000  0.615188  0.500000  1
  Nd  Nd1  1  0.565937  0.981939  0.500000  1
  Nd  Nd2  1  0.434063  0.416002  0.500000  1
  Zr  Zr3  1  0.000000  0.235238  0.000000  1
  Zn  Zn4  1  0.244955  0.002675  0.000000  1
  Zn  Zn5  1  0.755045  0.757720  0.000000  1
  Pt  Pt6  1  0.000000  0.010715  0.500000  1
  Pt  Pt7  1  0.681648  0.331084  0.000000  1
  Pt  Pt8  1  0.318352  0.649438  0.000000  1
