# generated using pymatgen
data_Sc4Fe3Cu3Si2
_symmetry_space_group_name_H-M   'P 1'
_cell_length_a   5.02774430
_cell_length_b   5.02774501
_cell_length_c   7.93233600
_cell_angle_alpha   90.00000000
_cell_angle_beta   90.00000000
_cell_angle_gamma   120.00682134
_symmetry_Int_Tables_number   1
_chemical_formula_structural   Sc4Fe3Cu3Si2
_chemical_formula_sum   'Sc4 Fe3 Cu3 Si2'
_cell_volume   173.63941068
_cell_formula_units_Z   1
loop_
 _symmetry_equiv_pos_site_id
 _symmetry_equiv_pos_as_xyz
  1  'x, y, z'
loop_
 _atom_site_type_symbol
 _atom_site_label
 _atom_site_symmetry_multiplicity
 _atom_site_fract_x
 _atom_site_fract_y
 _atom_site_fract_z
 _atom_site_occupancy
  Sc  Sc0  1  0.666665  0.333335  0.067638  1
  Sc  Sc1  1  0.333343  0.666657  0.948275  1
  Sc  Sc2  1  0.333343  0.666657  0.551725  1
  Sc  Sc3  1  0.666665  0.333335  0.432362  1
  Fe  Fe4  1  0.173163  0.346331  0.250000  1
  Fe  Fe5  1  0.173171  0.826829  0.250000  1
  Fe  Fe6  1  0.653669  0.826837  0.250000  1
  Cu  Cu7  1  0.831886  0.663749  0.750000  1
  Cu  Cu8  1  0.831878  0.168122  0.750000  1
  Cu  Cu9  1  0.336251  0.168114  0.750000  1
  Si  Si10  1  0.999983  0.000017  0.491806  1
  Si  Si11  1  0.999983  0.000017  0.008194  1
