# generated using pymatgen
data_Sc4Ti4V12Si15P
_symmetry_space_group_name_H-M   'P 1'
_cell_length_a   6.54481226
_cell_length_b   6.52997430
_cell_length_c   12.08525742
_cell_angle_alpha   90.11003595
_cell_angle_beta   89.95528060
_cell_angle_gamma   89.86126078
_symmetry_Int_Tables_number   1
_chemical_formula_structural   Sc4Ti4V12Si15P
_chemical_formula_sum   'Sc4 Ti4 V12 Si15 P1'
_cell_volume   516.49052970
_cell_formula_units_Z   1
loop_
 _symmetry_equiv_pos_site_id
 _symmetry_equiv_pos_as_xyz
  1  'x, y, z'
loop_
 _atom_site_type_symbol
 _atom_site_label
 _atom_site_symmetry_multiplicity
 _atom_site_fract_x
 _atom_site_fract_y
 _atom_site_fract_z
 _atom_site_occupancy
  Sc  Sc0  1  0.498003  0.162460  0.218022  1
  Sc  Sc1  1  0.999872  0.337307  0.530929  1
  Sc  Sc2  1  0.660320  0.000186  0.971481  1
  Sc  Sc3  1  0.337510  0.999608  0.469357  1
  Ti  Ti4  1  0.009462  0.662859  0.029199  1
  Ti  Ti5  1  0.840278  0.507110  0.280944  1
  Ti  Ti6  1  0.161685  0.493651  0.779374  1
  Ti  Ti7  1  0.506431  0.837970  0.721040  1
  V  V8  1  0.330010  0.332807  0.999805  1
  V  V9  1  0.166254  0.831594  0.246391  1
  V  V10  1  0.833837  0.166241  0.751025  1
  V  V11  1  0.668019  0.666932  0.501247  1
  V  V12  1  0.006311  0.153226  0.124094  1
  V  V13  1  0.340799  0.505234  0.376460  1
  V  V14  1  0.656219  0.496835  0.877045  1
  V  V15  1  0.506981  0.344923  0.625384  1
  V  V16  1  0.485982  0.660586  0.120853  1
  V  V17  1  0.994817  0.842229  0.629530  1
  V  V18  1  0.156293  0.006466  0.876403  1
  V  V19  1  0.841027  0.990873  0.372571  1
  Si  Si20  1  0.540540  0.790711  0.313942  1
  Si  Si21  1  0.461337  0.204099  0.814455  1
  Si  Si22  1  0.796773  0.540433  0.686909  1
  Si  Si23  1  0.198533  0.461392  0.184831  1
  Si  Si24  1  0.704354  0.037862  0.565664  1
  Si  Si25  1  0.960442  0.302112  0.934496  1
  Si  Si26  1  0.039530  0.704649  0.435171  1
  Si  Si27  1  0.710126  0.378252  0.073883  1
  Si  Si28  1  0.124489  0.206752  0.320213  1
  Si  Si29  1  0.872146  0.791671  0.824155  1
  Si  Si30  1  0.208089  0.128852  0.680335  1
  Si  Si31  1  0.797453  0.861265  0.177172  1
  Si  Si32  1  0.297142  0.633268  0.576084  1
  Si  Si33  1  0.364117  0.701445  0.921875  1
  Si  Si34  1  0.633415  0.298611  0.426755  1
  P  P35  1  0.291403  0.959531  0.062906  1
