# generated using pymatgen
data_CaPu3(WN3)4
_symmetry_space_group_name_H-M   'P 1'
_cell_length_a   7.35887554
_cell_length_b   7.35887549
_cell_length_c   6.30791100
_cell_angle_alpha   74.33610013
_cell_angle_beta   74.33610023
_cell_angle_gamma   83.34439360
_symmetry_Int_Tables_number   1
_chemical_formula_structural   CaPu3(WN3)4
_chemical_formula_sum   'Ca1 Pu3 W4 N12'
_cell_volume   316.35076040
_cell_formula_units_Z   1
loop_
 _symmetry_equiv_pos_site_id
 _symmetry_equiv_pos_as_xyz
  1  'x, y, z'
loop_
 _atom_site_type_symbol
 _atom_site_label
 _atom_site_symmetry_multiplicity
 _atom_site_fract_x
 _atom_site_fract_y
 _atom_site_fract_z
 _atom_site_occupancy
  Ca  Ca0  1  0.704457  0.295543  0.750000  1
  Pu  Pu1  1  0.086922  0.913078  0.750000  1
  Pu  Pu2  1  0.290388  0.709612  0.250000  1
  Pu  Pu3  1  0.907665  0.092335  0.250000  1
  W  W4  1  0.380658  0.202749  0.239153  1
  W  W5  1  0.618023  0.794474  0.760360  1
  W  W6  1  0.797251  0.619342  0.260847  1
  W  W7  1  0.205526  0.381977  0.739640  1
  N  N8  1  0.620788  0.107358  0.172407  1
  N  N9  1  0.353652  0.356415  0.451802  1
  N  N10  1  0.011383  0.210108  0.855459  1
  N  N11  1  0.370951  0.879336  0.844305  1
  N  N12  1  0.789892  0.988617  0.644541  1
  N  N13  1  0.120664  0.629049  0.655695  1
  N  N14  1  0.892642  0.379212  0.327593  1
  N  N15  1  0.644166  0.645056  0.546115  1
  N  N16  1  0.643585  0.646348  0.048198  1
  N  N17  1  0.354944  0.355834  0.953885  1
  N  N18  1  0.996542  0.790104  0.149451  1
  N  N19  1  0.209896  0.003458  0.350549  1
