# generated using pymatgen
data_Tb3Y9InCo4Ag
_symmetry_space_group_name_H-M   'P 1'
_cell_length_a   8.39070015
_cell_length_b   8.39580796
_cell_length_c   8.39070056
_cell_angle_alpha   111.23982794
_cell_angle_beta   110.38143054
_cell_angle_gamma   106.80184733
_symmetry_Int_Tables_number   1
_chemical_formula_structural   Tb3Y9InCo4Ag
_chemical_formula_sum   'Tb3 Y9 In1 Co4 Ag1'
_cell_volume   454.40333290
_cell_formula_units_Z   1
loop_
 _symmetry_equiv_pos_site_id
 _symmetry_equiv_pos_as_xyz
  1  'x, y, z'
loop_
 _atom_site_type_symbol
 _atom_site_label
 _atom_site_symmetry_multiplicity
 _atom_site_fract_x
 _atom_site_fract_y
 _atom_site_fract_z
 _atom_site_occupancy
  Tb  Tb0  1  0.685344  0.381058  0.695713  1
  Tb  Tb1  1  0.314720  0.009803  0.695084  1
  Tb  Tb2  1  0.685140  0.989556  0.304417  1
  Y  Y3  1  0.425857  0.221083  0.204000  1
  Y  Y4  1  0.574165  0.778624  0.795464  1
  Y  Y5  1  0.017081  0.221083  0.795226  1
  Y  Y6  1  0.983161  0.778624  0.204459  1
  Y  Y7  1  0.187540  0.292977  0.480254  1
  Y  Y8  1  0.812331  0.706945  0.519581  1
  Y  Y9  1  0.187365  0.706945  0.894613  1
  Y  Y10  1  0.812724  0.292977  0.105437  1
  Y  Y11  1  0.314897  0.618030  0.303134  1
  In  In12  1  0.499802  0.500164  0.000362  1
  Co  Co13  1  0.381251  0.001035  0.381728  1
  Co  Co14  1  0.619308  0.001035  0.619784  1
  Co  Co15  1  0.110807  0.611346  0.500539  1
  Co  Co16  1  0.888418  0.388340  0.499924  1
  Ag  Ag17  1  0.000092  0.000374  0.000282  1
