# generated using pymatgen
data_InSn3B3Ir6Rh
_symmetry_space_group_name_H-M   'P 1'
_cell_length_a   9.40381648
_cell_length_b   9.37285743
_cell_length_c   5.70560413
_cell_angle_alpha   90.09689882
_cell_angle_beta   90.03567087
_cell_angle_gamma   120.32033411
_symmetry_Int_Tables_number   1
_chemical_formula_structural   InSn3B3Ir6Rh
_chemical_formula_sum   'In2 Sn6 B6 Ir12 Rh2'
_cell_volume   434.10645059
_cell_formula_units_Z   2
loop_
 _symmetry_equiv_pos_site_id
 _symmetry_equiv_pos_as_xyz
  1  'x, y, z'
loop_
 _atom_site_type_symbol
 _atom_site_label
 _atom_site_symmetry_multiplicity
 _atom_site_fract_x
 _atom_site_fract_y
 _atom_site_fract_z
 _atom_site_occupancy
  In  In0  1  0.508912  0.094605  0.750403  1
  In  In1  1  0.092727  0.585135  0.250437  1
  Sn  Sn2  1  0.909698  0.410756  0.750116  1
  Sn  Sn3  1  0.587605  0.496550  0.750022  1
  Sn  Sn4  1  0.497275  0.911694  0.249908  1
  Sn  Sn5  1  0.329441  0.668369  0.747689  1
  Sn  Sn6  1  0.407839  0.502732  0.250442  1
  Sn  Sn7  1  0.668175  0.333615  0.247664  1
  B  B8  1  0.826158  0.789759  0.250582  1
  B  B9  1  0.966046  0.173684  0.250503  1
  B  B10  1  0.209411  0.036263  0.249362  1
  B  B11  1  0.790884  0.963710  0.750998  1
  B  B12  1  0.036953  0.825991  0.749790  1
  B  B13  1  0.173082  0.206796  0.749405  1
  Ir  Ir14  1  0.774896  0.123672  0.003938  1
  Ir  Ir15  1  0.646918  0.772471  0.501556  1
  Ir  Ir16  1  0.123692  0.349867  0.504024  1
  Ir  Ir17  1  0.874525  0.647374  0.001275  1
  Ir  Ir18  1  0.350479  0.229278  0.001414  1
  Ir  Ir19  1  0.227749  0.878699  0.501829  1
  Ir  Ir20  1  0.874072  0.647146  0.498745  1
  Ir  Ir21  1  0.352087  0.229789  0.497899  1
  Ir  Ir22  1  0.227591  0.877877  0.998479  1
  Ir  Ir23  1  0.999605  0.998819  0.499711  1
  Ir  Ir24  1  0.999810  0.999291  0.999846  1
  Ir  Ir25  1  0.646355  0.771127  0.999815  1
  Rh  Rh26  1  0.124781  0.351503  0.996453  1
  Rh  Rh27  1  0.773233  0.123427  0.497694  1
