# generated using pymatgen
data_Er2TmFe8Co
_symmetry_space_group_name_H-M   'P 1'
_cell_length_a   8.60320467
_cell_length_b   8.60320602
_cell_length_c   8.60320467
_cell_angle_alpha   34.22946232
_cell_angle_beta   34.22946082
_cell_angle_gamma   34.22945903
_symmetry_Int_Tables_number   1
_chemical_formula_structural   Er2TmFe8Co
_chemical_formula_sum   'Er2 Tm1 Fe8 Co1'
_cell_volume   179.66624481
_cell_formula_units_Z   1
loop_
 _symmetry_equiv_pos_site_id
 _symmetry_equiv_pos_as_xyz
  1  'x, y, z'
loop_
 _atom_site_type_symbol
 _atom_site_label
 _atom_site_symmetry_multiplicity
 _atom_site_fract_x
 _atom_site_fract_y
 _atom_site_fract_z
 _atom_site_occupancy
  Er  Er0  1  0.000059  0.000059  0.000059  1
  Er  Er1  1  0.858016  0.858016  0.858016  1
  Tm  Tm2  1  0.141907  0.141907  0.141907  1
  Fe  Fe3  1  0.418031  0.418031  0.918001  1
  Fe  Fe4  1  0.918001  0.418031  0.418031  1
  Fe  Fe5  1  0.581946  0.082086  0.581946  1
  Fe  Fe6  1  0.581946  0.581946  0.082086  1
  Fe  Fe7  1  0.418031  0.918001  0.418031  1
  Fe  Fe8  1  0.082086  0.581946  0.581946  1
  Fe  Fe9  1  0.332785  0.332785  0.332785  1
  Fe  Fe10  1  0.667219  0.667219  0.667219  1
  Co  Co11  1  0.499974  0.499974  0.499974  1
