# generated using pymatgen
data_NiBi2F12
_symmetry_space_group_name_H-M   'P 1'
_cell_length_a   5.20625218
_cell_length_b   5.66021128
_cell_length_c   9.16520512
_cell_angle_alpha   105.37051516
_cell_angle_beta   90.39700808
_cell_angle_gamma   118.24939984
_symmetry_Int_Tables_number   1
_chemical_formula_structural   NiBi2F12
_chemical_formula_sum   'Ni1 Bi2 F12'
_cell_volume   226.60315992
_cell_formula_units_Z   1
loop_
 _symmetry_equiv_pos_site_id
 _symmetry_equiv_pos_as_xyz
  1  'x, y, z'
loop_
 _atom_site_type_symbol
 _atom_site_label
 _atom_site_symmetry_multiplicity
 _atom_site_fract_x
 _atom_site_fract_y
 _atom_site_fract_z
 _atom_site_occupancy
  Ni  Ni0  1  0.500000  0.500000  0.500000  1
  Bi  Bi1  1  0.277637  0.011301  0.761049  1
  Bi  Bi2  1  0.722363  0.988699  0.238951  1
  F  F3  1  0.753577  0.758458  0.379338  1
  F  F4  1  0.246423  0.241542  0.620662  1
  F  F5  1  0.282450  0.738196  0.211406  1
  F  F6  1  0.291133  0.748975  0.868347  1
  F  F7  1  0.708867  0.251025  0.131653  1
  F  F8  1  0.819624  0.754203  0.686254  1
  F  F9  1  0.180376  0.245797  0.313746  1
  F  F10  1  0.307167  0.744529  0.558334  1
  F  F11  1  0.692833  0.255471  0.441666  1
  F  F12  1  0.195027  0.241988  0.941643  1
  F  F13  1  0.804973  0.758012  0.058357  1
  F  F14  1  0.717550  0.261804  0.788594  1
