# generated using pymatgen
data_Nd6YErAu4
_symmetry_space_group_name_H-M   'P 1'
_cell_length_a   5.04490600
_cell_length_b   7.34847112
_cell_length_c   9.22803122
_cell_angle_alpha   90.36694546
_cell_angle_beta   90.00000000
_cell_angle_gamma   90.00000000
_symmetry_Int_Tables_number   1
_chemical_formula_structural   Nd6YErAu4
_chemical_formula_sum   'Nd6 Y1 Er1 Au4'
_cell_volume   342.09775082
_cell_formula_units_Z   1
loop_
 _symmetry_equiv_pos_site_id
 _symmetry_equiv_pos_as_xyz
  1  'x, y, z'
loop_
 _atom_site_type_symbol
 _atom_site_label
 _atom_site_symmetry_multiplicity
 _atom_site_fract_x
 _atom_site_fract_y
 _atom_site_fract_z
 _atom_site_occupancy
  Nd  Nd0  1  0.250000  0.348190  0.588502  1
  Nd  Nd1  1  0.750000  0.651574  0.410847  1
  Nd  Nd2  1  0.250000  0.492084  0.174726  1
  Nd  Nd3  1  0.250000  0.992461  0.324035  1
  Nd  Nd4  1  0.750000  0.510007  0.822986  1
  Nd  Nd5  1  0.750000  0.007509  0.677569  1
  Y  Y6  1  0.750000  0.150282  0.079594  1
  Er  Er7  1  0.250000  0.850841  0.920564  1
  Au  Au8  1  0.250000  0.244008  0.909492  1
  Au  Au9  1  0.250000  0.757932  0.607183  1
  Au  Au10  1  0.750000  0.753437  0.088226  1
  Au  Au11  1  0.750000  0.241675  0.396275  1
