# generated using pymatgen
data_La3NdRhAu3
_symmetry_space_group_name_H-M   'P 1'
_cell_length_a   4.78873900
_cell_length_b   5.90006165
_cell_length_c   7.55598704
_cell_angle_alpha   87.36809608
_cell_angle_beta   90.00000000
_cell_angle_gamma   90.00000000
_symmetry_Int_Tables_number   1
_chemical_formula_structural   La3NdRhAu3
_chemical_formula_sum   'La3 Nd1 Rh1 Au3'
_cell_volume   213.26057043
_cell_formula_units_Z   1
loop_
 _symmetry_equiv_pos_site_id
 _symmetry_equiv_pos_as_xyz
  1  'x, y, z'
loop_
 _atom_site_type_symbol
 _atom_site_label
 _atom_site_symmetry_multiplicity
 _atom_site_fract_x
 _atom_site_fract_y
 _atom_site_fract_z
 _atom_site_occupancy
  La  La0  1  0.250000  0.370089  0.678194  1
  La  La1  1  0.750000  0.653986  0.322486  1
  La  La2  1  0.750000  0.858232  0.803975  1
  Nd  Nd3  1  0.250000  0.141976  0.190168  1
  Rh  Rh4  1  0.250000  0.824252  0.542438  1
  Au  Au5  1  0.250000  0.655339  0.042788  1
  Au  Au6  1  0.750000  0.149434  0.453275  1
  Au  Au7  1  0.750000  0.346692  0.966674  1
