# generated using pymatgen
data_Ag6PdRh2F18
_symmetry_space_group_name_H-M   'P 1'
_cell_length_a   9.75121676
_cell_length_b   9.75373941
_cell_length_c   5.22154300
_cell_angle_alpha   89.97670865
_cell_angle_beta   89.96552693
_cell_angle_gamma   119.99133192
_symmetry_Int_Tables_number   1
_chemical_formula_structural   Ag6PdRh2F18
_chemical_formula_sum   'Ag6 Pd1 Rh2 F18'
_cell_volume   430.12744374
_cell_formula_units_Z   1
loop_
 _symmetry_equiv_pos_site_id
 _symmetry_equiv_pos_as_xyz
  1  'x, y, z'
loop_
 _atom_site_type_symbol
 _atom_site_label
 _atom_site_symmetry_multiplicity
 _atom_site_fract_x
 _atom_site_fract_y
 _atom_site_fract_z
 _atom_site_occupancy
  Ag  Ag0  1  0.000788  0.625245  0.001907  1
  Ag  Ag1  1  0.998244  0.291000  0.500941  1
  Ag  Ag2  1  0.374870  0.375752  0.001905  1
  Ag  Ag3  1  0.292912  0.001929  0.500604  1
  Ag  Ag4  1  0.708936  0.707048  0.500966  1
  Ag  Ag5  1  0.624312  0.998957  0.001656  1
  Pd  Pd6  1  0.666648  0.333265  0.503630  1
  Rh  Rh7  1  0.333302  0.666768  0.499039  1
  Rh  Rh8  1  0.000012  0.000035  0.996346  1
  F  F9  1  0.088360  0.893428  0.787092  1
  F  F10  1  0.218582  0.745115  0.286178  1
  F  F11  1  0.141291  0.544448  0.712556  1
  F  F12  1  0.402931  0.858656  0.712181  1
  F  F13  1  0.255070  0.473654  0.286553  1
  F  F14  1  0.106729  0.194949  0.787004  1
  F  F15  1  0.194806  0.107613  0.205394  1
  F  F16  1  0.455551  0.597102  0.712517  1
  F  F17  1  0.526553  0.781470  0.286148  1
  F  F18  1  0.474321  0.260245  0.719987  1
  F  F19  1  0.596687  0.455331  0.286296  1
  F  F20  1  0.805212  0.911723  0.787053  1
  F  F21  1  0.544760  0.141279  0.286421  1
  F  F22  1  0.785641  0.525303  0.720123  1
  F  F23  1  0.912649  0.805038  0.205399  1
  F  F24  1  0.739548  0.214008  0.720189  1
  F  F25  1  0.858922  0.403344  0.286516  1
  F  F26  1  0.892363  0.087294  0.205400  1
