# generated using pymatgen
data_Nd4FeRuC8
_symmetry_space_group_name_H-M   'P 1'
_cell_length_a   5.32123259
_cell_length_b   6.86967628
_cell_length_c   6.86967790
_cell_angle_alpha   68.26045449
_cell_angle_beta   67.21347696
_cell_angle_gamma   67.21347992
_symmetry_Int_Tables_number   1
_chemical_formula_structural   Nd4FeRuC8
_chemical_formula_sum   'Nd4 Fe1 Ru1 C8'
_cell_volume   206.15405909
_cell_formula_units_Z   1
loop_
 _symmetry_equiv_pos_site_id
 _symmetry_equiv_pos_as_xyz
  1  'x, y, z'
loop_
 _atom_site_type_symbol
 _atom_site_label
 _atom_site_symmetry_multiplicity
 _atom_site_fract_x
 _atom_site_fract_y
 _atom_site_fract_z
 _atom_site_occupancy
  Nd  Nd0  1  0.148248  0.197254  0.508224  1
  Nd  Nd1  1  0.853726  0.802746  0.491776  1
  Nd  Nd2  1  0.646274  0.508224  0.197254  1
  Nd  Nd3  1  0.351752  0.491776  0.802746  1
  Fe  Fe4  1  0.250000  0.000000  0.000000  1
  Ru  Ru5  1  0.750000  0.000000  0.000000  1
  C  C6  1  0.372568  0.793195  0.455058  1
  C  C7  1  0.620820  0.206805  0.544942  1
  C  C8  1  0.879180  0.455058  0.793195  1
  C  C9  1  0.127432  0.544942  0.206805  1
  C  C10  1  0.403260  0.909810  0.241624  1
  C  C11  1  0.554694  0.090190  0.758376  1
  C  C12  1  0.945306  0.241624  0.909810  1
  C  C13  1  0.096740  0.758376  0.090190  1
