# generated using pymatgen
data_Lu2UCo2Si7
_symmetry_space_group_name_H-M   'P 1'
_cell_length_a   3.97219436
_cell_length_b   3.95589100
_cell_length_c   12.26307305
_cell_angle_alpha   90.00000000
_cell_angle_beta   99.32054812
_cell_angle_gamma   90.00000000
_symmetry_Int_Tables_number   1
_chemical_formula_structural   Lu2UCo2Si7
_chemical_formula_sum   'Lu2 U1 Co2 Si7'
_cell_volume   190.15259175
_cell_formula_units_Z   1
loop_
 _symmetry_equiv_pos_site_id
 _symmetry_equiv_pos_as_xyz
  1  'x, y, z'
loop_
 _atom_site_type_symbol
 _atom_site_label
 _atom_site_symmetry_multiplicity
 _atom_site_fract_x
 _atom_site_fract_y
 _atom_site_fract_z
 _atom_site_occupancy
  Lu  Lu0  1  0.316017  0.000000  0.632035  1
  Lu  Lu1  1  0.683983  0.000000  0.367965  1
  U  U2  1  0.000000  0.500000  0.000000  1
  Co  Co3  1  0.129478  0.500000  0.258957  1
  Co  Co4  1  0.870522  0.500000  0.741043  1
  Si  Si5  1  0.500000  0.000000  0.000000  1
  Si  Si6  1  0.412851  0.500000  0.825702  1
  Si  Si7  1  0.587149  0.500000  0.174298  1
  Si  Si8  1  0.086882  0.000000  0.173764  1
  Si  Si9  1  0.913118  0.000000  0.826236  1
  Si  Si10  1  0.221749  0.500000  0.443497  1
  Si  Si11  1  0.778251  0.500000  0.556503  1
