# generated using pymatgen
data_Tm10Lu2Co4TcSn
_symmetry_space_group_name_H-M   'P 1'
_cell_length_a   8.16076744
_cell_length_b   8.15792329
_cell_length_c   8.15792348
_cell_angle_alpha   111.53204110
_cell_angle_beta   110.84029060
_cell_angle_gamma   106.08086839
_symmetry_Int_Tables_number   1
_chemical_formula_structural   Tm10Lu2Co4TcSn
_chemical_formula_sum   'Tm10 Lu2 Co4 Tc1 Sn1'
_cell_volume   417.05480375
_cell_formula_units_Z   1
loop_
 _symmetry_equiv_pos_site_id
 _symmetry_equiv_pos_as_xyz
  1  'x, y, z'
loop_
 _atom_site_type_symbol
 _atom_site_label
 _atom_site_symmetry_multiplicity
 _atom_site_fract_x
 _atom_site_fract_y
 _atom_site_fract_z
 _atom_site_occupancy
  Tm  Tm0  1  0.025732  0.221702  0.804031  1
  Tm  Tm1  1  0.974268  0.778298  0.195969  1
  Tm  Tm2  1  0.184108  0.279661  0.463044  1
  Tm  Tm3  1  0.815892  0.720339  0.536956  1
  Tm  Tm4  1  0.184108  0.721063  0.904445  1
  Tm  Tm5  1  0.815892  0.278937  0.095555  1
  Tm  Tm6  1  0.312692  0.617448  0.305949  1
  Tm  Tm7  1  0.687308  0.382552  0.694051  1
  Tm  Tm8  1  0.312692  0.006743  0.695245  1
  Tm  Tm9  1  0.687308  0.993257  0.304755  1
  Lu  Lu10  1  0.417997  0.221586  0.196412  1
  Lu  Lu11  1  0.582003  0.778414  0.803588  1
  Co  Co12  1  0.376406  0.000474  0.375933  1
  Co  Co13  1  0.623594  0.999526  0.624067  1
  Co  Co14  1  0.112162  0.611898  0.500264  1
  Co  Co15  1  0.887838  0.388102  0.499736  1
  Tc  Tc16  1  0.000000  0.000000  0.000000  1
  Sn  Sn17  1  0.500000  0.500000  0.000000  1
