# generated using pymatgen
data_La8Si15Rh
_symmetry_space_group_name_H-M   'P 1'
_cell_length_a   8.28327800
_cell_length_b   8.28327871
_cell_length_c   8.73113400
_cell_angle_alpha   90.00000000
_cell_angle_beta   90.00000000
_cell_angle_gamma   119.99999715
_symmetry_Int_Tables_number   1
_chemical_formula_structural   La8Si15Rh
_chemical_formula_sum   'La8 Si15 Rh1'
_cell_volume   518.80697908
_cell_formula_units_Z   1
loop_
 _symmetry_equiv_pos_site_id
 _symmetry_equiv_pos_as_xyz
  1  'x, y, z'
loop_
 _atom_site_type_symbol
 _atom_site_label
 _atom_site_symmetry_multiplicity
 _atom_site_fract_x
 _atom_site_fract_y
 _atom_site_fract_z
 _atom_site_occupancy
  La  La0  1  0.500081  0.499919  0.752928  1
  La  La1  1  0.500083  0.499917  0.247030  1
  La  La2  1  0.999837  0.499901  0.752927  1
  La  La3  1  0.999825  0.499903  0.247021  1
  La  La4  1  0.500099  0.000163  0.752927  1
  La  La5  1  0.500097  0.000175  0.247021  1
  La  La6  1  0.999992  0.000008  0.751076  1
  La  La7  1  0.999985  0.000015  0.249056  1
  Si  Si8  1  0.666665  0.333335  0.999841  1
  Si  Si9  1  0.333336  0.666664  0.999890  1
  Si  Si10  1  0.333335  0.666665  0.499863  1
  Si  Si11  1  0.834120  0.165880  0.000058  1
  Si  Si12  1  0.167693  0.832307  0.000032  1
  Si  Si13  1  0.331767  0.165880  0.000059  1
  Si  Si14  1  0.163044  0.836956  0.500075  1
  Si  Si15  1  0.664608  0.832308  0.000032  1
  Si  Si16  1  0.829813  0.170187  0.500062  1
  Si  Si17  1  0.834120  0.668233  0.000059  1
  Si  Si18  1  0.673912  0.836960  0.500075  1
  Si  Si19  1  0.167692  0.335392  0.000032  1
  Si  Si20  1  0.340378  0.170190  0.500061  1
  Si  Si21  1  0.163040  0.326088  0.500075  1
  Si  Si22  1  0.829810  0.659622  0.500061  1
  Rh  Rh23  1  0.666666  0.333334  0.499738  1
