# generated using pymatgen
data_Tm2UCo2Si7
_symmetry_space_group_name_H-M   'P 1'
_cell_length_a   3.98983925
_cell_length_b   3.98399400
_cell_length_c   12.32103049
_cell_angle_alpha   90.00000000
_cell_angle_beta   99.31788670
_cell_angle_gamma   90.00000000
_symmetry_Int_Tables_number   1
_chemical_formula_structural   Tm2UCo2Si7
_chemical_formula_sum   'Tm2 U1 Co2 Si7'
_cell_volume   193.26470286
_cell_formula_units_Z   1
loop_
 _symmetry_equiv_pos_site_id
 _symmetry_equiv_pos_as_xyz
  1  'x, y, z'
loop_
 _atom_site_type_symbol
 _atom_site_label
 _atom_site_symmetry_multiplicity
 _atom_site_fract_x
 _atom_site_fract_y
 _atom_site_fract_z
 _atom_site_occupancy
  Tm  Tm0  1  0.316247  0.000000  0.632496  1
  Tm  Tm1  1  0.683753  0.000000  0.367504  1
  U  U2  1  0.000000  0.500000  0.000000  1
  Co  Co3  1  0.128906  0.500000  0.257812  1
  Co  Co4  1  0.871094  0.500000  0.742188  1
  Si  Si5  1  0.500000  0.000000  0.000000  1
  Si  Si6  1  0.413073  0.500000  0.826147  1
  Si  Si7  1  0.586927  0.500000  0.173853  1
  Si  Si8  1  0.086623  0.000000  0.173246  1
  Si  Si9  1  0.913377  0.000000  0.826754  1
  Si  Si10  1  0.221529  0.500000  0.443057  1
  Si  Si11  1  0.778471  0.500000  0.556943  1
