# generated using pymatgen
data_Ti3Mn3GaP2
_symmetry_space_group_name_H-M   'P 1'
_cell_length_a   6.47068000
_cell_length_b   6.47067991
_cell_length_c   3.20503500
_cell_angle_alpha   90.00000000
_cell_angle_beta   90.00000000
_cell_angle_gamma   120.00000320
_symmetry_Int_Tables_number   1
_chemical_formula_structural   Ti3Mn3GaP2
_chemical_formula_sum   'Ti3 Mn3 Ga1 P2'
_cell_volume   116.21528022
_cell_formula_units_Z   1
loop_
 _symmetry_equiv_pos_site_id
 _symmetry_equiv_pos_as_xyz
  1  'x, y, z'
loop_
 _atom_site_type_symbol
 _atom_site_label
 _atom_site_symmetry_multiplicity
 _atom_site_fract_x
 _atom_site_fract_y
 _atom_site_fract_z
 _atom_site_occupancy
  Ti  Ti0  1  0.607199  0.015419  0.000000  1
  Ti  Ti1  1  0.984581  0.591781  0.000000  1
  Ti  Ti2  1  0.408219  0.392801  0.000000  1
  Mn  Mn3  1  0.253929  0.013607  0.500000  1
  Mn  Mn4  1  0.986393  0.240322  0.500000  1
  Mn  Mn5  1  0.759678  0.746071  0.500000  1
  Ga  Ga6  1  0.333333  0.666667  0.500000  1
  P  P7  1  0.666667  0.333333  0.500000  1
  P  P8  1  0.000000  0.000000  0.000000  1
