# generated using pymatgen
data_Tm(HfRe6)4
_symmetry_space_group_name_H-M   'P 1'
_cell_length_a   8.49028140
_cell_length_b   8.49028214
_cell_length_c   8.49028200
_cell_angle_alpha   109.47122030
_cell_angle_beta   109.47122206
_cell_angle_gamma   109.47122419
_symmetry_Int_Tables_number   1
_chemical_formula_structural   Tm(HfRe6)4
_chemical_formula_sum   'Tm1 Hf4 Re24'
_cell_volume   471.13395655
_cell_formula_units_Z   1
loop_
 _symmetry_equiv_pos_site_id
 _symmetry_equiv_pos_as_xyz
  1  'x, y, z'
loop_
 _atom_site_type_symbol
 _atom_site_label
 _atom_site_symmetry_multiplicity
 _atom_site_fract_x
 _atom_site_fract_y
 _atom_site_fract_z
 _atom_site_occupancy
  Tm  Tm0  1  0.000000  0.000000  0.000000  1
  Hf  Hf1  1  0.628470  0.000000  0.000000  1
  Hf  Hf2  1  0.000000  0.628470  0.000000  1
  Hf  Hf3  1  0.000000  0.000000  0.628470  1
  Hf  Hf4  1  0.371530  0.371530  0.371530  1
  Re  Re5  1  0.396174  0.676598  0.000000  1
  Re  Re6  1  0.719576  0.323402  0.323402  1
  Re  Re7  1  0.396174  0.000000  0.676598  1
  Re  Re8  1  0.676598  0.396174  0.000000  1
  Re  Re9  1  0.000000  0.396174  0.676598  1
  Re  Re10  1  0.323402  0.719576  0.323402  1
  Re  Re11  1  0.323402  0.323402  0.719576  1
  Re  Re12  1  0.000000  0.676598  0.396174  1
  Re  Re13  1  0.676598  0.000000  0.396174  1
  Re  Re14  1  0.603826  0.603826  0.280424  1
  Re  Re15  1  0.280424  0.603826  0.603826  1
  Re  Re16  1  0.603826  0.280424  0.603826  1
  Re  Re17  1  0.377305  0.194339  0.000000  1
  Re  Re18  1  0.182966  0.805661  0.805661  1
  Re  Re19  1  0.377305  0.000000  0.194339  1
  Re  Re20  1  0.194339  0.377305  0.000000  1
  Re  Re21  1  0.000000  0.377305  0.194339  1
  Re  Re22  1  0.805661  0.182966  0.805661  1
  Re  Re23  1  0.805661  0.805661  0.182966  1
  Re  Re24  1  0.000000  0.194339  0.377305  1
  Re  Re25  1  0.194339  0.000000  0.377305  1
  Re  Re26  1  0.622695  0.622695  0.817034  1
  Re  Re27  1  0.817034  0.622695  0.622695  1
  Re  Re28  1  0.622695  0.817034  0.622695  1
