# generated using pymatgen
data_K3Sm(VS4)2
_symmetry_space_group_name_H-M   'P 1'
_cell_length_a   8.84486361
_cell_length_b   9.99237476
_cell_length_c   10.71506300
_cell_angle_alpha   107.38834509
_cell_angle_beta   102.92425871
_cell_angle_gamma   113.92643268
_symmetry_Int_Tables_number   1
_chemical_formula_structural   K3Sm(VS4)2
_chemical_formula_sum   'K6 Sm2 V4 S16'
_cell_volume   758.77171164
_cell_formula_units_Z   2
loop_
 _symmetry_equiv_pos_site_id
 _symmetry_equiv_pos_as_xyz
  1  'x, y, z'
loop_
 _atom_site_type_symbol
 _atom_site_label
 _atom_site_symmetry_multiplicity
 _atom_site_fract_x
 _atom_site_fract_y
 _atom_site_fract_z
 _atom_site_occupancy
  K  K0  1  0.255334  0.005470  0.010727  1
  K  K1  1  0.488007  0.738141  0.476167  1
  K  K2  1  0.500000  0.500000  0.000000  1
  K  K3  1  0.511993  0.261859  0.523833  1
  K  K4  1  0.744666  0.994530  0.989273  1
  K  K5  1  0.000000  0.500000  0.000000  1
  Sm  Sm6  1  0.991625  0.241623  0.483247  1
  Sm  Sm7  1  0.008375  0.758377  0.516753  1
  V  V8  1  0.991473  0.094538  0.750124  1
  V  V9  1  0.741407  0.344351  0.249959  1
  V  V10  1  0.258593  0.655649  0.750041  1
  V  V11  1  0.008527  0.905462  0.249876  1
  S  S12  1  0.358075  0.730711  0.973688  1
  S  S13  1  0.138520  0.158884  0.287705  1
  S  S14  1  0.354491  0.503933  0.648394  1
  S  S15  1  0.884365  0.756963  0.026294  1
  S  S16  1  0.350868  0.871242  0.712297  1
  S  S17  1  0.206085  0.855503  0.351541  1
  S  S18  1  0.968702  0.524577  0.657996  1
  S  S19  1  0.810684  0.866533  0.342011  1
  S  S20  1  0.645509  0.496067  0.351606  1
  S  S21  1  0.031298  0.475423  0.342004  1
  S  S22  1  0.189316  0.133467  0.657989  1
  S  S23  1  0.793915  0.144497  0.648459  1
  S  S24  1  0.641925  0.269289  0.026312  1
  S  S25  1  0.115635  0.243037  0.973706  1
  S  S26  1  0.649132  0.128758  0.287703  1
  S  S27  1  0.861480  0.841116  0.712295  1
