# generated using pymatgen
data_Nd6CoCl11
_symmetry_space_group_name_H-M   'P 1'
_cell_length_a   8.25731002
_cell_length_b   8.25730935
_cell_length_c   7.30962398
_cell_angle_alpha   86.69238619
_cell_angle_beta   86.69238905
_cell_angle_gamma   101.72865395
_symmetry_Int_Tables_number   1
_chemical_formula_structural   Nd6CoCl11
_chemical_formula_sum   'Nd6 Co1 Cl11'
_cell_volume   485.94425801
_cell_formula_units_Z   1
loop_
 _symmetry_equiv_pos_site_id
 _symmetry_equiv_pos_as_xyz
  1  'x, y, z'
loop_
 _atom_site_type_symbol
 _atom_site_label
 _atom_site_symmetry_multiplicity
 _atom_site_fract_x
 _atom_site_fract_y
 _atom_site_fract_z
 _atom_site_occupancy
  Nd  Nd0  1  0.708706  0.016100  0.773004  1
  Nd  Nd1  1  0.182946  0.182946  0.770939  1
  Nd  Nd2  1  0.983900  0.291294  0.226996  1
  Nd  Nd3  1  0.016100  0.708706  0.773004  1
  Nd  Nd4  1  0.817054  0.817054  0.229061  1
  Nd  Nd5  1  0.291294  0.983900  0.226996  1
  Co  Co6  1  0.000000  0.000000  0.000000  1
  Cl  Cl7  1  0.000000  0.000000  0.500000  1
  Cl  Cl8  1  0.662882  0.094090  0.361783  1
  Cl  Cl9  1  0.488317  0.202282  0.940663  1
  Cl  Cl10  1  0.303764  0.303764  0.365347  1
  Cl  Cl11  1  0.905910  0.337118  0.638217  1
  Cl  Cl12  1  0.202282  0.488317  0.940663  1
  Cl  Cl13  1  0.797718  0.511683  0.059337  1
  Cl  Cl14  1  0.094090  0.662882  0.361783  1
  Cl  Cl15  1  0.696236  0.696236  0.634653  1
  Cl  Cl16  1  0.511683  0.797718  0.059337  1
  Cl  Cl17  1  0.337118  0.905910  0.638217  1
