# generated using pymatgen
data_Nd8Dy11Si16Hg
_symmetry_space_group_name_H-M   'P 1'
_cell_length_a   7.47883000
_cell_length_b   7.78552300
_cell_length_c   14.82230000
_cell_angle_alpha   90.00000000
_cell_angle_beta   90.00000000
_cell_angle_gamma   90.00011533
_symmetry_Int_Tables_number   1
_chemical_formula_structural   Nd8Dy11Si16Hg
_chemical_formula_sum   'Nd8 Dy11 Si16 Hg1'
_cell_volume   863.05217732
_cell_formula_units_Z   1
loop_
 _symmetry_equiv_pos_site_id
 _symmetry_equiv_pos_as_xyz
  1  'x, y, z'
loop_
 _atom_site_type_symbol
 _atom_site_label
 _atom_site_symmetry_multiplicity
 _atom_site_fract_x
 _atom_site_fract_y
 _atom_site_fract_z
 _atom_site_occupancy
  Nd  Nd0  1  0.965949  0.822500  0.102229  1
  Nd  Nd1  1  0.477475  0.689031  0.398049  1
  Nd  Nd2  1  0.524598  0.321121  0.902403  1
  Nd  Nd3  1  0.024825  0.179925  0.597506  1
  Nd  Nd4  1  0.024825  0.179925  0.902494  1
  Nd  Nd5  1  0.524598  0.321121  0.597597  1
  Nd  Nd6  1  0.477475  0.689031  0.101951  1
  Nd  Nd7  1  0.965949  0.822500  0.397771  1
  Dy  Dy8  1  0.145280  0.506557  0.250000  1
  Dy  Dy9  1  0.852070  0.488639  0.750000  1
  Dy  Dy10  1  0.348937  0.011680  0.750000  1
  Dy  Dy11  1  0.682102  0.817631  0.875988  1
  Dy  Dy12  1  0.181633  0.677838  0.622123  1
  Dy  Dy13  1  0.813422  0.313095  0.124964  1
  Dy  Dy14  1  0.330974  0.174538  0.374559  1
  Dy  Dy15  1  0.330974  0.174538  0.125441  1
  Dy  Dy16  1  0.813422  0.313095  0.375036  1
  Dy  Dy17  1  0.181633  0.677838  0.877877  1
  Dy  Dy18  1  0.682102  0.817631  0.624012  1
  Si  Si19  1  0.770456  0.610372  0.250000  1
  Si  Si20  1  0.251441  0.874226  0.250000  1
  Si  Si21  1  0.732429  0.120972  0.750000  1
  Si  Si22  1  0.232732  0.378247  0.750000  1
  Si  Si23  1  0.035215  0.112675  0.250000  1
  Si  Si24  1  0.517938  0.413314  0.250000  1
  Si  Si25  1  0.475918  0.607814  0.750000  1
  Si  Si26  1  0.976470  0.888144  0.750000  1
  Si  Si27  1  0.856755  0.528830  0.962619  1
  Si  Si28  1  0.356602  0.969513  0.540004  1
  Si  Si29  1  0.648640  0.035273  0.030482  1
  Si  Si30  1  0.144664  0.470981  0.457456  1
  Si  Si31  1  0.144664  0.470981  0.042544  1
  Si  Si32  1  0.648640  0.035273  0.469518  1
  Si  Si33  1  0.356602  0.969513  0.959996  1
  Si  Si34  1  0.856755  0.528830  0.537381  1
  Hg  Hg35  1  0.645840  0.986807  0.250000  1
