# generated using pymatgen
data_DyEr3(AlGa2)2
_symmetry_space_group_name_H-M   'P 1'
_cell_length_a   6.96451651
_cell_length_b   6.96451651
_cell_length_c   4.44510200
_cell_angle_alpha   90.00000000
_cell_angle_beta   90.00000000
_cell_angle_gamma   89.84336142
_symmetry_Int_Tables_number   1
_chemical_formula_structural   DyEr3(AlGa2)2
_chemical_formula_sum   'Dy1 Er3 Al2 Ga4'
_cell_volume   215.60660054
_cell_formula_units_Z   1
loop_
 _symmetry_equiv_pos_site_id
 _symmetry_equiv_pos_as_xyz
  1  'x, y, z'
loop_
 _atom_site_type_symbol
 _atom_site_label
 _atom_site_symmetry_multiplicity
 _atom_site_fract_x
 _atom_site_fract_y
 _atom_site_fract_z
 _atom_site_occupancy
  Dy  Dy0  1  0.673482  0.173482  0.500000  1
  Er  Er1  1  0.326249  0.826249  0.500000  1
  Er  Er2  1  0.826782  0.673467  0.500000  1
  Er  Er3  1  0.173467  0.326782  0.500000  1
  Al  Al4  1  0.499863  0.500161  0.000000  1
  Al  Al5  1  0.000161  0.999863  0.000000  1
  Ga  Ga6  1  0.869537  0.369537  0.000000  1
  Ga  Ga7  1  0.368466  0.130870  0.000000  1
  Ga  Ga8  1  0.131122  0.631122  0.000000  1
  Ga  Ga9  1  0.630870  0.868466  0.000000  1
