# generated using pymatgen
data_Tb3Dy5(AgPt)2
_symmetry_space_group_name_H-M   'P 1'
_cell_length_a   9.55604858
_cell_length_b   9.55604826
_cell_length_c   9.55605000
_cell_angle_alpha   60.00000092
_cell_angle_beta   60.00000202
_cell_angle_gamma   60.00000424
_symmetry_Int_Tables_number   1
_chemical_formula_structural   Tb3Dy5(AgPt)2
_chemical_formula_sum   'Tb6 Dy10 Ag4 Pt4'
_cell_volume   617.04966765
_cell_formula_units_Z   2
loop_
 _symmetry_equiv_pos_site_id
 _symmetry_equiv_pos_as_xyz
  1  'x, y, z'
loop_
 _atom_site_type_symbol
 _atom_site_label
 _atom_site_symmetry_multiplicity
 _atom_site_fract_x
 _atom_site_fract_y
 _atom_site_fract_z
 _atom_site_occupancy
  Tb  Tb0  1  0.934456  0.565544  0.565544  1
  Tb  Tb1  1  0.565544  0.934456  0.934456  1
  Tb  Tb2  1  0.565544  0.934456  0.565544  1
  Tb  Tb3  1  0.934456  0.565544  0.934456  1
  Tb  Tb4  1  0.565544  0.565544  0.934456  1
  Tb  Tb5  1  0.934456  0.934456  0.565544  1
  Dy  Dy6  1  0.355543  0.355543  0.355543  1
  Dy  Dy7  1  0.355543  0.355543  0.933371  1
  Dy  Dy8  1  0.355543  0.933371  0.355543  1
  Dy  Dy9  1  0.933371  0.355543  0.355543  1
  Dy  Dy10  1  0.810929  0.189071  0.189071  1
  Dy  Dy11  1  0.189071  0.810929  0.810929  1
  Dy  Dy12  1  0.189071  0.810929  0.189071  1
  Dy  Dy13  1  0.810929  0.189071  0.810929  1
  Dy  Dy14  1  0.189071  0.189071  0.810929  1
  Dy  Dy15  1  0.810929  0.810929  0.189071  1
  Ag  Ag16  1  0.582190  0.582190  0.582190  1
  Ag  Ag17  1  0.582190  0.582190  0.253429  1
  Ag  Ag18  1  0.582190  0.253429  0.582190  1
  Ag  Ag19  1  0.253429  0.582190  0.582190  1
  Pt  Pt20  1  0.144361  0.144361  0.144361  1
  Pt  Pt21  1  0.144361  0.144361  0.566917  1
  Pt  Pt22  1  0.144361  0.566917  0.144361  1
  Pt  Pt23  1  0.566917  0.144361  0.144361  1
