# generated using pymatgen
data_Er2Co9P6Os
_symmetry_space_group_name_H-M   'P 1'
_cell_length_a   3.66321200
_cell_length_b   10.29396600
_cell_length_c   11.68951600
_cell_angle_alpha   90.00000000
_cell_angle_beta   90.00000000
_cell_angle_gamma   90.00000000
_symmetry_Int_Tables_number   1
_chemical_formula_structural   Er2Co9P6Os
_chemical_formula_sum   'Er4 Co18 P12 Os2'
_cell_volume   440.79972247
_cell_formula_units_Z   2
loop_
 _symmetry_equiv_pos_site_id
 _symmetry_equiv_pos_as_xyz
  1  'x, y, z'
loop_
 _atom_site_type_symbol
 _atom_site_label
 _atom_site_symmetry_multiplicity
 _atom_site_fract_x
 _atom_site_fract_y
 _atom_site_fract_z
 _atom_site_occupancy
  Er  Er0  1  0.250000  0.582307  0.701925  1
  Er  Er1  1  0.250000  0.917693  0.201925  1
  Er  Er2  1  0.750000  0.413499  0.295201  1
  Er  Er3  1  0.750000  0.086501  0.795201  1
  Co  Co4  1  0.750000  0.283088  0.008491  1
  Co  Co5  1  0.750000  0.216912  0.508491  1
  Co  Co6  1  0.250000  0.406446  0.487783  1
  Co  Co7  1  0.250000  0.093554  0.987783  1
  Co  Co8  1  0.750000  0.591558  0.510466  1
  Co  Co9  1  0.750000  0.908442  0.010466  1
  Co  Co10  1  0.250000  0.220364  0.177224  1
  Co  Co11  1  0.250000  0.279636  0.677224  1
  Co  Co12  1  0.750000  0.777256  0.822677  1
  Co  Co13  1  0.750000  0.722744  0.322677  1
  Co  Co14  1  0.250000  0.887455  0.702074  1
  Co  Co15  1  0.250000  0.612545  0.202074  1
  Co  Co16  1  0.750000  0.115689  0.300727  1
  Co  Co17  1  0.750000  0.384311  0.800727  1
  Co  Co18  1  0.250000  0.465102  0.932563  1
  Co  Co19  1  0.250000  0.034898  0.432563  1
  Co  Co20  1  0.750000  0.533533  0.069111  1
  Co  Co21  1  0.750000  0.966467  0.569111  1
  P  P22  1  0.250000  0.416181  0.112811  1
  P  P23  1  0.250000  0.083819  0.612811  1
  P  P24  1  0.750000  0.578379  0.886181  1
  P  P25  1  0.750000  0.921621  0.386181  1
  P  P26  1  0.250000  0.269665  0.869514  1
  P  P27  1  0.250000  0.230335  0.369514  1
  P  P28  1  0.750000  0.730122  0.132513  1
  P  P29  1  0.750000  0.769878  0.632513  1
  P  P30  1  0.250000  0.593107  0.389868  1
  P  P31  1  0.250000  0.906893  0.889868  1
  P  P32  1  0.750000  0.397819  0.608983  1
  P  P33  1  0.750000  0.102181  0.108983  1
  Os  Os34  1  0.250000  0.715332  0.991887  1
  Os  Os35  1  0.250000  0.784668  0.491887  1
