# generated using pymatgen
data_DyEr(Co3Si2)2
_symmetry_space_group_name_H-M   'P 1'
_cell_length_a   6.24360501
_cell_length_b   6.24360483
_cell_length_c   6.24360516
_cell_angle_alpha   130.60806798
_cell_angle_beta   112.91623802
_cell_angle_gamma   87.69229582
_symmetry_Int_Tables_number   1
_chemical_formula_structural   DyEr(Co3Si2)2
_chemical_formula_sum   'Dy1 Er1 Co6 Si4'
_cell_volume   162.09286066
_cell_formula_units_Z   1
loop_
 _symmetry_equiv_pos_site_id
 _symmetry_equiv_pos_as_xyz
  1  'x, y, z'
loop_
 _atom_site_type_symbol
 _atom_site_label
 _atom_site_symmetry_multiplicity
 _atom_site_fract_x
 _atom_site_fract_y
 _atom_site_fract_z
 _atom_site_occupancy
  Dy  Dy0  1  0.250000  0.529588  0.279588  1
  Er  Er1  1  0.750000  0.469306  0.719306  1
  Co  Co2  1  0.000210  0.000281  0.500491  1
  Co  Co3  1  0.499790  0.000281  0.000071  1
  Co  Co4  1  0.724566  0.000739  0.724501  1
  Co  Co5  1  0.223762  0.499935  0.724501  1
  Co  Co6  1  0.276238  0.000739  0.276173  1
  Co  Co7  1  0.775434  0.499935  0.276173  1
  Si  Si8  1  0.080282  0.873007  0.792725  1
  Si  Si9  1  0.918526  0.125400  0.206874  1
  Si  Si10  1  0.581474  0.788348  0.206874  1
  Si  Si11  1  0.419718  0.212442  0.792725  1
