# generated using pymatgen
data_Ho16Hg4PdRh3
_symmetry_space_group_name_H-M   'P 1'
_cell_length_a   9.55779315
_cell_length_b   9.56824401
_cell_length_c   9.55779300
_cell_angle_alpha   60.03612854
_cell_angle_beta   60.00000397
_cell_angle_gamma   60.03612922
_symmetry_Int_Tables_number   1
_chemical_formula_structural   Ho16Hg4PdRh3
_chemical_formula_sum   'Ho16 Hg4 Pd1 Rh3'
_cell_volume   618.39995896
_cell_formula_units_Z   1
loop_
 _symmetry_equiv_pos_site_id
 _symmetry_equiv_pos_as_xyz
  1  'x, y, z'
loop_
 _atom_site_type_symbol
 _atom_site_label
 _atom_site_symmetry_multiplicity
 _atom_site_fract_x
 _atom_site_fract_y
 _atom_site_fract_z
 _atom_site_occupancy
  Ho  Ho0  1  0.185965  0.184698  0.814669  1
  Ho  Ho1  1  0.604472  0.599476  0.191581  1
  Ho  Ho2  1  0.438786  0.065590  0.438786  1
  Ho  Ho3  1  0.438270  0.438092  0.061818  1
  Ho  Ho4  1  0.814669  0.184698  0.814669  1
  Ho  Ho5  1  0.185501  0.812675  0.185501  1
  Ho  Ho6  1  0.438786  0.065590  0.056838  1
  Ho  Ho7  1  0.185501  0.812675  0.816324  1
  Ho  Ho8  1  0.061818  0.438092  0.061818  1
  Ho  Ho9  1  0.816324  0.812675  0.185501  1
  Ho  Ho10  1  0.191581  0.599476  0.604472  1
  Ho  Ho11  1  0.061818  0.438092  0.438270  1
  Ho  Ho12  1  0.056838  0.065590  0.438786  1
  Ho  Ho13  1  0.814669  0.184698  0.185965  1
  Ho  Ho14  1  0.600646  0.198063  0.600646  1
  Ho  Ho15  1  0.604472  0.599476  0.604472  1
  Hg  Hg16  1  0.834224  0.834843  0.834224  1
  Hg  Hg17  1  0.834224  0.834843  0.496710  1
  Hg  Hg18  1  0.496710  0.834843  0.834224  1
  Hg  Hg19  1  0.835058  0.494826  0.835058  1
  Pd  Pd20  1  0.393907  0.818277  0.393907  1
  Rh  Rh21  1  0.392839  0.394239  0.392839  1
  Rh  Rh22  1  0.820082  0.394239  0.392839  1
  Rh  Rh23  1  0.392839  0.394239  0.820082  1
