# generated using pymatgen
data_Hf2ZrCoN
_symmetry_space_group_name_H-M   'P 1'
_cell_length_a   5.78867297
_cell_length_b   5.78867273
_cell_length_c   8.78786800
_cell_angle_alpha   90.00000000
_cell_angle_beta   90.00000000
_cell_angle_gamma   147.57549480
_symmetry_Int_Tables_number   1
_chemical_formula_structural   Hf2ZrCoN
_chemical_formula_sum   'Hf4 Zr2 Co2 N2'
_cell_volume   157.89141420
_cell_formula_units_Z   2
loop_
 _symmetry_equiv_pos_site_id
 _symmetry_equiv_pos_as_xyz
  1  'x, y, z'
loop_
 _atom_site_type_symbol
 _atom_site_label
 _atom_site_symmetry_multiplicity
 _atom_site_fract_x
 _atom_site_fract_y
 _atom_site_fract_z
 _atom_site_occupancy
  Hf  Hf0  1  0.133022  0.866981  0.064346  1
  Hf  Hf1  1  0.133022  0.866981  0.435655  1
  Hf  Hf2  1  0.866981  0.133022  0.564346  1
  Hf  Hf3  1  0.866981  0.133022  0.935655  1
  Zr  Zr4  1  0.434570  0.565433  0.250001  1
  Zr  Zr5  1  0.565433  0.434570  0.750000  1
  Co  Co6  1  0.748758  0.251244  0.250001  1
  Co  Co7  1  0.251244  0.748758  0.750000  1
  N  N8  1  0.500001  0.500001  0.000000  1
  N  N9  1  0.500001  0.500001  0.500000  1
