# generated using pymatgen
data_Tb2YCu4(SiSn)2
_symmetry_space_group_name_H-M   'P 1'
_cell_length_a   8.23498669
_cell_length_b   8.23498766
_cell_length_c   8.23498692
_cell_angle_alpha   149.30369149
_cell_angle_beta   132.17401162
_cell_angle_gamma   57.90871607
_symmetry_Int_Tables_number   1
_chemical_formula_structural   Tb2YCu4(SiSn)2
_chemical_formula_sum   'Tb2 Y1 Cu4 Si2 Sn2'
_cell_volume   209.70833535
_cell_formula_units_Z   1
loop_
 _symmetry_equiv_pos_site_id
 _symmetry_equiv_pos_as_xyz
  1  'x, y, z'
loop_
 _atom_site_type_symbol
 _atom_site_label
 _atom_site_symmetry_multiplicity
 _atom_site_fract_x
 _atom_site_fract_y
 _atom_site_fract_z
 _atom_site_occupancy
  Tb  Tb0  1  0.124146  0.124146  0.000000  1
  Tb  Tb1  1  0.875854  0.875854  0.000000  1
  Y  Y2  1  0.500000  0.000000  0.500000  1
  Cu  Cu3  1  0.464647  0.653414  0.811233  1
  Cu  Cu4  1  0.842180  0.653414  0.188767  1
  Cu  Cu5  1  0.157820  0.346586  0.811233  1
  Cu  Cu6  1  0.535353  0.346586  0.188767  1
  Si  Si7  1  0.181031  0.500000  0.681031  1
  Si  Si8  1  0.818969  0.500000  0.318969  1
  Sn  Sn9  1  0.718309  0.218309  0.500000  1
  Sn  Sn10  1  0.281691  0.781691  0.500000  1
