# generated using pymatgen
data_Hf2TaTi3Rh10
_symmetry_space_group_name_H-M   'P 1'
_cell_length_a   4.17214200
_cell_length_b   5.51967373
_cell_length_c   10.74558423
_cell_angle_alpha   90.67677597
_cell_angle_beta   90.00000000
_cell_angle_gamma   90.00000000
_symmetry_Int_Tables_number   1
_chemical_formula_structural   Hf2TaTi3Rh10
_chemical_formula_sum   'Hf2 Ta1 Ti3 Rh10'
_cell_volume   247.44132002
_cell_formula_units_Z   1
loop_
 _symmetry_equiv_pos_site_id
 _symmetry_equiv_pos_as_xyz
  1  'x, y, z'
loop_
 _atom_site_type_symbol
 _atom_site_label
 _atom_site_symmetry_multiplicity
 _atom_site_fract_x
 _atom_site_fract_y
 _atom_site_fract_z
 _atom_site_occupancy
  Hf  Hf0  1  0.500000  0.662029  0.855021  1
  Hf  Hf1  1  0.500000  0.838582  0.359736  1
  Ta  Ta2  1  0.500000  0.338217  0.145153  1
  Ti  Ti3  1  0.000000  0.005265  0.999637  1
  Ti  Ti4  1  0.000000  0.496855  0.503869  1
  Ti  Ti5  1  0.500000  0.159282  0.646227  1
  Rh  Rh6  1  0.000000  0.012338  0.505444  1
  Rh  Rh7  1  0.000000  0.493788  0.001460  1
  Rh  Rh8  1  0.000000  0.095419  0.236449  1
  Rh  Rh9  1  0.000000  0.907072  0.759907  1
  Rh  Rh10  1  0.000000  0.589356  0.257491  1
  Rh  Rh11  1  0.000000  0.396938  0.734113  1
  Rh  Rh12  1  0.500000  0.323923  0.392827  1
  Rh  Rh13  1  0.500000  0.687838  0.604358  1
  Rh  Rh14  1  0.500000  0.813829  0.104074  1
  Rh  Rh15  1  0.500000  0.179273  0.894233  1
