# generated using pymatgen
data_Sc(Al3Ni)3
_symmetry_space_group_name_H-M   'P 1'
_cell_length_a   10.00380174
_cell_length_b   10.00380151
_cell_length_c   10.00380089
_cell_angle_alpha   42.24694063
_cell_angle_beta   42.24693970
_cell_angle_gamma   42.24694878
_symmetry_Int_Tables_number   1
_chemical_formula_structural   Sc(Al3Ni)3
_chemical_formula_sum   'Sc2 Al18 Ni6'
_cell_volume   409.55701214
_cell_formula_units_Z   2
loop_
 _symmetry_equiv_pos_site_id
 _symmetry_equiv_pos_as_xyz
  1  'x, y, z'
loop_
 _atom_site_type_symbol
 _atom_site_label
 _atom_site_symmetry_multiplicity
 _atom_site_fract_x
 _atom_site_fract_y
 _atom_site_fract_z
 _atom_site_occupancy
  Sc  Sc0  1  0.166947  0.166947  0.166947  1
  Sc  Sc1  1  0.833053  0.833053  0.833053  1
  Al  Al2  1  0.053082  0.053082  0.053082  1
  Al  Al3  1  0.713992  0.500000  0.286008  1
  Al  Al4  1  0.666162  0.333838  0.000000  1
  Al  Al5  1  0.102932  0.435072  0.767735  1
  Al  Al6  1  0.435072  0.767735  0.102932  1
  Al  Al7  1  0.387982  0.387982  0.387982  1
  Al  Al8  1  0.333838  0.000000  0.666162  1
  Al  Al9  1  0.612018  0.612018  0.612018  1
  Al  Al10  1  0.232265  0.564928  0.897068  1
  Al  Al11  1  0.564928  0.897068  0.232265  1
  Al  Al12  1  0.500000  0.286008  0.713992  1
  Al  Al13  1  0.767735  0.102932  0.435072  1
  Al  Al14  1  0.946918  0.946918  0.946918  1
  Al  Al15  1  0.286008  0.713992  0.500000  1
  Al  Al16  1  0.000000  0.666162  0.333838  1
  Al  Al17  1  0.719302  0.719302  0.719302  1
  Al  Al18  1  0.280698  0.280698  0.280698  1
  Al  Al19  1  0.897068  0.232265  0.564928  1
  Ni  Ni20  1  0.241470  0.921016  0.581501  1
  Ni  Ni21  1  0.921016  0.581501  0.241470  1
  Ni  Ni22  1  0.758530  0.418499  0.078984  1
  Ni  Ni23  1  0.078984  0.758530  0.418499  1
  Ni  Ni24  1  0.418499  0.078984  0.758530  1
  Ni  Ni25  1  0.581501  0.241470  0.921016  1
