# generated using pymatgen
data_CoCu2(TcO4)4
_symmetry_space_group_name_H-M   'P 1'
_cell_length_a   5.52751987
_cell_length_b   8.69823562
_cell_length_c   8.65390283
_cell_angle_alpha   82.52518858
_cell_angle_beta   83.79204408
_cell_angle_gamma   88.09537950
_symmetry_Int_Tables_number   1
_chemical_formula_structural   CoCu2(TcO4)4
_chemical_formula_sum   'Co1 Cu2 Tc4 O16'
_cell_volume   410.04432287
_cell_formula_units_Z   1
loop_
 _symmetry_equiv_pos_site_id
 _symmetry_equiv_pos_as_xyz
  1  'x, y, z'
loop_
 _atom_site_type_symbol
 _atom_site_label
 _atom_site_symmetry_multiplicity
 _atom_site_fract_x
 _atom_site_fract_y
 _atom_site_fract_z
 _atom_site_occupancy
  Co  Co0  1  0.524400  0.023271  0.013097  1
  Cu  Cu1  1  0.006801  0.473252  0.455624  1
  Cu  Cu2  1  0.573017  0.604159  0.909499  1
  Tc  Tc3  1  0.536635  0.688587  0.295035  1
  Tc  Tc4  1  0.958869  0.184873  0.193497  1
  Tc  Tc5  1  0.047985  0.827038  0.826593  1
  Tc  Tc6  1  0.459651  0.308512  0.687543  1
  O  O7  1  0.021724  0.363432  0.251356  1
  O  O8  1  0.849014  0.917783  0.962594  1
  O  O9  1  0.082533  0.940013  0.649535  1
  O  O10  1  0.583275  0.583250  0.133705  1
  O  O11  1  0.192893  0.312262  0.595358  1
  O  O12  1  0.289521  0.611985  0.423642  1
  O  O13  1  0.799735  0.667652  0.391967  1
  O  O14  1  0.703966  0.359815  0.545979  1
  O  O15  1  0.199540  0.127099  0.061687  1
  O  O16  1  0.515134  0.122774  0.788251  1
  O  O17  1  0.428964  0.445421  0.821262  1
  O  O18  1  0.906420  0.652806  0.806495  1
  O  O19  1  0.922092  0.048985  0.354900  1
  O  O20  1  0.688865  0.198674  0.099722  1
  O  O21  1  0.338520  0.791769  0.898276  1
  O  O22  1  0.477088  0.883867  0.222424  1
