# generated using pymatgen
data_Rb10Sr2TaNbP8
_symmetry_space_group_name_H-M   'P 1'
_cell_length_a   10.57036721
_cell_length_b   10.57086376
_cell_length_c   7.97602440
_cell_angle_alpha   87.98861391
_cell_angle_beta   87.99350151
_cell_angle_gamma   120.79354853
_symmetry_Int_Tables_number   1
_chemical_formula_structural   Rb10Sr2TaNbP8
_chemical_formula_sum   'Rb10 Sr2 Ta1 Nb1 P8'
_cell_volume   763.64721557
_cell_formula_units_Z   1
loop_
 _symmetry_equiv_pos_site_id
 _symmetry_equiv_pos_as_xyz
  1  'x, y, z'
loop_
 _atom_site_type_symbol
 _atom_site_label
 _atom_site_symmetry_multiplicity
 _atom_site_fract_x
 _atom_site_fract_y
 _atom_site_fract_z
 _atom_site_occupancy
  Rb  Rb0  1  0.464249  0.526569  0.493538  1
  Rb  Rb1  1  0.062217  0.530310  0.499007  1
  Rb  Rb2  1  0.526569  0.464224  0.993573  1
  Rb  Rb3  1  0.530410  0.062408  0.999167  1
  Rb  Rb4  1  0.864517  0.141880  0.681941  1
  Rb  Rb5  1  0.289971  0.150799  0.724191  1
  Rb  Rb6  1  0.855666  0.715782  0.656160  1
  Rb  Rb7  1  0.141950  0.864495  0.181804  1
  Rb  Rb8  1  0.715664  0.855591  0.156034  1
  Rb  Rb9  1  0.150866  0.290039  0.224069  1
  Sr  Sr10  1  0.463433  0.936164  0.494899  1
  Sr  Sr11  1  0.936241  0.463412  0.994914  1
  Ta  Ta12  1  0.328968  0.671539  0.892751  1
  Nb  Nb13  1  0.671461  0.329030  0.392820  1
  P  P14  1  0.691593  0.341694  0.695210  1
  P  P15  1  0.341543  0.691350  0.194372  1
  P  P16  1  0.789944  0.199310  0.286646  1
  P  P17  1  0.412164  0.188170  0.330065  1
  P  P18  1  0.798106  0.576606  0.260151  1
  P  P19  1  0.199700  0.789782  0.786763  1
  P  P20  1  0.576029  0.797832  0.760357  1
  P  P21  1  0.188737  0.413011  0.830148  1
