# generated using pymatgen
data_ErPaSnRh2
_symmetry_space_group_name_H-M   'P 1'
_cell_length_a   7.64482092
_cell_length_b   7.64481996
_cell_length_c   3.62884600
_cell_angle_alpha   90.00000000
_cell_angle_beta   90.00000000
_cell_angle_gamma   95.10867284
_symmetry_Int_Tables_number   1
_chemical_formula_structural   ErPaSnRh2
_chemical_formula_sum   'Er2 Pa2 Sn2 Rh4'
_cell_volume   211.23918762
_cell_formula_units_Z   2
loop_
 _symmetry_equiv_pos_site_id
 _symmetry_equiv_pos_as_xyz
  1  'x, y, z'
loop_
 _atom_site_type_symbol
 _atom_site_label
 _atom_site_symmetry_multiplicity
 _atom_site_fract_x
 _atom_site_fract_y
 _atom_site_fract_z
 _atom_site_occupancy
  Er  Er0  1  0.175094  0.324906  0.500000  1
  Er  Er1  1  0.824906  0.675094  0.500000  1
  Pa  Pa2  1  0.674084  0.174084  0.500000  1
  Pa  Pa3  1  0.325916  0.825916  0.500000  1
  Sn  Sn4  1  0.500000  0.500000  0.000000  1
  Sn  Sn5  1  0.000000  0.000000  0.000000  1
  Rh  Rh6  1  0.860075  0.360075  0.000000  1
  Rh  Rh7  1  0.139925  0.639925  0.000000  1
  Rh  Rh8  1  0.376695  0.123305  0.000000  1
  Rh  Rh9  1  0.623305  0.876695  0.000000  1
