# generated using pymatgen
data_Ho4Ga2(ReRu)3
_symmetry_space_group_name_H-M   'P 1'
_cell_length_a   5.31641144
_cell_length_b   5.31324398
_cell_length_c   8.98495100
_cell_angle_alpha   90.00000000
_cell_angle_beta   90.00000000
_cell_angle_gamma   119.99028510
_symmetry_Int_Tables_number   1
_chemical_formula_structural   Ho4Ga2(ReRu)3
_chemical_formula_sum   'Ho4 Ga2 Re3 Ru3'
_cell_volume   219.81999544
_cell_formula_units_Z   1
loop_
 _symmetry_equiv_pos_site_id
 _symmetry_equiv_pos_as_xyz
  1  'x, y, z'
loop_
 _atom_site_type_symbol
 _atom_site_label
 _atom_site_symmetry_multiplicity
 _atom_site_fract_x
 _atom_site_fract_y
 _atom_site_fract_z
 _atom_site_occupancy
  Ho  Ho0  1  0.665815  0.333031  0.561960  1
  Ho  Ho1  1  0.337430  0.668498  0.441140  1
  Ho  Ho2  1  0.337430  0.668498  0.058860  1
  Ho  Ho3  1  0.665815  0.333031  0.938040  1
  Ga  Ga4  1  0.827129  0.663390  0.250000  1
  Ga  Ga5  1  0.826817  0.163772  0.250000  1
  Re  Re6  1  0.168513  0.338036  0.750000  1
  Re  Re7  1  0.168045  0.830705  0.750000  1
  Re  Re8  1  0.655331  0.828140  0.750000  1
  Ru  Ru9  1  0.003176  0.001135  0.496307  1
  Ru  Ru10  1  0.003176  0.001135  0.003693  1
  Ru  Ru11  1  0.341324  0.170630  0.250000  1
