# generated using pymatgen
data_Sm2Hf3Sn4
_symmetry_space_group_name_H-M   'P 1'
_cell_length_a   7.81674200
_cell_length_b   7.82921200
_cell_length_c   14.65119700
_cell_angle_alpha   90.00000000
_cell_angle_beta   90.00000000
_cell_angle_gamma   90.00000000
_symmetry_Int_Tables_number   1
_chemical_formula_structural   Sm2Hf3Sn4
_chemical_formula_sum   'Sm8 Hf12 Sn16'
_cell_volume   896.63758354
_cell_formula_units_Z   4
loop_
 _symmetry_equiv_pos_site_id
 _symmetry_equiv_pos_as_xyz
  1  'x, y, z'
loop_
 _atom_site_type_symbol
 _atom_site_label
 _atom_site_symmetry_multiplicity
 _atom_site_fract_x
 _atom_site_fract_y
 _atom_site_fract_z
 _atom_site_occupancy
  Sm  Sm0  1  0.511822  0.324590  0.908444  1
  Sm  Sm1  1  0.011822  0.175410  0.591556  1
  Sm  Sm2  1  0.488178  0.675410  0.408444  1
  Sm  Sm3  1  0.988178  0.824590  0.091556  1
  Sm  Sm4  1  0.488178  0.675410  0.091556  1
  Sm  Sm5  1  0.988178  0.824590  0.408444  1
  Sm  Sm6  1  0.511822  0.324590  0.591556  1
  Sm  Sm7  1  0.011822  0.175410  0.908444  1
  Hf  Hf8  1  0.346719  0.838620  0.869162  1
  Hf  Hf9  1  0.846719  0.661380  0.630838  1
  Hf  Hf10  1  0.653281  0.161380  0.369162  1
  Hf  Hf11  1  0.153281  0.338620  0.130838  1
  Hf  Hf12  1  0.653281  0.161380  0.130838  1
  Hf  Hf13  1  0.153281  0.338620  0.369162  1
  Hf  Hf14  1  0.346719  0.838620  0.630838  1
  Hf  Hf15  1  0.846719  0.661380  0.869162  1
  Hf  Hf16  1  0.167592  0.512651  0.750000  1
  Hf  Hf17  1  0.667592  0.987349  0.750000  1
  Hf  Hf18  1  0.832408  0.487349  0.250000  1
  Hf  Hf19  1  0.332408  0.012651  0.250000  1
  Sn  Sn20  1  0.315732  0.043553  0.043574  1
  Sn  Sn21  1  0.815732  0.456447  0.456426  1
  Sn  Sn22  1  0.684268  0.956447  0.543574  1
  Sn  Sn23  1  0.184268  0.543553  0.956426  1
  Sn  Sn24  1  0.684268  0.956447  0.956426  1
  Sn  Sn25  1  0.184268  0.543553  0.543574  1
  Sn  Sn26  1  0.315732  0.043553  0.456426  1
  Sn  Sn27  1  0.815732  0.456447  0.043574  1
  Sn  Sn28  1  0.540742  0.616535  0.750000  1
  Sn  Sn29  1  0.040742  0.883465  0.750000  1
  Sn  Sn30  1  0.459258  0.383465  0.250000  1
  Sn  Sn31  1  0.959258  0.116535  0.250000  1
  Sn  Sn32  1  0.315542  0.155934  0.750000  1
  Sn  Sn33  1  0.815542  0.344066  0.750000  1
  Sn  Sn34  1  0.684458  0.844066  0.250000  1
  Sn  Sn35  1  0.184458  0.655934  0.250000  1
