# generated using pymatgen
data_LaSm13(Pa3Rh8)2
_symmetry_space_group_name_H-M   'P 1'
_cell_length_a   7.55558073
_cell_length_b   7.60680215
_cell_length_c   14.58127490
_cell_angle_alpha   89.68154455
_cell_angle_beta   89.55693902
_cell_angle_gamma   89.76114124
_symmetry_Int_Tables_number   1
_chemical_formula_structural   LaSm13(Pa3Rh8)2
_chemical_formula_sum   'La1 Sm13 Pa6 Rh16'
_cell_volume   837.99625618
_cell_formula_units_Z   1
loop_
 _symmetry_equiv_pos_site_id
 _symmetry_equiv_pos_as_xyz
  1  'x, y, z'
loop_
 _atom_site_type_symbol
 _atom_site_label
 _atom_site_symmetry_multiplicity
 _atom_site_fract_x
 _atom_site_fract_y
 _atom_site_fract_z
 _atom_site_occupancy
  La  La0  1  0.669597  0.156408  0.622225  1
  Sm  Sm1  1  0.165557  0.341066  0.621665  1
  Sm  Sm2  1  0.509640  0.680018  0.591021  1
  Sm  Sm3  1  0.008494  0.822560  0.907487  1
  Sm  Sm4  1  0.491889  0.321801  0.092316  1
  Sm  Sm5  1  0.990762  0.180362  0.407362  1
  Sm  Sm6  1  0.488558  0.320051  0.407310  1
  Sm  Sm7  1  0.991199  0.179349  0.091985  1
  Sm  Sm8  1  0.509621  0.678763  0.907243  1
  Sm  Sm9  1  0.013962  0.813096  0.588879  1
  Sm  Sm10  1  0.817479  0.519255  0.751059  1
  Sm  Sm11  1  0.314583  0.980794  0.750544  1
  Sm  Sm12  1  0.186970  0.477864  0.247844  1
  Sm  Sm13  1  0.687130  0.023185  0.248599  1
  Pa  Pa14  1  0.159794  0.347054  0.881702  1
  Pa  Pa15  1  0.342485  0.845644  0.119444  1
  Pa  Pa16  1  0.838167  0.656483  0.374465  1
  Pa  Pa17  1  0.338128  0.842231  0.374366  1
  Pa  Pa18  1  0.842156  0.655894  0.119454  1
  Pa  Pa19  1  0.656546  0.154939  0.882142  1
  Rh  Rh20  1  0.683264  0.936133  0.451362  1
  Rh  Rh21  1  0.181222  0.549013  0.039372  1
  Rh  Rh22  1  0.319672  0.047350  0.966204  1
  Rh  Rh23  1  0.812693  0.474051  0.526780  1
  Rh  Rh24  1  0.311618  0.023989  0.525364  1
  Rh  Rh25  1  0.820950  0.455403  0.966784  1
  Rh  Rh26  1  0.681365  0.953528  0.038330  1
  Rh  Rh27  1  0.179814  0.560085  0.451352  1
  Rh  Rh28  1  0.458058  0.357565  0.769922  1
  Rh  Rh29  1  0.958303  0.143622  0.771725  1
  Rh  Rh30  1  0.537771  0.651453  0.244920  1
  Rh  Rh31  1  0.038740  0.850242  0.243460  1
  Rh  Rh32  1  0.693475  0.880947  0.759421  1
  Rh  Rh33  1  0.194629  0.618420  0.759805  1
  Rh  Rh34  1  0.302866  0.106971  0.249111  1
  Rh  Rh35  1  0.802847  0.394414  0.248976  1
