# generated using pymatgen
data_LiAl3(GaO4)2
_symmetry_space_group_name_H-M   'P 1'
_cell_length_a   5.71544800
_cell_length_b   5.75316400
_cell_length_c   8.08222900
_cell_angle_alpha   90.00000000
_cell_angle_beta   90.00000000
_cell_angle_gamma   90.00000000
_symmetry_Int_Tables_number   1
_chemical_formula_structural   LiAl3(GaO4)2
_chemical_formula_sum   'Li2 Al6 Ga4 O16'
_cell_volume   265.75912397
_cell_formula_units_Z   2
loop_
 _symmetry_equiv_pos_site_id
 _symmetry_equiv_pos_as_xyz
  1  'x, y, z'
loop_
 _atom_site_type_symbol
 _atom_site_label
 _atom_site_symmetry_multiplicity
 _atom_site_fract_x
 _atom_site_fract_y
 _atom_site_fract_z
 _atom_site_occupancy
  Li  Li0  1  0.500000  0.500000  0.000000  1
  Li  Li1  1  0.500000  0.000000  0.500000  1
  Al  Al2  1  0.000000  0.000000  0.500000  1
  Al  Al3  1  0.264111  0.750000  0.750000  1
  Al  Al4  1  0.735889  0.250000  0.250000  1
  Al  Al5  1  0.735889  0.750000  0.250000  1
  Al  Al6  1  0.264111  0.250000  0.750000  1
  Al  Al7  1  0.000000  0.500000  0.000000  1
  Ga  Ga8  1  0.755037  0.000000  0.883584  1
  Ga  Ga9  1  0.244963  0.000000  0.116416  1
  Ga  Ga10  1  0.755037  0.500000  0.616416  1
  Ga  Ga11  1  0.244963  0.500000  0.383584  1
  O  O12  1  0.978348  0.000000  0.261276  1
  O  O13  1  0.234822  0.733895  0.984091  1
  O  O14  1  0.479166  0.500000  0.742955  1
  O  O15  1  0.765178  0.233895  0.484091  1
  O  O16  1  0.520834  0.500000  0.257045  1
  O  O17  1  0.234822  0.766105  0.515909  1
  O  O18  1  0.021652  0.000000  0.738724  1
  O  O19  1  0.765178  0.266105  0.015909  1
  O  O20  1  0.234822  0.233895  0.515909  1
  O  O21  1  0.978348  0.500000  0.238724  1
  O  O22  1  0.765178  0.733895  0.015909  1
  O  O23  1  0.479166  0.000000  0.757045  1
  O  O24  1  0.234822  0.266105  0.984091  1
  O  O25  1  0.520834  0.000000  0.242955  1
  O  O26  1  0.765178  0.766105  0.484091  1
  O  O27  1  0.021652  0.500000  0.761276  1
