# generated using pymatgen
data_K7RbZr6BeI20
_symmetry_space_group_name_H-M   'P 1'
_cell_length_a   12.63025518
_cell_length_b   12.61699542
_cell_length_c   12.61699500
_cell_angle_alpha   60.00000371
_cell_angle_beta   60.03472611
_cell_angle_gamma   60.03472543
_symmetry_Int_Tables_number   1
_chemical_formula_structural   K7RbZr6BeI20
_chemical_formula_sum   'K7 Rb1 Zr6 Be1 I20'
_cell_volume   1422.44921145
_cell_formula_units_Z   1
loop_
 _symmetry_equiv_pos_site_id
 _symmetry_equiv_pos_as_xyz
  1  'x, y, z'
loop_
 _atom_site_type_symbol
 _atom_site_label
 _atom_site_symmetry_multiplicity
 _atom_site_fract_x
 _atom_site_fract_y
 _atom_site_fract_z
 _atom_site_occupancy
  K  K0  1  0.362264  0.361320  0.361320  1
  K  K1  1  0.638528  0.638045  0.638045  1
  K  K2  1  0.362264  0.361320  0.915095  1
  K  K3  1  0.362264  0.915095  0.361320  1
  K  K4  1  0.638528  0.638045  0.085384  1
  K  K5  1  0.638528  0.085384  0.638045  1
  K  K6  1  0.915305  0.361565  0.361565  1
  Rb  Rb7  1  0.080736  0.639755  0.639755  1
  Zr  Zr8  1  0.863127  0.137099  0.137099  1
  Zr  Zr9  1  0.137201  0.862859  0.862859  1
  Zr  Zr10  1  0.137201  0.862859  0.137081  1
  Zr  Zr11  1  0.863127  0.137099  0.862674  1
  Zr  Zr12  1  0.137201  0.137081  0.862859  1
  Zr  Zr13  1  0.863127  0.862674  0.137099  1
  Be  Be14  1  0.999817  0.000061  0.000061  1
  I  I15  1  0.324407  0.000452  0.000452  1
  I  I16  1  0.675183  0.999675  0.999675  1
  I  I17  1  0.000303  0.325952  0.673984  1
  I  I18  1  0.000303  0.673984  0.325952  1
  I  I19  1  0.000303  0.325952  0.999761  1
  I  I20  1  0.675183  0.999675  0.325467  1
  I  I21  1  0.000303  0.673984  0.999761  1
  I  I22  1  0.324407  0.000452  0.674689  1
  I  I23  1  0.000303  0.999761  0.325952  1
  I  I24  1  0.000303  0.999761  0.673984  1
  I  I25  1  0.675183  0.325467  0.999675  1
  I  I26  1  0.324407  0.674689  0.000452  1
  I  I27  1  0.684692  0.315695  0.315695  1
  I  I28  1  0.319707  0.684423  0.684423  1
  I  I29  1  0.319707  0.684423  0.311448  1
  I  I30  1  0.684692  0.315695  0.683918  1
  I  I31  1  0.319707  0.311448  0.684423  1
  I  I32  1  0.684692  0.683918  0.315695  1
  I  I33  1  0.249709  0.250097  0.250097  1
  I  I34  1  0.737289  0.754237  0.754237  1
