# generated using pymatgen
data_Ho3Er2Tm2CoI12
_symmetry_space_group_name_H-M   'P 1'
_cell_length_a   9.68464646
_cell_length_b   9.68274830
_cell_length_c   9.68649805
_cell_angle_alpha   106.83659940
_cell_angle_beta   106.84028794
_cell_angle_gamma   106.82843176
_symmetry_Int_Tables_number   1
_chemical_formula_structural   Ho3Er2Tm2CoI12
_chemical_formula_sum   'Ho3 Er2 Tm2 Co1 I12'
_cell_volume   759.85261414
_cell_formula_units_Z   1
loop_
 _symmetry_equiv_pos_site_id
 _symmetry_equiv_pos_as_xyz
  1  'x, y, z'
loop_
 _atom_site_type_symbol
 _atom_site_label
 _atom_site_symmetry_multiplicity
 _atom_site_fract_x
 _atom_site_fract_y
 _atom_site_fract_z
 _atom_site_occupancy
  Ho  Ho0  1  0.092213  0.021993  0.287231  1
  Ho  Ho1  1  0.712894  0.908919  0.978560  1
  Ho  Ho2  1  0.978932  0.712934  0.908075  1
  Er  Er3  1  0.500079  0.500139  0.499922  1
  Er  Er4  1  0.909421  0.979351  0.714547  1
  Tm  Tm5  1  0.284187  0.091100  0.021176  1
  Tm  Tm6  1  0.021523  0.284284  0.090345  1
  Co  Co7  1  0.999996  0.999940  0.000005  1
  I  I8  1  0.463984  0.161547  0.386292  1
  I  I9  1  0.386424  0.462909  0.161167  1
  I  I10  1  0.161142  0.387276  0.462888  1
  I  I11  1  0.536763  0.838968  0.612918  1
  I  I12  1  0.613011  0.536184  0.838636  1
  I  I13  1  0.838654  0.613417  0.536104  1
  I  I14  1  0.324118  0.776694  0.929743  1
  I  I15  1  0.929673  0.323661  0.776206  1
  I  I16  1  0.775456  0.929498  0.324218  1
  I  I17  1  0.676325  0.225136  0.070637  1
  I  I18  1  0.070512  0.675387  0.224364  1
  I  I19  1  0.224695  0.070661  0.676968  1
