# generated using pymatgen
data_Li12Nd12Te5(WO16)3
_symmetry_space_group_name_H-M   'P 1'
_cell_length_a   10.97982080
_cell_length_b   10.97982019
_cell_length_c   10.97982062
_cell_angle_alpha   109.45192321
_cell_angle_beta   109.45192285
_cell_angle_gamma   109.45193148
_symmetry_Int_Tables_number   1
_chemical_formula_structural   Li12Nd12Te5(WO16)3
_chemical_formula_sum   'Li12 Nd12 Te5 W3 O48'
_cell_volume   1019.70299306
_cell_formula_units_Z   1
loop_
 _symmetry_equiv_pos_site_id
 _symmetry_equiv_pos_as_xyz
  1  'x, y, z'
loop_
 _atom_site_type_symbol
 _atom_site_label
 _atom_site_symmetry_multiplicity
 _atom_site_fract_x
 _atom_site_fract_y
 _atom_site_fract_z
 _atom_site_occupancy
  Li  Li0  1  0.751283  0.375755  0.125621  1
  Li  Li1  1  0.874379  0.748717  0.124245  1
  Li  Li2  1  0.124245  0.374379  0.248717  1
  Li  Li3  1  0.625259  0.875236  0.250101  1
  Li  Li4  1  0.250101  0.125259  0.375236  1
  Li  Li5  1  0.624764  0.249899  0.374741  1
  Li  Li6  1  0.375236  0.750101  0.625259  1
  Li  Li7  1  0.749899  0.874741  0.624764  1
  Li  Li8  1  0.374741  0.124764  0.749899  1
  Li  Li9  1  0.875755  0.625621  0.751283  1
  Li  Li10  1  0.125621  0.251283  0.875755  1
  Li  Li11  1  0.248717  0.624245  0.874379  1
  Nd  Nd12  1  0.250922  0.875235  0.124262  1
  Nd  Nd13  1  0.376240  0.250110  0.126161  1
  Nd  Nd14  1  0.873839  0.123760  0.249890  1
  Nd  Nd15  1  0.375235  0.624262  0.250922  1
  Nd  Nd16  1  0.750110  0.626161  0.376240  1
  Nd  Nd17  1  0.124262  0.750922  0.375235  1
  Nd  Nd18  1  0.875738  0.249078  0.624765  1
  Nd  Nd19  1  0.249890  0.373839  0.623760  1
  Nd  Nd20  1  0.624765  0.375738  0.749078  1
  Nd  Nd21  1  0.126161  0.876240  0.750110  1
  Nd  Nd22  1  0.749078  0.124765  0.875738  1
  Nd  Nd23  1  0.623760  0.749890  0.873839  1
  Te  Te24  1  0.000000  0.000000  0.000000  1
  Te  Te25  1  0.000000  0.500000  0.000000  1
  Te  Te26  1  0.500000  0.500000  0.000000  1
  Te  Te27  1  0.500000  0.000000  0.500000  1
  Te  Te28  1  0.000000  0.500000  0.500000  1
  W  W29  1  0.500000  0.000000  0.000000  1
  W  W30  1  0.000000  0.000000  0.500000  1
  W  W31  1  0.500000  0.500000  0.500000  1
  O  O32  1  0.329586  0.406940  0.023831  1
  O  O33  1  0.194531  0.616209  0.023662  1
  O  O34  1  0.694187  0.171453  0.078474  1
  O  O35  1  0.883401  0.906886  0.077853  1
  O  O36  1  0.976168  0.170413  0.093060  1
  O  O37  1  0.615783  0.921284  0.092730  1
  O  O38  1  0.593114  0.422147  0.116599  1
  O  O39  1  0.023662  0.694530  0.116210  1
  O  O40  1  0.477370  0.093026  0.171552  1
  O  O41  1  0.194345  0.077915  0.170869  1
  O  O42  1  0.116209  0.523661  0.194530  1
  O  O43  1  0.577914  0.670868  0.194345  1
  O  O44  1  0.328547  0.421525  0.305812  1
  O  O45  1  0.476706  0.883643  0.305682  1
  O  O46  1  0.906939  0.523830  0.329586  1
  O  O47  1  0.921525  0.805812  0.328547  1
  O  O48  1  0.578715  0.407269  0.384217  1
  O  O49  1  0.305682  0.976706  0.383643  1
  O  O50  1  0.828447  0.022629  0.406974  1
  O  O51  1  0.077853  0.383401  0.406886  1
  O  O52  1  0.092730  0.115782  0.421283  1
  O  O53  1  0.829132  0.305655  0.422086  1
  O  O54  1  0.593026  0.671552  0.477370  1
  O  O55  1  0.383644  0.805682  0.476707  1
  O  O56  1  0.406973  0.328447  0.522628  1
  O  O57  1  0.616357  0.194318  0.523293  1
  O  O58  1  0.907269  0.884217  0.578715  1
  O  O59  1  0.170869  0.694344  0.577914  1
  O  O60  1  0.171552  0.977370  0.593026  1
  O  O61  1  0.922148  0.616600  0.593114  1
  O  O62  1  0.694317  0.023293  0.616356  1
  O  O63  1  0.421283  0.592730  0.615782  1
  O  O64  1  0.078474  0.194188  0.671452  1
  O  O65  1  0.093060  0.476168  0.670413  1
  O  O66  1  0.523292  0.116356  0.694317  1
  O  O67  1  0.671452  0.578473  0.694187  1
  O  O68  1  0.422085  0.329131  0.805655  1
  O  O69  1  0.883790  0.476337  0.805469  1
  O  O70  1  0.522628  0.906973  0.828447  1
  O  O71  1  0.805655  0.922086  0.829132  1
  O  O72  1  0.976337  0.305469  0.883790  1
  O  O73  1  0.406886  0.577852  0.883400  1
  O  O74  1  0.384218  0.078716  0.907269  1
  O  O75  1  0.023831  0.829586  0.906940  1
  O  O76  1  0.116600  0.093114  0.922148  1
  O  O77  1  0.305812  0.828548  0.921526  1
  O  O78  1  0.805469  0.383790  0.976337  1
  O  O79  1  0.670413  0.593060  0.976168  1
