# generated using pymatgen
data_YbEu(Sn2Pd)2
_symmetry_space_group_name_H-M   'P 1'
_cell_length_a   6.07070947
_cell_length_b   6.07070894
_cell_length_c   7.45150700
_cell_angle_alpha   90.00000000
_cell_angle_beta   90.00000000
_cell_angle_gamma   136.14431702
_symmetry_Int_Tables_number   1
_chemical_formula_structural   YbEu(Sn2Pd)2
_chemical_formula_sum   'Yb1 Eu1 Sn4 Pd2'
_cell_volume   190.26487339
_cell_formula_units_Z   1
loop_
 _symmetry_equiv_pos_site_id
 _symmetry_equiv_pos_as_xyz
  1  'x, y, z'
loop_
 _atom_site_type_symbol
 _atom_site_label
 _atom_site_symmetry_multiplicity
 _atom_site_fract_x
 _atom_site_fract_y
 _atom_site_fract_z
 _atom_site_occupancy
  Yb  Yb0  1  0.571470  0.428530  0.750000  1
  Eu  Eu1  1  0.428306  0.571694  0.250000  1
  Sn  Sn2  1  0.858901  0.141099  0.545929  1
  Sn  Sn3  1  0.140129  0.859871  0.456846  1
  Sn  Sn4  1  0.858901  0.141099  0.954070  1
  Sn  Sn5  1  0.140129  0.859871  0.043154  1
  Pd  Pd6  1  0.299957  0.700043  0.750000  1
  Pd  Pd7  1  0.702206  0.297794  0.250000  1
