# generated using pymatgen
data_Tb5Ho5(SiBi2)2
_symmetry_space_group_name_H-M   'P 1'
_cell_length_a   12.10351400
_cell_length_b   9.16734105
_cell_length_c   8.07169004
_cell_angle_alpha   90.01187712
_cell_angle_beta   90.00000000
_cell_angle_gamma   90.00000000
_symmetry_Int_Tables_number   1
_chemical_formula_structural   Tb5Ho5(SiBi2)2
_chemical_formula_sum   'Tb10 Ho10 Si4 Bi8'
_cell_volume   895.61082168
_cell_formula_units_Z   2
loop_
 _symmetry_equiv_pos_site_id
 _symmetry_equiv_pos_as_xyz
  1  'x, y, z'
loop_
 _atom_site_type_symbol
 _atom_site_label
 _atom_site_symmetry_multiplicity
 _atom_site_fract_x
 _atom_site_fract_y
 _atom_site_fract_z
 _atom_site_occupancy
  Tb  Tb0  1  0.063417  0.948116  0.819285  1
  Tb  Tb1  1  0.563417  0.551884  0.680715  1
  Tb  Tb2  1  0.211686  0.749838  0.164725  1
  Tb  Tb3  1  0.711686  0.750162  0.335275  1
  Tb  Tb4  1  0.788432  0.249967  0.835526  1
  Tb  Tb5  1  0.288432  0.250033  0.664474  1
  Tb  Tb6  1  0.295270  0.750038  0.635837  1
  Tb  Tb7  1  0.795270  0.749962  0.864163  1
  Tb  Tb8  1  0.704804  0.249950  0.363807  1
  Tb  Tb9  1  0.204804  0.250050  0.136193  1
  Ho  Ho10  1  0.063296  0.551807  0.820201  1
  Ho  Ho11  1  0.563296  0.948193  0.679799  1
  Ho  Ho12  1  0.936645  0.052470  0.179930  1
  Ho  Ho13  1  0.436645  0.447530  0.320070  1
  Ho  Ho14  1  0.936750  0.447675  0.180019  1
  Ho  Ho15  1  0.436750  0.052325  0.319981  1
  Ho  Ho16  1  0.000838  0.750010  0.459694  1
  Ho  Ho17  1  0.500838  0.749990  0.040306  1
  Ho  Ho18  1  0.999079  0.250097  0.539887  1
  Ho  Ho19  1  0.499079  0.249903  0.960113  1
  Si  Si20  1  0.479581  0.750652  0.413299  1
  Si  Si21  1  0.979581  0.749348  0.086701  1
  Si  Si22  1  0.520012  0.248887  0.585850  1
  Si  Si23  1  0.020012  0.251113  0.914150  1
  Bi  Bi24  1  0.326547  0.510709  0.931971  1
  Bi  Bi25  1  0.826547  0.989291  0.568029  1
  Bi  Bi26  1  0.673296  0.010857  0.068005  1
  Bi  Bi27  1  0.173296  0.489143  0.431995  1
  Bi  Bi28  1  0.673445  0.489175  0.068246  1
  Bi  Bi29  1  0.173445  0.010825  0.431754  1
  Bi  Bi30  1  0.326903  0.989292  0.932224  1
  Bi  Bi31  1  0.826903  0.510708  0.567776  1
