# generated using pymatgen
data_PrCdNi3Pt
_symmetry_space_group_name_H-M   'P 1'
_cell_length_a   5.13542649
_cell_length_b   5.13564026
_cell_length_c   5.19632884
_cell_angle_alpha   60.38227473
_cell_angle_beta   60.38167764
_cell_angle_gamma   59.99504496
_symmetry_Int_Tables_number   1
_chemical_formula_structural   PrCdNi3Pt
_chemical_formula_sum   'Pr1 Cd1 Ni3 Pt1'
_cell_volume   97.45850329
_cell_formula_units_Z   1
loop_
 _symmetry_equiv_pos_site_id
 _symmetry_equiv_pos_as_xyz
  1  'x, y, z'
loop_
 _atom_site_type_symbol
 _atom_site_label
 _atom_site_symmetry_multiplicity
 _atom_site_fract_x
 _atom_site_fract_y
 _atom_site_fract_z
 _atom_site_occupancy
  Pr  Pr0  1  0.248817  0.248805  0.253567  1
  Cd  Cd1  1  0.002976  0.002975  0.991072  1
  Ni  Ni2  1  0.625598  0.121413  0.627393  1
  Ni  Ni3  1  0.121408  0.625595  0.627393  1
  Ni  Ni4  1  0.625584  0.625609  0.627404  1
  Pt  Pt5  1  0.625616  0.625603  0.123171  1
