# generated using pymatgen
data_Sr2Ga5GePt2
_symmetry_space_group_name_H-M   'P 1'
_cell_length_a   6.22679419
_cell_length_b   6.22679527
_cell_length_c   6.12339800
_cell_angle_alpha   90.00000000
_cell_angle_beta   90.00000000
_cell_angle_gamma   117.92683472
_symmetry_Int_Tables_number   1
_chemical_formula_structural   Sr2Ga5GePt2
_chemical_formula_sum   'Sr2 Ga5 Ge1 Pt2'
_cell_volume   209.77365100
_cell_formula_units_Z   1
loop_
 _symmetry_equiv_pos_site_id
 _symmetry_equiv_pos_as_xyz
  1  'x, y, z'
loop_
 _atom_site_type_symbol
 _atom_site_label
 _atom_site_symmetry_multiplicity
 _atom_site_fract_x
 _atom_site_fract_y
 _atom_site_fract_z
 _atom_site_occupancy
  Sr  Sr0  1  0.238590  0.761410  0.750000  1
  Sr  Sr1  1  0.759343  0.240657  0.250000  1
  Ga  Ga2  1  0.348436  0.651564  0.250000  1
  Ga  Ga3  1  0.737612  0.737500  0.000486  1
  Ga  Ga4  1  0.737612  0.737500  0.499514  1
  Ga  Ga5  1  0.262500  0.262388  0.000486  1
  Ga  Ga6  1  0.262500  0.262388  0.499514  1
  Ge  Ge7  1  0.652639  0.347361  0.750000  1
  Pt  Pt8  1  0.887145  0.112855  0.750000  1
  Pt  Pt9  1  0.113623  0.886377  0.250000  1
