# generated using pymatgen
data_Er4B8MoRu9
_symmetry_space_group_name_H-M   'P 1'
_cell_length_a   3.07762800
_cell_length_b   8.77434665
_cell_length_c   10.19195271
_cell_angle_alpha   90.32234765
_cell_angle_beta   90.00000000
_cell_angle_gamma   90.00000000
_symmetry_Int_Tables_number   1
_chemical_formula_structural   Er4B8MoRu9
_chemical_formula_sum   'Er4 B8 Mo1 Ru9'
_cell_volume   275.22091822
_cell_formula_units_Z   1
loop_
 _symmetry_equiv_pos_site_id
 _symmetry_equiv_pos_as_xyz
  1  'x, y, z'
loop_
 _atom_site_type_symbol
 _atom_site_label
 _atom_site_symmetry_multiplicity
 _atom_site_fract_x
 _atom_site_fract_y
 _atom_site_fract_z
 _atom_site_occupancy
  Er  Er0  1  0.500000  0.840831  0.180247  1
  Er  Er1  1  0.500000  0.159992  0.818733  1
  Er  Er2  1  0.500000  0.661009  0.682985  1
  Er  Er3  1  0.500000  0.340930  0.316517  1
  B  B4  1  0.500000  0.966978  0.588103  1
  B  B5  1  0.500000  0.033914  0.410668  1
  B  B6  1  0.500000  0.850251  0.901452  1
  B  B7  1  0.500000  0.148665  0.098291  1
  B  B8  1  0.500000  0.645543  0.399643  1
  B  B9  1  0.500000  0.351856  0.600870  1
  B  B10  1  0.500000  0.465459  0.914392  1
  B  B11  1  0.500000  0.534113  0.087004  1
  Mo  Mo12  1  0.000000  0.658118  0.954593  1
  Ru  Ru13  1  0.000000  0.336623  0.048692  1
  Ru  Ru14  1  0.000000  0.842881  0.453389  1
  Ru  Ru15  1  0.000000  0.158137  0.544639  1
  Ru  Ru16  1  0.000000  0.001772  0.999971  1
  Ru  Ru17  1  0.000000  0.406734  0.760952  1
  Ru  Ru18  1  0.000000  0.593984  0.240223  1
  Ru  Ru19  1  0.000000  0.499584  0.500817  1
  Ru  Ru20  1  0.000000  0.909637  0.736913  1
  Ru  Ru21  1  0.000000  0.092989  0.260904  1
