# generated using pymatgen
data_Tm4Si2H5
_symmetry_space_group_name_H-M   'P 1'
_cell_length_a   5.76385156
_cell_length_b   7.09302518
_cell_length_c   5.76224700
_cell_angle_alpha   52.05357532
_cell_angle_beta   104.07951492
_cell_angle_gamma   128.01624723
_symmetry_Int_Tables_number   1
_chemical_formula_structural   Tm4Si2H5
_chemical_formula_sum   'Tm4 Si2 H5'
_cell_volume   142.83861089
_cell_formula_units_Z   1
loop_
 _symmetry_equiv_pos_site_id
 _symmetry_equiv_pos_as_xyz
  1  'x, y, z'
loop_
 _atom_site_type_symbol
 _atom_site_label
 _atom_site_symmetry_multiplicity
 _atom_site_fract_x
 _atom_site_fract_y
 _atom_site_fract_z
 _atom_site_occupancy
  Tm  Tm0  1  0.973648  0.798983  0.954522  1
  Tm  Tm1  1  0.133486  0.288190  0.136910  1
  Tm  Tm2  1  0.644811  0.470736  0.625226  1
  Tm  Tm3  1  0.462356  0.959554  0.465401  1
  Si  Si4  1  0.053659  0.378740  0.546702  1
  Si  Si5  1  0.554059  0.879988  0.044818  1
  H  H6  1  0.553066  0.379065  0.044920  1
  H  H7  1  0.783671  0.864028  0.561463  1
  H  H8  1  0.068802  0.894718  0.275744  1
  H  H9  1  0.323629  0.149337  0.529850  1
  H  H10  1  0.038082  0.609346  0.815323  1
