# generated using pymatgen
data_EuPaMnGa6
_symmetry_space_group_name_H-M   'P 1'
_cell_length_a   6.25930513
_cell_length_b   6.25930604
_cell_length_c   6.25930500
_cell_angle_alpha   60.00000022
_cell_angle_beta   59.99999540
_cell_angle_gamma   59.99999871
_symmetry_Int_Tables_number   1
_chemical_formula_structural   EuPaMnGa6
_chemical_formula_sum   'Eu1 Pa1 Mn1 Ga6'
_cell_volume   173.40571523
_cell_formula_units_Z   1
loop_
 _symmetry_equiv_pos_site_id
 _symmetry_equiv_pos_as_xyz
  1  'x, y, z'
loop_
 _atom_site_type_symbol
 _atom_site_label
 _atom_site_symmetry_multiplicity
 _atom_site_fract_x
 _atom_site_fract_y
 _atom_site_fract_z
 _atom_site_occupancy
  Eu  Eu0  1  0.750000  0.750000  0.750000  1
  Pa  Pa1  1  0.250000  0.250000  0.250000  1
  Mn  Mn2  1  0.500000  0.500000  0.500000  1
  Ga  Ga3  1  0.781050  0.781050  0.218950  1
  Ga  Ga4  1  0.218950  0.781050  0.218950  1
  Ga  Ga5  1  0.781050  0.218950  0.218950  1
  Ga  Ga6  1  0.218950  0.218950  0.781050  1
  Ga  Ga7  1  0.781050  0.218950  0.781050  1
  Ga  Ga8  1  0.218950  0.781050  0.781050  1
