# generated using pymatgen
data_BaSr(CoO2)6
_symmetry_space_group_name_H-M   'P 1'
_cell_length_a   4.94366578
_cell_length_b   6.22605209
_cell_length_c   8.53118200
_cell_angle_alpha   89.99996319
_cell_angle_beta   89.99998841
_cell_angle_gamma   75.47636044
_symmetry_Int_Tables_number   1
_chemical_formula_structural   BaSr(CoO2)6
_chemical_formula_sum   'Ba1 Sr1 Co6 O12'
_cell_volume   254.19457076
_cell_formula_units_Z   1
loop_
 _symmetry_equiv_pos_site_id
 _symmetry_equiv_pos_as_xyz
  1  'x, y, z'
loop_
 _atom_site_type_symbol
 _atom_site_label
 _atom_site_symmetry_multiplicity
 _atom_site_fract_x
 _atom_site_fract_y
 _atom_site_fract_z
 _atom_site_occupancy
  Ba  Ba0  1  0.500001  0.500000  0.666789  1
  Sr  Sr1  1  0.000000  0.499999  0.168608  1
  Co  Co2  1  0.000000  0.000000  0.666578  1
  Co  Co3  1  0.500000  0.000000  0.835263  1
  Co  Co4  1  0.500000  0.000000  0.497904  1
  Co  Co5  1  0.500000  0.000000  0.166462  1
  Co  Co6  1  0.000000  0.000000  0.332454  1
  Co  Co7  1  0.000000  0.000000  0.000630  1
  O  O8  1  0.778307  0.165933  0.166578  1
  O  O9  1  0.276911  0.159839  0.666519  1
  O  O10  1  0.221692  0.834067  0.166579  1
  O  O11  1  0.723089  0.840161  0.666519  1
  O  O12  1  0.280858  0.167121  0.003880  1
  O  O13  1  0.785246  0.161831  0.499516  1
  O  O14  1  0.280906  0.167008  0.329430  1
  O  O15  1  0.785362  0.161611  0.833398  1
  O  O16  1  0.719094  0.832992  0.329430  1
  O  O17  1  0.214638  0.838390  0.833398  1
  O  O18  1  0.719142  0.832878  0.003880  1
  O  O19  1  0.214754  0.838170  0.499516  1
