# generated using pymatgen
data_YbDy(TcB4)2
_symmetry_space_group_name_H-M   'P 1'
_cell_length_a   3.58430900
_cell_length_b   5.96887718
_cell_length_c   11.55103663
_cell_angle_alpha   90.04452182
_cell_angle_beta   90.00000000
_cell_angle_gamma   90.00000000
_symmetry_Int_Tables_number   1
_chemical_formula_structural   YbDy(TcB4)2
_chemical_formula_sum   'Yb2 Dy2 Tc4 B16'
_cell_volume   247.12627061
_cell_formula_units_Z   2
loop_
 _symmetry_equiv_pos_site_id
 _symmetry_equiv_pos_as_xyz
  1  'x, y, z'
loop_
 _atom_site_type_symbol
 _atom_site_label
 _atom_site_symmetry_multiplicity
 _atom_site_fract_x
 _atom_site_fract_y
 _atom_site_fract_z
 _atom_site_occupancy
  Yb  Yb0  1  0.500000  0.128063  0.350921  1
  Yb  Yb1  1  0.500000  0.871937  0.649079  1
  Dy  Dy2  1  0.500000  0.628160  0.151813  1
  Dy  Dy3  1  0.500000  0.371840  0.848187  1
  Tc  Tc4  1  0.500000  0.630409  0.416096  1
  Tc  Tc5  1  0.500000  0.369591  0.583904  1
  Tc  Tc6  1  0.500000  0.132416  0.085449  1
  Tc  Tc7  1  0.500000  0.867584  0.914551  1
  B  B8  1  0.000000  0.977693  0.193083  1
  B  B9  1  0.000000  0.022307  0.806917  1
  B  B10  1  0.000000  0.477661  0.308005  1
  B  B11  1  0.000000  0.522339  0.691995  1
  B  B12  1  0.000000  0.786873  0.315812  1
  B  B13  1  0.000000  0.213127  0.684188  1
  B  B14  1  0.000000  0.285525  0.185786  1
  B  B15  1  0.000000  0.714475  0.814214  1
  B  B16  1  0.000000  0.865486  0.467789  1
  B  B17  1  0.000000  0.134514  0.532211  1
  B  B18  1  0.000000  0.364450  0.031818  1
  B  B19  1  0.000000  0.635550  0.968182  1
  B  B20  1  0.000000  0.887282  0.047580  1
  B  B21  1  0.000000  0.112718  0.952420  1
  B  B22  1  0.000000  0.385978  0.452893  1
  B  B23  1  0.000000  0.614022  0.547107  1
