# generated using pymatgen
data_Ac3Yb(Ga7Ni)2
_symmetry_space_group_name_H-M   'P 1'
_cell_length_a   6.24883284
_cell_length_b   6.23710536
_cell_length_c   11.46592100
_cell_angle_alpha   74.21761902
_cell_angle_beta   74.18716155
_cell_angle_gamma   90.00000019
_symmetry_Int_Tables_number   1
_chemical_formula_structural   Ac3Yb(Ga7Ni)2
_chemical_formula_sum   'Ac3 Yb1 Ga14 Ni2'
_cell_volume   412.43188911
_cell_formula_units_Z   1
loop_
 _symmetry_equiv_pos_site_id
 _symmetry_equiv_pos_as_xyz
  1  'x, y, z'
loop_
 _atom_site_type_symbol
 _atom_site_label
 _atom_site_symmetry_multiplicity
 _atom_site_fract_x
 _atom_site_fract_y
 _atom_site_fract_z
 _atom_site_occupancy
  Ac  Ac0  1  0.996607  0.996607  0.006784  1
  Ac  Ac1  1  0.500967  0.500967  0.998064  1
  Ac  Ac2  1  0.751547  0.251547  0.496907  1
  Yb  Yb3  1  0.245844  0.745844  0.508314  1
  Ga  Ga4  1  0.202621  0.202621  0.594759  1
  Ga  Ga5  1  0.812187  0.812187  0.375627  1
  Ga  Ga6  1  0.598320  0.124791  0.258196  1
  Ga  Ga7  1  0.143483  0.617012  0.258196  1
  Ga  Ga8  1  0.598320  0.617012  0.258196  1
  Ga  Ga9  1  0.143483  0.124791  0.258196  1
  Ga  Ga10  1  0.867180  0.355914  0.751922  1
  Ga  Ga11  1  0.380898  0.892163  0.751922  1
  Ga  Ga12  1  0.867180  0.892163  0.751922  1
  Ga  Ga13  1  0.380898  0.355914  0.751922  1
  Ga  Ga14  1  0.692424  0.692424  0.615152  1
  Ga  Ga15  1  0.062715  0.562715  0.874570  1
  Ga  Ga16  1  0.451230  0.951230  0.097540  1
  Ga  Ga17  1  0.939987  0.439987  0.120027  1
  Ni  Ni18  1  0.314351  0.314351  0.371298  1
  Ni  Ni19  1  0.564590  0.064590  0.870821  1
