# generated using pymatgen
data_Er3In3HgPtAu
_symmetry_space_group_name_H-M   'P 1'
_cell_length_a   7.80708500
_cell_length_b   7.80708430
_cell_length_c   3.92142100
_cell_angle_alpha   90.00000000
_cell_angle_beta   90.00000000
_cell_angle_gamma   119.99999024
_symmetry_Int_Tables_number   1
_chemical_formula_structural   Er3In3HgPtAu
_chemical_formula_sum   'Er3 In3 Hg1 Pt1 Au1'
_cell_volume   206.99121864
_cell_formula_units_Z   1
loop_
 _symmetry_equiv_pos_site_id
 _symmetry_equiv_pos_as_xyz
  1  'x, y, z'
loop_
 _atom_site_type_symbol
 _atom_site_label
 _atom_site_symmetry_multiplicity
 _atom_site_fract_x
 _atom_site_fract_y
 _atom_site_fract_z
 _atom_site_occupancy
  Er  Er0  1  0.024176  0.609735  0.500000  1
  Er  Er1  1  0.390265  0.414441  0.500000  1
  Er  Er2  1  0.585559  0.975824  0.500000  1
  In  In3  1  0.737055  0.738038  0.000000  1
  In  In4  1  0.000982  0.262945  0.000000  1
  In  In5  1  0.261962  0.999018  0.000000  1
  Hg  Hg6  1  0.666667  0.333333  0.000000  1
  Pt  Pt7  1  0.333333  0.666667  0.000000  1
  Au  Au8  1  0.000000  0.000000  0.500000  1
