# generated using pymatgen
data_TbYb4Er(CoSn6)2
_symmetry_space_group_name_H-M   'P 1'
_cell_length_a   8.33709777
_cell_length_b   8.33709633
_cell_length_c   13.30792800
_cell_angle_alpha   90.00000000
_cell_angle_beta   90.00000000
_cell_angle_gamma   147.46031052
_symmetry_Int_Tables_number   1
_chemical_formula_structural   TbYb4Er(CoSn6)2
_chemical_formula_sum   'Tb1 Yb4 Er1 Co2 Sn12'
_cell_volume   497.54062341
_cell_formula_units_Z   1
loop_
 _symmetry_equiv_pos_site_id
 _symmetry_equiv_pos_as_xyz
  1  'x, y, z'
loop_
 _atom_site_type_symbol
 _atom_site_label
 _atom_site_symmetry_multiplicity
 _atom_site_fract_x
 _atom_site_fract_y
 _atom_site_fract_z
 _atom_site_occupancy
  Tb  Tb0  1  0.901530  0.098470  0.750000  1
  Yb  Yb1  1  0.900824  0.099176  0.097702  1
  Yb  Yb2  1  0.099354  0.900646  0.597578  1
  Yb  Yb3  1  0.099354  0.900646  0.902422  1
  Yb  Yb4  1  0.900824  0.099176  0.402298  1
  Er  Er5  1  0.098832  0.901168  0.250000  1
  Co  Co6  1  0.294467  0.705533  0.250000  1
  Co  Co7  1  0.704619  0.295381  0.750000  1
  Sn  Sn8  1  0.757158  0.242842  0.571639  1
  Sn  Sn9  1  0.425535  0.574465  0.577114  1
  Sn  Sn10  1  0.575256  0.424744  0.421871  1
  Sn  Sn11  1  0.730956  0.269044  0.250000  1
  Sn  Sn12  1  0.267777  0.732223  0.750000  1
  Sn  Sn13  1  0.242580  0.757420  0.071217  1
  Sn  Sn14  1  0.242580  0.757420  0.428783  1
  Sn  Sn15  1  0.575256  0.424744  0.078129  1
  Sn  Sn16  1  0.454137  0.545863  0.250000  1
  Sn  Sn17  1  0.546266  0.453734  0.750000  1
  Sn  Sn18  1  0.757158  0.242842  0.928361  1
  Sn  Sn19  1  0.425535  0.574465  0.922886  1
