# generated using pymatgen
data_Nd9Th(PPb3)2
_symmetry_space_group_name_H-M   'P 1'
_cell_length_a   9.54159290
_cell_length_b   9.49915031
_cell_length_c   6.99807600
_cell_angle_alpha   90.00000000
_cell_angle_beta   90.00000000
_cell_angle_gamma   119.85295822
_symmetry_Int_Tables_number   1
_chemical_formula_structural   Nd9Th(PPb3)2
_chemical_formula_sum   'Nd9 Th1 P2 Pb6'
_cell_volume   550.11883496
_cell_formula_units_Z   1
loop_
 _symmetry_equiv_pos_site_id
 _symmetry_equiv_pos_as_xyz
  1  'x, y, z'
loop_
 _atom_site_type_symbol
 _atom_site_label
 _atom_site_symmetry_multiplicity
 _atom_site_fract_x
 _atom_site_fract_y
 _atom_site_fract_z
 _atom_site_occupancy
  Nd  Nd0  1  0.761053  0.760893  0.250000  1
  Nd  Nd1  1  0.238947  0.999840  0.250000  1
  Nd  Nd2  1  0.000000  0.237010  0.250000  1
  Nd  Nd3  1  0.239320  0.239974  0.750000  1
  Nd  Nd4  1  0.760680  0.000654  0.750000  1
  Nd  Nd5  1  0.665302  0.333210  0.499750  1
  Nd  Nd6  1  0.334698  0.667909  0.499750  1
  Nd  Nd7  1  0.334698  0.667909  0.000250  1
  Nd  Nd8  1  0.665302  0.333210  0.000250  1
  Th  Th9  1  0.000000  0.763456  0.750000  1
  P  P10  1  0.000000  0.997686  0.501395  1
  P  P11  1  0.000000  0.997686  0.998605  1
  Pb  Pb12  1  0.398379  0.398667  0.250000  1
  Pb  Pb13  1  0.601621  0.000288  0.250000  1
  Pb  Pb14  1  0.000000  0.600261  0.250000  1
  Pb  Pb15  1  0.601675  0.600817  0.750000  1
  Pb  Pb16  1  0.398325  0.999144  0.750000  1
  Pb  Pb17  1  0.000000  0.401390  0.750000  1
