# generated using pymatgen
data_Ca3TcH7
_symmetry_space_group_name_H-M   'P 1'
_cell_length_a   5.20042000
_cell_length_b   5.20042015
_cell_length_c   12.06974300
_cell_angle_alpha   90.00000000
_cell_angle_beta   90.00000000
_cell_angle_gamma   119.99999907
_symmetry_Int_Tables_number   1
_chemical_formula_structural   Ca3TcH7
_chemical_formula_sum   'Ca6 Tc2 H14'
_cell_volume   282.68678756
_cell_formula_units_Z   2
loop_
 _symmetry_equiv_pos_site_id
 _symmetry_equiv_pos_as_xyz
  1  'x, y, z'
loop_
 _atom_site_type_symbol
 _atom_site_label
 _atom_site_symmetry_multiplicity
 _atom_site_fract_x
 _atom_site_fract_y
 _atom_site_fract_z
 _atom_site_occupancy
  Ca  Ca0  1  0.000000  0.000000  0.250000  1
  Ca  Ca1  1  0.000000  0.000000  0.750000  1
  Ca  Ca2  1  0.333333  0.666667  0.436081  1
  Ca  Ca3  1  0.666667  0.333333  0.563919  1
  Ca  Ca4  1  0.666667  0.333333  0.936081  1
  Ca  Ca5  1  0.333333  0.666667  0.063919  1
  Tc  Tc6  1  0.000000  0.000000  0.500000  1
  Tc  Tc7  1  0.000000  0.000000  0.000000  1
  H  H8  1  0.333333  0.666667  0.250000  1
  H  H9  1  0.666667  0.333333  0.750000  1
  H  H10  1  0.158922  0.841078  0.910933  1
  H  H11  1  0.158922  0.317845  0.910933  1
  H  H12  1  0.682155  0.841078  0.910933  1
  H  H13  1  0.841078  0.158922  0.089067  1
  H  H14  1  0.841078  0.682155  0.089067  1
  H  H15  1  0.317845  0.158922  0.089067  1
  H  H16  1  0.841078  0.158922  0.410933  1
  H  H17  1  0.841078  0.682155  0.410933  1
  H  H18  1  0.317845  0.158922  0.410933  1
  H  H19  1  0.158922  0.841078  0.589067  1
  H  H20  1  0.158922  0.317845  0.589067  1
  H  H21  1  0.682155  0.841078  0.589067  1
