# generated using pymatgen
data_Zr20Si13P3
_symmetry_space_group_name_H-M   'P 1'
_cell_length_a   7.12594616
_cell_length_b   7.12846866
_cell_length_c   13.01870336
_cell_angle_alpha   90.20719810
_cell_angle_beta   90.06530740
_cell_angle_gamma   89.85119503
_symmetry_Int_Tables_number   1
_chemical_formula_structural   Zr20Si13P3
_chemical_formula_sum   'Zr20 Si13 P3'
_cell_volume   661.30518948
_cell_formula_units_Z   1
loop_
 _symmetry_equiv_pos_site_id
 _symmetry_equiv_pos_as_xyz
  1  'x, y, z'
loop_
 _atom_site_type_symbol
 _atom_site_label
 _atom_site_symmetry_multiplicity
 _atom_site_fract_x
 _atom_site_fract_y
 _atom_site_fract_z
 _atom_site_occupancy
  Zr  Zr0  1  0.347800  0.504249  0.379058  1
  Zr  Zr1  1  0.854973  0.998492  0.376748  1
  Zr  Zr2  1  0.999651  0.146752  0.124181  1
  Zr  Zr3  1  0.998552  0.854610  0.623712  1
  Zr  Zr4  1  0.650484  0.496991  0.878378  1
  Zr  Zr5  1  0.504767  0.348406  0.620964  1
  Zr  Zr6  1  0.498232  0.647190  0.122886  1
  Zr  Zr7  1  0.144270  0.003934  0.873782  1
  Zr  Zr8  1  0.997207  0.646530  0.034251  1
  Zr  Zr9  1  0.003180  0.353679  0.533204  1
  Zr  Zr10  1  0.649684  0.998180  0.965423  1
  Zr  Zr11  1  0.153342  0.501292  0.782829  1
  Zr  Zr12  1  0.849007  0.499866  0.283179  1
  Zr  Zr13  1  0.499378  0.151142  0.217735  1
  Zr  Zr14  1  0.500565  0.848989  0.716321  1
  Zr  Zr15  1  0.353111  0.003751  0.466864  1
  Zr  Zr16  1  0.675972  0.676188  0.500067  1
  Zr  Zr17  1  0.825781  0.175073  0.749449  1
  Zr  Zr18  1  0.173378  0.824252  0.251790  1
  Zr  Zr19  1  0.323408  0.324495  0.999291  1
  Si  Si20  1  0.200317  0.447820  0.188142  1
  Si  Si21  1  0.800336  0.551296  0.688021  1
  Si  Si22  1  0.448420  0.200340  0.811594  1
  Si  Si23  1  0.551284  0.800134  0.312220  1
  Si  Si24  1  0.299577  0.948412  0.062706  1
  Si  Si25  1  0.855148  0.795056  0.821256  1
  Si  Si26  1  0.145402  0.203384  0.321772  1
  Si  Si27  1  0.795701  0.855019  0.178316  1
  Si  Si28  1  0.297988  0.644303  0.577919  1
  Si  Si29  1  0.700396  0.352748  0.076641  1
  Si  Si30  1  0.644788  0.298496  0.422254  1
  Si  Si31  1  0.354897  0.706016  0.925819  1
  Si  Si32  1  0.204702  0.145919  0.677173  1
  P  P33  1  0.046826  0.699087  0.436367  1
  P  P34  1  0.951903  0.301086  0.935566  1
  P  P35  1  0.699574  0.046822  0.564123  1
