# generated using pymatgen
data_LiSmPt3Rh
_symmetry_space_group_name_H-M   'P 1'
_cell_length_a   5.35382076
_cell_length_b   5.35382113
_cell_length_c   5.34755883
_cell_angle_alpha   59.96126293
_cell_angle_beta   59.96125454
_cell_angle_gamma   60.00000540
_symmetry_Int_Tables_number   1
_chemical_formula_structural   LiSmPt3Rh
_chemical_formula_sum   'Li1 Sm1 Pt3 Rh1'
_cell_volume   108.32126308
_cell_formula_units_Z   1
loop_
 _symmetry_equiv_pos_site_id
 _symmetry_equiv_pos_as_xyz
  1  'x, y, z'
loop_
 _atom_site_type_symbol
 _atom_site_label
 _atom_site_symmetry_multiplicity
 _atom_site_fract_x
 _atom_site_fract_y
 _atom_site_fract_z
 _atom_site_occupancy
  Li  Li0  1  0.250042  0.250042  0.249874  1
  Sm  Sm1  1  0.999915  0.999915  0.000254  1
  Pt  Pt2  1  0.624540  0.126329  0.624588  1
  Pt  Pt3  1  0.126329  0.624540  0.624588  1
  Pt  Pt4  1  0.624540  0.624540  0.624588  1
  Rh  Rh5  1  0.624631  0.624631  0.126105  1
