# generated using pymatgen
data_Pr6GaGeI6
_symmetry_space_group_name_H-M   'P 1'
_cell_length_a   10.98268154
_cell_length_b   10.98268224
_cell_length_c   10.93221831
_cell_angle_alpha   109.52915211
_cell_angle_beta   109.52915502
_cell_angle_gamma   109.54207508
_symmetry_Int_Tables_number   1
_chemical_formula_structural   Pr6GaGeI6
_chemical_formula_sum   'Pr12 Ga2 Ge2 I12'
_cell_volume   1012.74096772
_cell_formula_units_Z   2
loop_
 _symmetry_equiv_pos_site_id
 _symmetry_equiv_pos_as_xyz
  1  'x, y, z'
loop_
 _atom_site_type_symbol
 _atom_site_label
 _atom_site_symmetry_multiplicity
 _atom_site_fract_x
 _atom_site_fract_y
 _atom_site_fract_z
 _atom_site_occupancy
  Pr  Pr0  1  0.468905  0.485473  0.233960  1
  Pr  Pr1  1  0.751514  0.234945  0.266040  1
  Pr  Pr2  1  0.752051  0.016135  0.486528  1
  Pr  Pr3  1  0.234477  0.470392  0.486528  1
  Pr  Pr4  1  0.265055  0.748486  0.233960  1
  Pr  Pr5  1  0.029608  0.265523  0.013472  1
  Pr  Pr6  1  0.014527  0.031095  0.266040  1
  Pr  Pr7  1  0.483865  0.747949  0.013472  1
  Pr  Pr8  1  0.485175  0.235175  0.470348  1
  Pr  Pr9  1  0.016018  0.483982  0.750000  1
  Pr  Pr10  1  0.264825  0.014825  0.029652  1
  Pr  Pr11  1  0.233982  0.266018  0.750000  1
  Ga  Ga12  1  0.249926  0.250074  0.250000  1
  Ga  Ga13  1  0.500074  0.999926  0.250000  1
  Ge  Ge14  1  0.999745  0.249745  0.499491  1
  Ge  Ge15  1  0.250255  0.500255  0.000509  1
  I  I16  1  0.249632  0.756270  0.742741  1
  I  I17  1  0.513527  0.506890  0.757259  1
  I  I18  1  0.986136  0.741726  0.992993  1
  I  I19  1  0.743730  0.250368  0.757259  1
  I  I20  1  0.993110  0.986473  0.742741  1
  I  I21  1  0.248733  0.993142  0.507007  1
  I  I22  1  0.758274  0.513864  0.507007  1
  I  I23  1  0.506858  0.251267  0.992993  1
  I  I24  1  0.756881  0.743119  0.250000  1
  I  I25  1  0.743164  0.993164  0.986329  1
  I  I26  1  0.993119  0.506881  0.250000  1
  I  I27  1  0.506836  0.756836  0.513671  1
