# generated using pymatgen
data_P4RuO12
_symmetry_space_group_name_H-M   'P 1'
_cell_length_a   8.40770500
_cell_length_b   9.26223800
_cell_length_c   12.81841400
_cell_angle_alpha   90.00000000
_cell_angle_beta   90.00000000
_cell_angle_gamma   90.00000000
_symmetry_Int_Tables_number   1
_chemical_formula_structural   P4RuO12
_chemical_formula_sum   'P16 Ru4 O48'
_cell_volume   998.22328359
_cell_formula_units_Z   4
loop_
 _symmetry_equiv_pos_site_id
 _symmetry_equiv_pos_as_xyz
  1  'x, y, z'
loop_
 _atom_site_type_symbol
 _atom_site_label
 _atom_site_symmetry_multiplicity
 _atom_site_fract_x
 _atom_site_fract_y
 _atom_site_fract_z
 _atom_site_occupancy
  P  P0  1  0.962666  0.485421  0.650303  1
  P  P1  1  0.181799  0.994420  0.857875  1
  P  P2  1  0.181799  0.505580  0.142125  1
  P  P3  1  0.681799  0.505580  0.357875  1
  P  P4  1  0.462666  0.014579  0.150303  1
  P  P5  1  0.037334  0.514579  0.349697  1
  P  P6  1  0.818201  0.494420  0.857875  1
  P  P7  1  0.681799  0.994420  0.642125  1
  P  P8  1  0.962666  0.014579  0.349697  1
  P  P9  1  0.537334  0.985421  0.849697  1
  P  P10  1  0.318201  0.494420  0.642125  1
  P  P11  1  0.818201  0.005580  0.142125  1
  P  P12  1  0.318201  0.005580  0.357875  1
  P  P13  1  0.037334  0.985421  0.650303  1
  P  P14  1  0.462666  0.485421  0.849697  1
  P  P15  1  0.537334  0.514579  0.150303  1
  Ru  Ru16  1  0.862422  0.750000  0.500000  1
  Ru  Ru17  1  0.362422  0.750000  0.000000  1
  Ru  Ru18  1  0.137578  0.250000  0.500000  1
  Ru  Ru19  1  0.637578  0.250000  0.000000  1
  O  O20  1  0.191655  0.867147  0.934280  1
  O  O21  1  0.093564  0.374942  0.115001  1
  O  O22  1  0.865287  0.879750  0.376558  1
  O  O23  1  0.461376  0.129151  0.065290  1
  O  O24  1  0.191655  0.632853  0.065720  1
  O  O25  1  0.038624  0.629151  0.434710  1
  O  O26  1  0.093564  0.125058  0.884999  1
  O  O27  1  0.961376  0.129151  0.434710  1
  O  O28  1  0.038624  0.870849  0.565290  1
  O  O29  1  0.884936  0.083044  0.249123  1
  O  O30  1  0.808345  0.132853  0.065720  1
  O  O31  1  0.136610  0.967790  0.318446  1
  O  O32  1  0.363390  0.467790  0.181554  1
  O  O33  1  0.691655  0.632853  0.434280  1
  O  O34  1  0.136610  0.532210  0.681554  1
  O  O35  1  0.865287  0.620250  0.623442  1
  O  O36  1  0.384936  0.416956  0.749123  1
  O  O37  1  0.115064  0.583044  0.249123  1
  O  O38  1  0.406436  0.874942  0.384999  1
  O  O39  1  0.634713  0.379750  0.123442  1
  O  O40  1  0.593564  0.125058  0.615001  1
  O  O41  1  0.406436  0.625058  0.615001  1
  O  O42  1  0.363390  0.032210  0.818446  1
  O  O43  1  0.906436  0.874942  0.115001  1
  O  O44  1  0.863390  0.032210  0.681554  1
  O  O45  1  0.308345  0.132853  0.434280  1
  O  O46  1  0.863390  0.467790  0.318446  1
  O  O47  1  0.636610  0.967790  0.181554  1
  O  O48  1  0.134713  0.120250  0.623442  1
  O  O49  1  0.691655  0.867147  0.565720  1
  O  O50  1  0.461376  0.370849  0.934710  1
  O  O51  1  0.808345  0.367147  0.934280  1
  O  O52  1  0.538624  0.870849  0.934710  1
  O  O53  1  0.634713  0.120250  0.876558  1
  O  O54  1  0.906436  0.625058  0.884999  1
  O  O55  1  0.615064  0.916956  0.749123  1
  O  O56  1  0.134713  0.379750  0.376558  1
  O  O57  1  0.538624  0.629151  0.065290  1
  O  O58  1  0.961376  0.370849  0.565290  1
  O  O59  1  0.115064  0.916956  0.750877  1
  O  O60  1  0.384936  0.083044  0.250877  1
  O  O61  1  0.365287  0.879750  0.123442  1
  O  O62  1  0.615064  0.583044  0.250877  1
  O  O63  1  0.636610  0.532210  0.818446  1
  O  O64  1  0.593564  0.374942  0.384999  1
  O  O65  1  0.884936  0.416956  0.750877  1
  O  O66  1  0.365287  0.620250  0.876558  1
  O  O67  1  0.308345  0.367147  0.565720  1
