# generated using pymatgen
data_Tb18Ho2Ir7Ru5
_symmetry_space_group_name_H-M   'P 1'
_cell_length_a   10.89205066
_cell_length_b   10.89205001
_cell_length_c   6.42510700
_cell_angle_alpha   89.96826016
_cell_angle_beta   89.96826012
_cell_angle_gamma   90.01333856
_symmetry_Int_Tables_number   1
_chemical_formula_structural   Tb18Ho2Ir7Ru5
_chemical_formula_sum   'Tb18 Ho2 Ir7 Ru5'
_cell_volume   762.25362542
_cell_formula_units_Z   1
loop_
 _symmetry_equiv_pos_site_id
 _symmetry_equiv_pos_as_xyz
  1  'x, y, z'
loop_
 _atom_site_type_symbol
 _atom_site_label
 _atom_site_symmetry_multiplicity
 _atom_site_fract_x
 _atom_site_fract_y
 _atom_site_fract_z
 _atom_site_occupancy
  Tb  Tb0  1  0.293473  0.086442  0.378383  1
  Tb  Tb1  1  0.292917  0.913434  0.878436  1
  Tb  Tb2  1  0.707324  0.086835  0.878747  1
  Tb  Tb3  1  0.706977  0.913782  0.377639  1
  Tb  Tb4  1  0.586458  0.793232  0.878426  1
  Tb  Tb5  1  0.587247  0.207014  0.378601  1
  Tb  Tb6  1  0.413474  0.793117  0.378436  1
  Tb  Tb7  1  0.413375  0.206665  0.877848  1
  Tb  Tb8  1  0.206768  0.413542  0.621574  1
  Tb  Tb9  1  0.206883  0.586526  0.121564  1
  Tb  Tb10  1  0.792986  0.412753  0.121399  1
  Tb  Tb11  1  0.793335  0.586625  0.622152  1
  Tb  Tb12  1  0.913558  0.706527  0.121617  1
  Tb  Tb13  1  0.913165  0.292676  0.621253  1
  Tb  Tb14  1  0.086566  0.707083  0.621564  1
  Tb  Tb15  1  0.086218  0.293023  0.122361  1
  Tb  Tb16  1  0.999522  0.001027  0.499408  1
  Tb  Tb17  1  0.998973  0.000478  0.000592  1
  Ho  Ho18  1  0.500170  0.500063  0.000122  1
  Ho  Ho19  1  0.499937  0.499830  0.499878  1
  Ir  Ir20  1  0.846809  0.846504  0.749799  1
  Ir  Ir21  1  0.153496  0.153191  0.750201  1
  Ir  Ir22  1  0.153172  0.846828  0.250000  1
  Ir  Ir23  1  0.651610  0.348390  0.750000  1
  Ir  Ir24  1  0.652512  0.652225  0.249776  1
  Ir  Ir25  1  0.347775  0.347488  0.250224  1
  Ir  Ir26  1  0.347862  0.652138  0.750000  1
  Ru  Ru27  1  0.847640  0.152360  0.250000  1
  Ru  Ru28  1  0.500177  0.000177  0.121448  1
  Ru  Ru29  1  0.499836  0.000036  0.621548  1
  Ru  Ru30  1  0.999964  0.500164  0.878452  1
  Ru  Ru31  1  0.999823  0.499823  0.378552  1
