# generated using pymatgen
data_NaTb(CuSb)2
_symmetry_space_group_name_H-M   'P 1'
_cell_length_a   4.41152600
_cell_length_b   4.41152549
_cell_length_c   8.27832300
_cell_angle_alpha   90.00000000
_cell_angle_beta   90.00000000
_cell_angle_gamma   120.00000380
_symmetry_Int_Tables_number   1
_chemical_formula_structural   NaTb(CuSb)2
_chemical_formula_sum   'Na1 Tb1 Cu2 Sb2'
_cell_volume   139.52454629
_cell_formula_units_Z   1
loop_
 _symmetry_equiv_pos_site_id
 _symmetry_equiv_pos_as_xyz
  1  'x, y, z'
loop_
 _atom_site_type_symbol
 _atom_site_label
 _atom_site_symmetry_multiplicity
 _atom_site_fract_x
 _atom_site_fract_y
 _atom_site_fract_z
 _atom_site_occupancy
  Na  Na0  1  0.000000  0.000000  0.500000  1
  Tb  Tb1  1  0.000000  0.000000  0.000000  1
  Cu  Cu2  1  0.666666  0.333334  0.212972  1
  Cu  Cu3  1  0.333334  0.666667  0.787029  1
  Sb  Sb4  1  0.333334  0.666667  0.238052  1
  Sb  Sb5  1  0.666666  0.333334  0.761948  1
