# generated using pymatgen
data_Lu4ScSn3Se
_symmetry_space_group_name_H-M   'P 1'
_cell_length_a   8.87280300
_cell_length_b   8.87280342
_cell_length_c   6.49235000
_cell_angle_alpha   90.00000000
_cell_angle_beta   90.00000000
_cell_angle_gamma   120.00000215
_symmetry_Int_Tables_number   1
_chemical_formula_structural   Lu4ScSn3Se
_chemical_formula_sum   'Lu8 Sc2 Sn6 Se2'
_cell_volume   442.64365740
_cell_formula_units_Z   2
loop_
 _symmetry_equiv_pos_site_id
 _symmetry_equiv_pos_as_xyz
  1  'x, y, z'
loop_
 _atom_site_type_symbol
 _atom_site_label
 _atom_site_symmetry_multiplicity
 _atom_site_fract_x
 _atom_site_fract_y
 _atom_site_fract_z
 _atom_site_occupancy
  Lu  Lu0  1  0.666667  0.333333  0.000000  1
  Lu  Lu1  1  0.333333  0.666667  0.000000  1
  Lu  Lu2  1  0.745260  0.745260  0.749143  1
  Lu  Lu3  1  0.254740  0.000000  0.749143  1
  Lu  Lu4  1  0.000000  0.254740  0.749143  1
  Lu  Lu5  1  0.254740  0.254740  0.250857  1
  Lu  Lu6  1  0.745260  0.000000  0.250857  1
  Lu  Lu7  1  0.000000  0.745260  0.250857  1
  Sc  Sc8  1  0.333333  0.666667  0.500000  1
  Sc  Sc9  1  0.666667  0.333333  0.500000  1
  Sn  Sn10  1  0.397773  0.397773  0.745647  1
  Sn  Sn11  1  0.602227  0.000000  0.745647  1
  Sn  Sn12  1  0.000000  0.602227  0.745647  1
  Sn  Sn13  1  0.602227  0.602227  0.254353  1
  Sn  Sn14  1  0.397773  0.000000  0.254353  1
  Sn  Sn15  1  0.000000  0.397773  0.254353  1
  Se  Se16  1  0.000000  0.000000  0.000000  1
  Se  Se17  1  0.000000  0.000000  0.500000  1
