# generated using pymatgen
data_Lu2Ga5Co3
_symmetry_space_group_name_H-M   'P 1'
_cell_length_a   8.27476026
_cell_length_b   8.27476006
_cell_length_c   5.44059814
_cell_angle_alpha   70.80646649
_cell_angle_beta   70.80647126
_cell_angle_gamma   97.61316235
_symmetry_Int_Tables_number   1
_chemical_formula_structural   Lu2Ga5Co3
_chemical_formula_sum   'Lu4 Ga10 Co6'
_cell_volume   319.94889144
_cell_formula_units_Z   2
loop_
 _symmetry_equiv_pos_site_id
 _symmetry_equiv_pos_as_xyz
  1  'x, y, z'
loop_
 _atom_site_type_symbol
 _atom_site_label
 _atom_site_symmetry_multiplicity
 _atom_site_fract_x
 _atom_site_fract_y
 _atom_site_fract_z
 _atom_site_occupancy
  Lu  Lu0  1  0.128505  0.428062  0.721097  1
  Lu  Lu1  1  0.571938  0.871495  0.778903  1
  Lu  Lu2  1  0.871495  0.571938  0.278903  1
  Lu  Lu3  1  0.428062  0.128505  0.221097  1
  Ga  Ga4  1  0.799496  0.200504  0.250000  1
  Ga  Ga5  1  0.200504  0.799496  0.750000  1
  Ga  Ga6  1  0.499926  0.500074  0.250000  1
  Ga  Ga7  1  0.500074  0.499926  0.750000  1
  Ga  Ga8  1  0.200496  0.799504  0.250000  1
  Ga  Ga9  1  0.799504  0.200496  0.750000  1
  Ga  Ga10  1  0.734438  0.893336  0.186576  1
  Ga  Ga11  1  0.893336  0.734438  0.686576  1
  Ga  Ga12  1  0.265562  0.106664  0.813424  1
  Ga  Ga13  1  0.106664  0.265562  0.313424  1
  Co  Co14  1  0.999987  0.000013  0.750000  1
  Co  Co15  1  0.571648  0.266661  0.580905  1
  Co  Co16  1  0.266661  0.571648  0.080905  1
  Co  Co17  1  0.428352  0.733339  0.419095  1
  Co  Co18  1  0.000013  0.999987  0.250000  1
  Co  Co19  1  0.733339  0.428352  0.919095  1
