# generated using pymatgen
data_Ho5Er11ZnIn(AgRh2)2
_symmetry_space_group_name_H-M   'P 1'
_cell_length_a   9.47991596
_cell_length_b   9.47638644
_cell_length_c   9.47859100
_cell_angle_alpha   60.16886646
_cell_angle_beta   60.16202275
_cell_angle_gamma   60.18615989
_symmetry_Int_Tables_number   1
_chemical_formula_structural   Ho5Er11ZnIn(AgRh2)2
_chemical_formula_sum   'Ho5 Er11 Zn1 In1 Ag2 Rh4'
_cell_volume   604.46045064
_cell_formula_units_Z   1
loop_
 _symmetry_equiv_pos_site_id
 _symmetry_equiv_pos_as_xyz
  1  'x, y, z'
loop_
 _atom_site_type_symbol
 _atom_site_label
 _atom_site_symmetry_multiplicity
 _atom_site_fract_x
 _atom_site_fract_y
 _atom_site_fract_z
 _atom_site_occupancy
  Ho  Ho0  1  0.189580  0.189552  0.810541  1
  Ho  Ho1  1  0.435925  0.062264  0.064250  1
  Ho  Ho2  1  0.434742  0.059267  0.434755  1
  Ho  Ho3  1  0.062595  0.436400  0.063115  1
  Ho  Ho4  1  0.648484  0.053463  0.647853  1
  Er  Er5  1  0.189988  0.811489  0.811081  1
  Er  Er6  1  0.063934  0.062498  0.435850  1
  Er  Er7  1  0.810341  0.189501  0.189765  1
  Er  Er8  1  0.811254  0.811548  0.189968  1
  Er  Er9  1  0.647244  0.648958  0.054336  1
  Er  Er10  1  0.648232  0.649285  0.648081  1
  Er  Er11  1  0.060152  0.435526  0.435347  1
  Er  Er12  1  0.054160  0.649368  0.647036  1
  Er  Er13  1  0.812270  0.188940  0.812147  1
  Er  Er14  1  0.435447  0.435650  0.060266  1
  Er  Er15  1  0.190356  0.809593  0.190663  1
  Zn  Zn16  1  0.417808  0.747782  0.418176  1
  In  In17  1  0.420854  0.422749  0.420975  1
  Ag  Ag18  1  0.417518  0.418968  0.747762  1
  Ag  Ag19  1  0.748189  0.418439  0.417550  1
  Rh  Rh20  1  0.856413  0.429815  0.856779  1
  Rh  Rh21  1  0.857671  0.856134  0.429027  1
  Rh  Rh22  1  0.429329  0.855663  0.857590  1
  Rh  Rh23  1  0.857512  0.857144  0.857087  1
