# generated using pymatgen
data_Na(SnSe2)8
_symmetry_space_group_name_H-M   'P 1'
_cell_length_a   7.78100200
_cell_length_b   7.78100065
_cell_length_c   14.81524100
_cell_angle_alpha   90.00000000
_cell_angle_beta   90.00000000
_cell_angle_gamma   119.99998871
_symmetry_Int_Tables_number   1
_chemical_formula_structural   Na(SnSe2)8
_chemical_formula_sum   'Na1 Sn8 Se16'
_cell_volume   776.80208115
_cell_formula_units_Z   1
loop_
 _symmetry_equiv_pos_site_id
 _symmetry_equiv_pos_as_xyz
  1  'x, y, z'
loop_
 _atom_site_type_symbol
 _atom_site_label
 _atom_site_symmetry_multiplicity
 _atom_site_fract_x
 _atom_site_fract_y
 _atom_site_fract_z
 _atom_site_occupancy
  Na  Na0  1  0.000000  0.000000  0.000000  1
  Sn  Sn1  1  0.501423  0.498577  0.743798  1
  Sn  Sn2  1  0.498577  0.501423  0.256202  1
  Sn  Sn3  1  0.501423  0.002846  0.743798  1
  Sn  Sn4  1  0.498577  0.997154  0.256202  1
  Sn  Sn5  1  0.997154  0.498577  0.743798  1
  Sn  Sn6  1  0.002846  0.501423  0.256202  1
  Sn  Sn7  1  0.000000  0.000000  0.737345  1
  Sn  Sn8  1  0.000000  0.000000  0.262655  1
  Se  Se9  1  0.835768  0.671538  0.149181  1
  Se  Se10  1  0.831561  0.663122  0.634651  1
  Se  Se11  1  0.835768  0.164232  0.149181  1
  Se  Se12  1  0.831561  0.168439  0.634651  1
  Se  Se13  1  0.333333  0.666667  0.147722  1
  Se  Se14  1  0.333333  0.666667  0.638865  1
  Se  Se15  1  0.328462  0.164232  0.149181  1
  Se  Se16  1  0.336878  0.168439  0.634651  1
  Se  Se17  1  0.671538  0.835768  0.850819  1
  Se  Se18  1  0.663122  0.831561  0.365349  1
  Se  Se19  1  0.666667  0.333333  0.852278  1
  Se  Se20  1  0.666667  0.333333  0.361135  1
  Se  Se21  1  0.164232  0.835768  0.850819  1
  Se  Se22  1  0.168439  0.831561  0.365349  1
  Se  Se23  1  0.164232  0.328462  0.850819  1
  Se  Se24  1  0.168439  0.336878  0.365349  1
