# generated using pymatgen
data_Hf17ScNb2(Re3P)2
_symmetry_space_group_name_H-M   'P 1'
_cell_length_a   8.65449900
_cell_length_b   8.65449940
_cell_length_c   8.56533000
_cell_angle_alpha   90.00000000
_cell_angle_beta   90.00000000
_cell_angle_gamma   119.97934156
_symmetry_Int_Tables_number   1
_chemical_formula_structural   Hf17ScNb2(Re3P)2
_chemical_formula_sum   'Hf17 Sc1 Nb2 Re6 P2'
_cell_volume   555.71098849
_cell_formula_units_Z   1
loop_
 _symmetry_equiv_pos_site_id
 _symmetry_equiv_pos_as_xyz
  1  'x, y, z'
loop_
 _atom_site_type_symbol
 _atom_site_label
 _atom_site_symmetry_multiplicity
 _atom_site_fract_x
 _atom_site_fract_y
 _atom_site_fract_z
 _atom_site_occupancy
  Hf  Hf0  1  0.197477  0.802523  0.451143  1
  Hf  Hf1  1  0.197554  0.394366  0.450386  1
  Hf  Hf2  1  0.605634  0.802446  0.450386  1
  Hf  Hf3  1  0.801987  0.198013  0.548896  1
  Hf  Hf4  1  0.802561  0.605569  0.549963  1
  Hf  Hf5  1  0.394431  0.197439  0.549963  1
  Hf  Hf6  1  0.801987  0.198013  0.951104  1
  Hf  Hf7  1  0.802561  0.605569  0.950037  1
  Hf  Hf8  1  0.394431  0.197439  0.950037  1
  Hf  Hf9  1  0.197477  0.802523  0.048857  1
  Hf  Hf10  1  0.197554  0.394366  0.049614  1
  Hf  Hf11  1  0.605634  0.802446  0.049614  1
  Hf  Hf12  1  0.539289  0.078561  0.250000  1
  Hf  Hf13  1  0.921439  0.460711  0.250000  1
  Hf  Hf14  1  0.459464  0.540536  0.750000  1
  Hf  Hf15  1  0.460470  0.920556  0.750000  1
  Hf  Hf16  1  0.079444  0.539530  0.750000  1
  Sc  Sc17  1  0.541589  0.458411  0.250000  1
  Nb  Nb18  1  0.000007  0.999993  0.498960  1
  Nb  Nb19  1  0.000007  0.999993  0.001040  1
  Re  Re20  1  0.887383  0.112617  0.250000  1
  Re  Re21  1  0.888062  0.774621  0.250000  1
  Re  Re22  1  0.225379  0.111938  0.250000  1
  Re  Re23  1  0.112157  0.887843  0.750000  1
  Re  Re24  1  0.111953  0.224783  0.750000  1
  Re  Re25  1  0.775217  0.888047  0.750000  1
  P  P26  1  0.332424  0.667576  0.250000  1
  P  P27  1  0.666427  0.333573  0.750000  1
