# generated using pymatgen
data_Ca3Si4Ni29B10
_symmetry_space_group_name_H-M   'P 1'
_cell_length_a   11.15799900
_cell_length_b   11.15799900
_cell_length_c   7.83892000
_cell_angle_alpha   90.00000000
_cell_angle_beta   90.00000000
_cell_angle_gamma   90.00000000
_symmetry_Int_Tables_number   1
_chemical_formula_structural   Ca3Si4Ni29B10
_chemical_formula_sum   'Ca6 Si8 Ni58 B20'
_cell_volume   975.95292179
_cell_formula_units_Z   2
loop_
 _symmetry_equiv_pos_site_id
 _symmetry_equiv_pos_as_xyz
  1  'x, y, z'
loop_
 _atom_site_type_symbol
 _atom_site_label
 _atom_site_symmetry_multiplicity
 _atom_site_fract_x
 _atom_site_fract_y
 _atom_site_fract_z
 _atom_site_occupancy
  Ca  Ca0  1  0.250000  0.750000  0.000000  1
  Ca  Ca1  1  0.250000  0.250000  0.000000  1
  Ca  Ca2  1  0.750000  0.750000  0.000000  1
  Ca  Ca3  1  0.750000  0.250000  0.000000  1
  Ca  Ca4  1  0.000000  0.000000  0.500000  1
  Ca  Ca5  1  0.500000  0.500000  0.500000  1
  Si  Si6  1  0.500000  0.683958  0.823350  1
  Si  Si7  1  0.316042  0.500000  0.176650  1
  Si  Si8  1  0.000000  0.183958  0.176650  1
  Si  Si9  1  0.000000  0.816042  0.176650  1
  Si  Si10  1  0.683958  0.500000  0.176650  1
  Si  Si11  1  0.183958  0.000000  0.823350  1
  Si  Si12  1  0.816042  0.000000  0.823350  1
  Si  Si13  1  0.500000  0.316042  0.823350  1
  Ni  Ni14  1  0.339953  0.672983  0.332605  1
  Ni  Ni15  1  0.270915  0.000000  0.525048  1
  Ni  Ni16  1  0.500000  0.770915  0.525048  1
  Ni  Ni17  1  0.500000  0.229085  0.525048  1
  Ni  Ni18  1  0.832457  0.500000  0.971950  1
  Ni  Ni19  1  0.000000  0.667543  0.971950  1
  Ni  Ni20  1  0.000000  0.332457  0.971950  1
  Ni  Ni21  1  0.167543  0.500000  0.971950  1
  Ni  Ni22  1  0.667543  0.000000  0.028050  1
  Ni  Ni23  1  0.332457  0.000000  0.028050  1
  Ni  Ni24  1  0.500000  0.832457  0.028050  1
  Ni  Ni25  1  0.500000  0.167543  0.028050  1
  Ni  Ni26  1  0.883299  0.383299  0.248048  1
  Ni  Ni27  1  0.883299  0.616701  0.248048  1
  Ni  Ni28  1  0.116701  0.383299  0.248048  1
  Ni  Ni29  1  0.116701  0.616701  0.248048  1
  Ni  Ni30  1  0.616701  0.883299  0.751952  1
  Ni  Ni31  1  0.383299  0.116701  0.751952  1
  Ni  Ni32  1  0.383299  0.883299  0.751952  1
  Ni  Ni33  1  0.616701  0.116701  0.751952  1
  Ni  Ni34  1  0.889617  0.389617  0.699802  1
  Ni  Ni35  1  0.889617  0.610383  0.699802  1
  Ni  Ni36  1  0.110383  0.389617  0.699802  1
  Ni  Ni37  1  0.110383  0.610383  0.699802  1
  Ni  Ni38  1  0.610383  0.889617  0.300198  1
  Ni  Ni39  1  0.389617  0.110383  0.300198  1
  Ni  Ni40  1  0.389617  0.889617  0.300198  1
  Ni  Ni41  1  0.610383  0.110383  0.300198  1
  Ni  Ni42  1  0.339953  0.327017  0.332605  1
  Ni  Ni43  1  0.827017  0.160047  0.332605  1
  Ni  Ni44  1  0.172983  0.839953  0.332605  1
  Ni  Ni45  1  0.660047  0.672983  0.332605  1
  Ni  Ni46  1  0.160047  0.827017  0.667395  1
  Ni  Ni47  1  0.839953  0.172983  0.667395  1
  Ni  Ni48  1  0.327017  0.339953  0.667395  1
  Ni  Ni49  1  0.610105  0.500000  0.887760  1
  Ni  Ni50  1  0.160047  0.172983  0.667395  1
  Ni  Ni51  1  0.672983  0.339953  0.667395  1
  Ni  Ni52  1  0.327017  0.660047  0.667395  1
  Ni  Ni53  1  0.839953  0.827017  0.667395  1
  Ni  Ni54  1  0.729085  0.000000  0.525048  1
  Ni  Ni55  1  0.000000  0.889895  0.887760  1
  Ni  Ni56  1  0.172983  0.160047  0.332605  1
  Ni  Ni57  1  0.827017  0.839953  0.332605  1
  Ni  Ni58  1  0.000000  0.110105  0.887760  1
  Ni  Ni59  1  0.389895  0.500000  0.887760  1
  Ni  Ni60  1  0.500000  0.000000  0.535147  1
  Ni  Ni61  1  0.000000  0.500000  0.464853  1
  Ni  Ni62  1  0.110105  0.000000  0.112240  1
  Ni  Ni63  1  0.229085  0.500000  0.474952  1
  Ni  Ni64  1  0.000000  0.270915  0.474952  1
  Ni  Ni65  1  0.000000  0.729085  0.474952  1
  Ni  Ni66  1  0.770915  0.500000  0.474952  1
  Ni  Ni67  1  0.500000  0.610105  0.112240  1
  Ni  Ni68  1  0.500000  0.389895  0.112240  1
  Ni  Ni69  1  0.889895  0.000000  0.112240  1
  Ni  Ni70  1  0.672983  0.660047  0.667395  1
  Ni  Ni71  1  0.660047  0.327017  0.332605  1
  B  B72  1  0.689080  0.189080  0.518008  1
  B  B73  1  0.310920  0.810920  0.518008  1
  B  B74  1  0.310920  0.189080  0.518008  1
  B  B75  1  0.689080  0.810920  0.518008  1
  B  B76  1  0.189080  0.689080  0.481992  1
  B  B77  1  0.189080  0.310920  0.481992  1
  B  B78  1  0.500000  0.254664  0.262433  1
  B  B79  1  0.500000  0.745336  0.262433  1
  B  B80  1  0.245336  0.000000  0.262433  1
  B  B81  1  0.754664  0.000000  0.262433  1
  B  B82  1  0.254664  0.500000  0.737567  1
  B  B83  1  0.000000  0.245336  0.737567  1
  B  B84  1  0.000000  0.754664  0.737567  1
  B  B85  1  0.745336  0.500000  0.737567  1
  B  B86  1  0.500000  0.000000  0.142350  1
  B  B87  1  0.000000  0.500000  0.857650  1
  B  B88  1  0.500000  0.000000  0.897245  1
  B  B89  1  0.000000  0.500000  0.102755  1
  B  B90  1  0.810920  0.689080  0.481992  1
  B  B91  1  0.810920  0.310920  0.481992  1
