# generated using pymatgen
data_Zr7ScCo16(As3P)3
_symmetry_space_group_name_H-M   'P 1'
_cell_length_a   12.46077044
_cell_length_b   12.46077162
_cell_length_c   3.74767400
_cell_angle_alpha   90.00000000
_cell_angle_beta   90.00000000
_cell_angle_gamma   120.05632659
_symmetry_Int_Tables_number   1
_chemical_formula_structural   Zr7ScCo16(As3P)3
_chemical_formula_sum   'Zr7 Sc1 Co16 As9 P3'
_cell_volume   503.65771449
_cell_formula_units_Z   1
loop_
 _symmetry_equiv_pos_site_id
 _symmetry_equiv_pos_as_xyz
  1  'x, y, z'
loop_
 _atom_site_type_symbol
 _atom_site_label
 _atom_site_symmetry_multiplicity
 _atom_site_fract_x
 _atom_site_fract_y
 _atom_site_fract_z
 _atom_site_occupancy
  Zr  Zr0  1  0.557095  0.999977  0.000000  1
  Zr  Zr1  1  0.999977  0.557095  0.000000  1
  Zr  Zr2  1  0.665725  0.332848  0.000000  1
  Zr  Zr3  1  0.332848  0.665725  0.000000  1
  Zr  Zr4  1  0.829496  0.829496  0.500000  1
  Zr  Zr5  1  0.168194  0.000559  0.500000  1
  Zr  Zr6  1  0.000559  0.168194  0.500000  1
  Sc  Sc7  1  0.441676  0.441676  0.000000  1
  Co  Co8  1  0.193234  0.364610  0.000000  1
  Co  Co9  1  0.171213  0.807807  0.000000  1
  Co  Co10  1  0.828424  0.637020  0.000000  1
  Co  Co11  1  0.807807  0.171213  0.000000  1
  Co  Co12  1  0.364610  0.193234  0.000000  1
  Co  Co13  1  0.123997  0.478184  0.500000  1
  Co  Co14  1  0.355563  0.877088  0.500000  1
  Co  Co15  1  0.521791  0.645018  0.500000  1
  Co  Co16  1  0.645018  0.521791  0.500000  1
  Co  Co17  1  0.877088  0.355563  0.500000  1
  Co  Co18  1  0.478184  0.123997  0.500000  1
  Co  Co19  1  0.000231  0.000231  0.000000  1
  Co  Co20  1  0.728915  0.000080  0.500000  1
  Co  Co21  1  0.000080  0.728915  0.500000  1
  Co  Co22  1  0.637020  0.828424  0.000000  1
  Co  Co23  1  0.271814  0.271814  0.500000  1
  As  As24  1  0.652440  0.652440  0.000000  1
  As  As25  1  0.343264  0.000582  0.000000  1
  As  As26  1  0.000582  0.343264  0.000000  1
  As  As27  1  0.481928  0.311234  0.500000  1
  As  As28  1  0.691620  0.174188  0.500000  1
  As  As29  1  0.825811  0.517871  0.500000  1
  As  As30  1  0.517871  0.825811  0.500000  1
  As  As31  1  0.174188  0.691620  0.500000  1
  As  As32  1  0.311234  0.481928  0.500000  1
  P  P33  1  0.826661  0.999598  0.000000  1
  P  P34  1  0.999598  0.826661  0.000000  1
  P  P35  1  0.174244  0.174244  0.000000  1
