# generated using pymatgen
data_Ho12MnTl2ZnFe
_symmetry_space_group_name_H-M   'P 1'
_cell_length_a   8.38127030
_cell_length_b   8.38127056
_cell_length_c   8.38127029
_cell_angle_alpha   109.73924131
_cell_angle_beta   109.73924922
_cell_angle_gamma   108.93649050
_symmetry_Int_Tables_number   1
_chemical_formula_structural   Ho12MnTl2ZnFe
_chemical_formula_sum   'Ho12 Mn1 Tl2 Zn1 Fe1'
_cell_volume   453.18896505
_cell_formula_units_Z   1
loop_
 _symmetry_equiv_pos_site_id
 _symmetry_equiv_pos_as_xyz
  1  'x, y, z'
loop_
 _atom_site_type_symbol
 _atom_site_label
 _atom_site_symmetry_multiplicity
 _atom_site_fract_x
 _atom_site_fract_y
 _atom_site_fract_z
 _atom_site_occupancy
  Ho  Ho0  1  0.444816  0.202525  0.242291  1
  Ho  Ho1  1  0.555558  0.797504  0.758054  1
  Ho  Ho2  1  0.960233  0.202525  0.757709  1
  Ho  Ho3  1  0.202525  0.960233  0.757709  1
  Ho  Ho4  1  0.039451  0.797504  0.241946  1
  Ho  Ho5  1  0.797504  0.039451  0.241946  1
  Ho  Ho6  1  0.202525  0.444816  0.242291  1
  Ho  Ho7  1  0.797504  0.555558  0.758054  1
  Ho  Ho8  1  0.304014  0.304014  0.610353  1
  Ho  Ho9  1  0.693661  0.693661  0.389647  1
  Ho  Ho10  1  0.304014  0.693661  0.000000  1
  Ho  Ho11  1  0.693661  0.304014  0.000000  1
  Mn  Mn12  1  0.393748  0.393748  0.000000  1
  Tl  Tl13  1  0.499383  0.999383  0.500000  1
  Tl  Tl14  1  0.999383  0.499383  0.500000  1
  Zn  Zn15  1  0.999840  0.999840  0.000000  1
  Fe  Fe16  1  0.612181  0.612181  0.000000  1
