# generated using pymatgen
data_Tb17Tm3Ir11Ru
_symmetry_space_group_name_H-M   'P 1'
_cell_length_a   10.89730701
_cell_length_b   10.89738801
_cell_length_c   6.40322600
_cell_angle_alpha   90.00000000
_cell_angle_beta   90.00000000
_cell_angle_gamma   89.99533110
_symmetry_Int_Tables_number   1
_chemical_formula_structural   Tb17Tm3Ir11Ru
_chemical_formula_sum   'Tb17 Tm3 Ir11 Ru1'
_cell_volume   760.39706150
_cell_formula_units_Z   1
loop_
 _symmetry_equiv_pos_site_id
 _symmetry_equiv_pos_as_xyz
  1  'x, y, z'
loop_
 _atom_site_type_symbol
 _atom_site_label
 _atom_site_symmetry_multiplicity
 _atom_site_fract_x
 _atom_site_fract_y
 _atom_site_fract_z
 _atom_site_occupancy
  Tb  Tb0  1  0.291615  0.087124  0.377593  1
  Tb  Tb1  1  0.291955  0.912680  0.880433  1
  Tb  Tb2  1  0.708045  0.087320  0.880433  1
  Tb  Tb3  1  0.708385  0.912876  0.377593  1
  Tb  Tb4  1  0.587353  0.792127  0.880623  1
  Tb  Tb5  1  0.587319  0.207811  0.377448  1
  Tb  Tb6  1  0.412681  0.792189  0.377448  1
  Tb  Tb7  1  0.412647  0.207873  0.880623  1
  Tb  Tb8  1  0.209287  0.411553  0.621331  1
  Tb  Tb9  1  0.209585  0.588202  0.120714  1
  Tb  Tb10  1  0.790415  0.411798  0.120714  1
  Tb  Tb11  1  0.790713  0.588447  0.621331  1
  Tb  Tb12  1  0.911823  0.709761  0.120894  1
  Tb  Tb13  1  0.911786  0.290148  0.621223  1
  Tb  Tb14  1  0.088214  0.709852  0.621223  1
  Tb  Tb15  1  0.088177  0.290239  0.120894  1
  Tb  Tb16  1  0.500000  0.500000  0.499310  1
  Tm  Tm17  1  0.000000  0.000000  0.499287  1
  Tm  Tm18  1  0.000000  0.000000  0.999307  1
  Tm  Tm19  1  0.500000  0.500000  0.999294  1
  Ir  Ir20  1  0.848447  0.152354  0.250010  1
  Ir  Ir21  1  0.848536  0.847998  0.749653  1
  Ir  Ir22  1  0.151464  0.152002  0.749653  1
  Ir  Ir23  1  0.151553  0.847646  0.250010  1
  Ir  Ir24  1  0.652767  0.347791  0.750904  1
  Ir  Ir25  1  0.653121  0.652324  0.248818  1
  Ir  Ir26  1  0.346879  0.347676  0.248818  1
  Ir  Ir27  1  0.347233  0.652209  0.750904  1
  Ir  Ir28  1  0.500000  0.000000  0.622912  1
  Ir  Ir29  1  0.000000  0.500000  0.878576  1
  Ir  Ir30  1  0.000000  0.500000  0.378794  1
  Ru  Ru31  1  0.500000  0.000000  0.123228  1
