# generated using pymatgen
data_ScTi3Mn2(Co5B2)2
_symmetry_space_group_name_H-M   'P 1'
_cell_length_a   8.59402823
_cell_length_b   8.59402767
_cell_length_c   2.96016000
_cell_angle_alpha   90.00000000
_cell_angle_beta   90.00000000
_cell_angle_gamma   89.35574805
_symmetry_Int_Tables_number   1
_chemical_formula_structural   ScTi3Mn2(Co5B2)2
_chemical_formula_sum   'Sc1 Ti3 Mn2 Co10 B4'
_cell_volume   218.61565252
_cell_formula_units_Z   1
loop_
 _symmetry_equiv_pos_site_id
 _symmetry_equiv_pos_as_xyz
  1  'x, y, z'
loop_
 _atom_site_type_symbol
 _atom_site_label
 _atom_site_symmetry_multiplicity
 _atom_site_fract_x
 _atom_site_fract_y
 _atom_site_fract_z
 _atom_site_occupancy
  Sc  Sc0  1  0.823288  0.323288  0.000000  1
  Ti  Ti1  1  0.323794  0.175487  0.000000  1
  Ti  Ti2  1  0.675487  0.823794  0.000000  1
  Ti  Ti3  1  0.176117  0.676117  0.000000  1
  Mn  Mn4  1  0.999685  0.001964  0.000000  1
  Mn  Mn5  1  0.501964  0.499685  0.000000  1
  Co  Co6  1  0.496758  0.996758  0.500000  1
  Co  Co7  1  0.005788  0.505788  0.500000  1
  Co  Co8  1  0.079037  0.220136  0.500000  1
  Co  Co9  1  0.218857  0.929672  0.500000  1
  Co  Co10  1  0.774276  0.058920  0.500000  1
  Co  Co11  1  0.932293  0.783047  0.500000  1
  Co  Co12  1  0.429672  0.718857  0.500000  1
  Co  Co13  1  0.558920  0.274276  0.500000  1
  Co  Co14  1  0.720136  0.579037  0.500000  1
  Co  Co15  1  0.283047  0.432293  0.500000  1
  B  B16  1  0.616342  0.116342  0.000000  1
  B  B17  1  0.125007  0.381793  0.000000  1
  B  B18  1  0.881793  0.625007  0.000000  1
  B  B19  1  0.377738  0.877738  0.000000  1
