# generated using pymatgen
data_Li2Pr2SnSb
_symmetry_space_group_name_H-M   'P 1'
_cell_length_a   9.57707580
_cell_length_b   9.57707584
_cell_length_c   7.65871199
_cell_angle_alpha   90.05005333
_cell_angle_beta   89.94994707
_cell_angle_gamma   120.04964872
_symmetry_Int_Tables_number   1
_chemical_formula_structural   Li2Pr2SnSb
_chemical_formula_sum   'Li8 Pr8 Sn4 Sb4'
_cell_volume   608.04330033
_cell_formula_units_Z   4
loop_
 _symmetry_equiv_pos_site_id
 _symmetry_equiv_pos_as_xyz
  1  'x, y, z'
loop_
 _atom_site_type_symbol
 _atom_site_label
 _atom_site_symmetry_multiplicity
 _atom_site_fract_x
 _atom_site_fract_y
 _atom_site_fract_z
 _atom_site_occupancy
  Li  Li0  1  0.833101  0.166899  0.723661  1
  Li  Li1  1  0.833330  0.666042  0.722342  1
  Li  Li2  1  0.333958  0.166670  0.722342  1
  Li  Li3  1  0.167151  0.832849  0.221614  1
  Li  Li4  1  0.166954  0.333981  0.219144  1
  Li  Li5  1  0.666019  0.833046  0.219144  1
  Li  Li6  1  0.666718  0.333282  0.320865  1
  Li  Li7  1  0.332832  0.667168  0.819204  1
  Pr  Pr8  1  0.489193  0.510807  0.506579  1
  Pr  Pr9  1  0.491436  0.980104  0.506951  1
  Pr  Pr10  1  0.019896  0.508564  0.506951  1
  Pr  Pr11  1  0.508784  0.491216  0.004395  1
  Pr  Pr12  1  0.510603  0.019152  0.005018  1
  Pr  Pr13  1  0.980848  0.489397  0.005018  1
  Pr  Pr14  1  0.998566  0.001434  0.499254  1
  Pr  Pr15  1  0.999653  0.000347  0.996827  1
  Sn  Sn16  1  0.166577  0.333286  0.766193  1
  Sn  Sn17  1  0.666714  0.833423  0.766193  1
  Sn  Sn18  1  0.667007  0.332993  0.738198  1
  Sn  Sn19  1  0.333375  0.666625  0.237712  1
  Sb  Sb20  1  0.833547  0.166453  0.262271  1
  Sb  Sb21  1  0.834011  0.666902  0.262764  1
  Sb  Sb22  1  0.333098  0.165989  0.262764  1
  Sb  Sb23  1  0.166629  0.833371  0.762605  1
