# generated using pymatgen
data_Tb3Pr(LuPt)4
_symmetry_space_group_name_H-M   'P 1'
_cell_length_a   4.77181000
_cell_length_b   7.20876070
_cell_length_c   8.69855800
_cell_angle_alpha   90.24830663
_cell_angle_beta   90.00000000
_cell_angle_gamma   90.00000000
_symmetry_Int_Tables_number   1
_chemical_formula_structural   Tb3Pr(LuPt)4
_chemical_formula_sum   'Tb3 Pr1 Lu4 Pt4'
_cell_volume   299.21746344
_cell_formula_units_Z   1
loop_
 _symmetry_equiv_pos_site_id
 _symmetry_equiv_pos_as_xyz
  1  'x, y, z'
loop_
 _atom_site_type_symbol
 _atom_site_label
 _atom_site_symmetry_multiplicity
 _atom_site_fract_x
 _atom_site_fract_y
 _atom_site_fract_z
 _atom_site_occupancy
  Tb  Tb0  1  0.250000  0.985074  0.328025  1
  Tb  Tb1  1  0.750000  0.014567  0.668710  1
  Tb  Tb2  1  0.250000  0.485796  0.173421  1
  Pr  Pr3  1  0.750000  0.511753  0.827001  1
  Lu  Lu4  1  0.750000  0.643243  0.422122  1
  Lu  Lu5  1  0.250000  0.356841  0.572000  1
  Lu  Lu6  1  0.750000  0.142460  0.077890  1
  Lu  Lu7  1  0.250000  0.858540  0.924143  1
  Pt  Pt8  1  0.250000  0.244645  0.909414  1
  Pt  Pt9  1  0.750000  0.753672  0.100088  1
  Pt  Pt10  1  0.250000  0.751985  0.591366  1
  Pt  Pt11  1  0.750000  0.251423  0.405819  1
