# generated using pymatgen
data_Na2YbOsO6
_symmetry_space_group_name_H-M   'P 1'
_cell_length_a   5.65114800
_cell_length_b   5.65114874
_cell_length_c   10.38163500
_cell_angle_alpha   90.00000000
_cell_angle_beta   90.00000000
_cell_angle_gamma   120.00000740
_symmetry_Int_Tables_number   1
_chemical_formula_structural   Na2YbOsO6
_chemical_formula_sum   'Na4 Yb2 Os2 O12'
_cell_volume   287.12418420
_cell_formula_units_Z   2
loop_
 _symmetry_equiv_pos_site_id
 _symmetry_equiv_pos_as_xyz
  1  'x, y, z'
loop_
 _atom_site_type_symbol
 _atom_site_label
 _atom_site_symmetry_multiplicity
 _atom_site_fract_x
 _atom_site_fract_y
 _atom_site_fract_z
 _atom_site_occupancy
  Na  Na0  1  0.666666  0.333333  0.052563  1
  Na  Na1  1  0.666666  0.333333  0.447437  1
  Na  Na2  1  0.333334  0.666667  0.552563  1
  Na  Na3  1  0.333334  0.666667  0.947437  1
  Yb  Yb4  1  0.000000  0.000000  0.250000  1
  Yb  Yb5  1  0.000000  0.000000  0.750000  1
  Os  Os6  1  0.333334  0.666667  0.250000  1
  Os  Os7  1  0.666666  0.333333  0.750000  1
  O  O8  1  0.318573  0.388600  0.145440  1
  O  O9  1  0.070028  0.681427  0.145440  1
  O  O10  1  0.611400  0.929972  0.145440  1
  O  O11  1  0.070028  0.388600  0.354561  1
  O  O12  1  0.611400  0.681427  0.354561  1
  O  O13  1  0.318573  0.929972  0.354561  1
  O  O14  1  0.681427  0.070028  0.645440  1
  O  O15  1  0.388599  0.318573  0.645440  1
  O  O16  1  0.929972  0.611400  0.645440  1
  O  O17  1  0.388600  0.070028  0.854561  1
  O  O18  1  0.929972  0.318573  0.854561  1
  O  O19  1  0.681427  0.611400  0.854561  1
