# generated using pymatgen
data_Ce3Y(Rh2Pb)2
_symmetry_space_group_name_H-M   'P 1'
_cell_length_a   7.77297357
_cell_length_b   7.77297366
_cell_length_c   3.69377800
_cell_angle_alpha   90.00000000
_cell_angle_beta   90.00000000
_cell_angle_gamma   88.35930302
_symmetry_Int_Tables_number   1
_chemical_formula_structural   Ce3Y(Rh2Pb)2
_chemical_formula_sum   'Ce3 Y1 Rh4 Pb2'
_cell_volume   223.08331705
_cell_formula_units_Z   1
loop_
 _symmetry_equiv_pos_site_id
 _symmetry_equiv_pos_as_xyz
  1  'x, y, z'
loop_
 _atom_site_type_symbol
 _atom_site_label
 _atom_site_symmetry_multiplicity
 _atom_site_fract_x
 _atom_site_fract_y
 _atom_site_fract_z
 _atom_site_occupancy
  Ce  Ce0  1  0.329835  0.829835  0.500000  1
  Ce  Ce1  1  0.168300  0.326791  0.500000  1
  Ce  Ce2  1  0.826791  0.668300  0.500000  1
  Y  Y3  1  0.669223  0.169223  0.500000  1
  Rh  Rh4  1  0.141925  0.641925  0.000000  1
  Rh  Rh5  1  0.883795  0.383795  0.000000  1
  Rh  Rh6  1  0.628536  0.858933  0.000000  1
  Rh  Rh7  1  0.358933  0.128536  0.000000  1
  Pb  Pb8  1  0.992891  0.999772  0.000000  1
  Pb  Pb9  1  0.499772  0.492891  0.000000  1
