# generated using pymatgen
data_Tb4Ho2InSi2
_symmetry_space_group_name_H-M   'P 1'
_cell_length_a   8.54264112
_cell_length_b   8.54263832
_cell_length_c   8.54264119
_cell_angle_alpha   112.18993980
_cell_angle_beta   110.97341936
_cell_angle_gamma   105.33054191
_symmetry_Int_Tables_number   1
_chemical_formula_structural   Tb4Ho2InSi2
_chemical_formula_sum   'Tb8 Ho4 In2 Si4'
_cell_volume   477.98366793
_cell_formula_units_Z   2
loop_
 _symmetry_equiv_pos_site_id
 _symmetry_equiv_pos_as_xyz
  1  'x, y, z'
loop_
 _atom_site_type_symbol
 _atom_site_label
 _atom_site_symmetry_multiplicity
 _atom_site_fract_x
 _atom_site_fract_y
 _atom_site_fract_z
 _atom_site_occupancy
  Tb  Tb0  1  0.185934  0.279045  0.464978  1
  Tb  Tb1  1  0.814066  0.720955  0.535022  1
  Tb  Tb2  1  0.185932  0.720955  0.906890  1
  Tb  Tb3  1  0.814068  0.279045  0.093110  1
  Tb  Tb4  1  0.319800  0.617041  0.297240  1
  Tb  Tb5  1  0.680200  0.382959  0.702760  1
  Tb  Tb6  1  0.319801  0.022564  0.702761  1
  Tb  Tb7  1  0.680199  0.977436  0.297239  1
  Ho  Ho8  1  0.441823  0.237892  0.203931  1
  Ho  Ho9  1  0.558177  0.762108  0.796069  1
  Ho  Ho10  1  0.033961  0.237892  0.796069  1
  Ho  Ho11  1  0.966039  0.762108  0.203931  1
  In  In12  1  0.500000  0.500000  0.000000  1
  In  In13  1  0.000000  0.000000  0.000000  1
  Si  Si14  1  0.368805  0.000000  0.368805  1
  Si  Si15  1  0.631195  0.000000  0.631195  1
  Si  Si16  1  0.115213  0.615212  0.500000  1
  Si  Si17  1  0.884787  0.384788  0.500000  1
