# generated using pymatgen
data_V12CoSi2Ni
_symmetry_space_group_name_H-M   'P 1'
_cell_length_a   4.67497400
_cell_length_b   4.67493600
_cell_length_c   9.37537300
_cell_angle_alpha   90.00000000
_cell_angle_beta   90.00000000
_cell_angle_gamma   90.00000000
_symmetry_Int_Tables_number   1
_chemical_formula_structural   V12CoSi2Ni
_chemical_formula_sum   'V12 Co1 Si2 Ni1'
_cell_volume   204.90069185
_cell_formula_units_Z   1
loop_
 _symmetry_equiv_pos_site_id
 _symmetry_equiv_pos_as_xyz
  1  'x, y, z'
loop_
 _atom_site_type_symbol
 _atom_site_label
 _atom_site_symmetry_multiplicity
 _atom_site_fract_x
 _atom_site_fract_y
 _atom_site_fract_z
 _atom_site_occupancy
  V  V0  1  0.000000  0.500000  0.116704  1
  V  V1  1  0.000000  0.500000  0.634547  1
  V  V2  1  0.500000  0.246614  0.749420  1
  V  V3  1  0.500000  0.250974  0.250036  1
  V  V4  1  0.748597  0.000000  0.998474  1
  V  V5  1  0.751903  0.000000  0.501327  1
  V  V6  1  0.000000  0.500000  0.874494  1
  V  V7  1  0.000000  0.500000  0.375275  1
  V  V8  1  0.500000  0.753386  0.749420  1
  V  V9  1  0.500000  0.749026  0.250036  1
  V  V10  1  0.251403  0.000000  0.998474  1
  V  V11  1  0.248097  0.000000  0.501327  1
  Co  Co12  1  0.000000  0.000000  0.752614  1
  Si  Si13  1  0.500000  0.500000  0.498878  1
  Si  Si14  1  0.000000  0.000000  0.250639  1
  Ni  Ni15  1  0.500000  0.500000  0.998336  1
