# generated using pymatgen
data_Nd8Si12Pt3Rh
_symmetry_space_group_name_H-M   'P 1'
_cell_length_a   8.25252400
_cell_length_b   8.25252449
_cell_length_c   8.55883500
_cell_angle_alpha   90.00000000
_cell_angle_beta   90.00000000
_cell_angle_gamma   119.99999802
_symmetry_Int_Tables_number   1
_chemical_formula_structural   Nd8Si12Pt3Rh
_chemical_formula_sum   'Nd8 Si12 Pt3 Rh1'
_cell_volume   504.79949573
_cell_formula_units_Z   1
loop_
 _symmetry_equiv_pos_site_id
 _symmetry_equiv_pos_as_xyz
  1  'x, y, z'
loop_
 _atom_site_type_symbol
 _atom_site_label
 _atom_site_symmetry_multiplicity
 _atom_site_fract_x
 _atom_site_fract_y
 _atom_site_fract_z
 _atom_site_occupancy
  Nd  Nd0  1  0.000000  0.000000  0.750911  1
  Nd  Nd1  1  0.000000  0.000000  0.249148  1
  Nd  Nd2  1  0.498483  0.501517  0.752198  1
  Nd  Nd3  1  0.498483  0.996966  0.752198  1
  Nd  Nd4  1  0.003034  0.501517  0.752198  1
  Nd  Nd5  1  0.499857  0.500143  0.247776  1
  Nd  Nd6  1  0.000286  0.500143  0.247776  1
  Nd  Nd7  1  0.499857  0.999714  0.247776  1
  Si  Si8  1  0.834925  0.165075  0.999271  1
  Si  Si9  1  0.834925  0.669850  0.999271  1
  Si  Si10  1  0.330150  0.165075  0.999271  1
  Si  Si11  1  0.833980  0.166020  0.500852  1
  Si  Si12  1  0.833980  0.667960  0.500852  1
  Si  Si13  1  0.332040  0.166020  0.500852  1
  Si  Si14  1  0.165594  0.834406  0.499290  1
  Si  Si15  1  0.668812  0.834406  0.499290  1
  Si  Si16  1  0.165594  0.331188  0.499290  1
  Si  Si17  1  0.167785  0.832215  0.000710  1
  Si  Si18  1  0.664430  0.832215  0.000710  1
  Si  Si19  1  0.167785  0.335570  0.000710  1
  Pt  Pt20  1  0.666667  0.333333  0.998212  1
  Pt  Pt21  1  0.666667  0.333333  0.501425  1
  Pt  Pt22  1  0.333333  0.666667  0.498211  1
  Rh  Rh23  1  0.333333  0.666667  0.001800  1
