# generated using pymatgen
data_MgIn5Ir2
_symmetry_space_group_name_H-M   'P 1'
_cell_length_a   5.27679031
_cell_length_b   7.58268800
_cell_length_c   8.46188638
_cell_angle_alpha   90.00000000
_cell_angle_beta   89.61914224
_cell_angle_gamma   90.00000000
_symmetry_Int_Tables_number   1
_chemical_formula_structural   MgIn5Ir2
_chemical_formula_sum   'Mg2 In10 Ir4'
_cell_volume   338.57167215
_cell_formula_units_Z   2
loop_
 _symmetry_equiv_pos_site_id
 _symmetry_equiv_pos_as_xyz
  1  'x, y, z'
loop_
 _atom_site_type_symbol
 _atom_site_label
 _atom_site_symmetry_multiplicity
 _atom_site_fract_x
 _atom_site_fract_y
 _atom_site_fract_z
 _atom_site_occupancy
  Mg  Mg0  1  0.623944  0.335358  0.558519  1
  Mg  Mg1  1  0.876056  0.835358  0.941481  1
  In  In2  1  0.083649  0.484780  0.748084  1
  In  In3  1  0.904405  0.517415  0.246434  1
  In  In4  1  0.124725  0.160004  0.053908  1
  In  In5  1  0.416351  0.984780  0.751916  1
  In  In6  1  0.375275  0.660004  0.446092  1
  In  In7  1  0.595595  0.017415  0.253566  1
  In  In8  1  0.875674  0.830512  0.559020  1
  In  In9  1  0.624326  0.330512  0.940980  1
  In  In10  1  0.128362  0.172774  0.447613  1
  In  In11  1  0.371638  0.672774  0.052387  1
  Ir  Ir12  1  0.422757  0.368794  0.246324  1
  Ir  Ir13  1  0.571125  0.630363  0.752827  1
  Ir  Ir14  1  0.928875  0.130363  0.747173  1
  Ir  Ir15  1  0.077243  0.868794  0.253676  1
