# generated using pymatgen
data_Tb4Er3Lu(ReB6)4
_symmetry_space_group_name_H-M   'P 1'
_cell_length_a   3.66952300
_cell_length_b   9.14800502
_cell_length_c   11.54336003
_cell_angle_alpha   90.00814614
_cell_angle_beta   90.00000000
_cell_angle_gamma   90.00000000
_symmetry_Int_Tables_number   1
_chemical_formula_structural   Tb4Er3Lu(ReB6)4
_chemical_formula_sum   'Tb4 Er3 Lu1 Re4 B24'
_cell_volume   387.49691149
_cell_formula_units_Z   1
loop_
 _symmetry_equiv_pos_site_id
 _symmetry_equiv_pos_as_xyz
  1  'x, y, z'
loop_
 _atom_site_type_symbol
 _atom_site_label
 _atom_site_symmetry_multiplicity
 _atom_site_fract_x
 _atom_site_fract_y
 _atom_site_fract_z
 _atom_site_occupancy
  Tb  Tb0  1  0.000000  0.323371  0.414125  1
  Tb  Tb1  1  0.000000  0.676626  0.586104  1
  Tb  Tb2  1  0.000000  0.823167  0.085810  1
  Tb  Tb3  1  0.000000  0.176806  0.914031  1
  Er  Er4  1  0.000000  0.943435  0.370090  1
  Er  Er5  1  0.000000  0.056610  0.630085  1
  Er  Er6  1  0.000000  0.443592  0.129480  1
  Lu  Lu7  1  0.000000  0.556615  0.869801  1
  Re  Re8  1  0.000000  0.639265  0.320240  1
  Re  Re9  1  0.000000  0.361057  0.680290  1
  Re  Re10  1  0.000000  0.139280  0.179693  1
  Re  Re11  1  0.000000  0.859789  0.820346  1
  B  B12  1  0.500000  0.553896  0.432496  1
  B  B13  1  0.500000  0.446188  0.567731  1
  B  B14  1  0.500000  0.053842  0.067462  1
  B  B15  1  0.500000  0.945841  0.932410  1
  B  B16  1  0.500000  0.750283  0.418122  1
  B  B17  1  0.500000  0.249881  0.581976  1
  B  B18  1  0.500000  0.250352  0.081819  1
  B  B19  1  0.500000  0.748785  0.918101  1
  B  B20  1  0.500000  0.792711  0.265399  1
  B  B21  1  0.500000  0.207602  0.734671  1
  B  B22  1  0.500000  0.292766  0.234521  1
  B  B23  1  0.500000  0.706565  0.765652  1
  B  B24  1  0.500000  0.630710  0.185197  1
  B  B25  1  0.500000  0.370014  0.815085  1
  B  B26  1  0.500000  0.130772  0.314677  1
  B  B27  1  0.500000  0.869064  0.685459  1
  B  B28  1  0.500000  0.982620  0.212410  1
  B  B29  1  0.500000  0.017249  0.787672  1
  B  B30  1  0.500000  0.482586  0.287528  1
  B  B31  1  0.500000  0.517826  0.712933  1
  B  B32  1  0.500000  0.598363  0.026460  1
  B  B33  1  0.500000  0.402414  0.972048  1
  B  B34  1  0.500000  0.098653  0.472681  1
  B  B35  1  0.500000  0.901405  0.527396  1
