# generated using pymatgen
data_Er3LuAl15(GaIr2)3
_symmetry_space_group_name_H-M   'P 1'
_cell_length_a   7.51394901
_cell_length_b   7.51668097
_cell_length_c   9.49177700
_cell_angle_alpha   90.00000000
_cell_angle_beta   90.00000000
_cell_angle_gamma   119.39955379
_symmetry_Int_Tables_number   1
_chemical_formula_structural   Er3LuAl15(GaIr2)3
_chemical_formula_sum   'Er3 Lu1 Al15 Ga3 Ir6'
_cell_volume   467.05555838
_cell_formula_units_Z   1
loop_
 _symmetry_equiv_pos_site_id
 _symmetry_equiv_pos_as_xyz
  1  'x, y, z'
loop_
 _atom_site_type_symbol
 _atom_site_label
 _atom_site_symmetry_multiplicity
 _atom_site_fract_x
 _atom_site_fract_y
 _atom_site_fract_z
 _atom_site_occupancy
  Er  Er0  1  0.998341  0.676488  0.250000  1
  Er  Er1  1  0.005072  0.324413  0.750000  1
  Er  Er2  1  0.671498  0.991264  0.250000  1
  Lu  Lu3  1  0.323066  0.003268  0.750000  1
  Al  Al4  1  0.001474  0.335582  0.073265  1
  Al  Al5  1  0.998896  0.664224  0.925642  1
  Al  Al6  1  0.998896  0.664224  0.574358  1
  Al  Al7  1  0.336473  0.003254  0.427158  1
  Al  Al8  1  0.001474  0.335582  0.426735  1
  Al  Al9  1  0.663426  0.999120  0.574220  1
  Al  Al10  1  0.663426  0.999120  0.925780  1
  Al  Al11  1  0.336473  0.003254  0.072842  1
  Al  Al12  1  0.333963  0.333677  0.557839  1
  Al  Al13  1  0.666291  0.665871  0.447619  1
  Al  Al14  1  0.666291  0.665871  0.052381  1
  Al  Al15  1  0.333963  0.333677  0.942161  1
  Al  Al16  1  0.661393  0.448310  0.750000  1
  Al  Al17  1  0.552121  0.340098  0.250000  1
  Al  Al18  1  0.449413  0.662727  0.750000  1
  Ga  Ga19  1  0.132980  0.133191  0.250000  1
  Ga  Ga20  1  0.864894  0.864196  0.750000  1
  Ga  Ga21  1  0.339877  0.547308  0.250000  1
  Ir  Ir22  1  0.671683  0.328844  0.000016  1
  Ir  Ir23  1  0.328125  0.673128  0.997871  1
  Ir  Ir24  1  0.328125  0.673128  0.502129  1
  Ir  Ir25  1  0.671683  0.328844  0.499984  1
  Ir  Ir26  1  0.000343  0.000667  0.999629  1
  Ir  Ir27  1  0.000343  0.000667  0.500371  1
