# generated using pymatgen
data_Y2Ta3Co9As7
_symmetry_space_group_name_H-M   'P 1'
_cell_length_a   3.81803900
_cell_length_b   9.54390783
_cell_length_c   9.54390800
_cell_angle_alpha   120.00000154
_cell_angle_beta   90.00000000
_cell_angle_gamma   90.00000000
_symmetry_Int_Tables_number   1
_chemical_formula_structural   Y2Ta3Co9As7
_chemical_formula_sum   'Y2 Ta3 Co9 As7'
_cell_volume   301.17815308
_cell_formula_units_Z   1
loop_
 _symmetry_equiv_pos_site_id
 _symmetry_equiv_pos_as_xyz
  1  'x, y, z'
loop_
 _atom_site_type_symbol
 _atom_site_label
 _atom_site_symmetry_multiplicity
 _atom_site_fract_x
 _atom_site_fract_y
 _atom_site_fract_z
 _atom_site_occupancy
  Y  Y0  1  0.000000  0.666667  0.333333  1
  Y  Y1  1  0.500000  0.333333  0.666667  1
  Ta  Ta2  1  0.500000  0.775594  0.896272  1
  Ta  Ta3  1  0.500000  0.120678  0.224406  1
  Ta  Ta4  1  0.500000  0.103728  0.879322  1
  Co  Co5  1  0.000000  0.572348  0.936866  1
  Co  Co6  1  0.000000  0.364518  0.427652  1
  Co  Co7  1  0.000000  0.063134  0.635482  1
  Co  Co8  1  0.000000  0.878297  0.158797  1
  Co  Co9  1  0.000000  0.280500  0.121703  1
  Co  Co10  1  0.000000  0.841203  0.719500  1
  Co  Co11  1  0.500000  0.948392  0.383745  1
  Co  Co12  1  0.500000  0.435352  0.051608  1
  Co  Co13  1  0.500000  0.616255  0.564648  1
  As  As14  1  0.000000  0.000000  0.000000  1
  As  As15  1  0.500000  0.707731  0.124357  1
  As  As16  1  0.500000  0.416625  0.292269  1
  As  As17  1  0.500000  0.875643  0.583375  1
  As  As18  1  0.000000  0.579904  0.691026  1
  As  As19  1  0.000000  0.111123  0.420096  1
  As  As20  1  0.000000  0.308974  0.888877  1
