# generated using pymatgen
data_SmY(ErBi)3
_symmetry_space_group_name_H-M   'P 1'
_cell_length_a   8.29365700
_cell_length_b   9.47693900
_cell_length_c   12.10807400
_cell_angle_alpha   90.00000000
_cell_angle_beta   90.00000000
_cell_angle_gamma   90.00000000
_symmetry_Int_Tables_number   1
_chemical_formula_structural   SmY(ErBi)3
_chemical_formula_sum   'Sm4 Y4 Er12 Bi12'
_cell_volume   951.67623000
_cell_formula_units_Z   4
loop_
 _symmetry_equiv_pos_site_id
 _symmetry_equiv_pos_as_xyz
  1  'x, y, z'
loop_
 _atom_site_type_symbol
 _atom_site_label
 _atom_site_symmetry_multiplicity
 _atom_site_fract_x
 _atom_site_fract_y
 _atom_site_fract_z
 _atom_site_occupancy
  Sm  Sm0  1  0.185962  0.750000  0.719537  1
  Sm  Sm1  1  0.685962  0.750000  0.780463  1
  Sm  Sm2  1  0.814038  0.250000  0.280463  1
  Sm  Sm3  1  0.314038  0.250000  0.219537  1
  Y  Y4  1  0.353802  0.750000  0.215781  1
  Y  Y5  1  0.853802  0.750000  0.284219  1
  Y  Y6  1  0.646198  0.250000  0.784219  1
  Y  Y7  1  0.146198  0.250000  0.715781  1
  Er  Er8  1  0.025675  0.750000  0.988860  1
  Er  Er9  1  0.525675  0.750000  0.511140  1
  Er  Er10  1  0.974325  0.250000  0.011140  1
  Er  Er11  1  0.474325  0.250000  0.488860  1
  Er  Er12  1  0.306502  0.435264  0.940049  1
  Er  Er13  1  0.806502  0.064736  0.559951  1
  Er  Er14  1  0.693498  0.935264  0.059951  1
  Er  Er15  1  0.193498  0.564736  0.440049  1
  Er  Er16  1  0.693498  0.564736  0.059951  1
  Er  Er17  1  0.193498  0.935264  0.440049  1
  Er  Er18  1  0.306502  0.064736  0.940049  1
  Er  Er19  1  0.806502  0.435264  0.559951  1
  Bi  Bi20  1  0.434332  0.005748  0.672547  1
  Bi  Bi21  1  0.934332  0.494252  0.827453  1
  Bi  Bi22  1  0.565668  0.505748  0.327453  1
  Bi  Bi23  1  0.065668  0.994252  0.172547  1
  Bi  Bi24  1  0.565668  0.994252  0.327453  1
  Bi  Bi25  1  0.065668  0.505748  0.172547  1
  Bi  Bi26  1  0.434332  0.494252  0.672547  1
  Bi  Bi27  1  0.934332  0.005748  0.827453  1
  Bi  Bi28  1  0.407640  0.750000  0.959640  1
  Bi  Bi29  1  0.907640  0.750000  0.540360  1
  Bi  Bi30  1  0.592360  0.250000  0.040360  1
  Bi  Bi31  1  0.092360  0.250000  0.459640  1
