# generated using pymatgen
data_Rb6ErAlBi4
_symmetry_space_group_name_H-M   'P 1'
_cell_length_a   10.22362621
_cell_length_b   10.22362639
_cell_length_c   10.22362600
_cell_angle_alpha   128.08693830
_cell_angle_beta   69.63617815
_cell_angle_gamma   136.98068191
_symmetry_Int_Tables_number   1
_chemical_formula_structural   Rb6ErAlBi4
_chemical_formula_sum   'Rb6 Er1 Al1 Bi4'
_cell_volume   563.15589642
_cell_formula_units_Z   1
loop_
 _symmetry_equiv_pos_site_id
 _symmetry_equiv_pos_as_xyz
  1  'x, y, z'
loop_
 _atom_site_type_symbol
 _atom_site_label
 _atom_site_symmetry_multiplicity
 _atom_site_fract_x
 _atom_site_fract_y
 _atom_site_fract_z
 _atom_site_occupancy
  Rb  Rb0  1  0.807976  0.181897  0.005003  1
  Rb  Rb1  1  0.692025  0.697028  0.373920  1
  Rb  Rb2  1  0.750000  0.250000  0.500000  1
  Rb  Rb3  1  0.250000  0.750000  0.499999  1
  Rb  Rb4  1  0.323106  0.318104  0.626079  1
  Rb  Rb5  1  0.176894  0.802973  0.994997  1
  Er  Er6  1  0.250000  0.250000  0.000000  1
  Al  Al7  1  0.750000  0.750000  0.000000  1
  Bi  Bi8  1  0.418732  0.705345  0.090661  1
  Bi  Bi9  1  0.081267  0.171930  0.286612  1
  Bi  Bi10  1  0.885316  0.794654  0.713389  1
  Bi  Bi11  1  0.614683  0.328070  0.909338  1
