# generated using pymatgen
data_Tb4As5Ir7Au
_symmetry_space_group_name_H-M   'P 1'
_cell_length_a   7.33566806
_cell_length_b   7.33566767
_cell_length_c   7.33566917
_cell_angle_alpha   107.31876352
_cell_angle_beta   110.55805467
_cell_angle_gamma   110.55805106
_symmetry_Int_Tables_number   1
_chemical_formula_structural   Tb4As5Ir7Au
_chemical_formula_sum   'Tb4 As5 Ir7 Au1'
_cell_volume   303.55638344
_cell_formula_units_Z   1
loop_
 _symmetry_equiv_pos_site_id
 _symmetry_equiv_pos_as_xyz
  1  'x, y, z'
loop_
 _atom_site_type_symbol
 _atom_site_label
 _atom_site_symmetry_multiplicity
 _atom_site_fract_x
 _atom_site_fract_y
 _atom_site_fract_z
 _atom_site_occupancy
  Tb  Tb0  1  0.000000  0.991454  0.489438  1
  Tb  Tb1  1  0.000000  0.489438  0.991454  1
  Tb  Tb2  1  0.502017  0.991454  0.991454  1
  Tb  Tb3  1  0.497983  0.489438  0.489438  1
  As  As4  1  0.683941  0.680903  0.996962  1
  As  As5  1  0.316059  0.996962  0.313021  1
  As  As6  1  0.000000  0.335740  0.335740  1
  As  As7  1  0.316059  0.313021  0.996962  1
  As  As8  1  0.683941  0.996962  0.680903  1
  Ir  Ir9  1  0.746542  0.238608  0.492067  1
  Ir  Ir10  1  0.746542  0.492067  0.238608  1
  Ir  Ir11  1  0.500000  0.243940  0.743940  1
  Ir  Ir12  1  0.253458  0.492067  0.745524  1
  Ir  Ir13  1  0.253458  0.745524  0.492067  1
  Ir  Ir14  1  0.500000  0.743940  0.243940  1
  Ir  Ir15  1  0.000000  0.042528  0.042528  1
  Au  Au16  1  0.000000  0.715951  0.715951  1
