# generated using pymatgen
data_Hf4Fe3Si4Rh
_symmetry_space_group_name_H-M   'P 1'
_cell_length_a   3.94086900
_cell_length_b   6.37650191
_cell_length_c   7.13096014
_cell_angle_alpha   90.63513465
_cell_angle_beta   90.00000000
_cell_angle_gamma   90.00000000
_symmetry_Int_Tables_number   1
_chemical_formula_structural   Hf4Fe3Si4Rh
_chemical_formula_sum   'Hf4 Fe3 Si4 Rh1'
_cell_volume   179.18259318
_cell_formula_units_Z   1
loop_
 _symmetry_equiv_pos_site_id
 _symmetry_equiv_pos_as_xyz
  1  'x, y, z'
loop_
 _atom_site_type_symbol
 _atom_site_label
 _atom_site_symmetry_multiplicity
 _atom_site_fract_x
 _atom_site_fract_y
 _atom_site_fract_z
 _atom_site_occupancy
  Hf  Hf0  1  0.250000  0.498519  0.192253  1
  Hf  Hf1  1  0.750000  0.491688  0.811967  1
  Hf  Hf2  1  0.250000  0.010400  0.299542  1
  Hf  Hf3  1  0.750000  0.997871  0.700237  1
  Fe  Fe4  1  0.750000  0.845575  0.064016  1
  Fe  Fe5  1  0.250000  0.156386  0.935072  1
  Fe  Fe6  1  0.750000  0.344145  0.433195  1
  Si  Si7  1  0.250000  0.789471  0.901497  1
  Si  Si8  1  0.750000  0.212102  0.108334  1
  Si  Si9  1  0.250000  0.279649  0.609709  1
  Si  Si10  1  0.750000  0.716319  0.377286  1
  Rh  Rh11  1  0.250000  0.657875  0.566892  1
