# generated using pymatgen
data_YbSn2(ClO)2
_symmetry_space_group_name_H-M   'P 1'
_cell_length_a   5.74675100
_cell_length_b   9.75589900
_cell_length_c   11.31899200
_cell_angle_alpha   90.00000000
_cell_angle_beta   90.00000000
_cell_angle_gamma   90.00000000
_symmetry_Int_Tables_number   1
_chemical_formula_structural   YbSn2(ClO)2
_chemical_formula_sum   'Yb4 Sn8 Cl8 O8'
_cell_volume   634.59614358
_cell_formula_units_Z   4
loop_
 _symmetry_equiv_pos_site_id
 _symmetry_equiv_pos_as_xyz
  1  'x, y, z'
loop_
 _atom_site_type_symbol
 _atom_site_label
 _atom_site_symmetry_multiplicity
 _atom_site_fract_x
 _atom_site_fract_y
 _atom_site_fract_z
 _atom_site_occupancy
  Yb  Yb0  1  0.250000  0.059299  0.078438  1
  Yb  Yb1  1  0.750000  0.940701  0.921562  1
  Yb  Yb2  1  0.750000  0.559299  0.421562  1
  Yb  Yb3  1  0.250000  0.440701  0.578438  1
  Sn  Sn4  1  0.250000  0.357034  0.285198  1
  Sn  Sn5  1  0.750000  0.642966  0.714802  1
  Sn  Sn6  1  0.750000  0.857034  0.214802  1
  Sn  Sn7  1  0.250000  0.142966  0.785198  1
  Sn  Sn8  1  0.250000  0.786989  0.556292  1
  Sn  Sn9  1  0.750000  0.213011  0.443708  1
  Sn  Sn10  1  0.750000  0.286989  0.943708  1
  Sn  Sn11  1  0.250000  0.713011  0.056292  1
  Cl  Cl12  1  0.250000  0.076739  0.325550  1
  Cl  Cl13  1  0.750000  0.923261  0.674450  1
  Cl  Cl14  1  0.750000  0.576739  0.174450  1
  Cl  Cl15  1  0.250000  0.423261  0.825550  1
  Cl  Cl16  1  0.250000  0.824204  0.826230  1
  Cl  Cl17  1  0.750000  0.175796  0.173770  1
  Cl  Cl18  1  0.750000  0.324204  0.673770  1
  Cl  Cl19  1  0.250000  0.675796  0.326230  1
  O  O20  1  0.000785  0.375393  0.422374  1
  O  O21  1  0.500785  0.624607  0.577626  1
  O  O22  1  0.999215  0.875393  0.077626  1
  O  O23  1  0.499215  0.124607  0.922374  1
  O  O24  1  0.999215  0.624607  0.577626  1
  O  O25  1  0.499215  0.375393  0.422374  1
  O  O26  1  0.000785  0.124607  0.922374  1
  O  O27  1  0.500785  0.875393  0.077626  1
