# generated using pymatgen
data_Sc3Sn3Ir2Au
_symmetry_space_group_name_H-M   'P 1'
_cell_length_a   7.58085600
_cell_length_b   7.58085661
_cell_length_c   3.58245700
_cell_angle_alpha   90.00000000
_cell_angle_beta   90.00000000
_cell_angle_gamma   120.00000609
_symmetry_Int_Tables_number   1
_chemical_formula_structural   Sc3Sn3Ir2Au
_chemical_formula_sum   'Sc3 Sn3 Ir2 Au1'
_cell_volume   178.29867690
_cell_formula_units_Z   1
loop_
 _symmetry_equiv_pos_site_id
 _symmetry_equiv_pos_as_xyz
  1  'x, y, z'
loop_
 _atom_site_type_symbol
 _atom_site_label
 _atom_site_symmetry_multiplicity
 _atom_site_fract_x
 _atom_site_fract_y
 _atom_site_fract_z
 _atom_site_occupancy
  Sc  Sc0  1  0.979594  0.381024  0.500000  1
  Sc  Sc1  1  0.618976  0.598570  0.500000  1
  Sc  Sc2  1  0.401430  0.020406  0.500000  1
  Sn  Sn3  1  0.002351  0.731224  0.000000  1
  Sn  Sn4  1  0.268776  0.271128  0.000000  1
  Sn  Sn5  1  0.728872  0.997649  0.000000  1
  Ir  Ir6  1  0.666667  0.333333  0.000000  1
  Ir  Ir7  1  0.000000  0.000000  0.500000  1
  Au  Au8  1  0.333333  0.666667  0.000000  1
