# generated using pymatgen
data_Tb7Lu4Sc(Si3Rh)4
_symmetry_space_group_name_H-M   'P 1'
_cell_length_a   4.19522100
_cell_length_b   10.68249476
_cell_length_c   12.24850510
_cell_angle_alpha   89.82458297
_cell_angle_beta   90.00000000
_cell_angle_gamma   90.00000000
_symmetry_Int_Tables_number   1
_chemical_formula_structural   Tb7Lu4Sc(Si3Rh)4
_chemical_formula_sum   'Tb7 Lu4 Sc1 Si12 Rh4'
_cell_volume   548.91940520
_cell_formula_units_Z   1
loop_
 _symmetry_equiv_pos_site_id
 _symmetry_equiv_pos_as_xyz
  1  'x, y, z'
loop_
 _atom_site_type_symbol
 _atom_site_label
 _atom_site_symmetry_multiplicity
 _atom_site_fract_x
 _atom_site_fract_y
 _atom_site_fract_z
 _atom_site_occupancy
  Tb  Tb0  1  0.250000  0.921816  0.604456  1
  Tb  Tb1  1  0.250000  0.580069  0.104146  1
  Tb  Tb2  1  0.750000  0.079484  0.398819  1
  Tb  Tb3  1  0.750000  0.418849  0.894595  1
  Tb  Tb4  1  0.250000  0.660192  0.801395  1
  Tb  Tb5  1  0.250000  0.841218  0.301621  1
  Tb  Tb6  1  0.750000  0.337787  0.198456  1
  Lu  Lu7  1  0.250000  0.882142  0.020081  1
  Lu  Lu8  1  0.250000  0.618854  0.520586  1
  Lu  Lu9  1  0.750000  0.119364  0.975344  1
  Lu  Lu10  1  0.750000  0.378056  0.481521  1
  Sc  Sc11  1  0.750000  0.161685  0.701463  1
  Si  Si12  1  0.250000  0.016575  0.822553  1
  Si  Si13  1  0.250000  0.485021  0.325438  1
  Si  Si14  1  0.750000  0.987807  0.174615  1
  Si  Si15  1  0.750000  0.514479  0.674525  1
  Si  Si16  1  0.250000  0.244565  0.836166  1
  Si  Si17  1  0.250000  0.252785  0.345338  1
  Si  Si18  1  0.750000  0.754549  0.157879  1
  Si  Si19  1  0.750000  0.745993  0.657440  1
  Si  Si20  1  0.250000  0.200159  0.550155  1
  Si  Si21  1  0.250000  0.295882  0.038646  1
  Si  Si22  1  0.750000  0.796583  0.459167  1
  Si  Si23  1  0.750000  0.704224  0.958507  1
  Rh  Rh24  1  0.250000  0.389763  0.679318  1
  Rh  Rh25  1  0.250000  0.109374  0.180402  1
  Rh  Rh26  1  0.750000  0.608725  0.320154  1
  Rh  Rh27  1  0.750000  0.893995  0.817214  1
