# generated using pymatgen
data_Pr4Tm4Re3B24Os
_symmetry_space_group_name_H-M   'P 1'
_cell_length_a   3.71472100
_cell_length_b   9.22751846
_cell_length_c   11.70098013
_cell_angle_alpha   90.05919480
_cell_angle_beta   90.00000000
_cell_angle_gamma   90.00000000
_symmetry_Int_Tables_number   1
_chemical_formula_structural   Pr4Tm4Re3B24Os
_chemical_formula_sum   'Pr4 Tm4 Re3 B24 Os1'
_cell_volume   401.08196459
_cell_formula_units_Z   1
loop_
 _symmetry_equiv_pos_site_id
 _symmetry_equiv_pos_as_xyz
  1  'x, y, z'
loop_
 _atom_site_type_symbol
 _atom_site_label
 _atom_site_symmetry_multiplicity
 _atom_site_fract_x
 _atom_site_fract_y
 _atom_site_fract_z
 _atom_site_occupancy
  Pr  Pr0  1  0.000000  0.321359  0.414953  1
  Pr  Pr1  1  0.000000  0.677888  0.586844  1
  Pr  Pr2  1  0.000000  0.823284  0.084427  1
  Pr  Pr3  1  0.000000  0.177915  0.913998  1
  Tm  Tm4  1  0.000000  0.942593  0.369208  1
  Tm  Tm5  1  0.000000  0.056751  0.630378  1
  Tm  Tm6  1  0.000000  0.442317  0.130577  1
  Tm  Tm7  1  0.000000  0.557160  0.869830  1
  Re  Re8  1  0.000000  0.361239  0.680338  1
  Re  Re9  1  0.000000  0.139381  0.181747  1
  Re  Re10  1  0.000000  0.860517  0.818848  1
  B  B11  1  0.500000  0.555888  0.429658  1
  B  B12  1  0.500000  0.444702  0.570062  1
  B  B13  1  0.500000  0.055400  0.069910  1
  B  B14  1  0.500000  0.944890  0.929776  1
  B  B15  1  0.500000  0.750007  0.415099  1
  B  B16  1  0.500000  0.248971  0.584462  1
  B  B17  1  0.500000  0.250866  0.084623  1
  B  B18  1  0.500000  0.749743  0.915547  1
  B  B19  1  0.500000  0.790503  0.266104  1
  B  B20  1  0.500000  0.208763  0.733631  1
  B  B21  1  0.500000  0.291189  0.234088  1
  B  B22  1  0.500000  0.708548  0.766425  1
  B  B23  1  0.500000  0.629075  0.186437  1
  B  B24  1  0.500000  0.371316  0.813624  1
  B  B25  1  0.500000  0.128944  0.314385  1
  B  B26  1  0.500000  0.870962  0.686023  1
  B  B27  1  0.500000  0.983886  0.213649  1
  B  B28  1  0.500000  0.016207  0.785872  1
  B  B29  1  0.500000  0.484751  0.286613  1
  B  B30  1  0.500000  0.516653  0.713820  1
  B  B31  1  0.500000  0.595712  0.026872  1
  B  B32  1  0.500000  0.404330  0.974018  1
  B  B33  1  0.500000  0.095086  0.473409  1
  B  B34  1  0.500000  0.903570  0.526195  1
  Os  Os35  1  0.000000  0.639633  0.318547  1
