# generated using pymatgen
data_NaLi4H9Pt2
_symmetry_space_group_name_H-M   'P 1'
_cell_length_a   7.38501139
_cell_length_b   7.38501092
_cell_length_c   7.38501045
_cell_angle_alpha   109.21898094
_cell_angle_beta   109.21897233
_cell_angle_gamma   109.97689049
_symmetry_Int_Tables_number   1
_chemical_formula_structural   NaLi4H9Pt2
_chemical_formula_sum   'Na2 Li8 H18 Pt4'
_cell_volume   310.03174233
_cell_formula_units_Z   2
loop_
 _symmetry_equiv_pos_site_id
 _symmetry_equiv_pos_as_xyz
  1  'x, y, z'
loop_
 _atom_site_type_symbol
 _atom_site_label
 _atom_site_symmetry_multiplicity
 _atom_site_fract_x
 _atom_site_fract_y
 _atom_site_fract_z
 _atom_site_occupancy
  Na  Na0  1  0.500000  0.500000  0.000000  1
  Na  Na1  1  0.000000  0.000000  0.000000  1
  Li  Li2  1  0.692635  0.192635  0.203119  1
  Li  Li3  1  0.989516  0.489516  0.796881  1
  Li  Li4  1  0.192635  0.989516  0.500000  1
  Li  Li5  1  0.489516  0.692635  0.500000  1
  Li  Li6  1  0.307365  0.807365  0.796881  1
  Li  Li7  1  0.010484  0.510484  0.203119  1
  Li  Li8  1  0.807365  0.010484  0.500000  1
  Li  Li9  1  0.510484  0.307365  0.500000  1
  H  H10  1  0.437254  0.128047  0.841644  1
  H  H11  1  0.286401  0.595610  0.158356  1
  H  H12  1  0.937254  0.095610  0.309208  1
  H  H13  1  0.786401  0.628047  0.690792  1
  H  H14  1  0.595610  0.437254  0.309208  1
  H  H15  1  0.128047  0.286401  0.690792  1
  H  H16  1  0.628047  0.937254  0.841644  1
  H  H17  1  0.095610  0.786401  0.158356  1
  H  H18  1  0.562746  0.871953  0.158356  1
  H  H19  1  0.713599  0.404390  0.841644  1
  H  H20  1  0.062746  0.904390  0.690792  1
  H  H21  1  0.213599  0.371953  0.309208  1
  H  H22  1  0.404390  0.562746  0.690792  1
  H  H23  1  0.871953  0.713599  0.309208  1
  H  H24  1  0.371953  0.062746  0.158356  1
  H  H25  1  0.904390  0.213599  0.841644  1
  H  H26  1  0.500000  0.000000  0.500000  1
  H  H27  1  0.000000  0.500000  0.500000  1
  Pt  Pt28  1  0.655125  0.155125  0.810250  1
  Pt  Pt29  1  0.344875  0.844875  0.189750  1
  Pt  Pt30  1  0.155125  0.344875  0.500000  1
  Pt  Pt31  1  0.844875  0.655125  0.500000  1
