# generated using pymatgen
data_Dy(Ga3Pt)3
_symmetry_space_group_name_H-M   'P 1'
_cell_length_a   10.46404313
_cell_length_b   10.46404250
_cell_length_c   10.46404332
_cell_angle_alpha   42.52974883
_cell_angle_beta   42.52975315
_cell_angle_gamma   42.52974693
_symmetry_Int_Tables_number   1
_chemical_formula_structural   Dy(Ga3Pt)3
_chemical_formula_sum   'Dy2 Ga18 Pt6'
_cell_volume   474.09204060
_cell_formula_units_Z   2
loop_
 _symmetry_equiv_pos_site_id
 _symmetry_equiv_pos_as_xyz
  1  'x, y, z'
loop_
 _atom_site_type_symbol
 _atom_site_label
 _atom_site_symmetry_multiplicity
 _atom_site_fract_x
 _atom_site_fract_y
 _atom_site_fract_z
 _atom_site_occupancy
  Dy  Dy0  1  0.166850  0.166850  0.166850  1
  Dy  Dy1  1  0.833150  0.833150  0.833150  1
  Ga  Ga2  1  0.108014  0.438904  0.769780  1
  Ga  Ga3  1  0.438904  0.769780  0.108014  1
  Ga  Ga4  1  0.561096  0.891986  0.230220  1
  Ga  Ga5  1  0.950906  0.950906  0.950906  1
  Ga  Ga6  1  0.049094  0.049094  0.049094  1
  Ga  Ga7  1  0.296532  0.703468  0.500000  1
  Ga  Ga8  1  0.891986  0.230220  0.561096  1
  Ga  Ga9  1  0.384124  0.384124  0.384124  1
  Ga  Ga10  1  0.500000  0.296532  0.703468  1
  Ga  Ga11  1  0.230220  0.561096  0.891986  1
  Ga  Ga12  1  0.715118  0.715118  0.715118  1
  Ga  Ga13  1  0.615876  0.615876  0.615876  1
  Ga  Ga14  1  0.333602  0.000000  0.666398  1
  Ga  Ga15  1  0.703468  0.500000  0.296532  1
  Ga  Ga16  1  0.666398  0.333602  0.000000  1
  Ga  Ga17  1  0.284882  0.284882  0.284882  1
  Ga  Ga18  1  0.000000  0.666398  0.333602  1
  Ga  Ga19  1  0.769780  0.108014  0.438904  1
  Pt  Pt20  1  0.418744  0.078400  0.759728  1
  Pt  Pt21  1  0.581256  0.240272  0.921600  1
  Pt  Pt22  1  0.078400  0.759728  0.418744  1
  Pt  Pt23  1  0.759728  0.418744  0.078400  1
  Pt  Pt24  1  0.921600  0.581256  0.240272  1
  Pt  Pt25  1  0.240272  0.921600  0.581256  1
