# generated using pymatgen
data_Tb6InGa2
_symmetry_space_group_name_H-M   'P 1'
_cell_length_a   8.69840244
_cell_length_b   8.69840201
_cell_length_c   8.69840088
_cell_angle_alpha   112.67462847
_cell_angle_beta   111.73447255
_cell_angle_gamma   104.13437253
_symmetry_Int_Tables_number   1
_chemical_formula_structural   Tb6InGa2
_chemical_formula_sum   'Tb12 In2 Ga4'
_cell_volume   503.34349150
_cell_formula_units_Z   2
loop_
 _symmetry_equiv_pos_site_id
 _symmetry_equiv_pos_as_xyz
  1  'x, y, z'
loop_
 _atom_site_type_symbol
 _atom_site_label
 _atom_site_symmetry_multiplicity
 _atom_site_fract_x
 _atom_site_fract_y
 _atom_site_fract_z
 _atom_site_occupancy
  Tb  Tb0  1  0.443433  0.240316  0.203117  1
  Tb  Tb1  1  0.556567  0.759684  0.796883  1
  Tb  Tb2  1  0.037199  0.240316  0.796883  1
  Tb  Tb3  1  0.962801  0.759684  0.203117  1
  Tb  Tb4  1  0.186359  0.279596  0.465955  1
  Tb  Tb5  1  0.813641  0.720404  0.534045  1
  Tb  Tb6  1  0.186359  0.720404  0.906765  1
  Tb  Tb7  1  0.813641  0.279596  0.093235  1
  Tb  Tb8  1  0.321193  0.618112  0.296919  1
  Tb  Tb9  1  0.678807  0.381888  0.703081  1
  Tb  Tb10  1  0.321193  0.024274  0.703081  1
  Tb  Tb11  1  0.678807  0.975726  0.296919  1
  In  In12  1  0.500000  0.500000  0.000000  1
  In  In13  1  0.000000  0.000000  0.000000  1
  Ga  Ga14  1  0.352469  0.000000  0.352469  1
  Ga  Ga15  1  0.647531  0.000000  0.647531  1
  Ga  Ga16  1  0.119622  0.619622  0.500000  1
  Ga  Ga17  1  0.880378  0.380378  0.500000  1
