# generated using pymatgen
data_Li3Sm2Co6P6Rh
_symmetry_space_group_name_H-M   'P 1'
_cell_length_a   3.72147800
_cell_length_b   10.38955300
_cell_length_c   12.40193400
_cell_angle_alpha   90.00000000
_cell_angle_beta   90.00000000
_cell_angle_gamma   90.00000000
_symmetry_Int_Tables_number   1
_chemical_formula_structural   Li3Sm2Co6P6Rh
_chemical_formula_sum   'Li6 Sm4 Co12 P12 Rh2'
_cell_volume   479.51448933
_cell_formula_units_Z   2
loop_
 _symmetry_equiv_pos_site_id
 _symmetry_equiv_pos_as_xyz
  1  'x, y, z'
loop_
 _atom_site_type_symbol
 _atom_site_label
 _atom_site_symmetry_multiplicity
 _atom_site_fract_x
 _atom_site_fract_y
 _atom_site_fract_z
 _atom_site_occupancy
  Li  Li0  1  0.250000  0.704769  0.992530  1
  Li  Li1  1  0.250000  0.795231  0.492530  1
  Li  Li2  1  0.750000  0.297802  0.010638  1
  Li  Li3  1  0.750000  0.202198  0.510638  1
  Li  Li4  1  0.250000  0.407346  0.493260  1
  Li  Li5  1  0.250000  0.092654  0.993260  1
  Sm  Sm6  1  0.250000  0.583186  0.711527  1
  Sm  Sm7  1  0.250000  0.916814  0.211527  1
  Sm  Sm8  1  0.750000  0.417642  0.290995  1
  Sm  Sm9  1  0.750000  0.082358  0.790995  1
  Co  Co10  1  0.250000  0.214089  0.174382  1
  Co  Co11  1  0.250000  0.285911  0.674382  1
  Co  Co12  1  0.750000  0.778395  0.820408  1
  Co  Co13  1  0.750000  0.721605  0.320408  1
  Co  Co14  1  0.250000  0.882051  0.693867  1
  Co  Co15  1  0.250000  0.617949  0.193867  1
  Co  Co16  1  0.750000  0.117564  0.305699  1
  Co  Co17  1  0.750000  0.382436  0.805699  1
  Co  Co18  1  0.250000  0.467028  0.935800  1
  Co  Co19  1  0.250000  0.032972  0.435800  1
  Co  Co20  1  0.750000  0.530354  0.066255  1
  Co  Co21  1  0.750000  0.969646  0.566255  1
  P  P22  1  0.250000  0.418860  0.111774  1
  P  P23  1  0.250000  0.081140  0.611774  1
  P  P24  1  0.750000  0.578075  0.889953  1
  P  P25  1  0.750000  0.921925  0.389953  1
  P  P26  1  0.250000  0.280289  0.852805  1
  P  P27  1  0.250000  0.219711  0.352805  1
  P  P28  1  0.750000  0.721843  0.139907  1
  P  P29  1  0.750000  0.778157  0.639907  1
  P  P30  1  0.250000  0.612423  0.376135  1
  P  P31  1  0.250000  0.887577  0.876135  1
  P  P32  1  0.750000  0.393808  0.623361  1
  P  P33  1  0.750000  0.106192  0.123361  1
  Rh  Rh34  1  0.750000  0.590180  0.510704  1
  Rh  Rh35  1  0.750000  0.909820  0.010704  1
