# generated using pymatgen
data_CaNdMgTaO6
_symmetry_space_group_name_H-M   'P 1'
_cell_length_a   5.71844500
_cell_length_b   5.52280362
_cell_length_c   9.62168350
_cell_angle_alpha   55.20856408
_cell_angle_beta   90.00000000
_cell_angle_gamma   90.00000000
_symmetry_Int_Tables_number   1
_chemical_formula_structural   CaNdMgTaO6
_chemical_formula_sum   'Ca2 Nd2 Mg2 Ta2 O12'
_cell_volume   249.54898313
_cell_formula_units_Z   2
loop_
 _symmetry_equiv_pos_site_id
 _symmetry_equiv_pos_as_xyz
  1  'x, y, z'
loop_
 _atom_site_type_symbol
 _atom_site_label
 _atom_site_symmetry_multiplicity
 _atom_site_fract_x
 _atom_site_fract_y
 _atom_site_fract_z
 _atom_site_occupancy
  Ca  Ca0  1  0.798840  0.760687  0.749841  1
  Ca  Ca1  1  0.201160  0.760687  0.249841  1
  Nd  Nd2  1  0.308220  0.233206  0.752567  1
  Nd  Nd3  1  0.691780  0.233206  0.252567  1
  Mg  Mg4  1  0.246273  0.998550  0.500063  1
  Mg  Mg5  1  0.753727  0.998550  0.000063  1
  Ta  Ta6  1  0.756817  0.498739  0.500946  1
  Ta  Ta7  1  0.243183  0.498739  0.000946  1
  O  O8  1  0.785539  0.645301  0.256139  1
  O  O9  1  0.045422  0.257862  0.552407  1
  O  O10  1  0.054703  0.843719  0.950857  1
  O  O11  1  0.555337  0.161926  0.547173  1
  O  O12  1  0.534558  0.748682  0.946381  1
  O  O13  1  0.281233  0.351328  0.243625  1
  O  O14  1  0.214461  0.645301  0.756139  1
  O  O15  1  0.954578  0.257862  0.052407  1
  O  O16  1  0.945297  0.843719  0.450857  1
  O  O17  1  0.444663  0.161926  0.047173  1
  O  O18  1  0.465442  0.748682  0.446381  1
  O  O19  1  0.718767  0.351328  0.743625  1
