# generated using pymatgen
data_CePr5(SiPd5)2
_symmetry_space_group_name_H-M   'P 1'
_cell_length_a   8.42706512
_cell_length_b   8.42706599
_cell_length_c   8.42706514
_cell_angle_alpha   126.99464163
_cell_angle_beta   125.82181076
_cell_angle_gamma   79.22184572
_symmetry_Int_Tables_number   1
_chemical_formula_structural   CePr5(SiPd5)2
_chemical_formula_sum   'Ce1 Pr5 Si2 Pd10'
_cell_volume   374.74726960
_cell_formula_units_Z   1
loop_
 _symmetry_equiv_pos_site_id
 _symmetry_equiv_pos_as_xyz
  1  'x, y, z'
loop_
 _atom_site_type_symbol
 _atom_site_label
 _atom_site_symmetry_multiplicity
 _atom_site_fract_x
 _atom_site_fract_y
 _atom_site_fract_z
 _atom_site_occupancy
  Ce  Ce0  1  0.611930  0.750000  0.861930  1
  Pr  Pr1  1  0.222450  0.449230  0.773220  1
  Pr  Pr2  1  0.776657  0.549368  0.227288  1
  Pr  Pr3  1  0.823990  0.050770  0.773220  1
  Pr  Pr4  1  0.177920  0.950632  0.227288  1
  Pr  Pr5  1  0.388878  0.250000  0.138878  1
  Si  Si6  1  0.791505  0.250000  0.541505  1
  Si  Si7  1  0.213337  0.750000  0.463337  1
  Pd  Pd8  1  0.171422  0.409250  0.365462  1
  Pd  Pd9  1  0.824554  0.183575  0.230329  1
  Pd  Pd10  1  0.456212  0.090750  0.762172  1
  Pd  Pd11  1  0.546754  0.316425  0.640979  1
  Pd  Pd12  1  0.997725  0.504771  0.002496  1
  Pd  Pd13  1  0.997725  0.995229  0.492954  1
  Pd  Pd14  1  0.456212  0.694040  0.365462  1
  Pd  Pd15  1  0.546754  0.905775  0.230329  1
  Pd  Pd16  1  0.171422  0.805960  0.762172  1
  Pd  Pd17  1  0.824554  0.594225  0.640979  1
