# generated using pymatgen
data_NdZn2CdPd2
_symmetry_space_group_name_H-M   'P 1'
_cell_length_a   5.32800792
_cell_length_b   5.37353065
_cell_length_c   5.37353048
_cell_angle_alpha   62.61041530
_cell_angle_beta   60.27983195
_cell_angle_gamma   60.27984324
_symmetry_Int_Tables_number   1
_chemical_formula_structural   NdZn2CdPd2
_chemical_formula_sum   'Nd1 Zn2 Cd1 Pd2'
_cell_volume   111.25248200
_cell_formula_units_Z   1
loop_
 _symmetry_equiv_pos_site_id
 _symmetry_equiv_pos_as_xyz
  1  'x, y, z'
loop_
 _atom_site_type_symbol
 _atom_site_label
 _atom_site_symmetry_multiplicity
 _atom_site_fract_x
 _atom_site_fract_y
 _atom_site_fract_z
 _atom_site_occupancy
  Nd  Nd0  1  0.745652  0.754348  0.754348  1
  Zn  Zn1  1  0.378942  0.370584  0.370584  1
  Zn  Zn2  1  0.879889  0.370584  0.370584  1
  Cd  Cd3  1  0.992834  0.007166  0.007166  1
  Pd  Pd4  1  0.376341  0.372294  0.875022  1
  Pd  Pd5  1  0.376341  0.875022  0.372294  1
