# generated using pymatgen
data_CsK3(TiS2)8
_symmetry_space_group_name_H-M   'P 1'
_cell_length_a   6.12371900
_cell_length_b   7.05897400
_cell_length_c   15.92211900
_cell_angle_alpha   90.00000000
_cell_angle_beta   90.00000000
_cell_angle_gamma   90.00000000
_symmetry_Int_Tables_number   1
_chemical_formula_structural   CsK3(TiS2)8
_chemical_formula_sum   'Cs1 K3 Ti8 S16'
_cell_volume   688.26819579
_cell_formula_units_Z   1
loop_
 _symmetry_equiv_pos_site_id
 _symmetry_equiv_pos_as_xyz
  1  'x, y, z'
loop_
 _atom_site_type_symbol
 _atom_site_label
 _atom_site_symmetry_multiplicity
 _atom_site_fract_x
 _atom_site_fract_y
 _atom_site_fract_z
 _atom_site_occupancy
  Cs  Cs0  1  0.640141  0.500000  0.500000  1
  K  K1  1  0.346593  0.000000  0.000000  1
  K  K2  1  0.030906  0.000000  0.500000  1
  K  K3  1  0.971026  0.500000  0.000000  1
  Ti  Ti4  1  0.002752  0.000000  0.244184  1
  Ti  Ti5  1  0.002752  0.000000  0.755816  1
  Ti  Ti6  1  0.997080  0.500000  0.246541  1
  Ti  Ti7  1  0.997080  0.500000  0.753459  1
  Ti  Ti8  1  0.501199  0.248601  0.246257  1
  Ti  Ti9  1  0.501199  0.751399  0.753743  1
  Ti  Ti10  1  0.501199  0.751399  0.246257  1
  Ti  Ti11  1  0.501199  0.248601  0.753743  1
  S  S12  1  0.836006  0.247098  0.334249  1
  S  S13  1  0.836006  0.752902  0.665751  1
  S  S14  1  0.167298  0.749132  0.156741  1
  S  S15  1  0.167298  0.250868  0.843259  1
  S  S16  1  0.167298  0.250868  0.156741  1
  S  S17  1  0.167298  0.749132  0.843259  1
  S  S18  1  0.836006  0.752902  0.334249  1
  S  S19  1  0.836006  0.247098  0.665751  1
  S  S20  1  0.669673  0.000000  0.157521  1
  S  S21  1  0.669673  0.000000  0.842479  1
  S  S22  1  0.328193  0.500000  0.331763  1
  S  S23  1  0.328193  0.500000  0.668237  1
  S  S24  1  0.334492  0.000000  0.334257  1
  S  S25  1  0.334492  0.000000  0.665743  1
  S  S26  1  0.664472  0.500000  0.158961  1
  S  S27  1  0.664472  0.500000  0.841039  1
