# generated using pymatgen
data_DyNp(Si2Rh3)2
_symmetry_space_group_name_H-M   'P 1'
_cell_length_a   6.63750500
_cell_length_b   6.62258050
_cell_length_c   6.63750564
_cell_angle_alpha   130.48096540
_cell_angle_beta   114.18882261
_cell_angle_gamma   86.69734611
_symmetry_Int_Tables_number   1
_chemical_formula_structural   DyNp(Si2Rh3)2
_chemical_formula_sum   'Dy1 Np1 Si4 Rh6'
_cell_volume   193.09294628
_cell_formula_units_Z   1
loop_
 _symmetry_equiv_pos_site_id
 _symmetry_equiv_pos_as_xyz
  1  'x, y, z'
loop_
 _atom_site_type_symbol
 _atom_site_label
 _atom_site_symmetry_multiplicity
 _atom_site_fract_x
 _atom_site_fract_y
 _atom_site_fract_z
 _atom_site_occupancy
  Dy  Dy0  1  0.749907  0.042353  0.292447  1
  Np  Np1  1  0.250002  0.959941  0.709937  1
  Si  Si2  1  0.576725  0.383151  0.806426  1
  Si  Si3  1  0.923351  0.729433  0.806083  1
  Si  Si4  1  0.418219  0.610377  0.192157  1
  Si  Si5  1  0.081715  0.274240  0.192524  1
  Rh  Rh6  1  0.212674  0.496182  0.711608  1
  Rh  Rh7  1  0.784574  0.496182  0.283509  1
  Rh  Rh8  1  0.504803  0.505041  0.509904  1
  Rh  Rh9  1  0.995138  0.505041  0.000238  1
  Rh  Rh10  1  0.715512  0.999029  0.711647  1
  Rh  Rh11  1  0.287381  0.999029  0.283517  1
