# generated using pymatgen
data_Sm4Y4Re(TcB8)3
_symmetry_space_group_name_H-M   'P 1'
_cell_length_a   3.72113100
_cell_length_b   9.22278098
_cell_length_c   11.64591905
_cell_angle_alpha   89.97895465
_cell_angle_beta   90.00000000
_cell_angle_gamma   90.00000000
_symmetry_Int_Tables_number   1
_chemical_formula_structural   Sm4Y4Re(TcB8)3
_chemical_formula_sum   'Sm4 Y4 Re1 Tc3 B24'
_cell_volume   399.67832115
_cell_formula_units_Z   1
loop_
 _symmetry_equiv_pos_site_id
 _symmetry_equiv_pos_as_xyz
  1  'x, y, z'
loop_
 _atom_site_type_symbol
 _atom_site_label
 _atom_site_symmetry_multiplicity
 _atom_site_fract_x
 _atom_site_fract_y
 _atom_site_fract_z
 _atom_site_occupancy
  Sm  Sm0  1  0.000000  0.823799  0.085759  1
  Sm  Sm1  1  0.000000  0.176410  0.914293  1
  Sm  Sm2  1  0.000000  0.323565  0.414069  1
  Sm  Sm3  1  0.000000  0.676706  0.585670  1
  Y  Y4  1  0.000000  0.442315  0.131243  1
  Y  Y5  1  0.000000  0.558260  0.869699  1
  Y  Y6  1  0.000000  0.942310  0.368703  1
  Y  Y7  1  0.000000  0.056585  0.630756  1
  Re  Re8  1  0.000000  0.361168  0.680225  1
  Tc  Tc9  1  0.000000  0.138998  0.180180  1
  Tc  Tc10  1  0.000000  0.861088  0.819872  1
  Tc  Tc11  1  0.000000  0.639026  0.319728  1
  B  B12  1  0.500000  0.054279  0.068524  1
  B  B13  1  0.500000  0.945940  0.931376  1
  B  B14  1  0.500000  0.554175  0.431382  1
  B  B15  1  0.500000  0.445961  0.568388  1
  B  B16  1  0.500000  0.248741  0.083228  1
  B  B17  1  0.500000  0.751600  0.916822  1
  B  B18  1  0.500000  0.748650  0.416740  1
  B  B19  1  0.500000  0.250945  0.583033  1
  B  B20  1  0.500000  0.290800  0.234377  1
  B  B21  1  0.500000  0.709142  0.765761  1
  B  B22  1  0.500000  0.790794  0.265516  1
  B  B23  1  0.500000  0.208808  0.734322  1
  B  B24  1  0.500000  0.129907  0.313706  1
  B  B25  1  0.500000  0.869850  0.686300  1
  B  B26  1  0.500000  0.629968  0.186171  1
  B  B27  1  0.500000  0.370212  0.813983  1
  B  B28  1  0.500000  0.483285  0.287852  1
  B  B29  1  0.500000  0.517085  0.712365  1
  B  B30  1  0.500000  0.983262  0.212088  1
  B  B31  1  0.500000  0.016690  0.787716  1
  B  B32  1  0.500000  0.097686  0.472599  1
  B  B33  1  0.500000  0.901784  0.527109  1
  B  B34  1  0.500000  0.597965  0.027627  1
  B  B35  1  0.500000  0.402241  0.972818  1
