# generated using pymatgen
data_Sc6Sn6OsPd5
_symmetry_space_group_name_H-M   'P 1'
_cell_length_a   7.58675701
_cell_length_b   7.58659811
_cell_length_c   7.13704500
_cell_angle_alpha   90.00331145
_cell_angle_beta   89.99617869
_cell_angle_gamma   119.99890784
_symmetry_Int_Tables_number   1
_chemical_formula_structural   Sc6Sn6OsPd5
_chemical_formula_sum   'Sc6 Sn6 Os1 Pd5'
_cell_volume   355.75998509
_cell_formula_units_Z   1
loop_
 _symmetry_equiv_pos_site_id
 _symmetry_equiv_pos_as_xyz
  1  'x, y, z'
loop_
 _atom_site_type_symbol
 _atom_site_label
 _atom_site_symmetry_multiplicity
 _atom_site_fract_x
 _atom_site_fract_y
 _atom_site_fract_z
 _atom_site_occupancy
  Sc  Sc0  1  0.386798  0.010321  0.250015  1
  Sc  Sc1  1  0.623529  0.613218  0.249992  1
  Sc  Sc2  1  0.989684  0.376469  0.250000  1
  Sc  Sc3  1  0.390922  0.985202  0.749992  1
  Sc  Sc4  1  0.594281  0.609072  0.749999  1
  Sc  Sc5  1  0.014801  0.405719  0.749999  1
  Sn  Sn6  1  0.723497  0.998908  0.000819  1
  Sn  Sn7  1  0.275400  0.276498  0.499187  1
  Sn  Sn8  1  0.001082  0.724584  0.499188  1
  Sn  Sn9  1  0.001084  0.724613  0.000803  1
  Sn  Sn10  1  0.275406  0.276478  0.000806  1
  Sn  Sn11  1  0.723531  0.998926  0.499197  1
  Os  Os12  1  0.000001  0.000003  0.250003  1
  Pd  Pd13  1  0.333342  0.666659  0.028493  1
  Pd  Pd14  1  0.333318  0.666673  0.471501  1
  Pd  Pd15  1  0.666664  0.333327  0.977201  1
  Pd  Pd16  1  0.666663  0.333337  0.522802  1
  Pd  Pd17  1  0.999995  0.999993  0.750001  1
