# generated using pymatgen
data_Ho2TmAl12Ru3Pt
_symmetry_space_group_name_H-M   'P 1'
_cell_length_a   8.79497644
_cell_length_b   8.78019496
_cell_length_c   9.53137265
_cell_angle_alpha   90.03052871
_cell_angle_beta   90.10722991
_cell_angle_gamma   119.62637667
_symmetry_Int_Tables_number   1
_chemical_formula_structural   Ho2TmAl12Ru3Pt
_chemical_formula_sum   'Ho4 Tm2 Al24 Ru6 Pt2'
_cell_volume   639.80309096
_cell_formula_units_Z   2
loop_
 _symmetry_equiv_pos_site_id
 _symmetry_equiv_pos_as_xyz
  1  'x, y, z'
loop_
 _atom_site_type_symbol
 _atom_site_label
 _atom_site_symmetry_multiplicity
 _atom_site_fract_x
 _atom_site_fract_y
 _atom_site_fract_z
 _atom_site_occupancy
  Ho  Ho0  1  0.615415  0.809173  0.251860  1
  Ho  Ho1  1  0.384585  0.190827  0.748140  1
  Ho  Ho2  1  0.191435  0.806182  0.252615  1
  Ho  Ho3  1  0.808565  0.193818  0.747385  1
  Tm  Tm4  1  0.191311  0.389197  0.253229  1
  Tm  Tm5  1  0.808689  0.610803  0.746771  1
  Al  Al6  1  0.327197  0.664228  0.025971  1
  Al  Al7  1  0.672803  0.335772  0.974029  1
  Al  Al8  1  0.666764  0.332753  0.523448  1
  Al  Al9  1  0.333236  0.667247  0.476552  1
  Al  Al10  1  0.163924  0.327248  0.576425  1
  Al  Al11  1  0.836076  0.672752  0.423575  1
  Al  Al12  1  0.673922  0.836608  0.576282  1
  Al  Al13  1  0.842150  0.675843  0.078656  1
  Al  Al14  1  0.326078  0.163392  0.423718  1
  Al  Al15  1  0.157850  0.324157  0.921344  1
  Al  Al16  1  0.163225  0.836723  0.577951  1
  Al  Al17  1  0.322561  0.162383  0.079917  1
  Al  Al18  1  0.836775  0.163277  0.422049  1
  Al  Al19  1  0.677439  0.837617  0.920083  1
  Al  Al20  1  0.842169  0.167779  0.079534  1
  Al  Al21  1  0.157831  0.832221  0.920466  1
  Al  Al22  1  0.561756  0.125152  0.252502  1
  Al  Al23  1  0.438244  0.874848  0.747498  1
  Al  Al24  1  0.877835  0.440030  0.249093  1
  Al  Al25  1  0.122165  0.559970  0.750907  1
  Al  Al26  1  0.562060  0.437747  0.252949  1
  Al  Al27  1  0.437940  0.562253  0.747051  1
  Al  Al28  1  0.998754  0.001708  0.250322  1
  Al  Al29  1  0.001246  0.998292  0.749678  1
  Ru  Ru30  1  0.000000  0.500000  0.000000  1
  Ru  Ru31  1  0.500000  0.000000  0.500000  1
  Ru  Ru32  1  0.000000  0.500000  0.500000  1
  Ru  Ru33  1  0.500000  0.500000  0.500000  1
  Ru  Ru34  1  0.000000  0.000000  0.000000  1
  Ru  Ru35  1  0.000000  0.000000  0.500000  1
  Pt  Pt36  1  0.500000  0.000000  0.000000  1
  Pt  Pt37  1  0.500000  0.500000  0.000000  1
