# generated using pymatgen
data_Sm2Nb3Co9As7
_symmetry_space_group_name_H-M   'P 1'
_cell_length_a   3.84585800
_cell_length_b   9.56665006
_cell_length_c   9.56665000
_cell_angle_alpha   119.99999979
_cell_angle_beta   90.00000000
_cell_angle_gamma   90.00000000
_symmetry_Int_Tables_number   1
_chemical_formula_structural   Sm2Nb3Co9As7
_chemical_formula_sum   'Sm2 Nb3 Co9 As7'
_cell_volume   304.82013496
_cell_formula_units_Z   1
loop_
 _symmetry_equiv_pos_site_id
 _symmetry_equiv_pos_as_xyz
  1  'x, y, z'
loop_
 _atom_site_type_symbol
 _atom_site_label
 _atom_site_symmetry_multiplicity
 _atom_site_fract_x
 _atom_site_fract_y
 _atom_site_fract_z
 _atom_site_occupancy
  Sm  Sm0  1  0.000000  0.666667  0.333333  1
  Sm  Sm1  1  0.500000  0.333333  0.666667  1
  Nb  Nb2  1  0.500000  0.776943  0.895510  1
  Nb  Nb3  1  0.500000  0.118567  0.223057  1
  Nb  Nb4  1  0.500000  0.104490  0.881433  1
  Co  Co5  1  0.000000  0.572246  0.938566  1
  Co  Co6  1  0.000000  0.366320  0.427754  1
  Co  Co7  1  0.000000  0.061434  0.633680  1
  Co  Co8  1  0.000000  0.876672  0.158570  1
  Co  Co9  1  0.000000  0.281898  0.123328  1
  Co  Co10  1  0.000000  0.841430  0.718102  1
  Co  Co11  1  0.500000  0.948231  0.384034  1
  Co  Co12  1  0.500000  0.435802  0.051769  1
  Co  Co13  1  0.500000  0.615966  0.564198  1
  As  As14  1  0.000000  0.000000  0.000000  1
  As  As15  1  0.500000  0.708283  0.121193  1
  As  As16  1  0.500000  0.412910  0.291717  1
  As  As17  1  0.500000  0.878807  0.587090  1
  As  As18  1  0.000000  0.582398  0.691271  1
  As  As19  1  0.000000  0.108874  0.417602  1
  As  As20  1  0.000000  0.308729  0.891126  1
