# generated using pymatgen
data_Th4In2CuIr3
_symmetry_space_group_name_H-M   'P 1'
_cell_length_a   7.89951500
_cell_length_b   7.89951521
_cell_length_c   3.85104600
_cell_angle_alpha   90.00000000
_cell_angle_beta   90.00000000
_cell_angle_gamma   89.98687919
_symmetry_Int_Tables_number   1
_chemical_formula_structural   Th4In2CuIr3
_chemical_formula_sum   'Th4 In2 Cu1 Ir3'
_cell_volume   240.31427120
_cell_formula_units_Z   1
loop_
 _symmetry_equiv_pos_site_id
 _symmetry_equiv_pos_as_xyz
  1  'x, y, z'
loop_
 _atom_site_type_symbol
 _atom_site_label
 _atom_site_symmetry_multiplicity
 _atom_site_fract_x
 _atom_site_fract_y
 _atom_site_fract_z
 _atom_site_occupancy
  Th  Th0  1  0.674216  0.174216  0.500000  1
  Th  Th1  1  0.339877  0.839877  0.500000  1
  Th  Th2  1  0.166075  0.315622  0.500000  1
  Th  Th3  1  0.815622  0.666075  0.500000  1
  In  In4  1  0.999755  0.990727  0.000000  1
  In  In5  1  0.490727  0.499755  0.000000  1
  Cu  Cu6  1  0.129352  0.629352  0.000000  1
  Ir  Ir7  1  0.881222  0.381222  0.000000  1
  Ir  Ir8  1  0.634664  0.868490  0.000000  1
  Ir  Ir9  1  0.368490  0.134664  0.000000  1
