# generated using pymatgen
data_CaPa(ReN3)2
_symmetry_space_group_name_H-M   'P 1'
_cell_length_a   5.39555700
_cell_length_b   5.63711800
_cell_length_c   7.85173600
_cell_angle_alpha   90.00000000
_cell_angle_beta   90.00000000
_cell_angle_gamma   90.00000000
_symmetry_Int_Tables_number   1
_chemical_formula_structural   CaPa(ReN3)2
_chemical_formula_sum   'Ca2 Pa2 Re4 N12'
_cell_volume   238.81362427
_cell_formula_units_Z   2
loop_
 _symmetry_equiv_pos_site_id
 _symmetry_equiv_pos_as_xyz
  1  'x, y, z'
loop_
 _atom_site_type_symbol
 _atom_site_label
 _atom_site_symmetry_multiplicity
 _atom_site_fract_x
 _atom_site_fract_y
 _atom_site_fract_z
 _atom_site_occupancy
  Ca  Ca0  1  0.507088  0.548395  0.750000  1
  Ca  Ca1  1  0.992912  0.048395  0.750000  1
  Pa  Pa2  1  0.481325  0.431928  0.250000  1
  Pa  Pa3  1  0.018675  0.931928  0.250000  1
  Re  Re4  1  0.511710  0.001325  0.511890  1
  Re  Re5  1  0.988290  0.501325  0.988110  1
  Re  Re6  1  0.988290  0.501325  0.511890  1
  Re  Re7  1  0.511710  0.001325  0.988110  1
  N  N8  1  0.704846  0.290652  0.536128  1
  N  N9  1  0.300069  0.701154  0.062340  1
  N  N10  1  0.199931  0.201154  0.062340  1
  N  N11  1  0.437528  0.992511  0.750000  1
  N  N12  1  0.888871  0.540904  0.250000  1
  N  N13  1  0.300069  0.701154  0.437660  1
  N  N14  1  0.795154  0.790652  0.963872  1
  N  N15  1  0.704846  0.290652  0.963872  1
  N  N16  1  0.795154  0.790652  0.536128  1
  N  N17  1  0.062472  0.492511  0.750000  1
  N  N18  1  0.199931  0.201154  0.437660  1
  N  N19  1  0.611129  0.040904  0.250000  1
