# generated using pymatgen
data_BiCF34
_symmetry_space_group_name_H-M   'P 1'
_cell_length_a   8.83997564
_cell_length_b   8.32940612
_cell_length_c   10.29914014
_cell_angle_alpha   82.14354017
_cell_angle_beta   87.60811033
_cell_angle_gamma   64.81966326
_symmetry_Int_Tables_number   1
_chemical_formula_structural   BiCF34
_chemical_formula_sum   'Bi1 C1 F34'
_cell_volume   679.72486239
_cell_formula_units_Z   1
loop_
 _symmetry_equiv_pos_site_id
 _symmetry_equiv_pos_as_xyz
  1  'x, y, z'
loop_
 _atom_site_type_symbol
 _atom_site_label
 _atom_site_symmetry_multiplicity
 _atom_site_fract_x
 _atom_site_fract_y
 _atom_site_fract_z
 _atom_site_occupancy
  Bi  Bi0  1  0.134039  0.737822  0.246683  1
  C  C1  1  0.906715  0.263120  0.818640  1
  F  F2  1  0.584756  0.220934  0.485785  1
  F  F3  1  0.399419  0.787990  0.518622  1
  F  F4  1  0.831010  0.695169  0.691944  1
  F  F5  1  0.181559  0.299710  0.292077  1
  F  F6  1  0.080888  0.739745  0.865704  1
  F  F7  1  0.911165  0.226840  0.150196  1
  F  F8  1  0.590235  0.129504  0.375693  1
  F  F9  1  0.432229  0.857109  0.628948  1
  F  F10  1  0.533900  0.385639  0.656540  1
  F  F11  1  0.362100  0.668076  0.329636  1
  F  F12  1  0.029492  0.983310  0.539067  1
  F  F13  1  0.007505  0.964107  0.360020  1
  F  F14  1  0.873632  0.300903  0.688538  1
  F  F15  1  0.077087  0.604165  0.407985  1
  F  F16  1  0.848780  0.844195  0.619489  1
  F  F17  1  0.147536  0.171565  0.380704  1
  F  F18  1  0.840323  0.416660  0.872498  1
  F  F19  1  0.220738  0.524501  0.144300  1
  F  F20  1  0.212870  0.713903  0.775200  1
  F  F21  1  0.759859  0.341782  0.205515  1
  F  F22  1  0.900803  0.828058  0.168166  1
  F  F23  1  0.073025  0.184990  0.839429  1
  F  F24  1  0.840043  0.152781  0.872540  1
  F  F25  1  0.179692  0.914250  0.112662  1
  F  F26  1  0.491501  0.597288  0.985302  1
  F  F27  1  0.516429  0.418096  0.979138  1
  F  F28  1  0.470731  0.096916  0.861435  1
  F  F29  1  0.538560  0.912501  0.137008  1
  F  F30  1  0.260671  0.277506  0.606291  1
  F  F31  1  0.710117  0.733702  0.402806  1
  F  F32  1  0.290340  0.408206  0.662521  1
  F  F33  1  0.749492  0.585093  0.333372  1
  F  F34  1  0.559084  0.915736  0.837999  1
  F  F35  1  0.453677  0.098128  0.147546  1
