# generated using pymatgen
data_LiDy16In2AgIr4
_symmetry_space_group_name_H-M   'P 1'
_cell_length_a   9.64240848
_cell_length_b   9.64240851
_cell_length_c   9.64843276
_cell_angle_alpha   59.76729213
_cell_angle_beta   59.76729420
_cell_angle_gamma   59.81083145
_symmetry_Int_Tables_number   1
_chemical_formula_structural   LiDy16In2AgIr4
_chemical_formula_sum   'Li1 Dy16 In2 Ag1 Ir4'
_cell_volume   631.18392165
_cell_formula_units_Z   1
loop_
 _symmetry_equiv_pos_site_id
 _symmetry_equiv_pos_as_xyz
  1  'x, y, z'
loop_
 _atom_site_type_symbol
 _atom_site_label
 _atom_site_symmetry_multiplicity
 _atom_site_fract_x
 _atom_site_fract_y
 _atom_site_fract_z
 _atom_site_occupancy
  Li  Li0  1  0.822041  0.822041  0.816492  1
  Dy  Dy1  1  0.599894  0.599894  0.601563  1
  Dy  Dy2  1  0.598932  0.598932  0.203133  1
  Dy  Dy3  1  0.599017  0.205261  0.599226  1
  Dy  Dy4  1  0.205261  0.599017  0.599226  1
  Dy  Dy5  1  0.059616  0.440904  0.441917  1
  Dy  Dy6  1  0.437221  0.060617  0.060046  1
  Dy  Dy7  1  0.440904  0.059616  0.441917  1
  Dy  Dy8  1  0.060617  0.437221  0.060046  1
  Dy  Dy9  1  0.442221  0.442221  0.058204  1
  Dy  Dy10  1  0.063219  0.063219  0.433429  1
  Dy  Dy11  1  0.189166  0.810886  0.813807  1
  Dy  Dy12  1  0.809358  0.183621  0.194659  1
  Dy  Dy13  1  0.810886  0.189166  0.813807  1
  Dy  Dy14  1  0.183621  0.809358  0.194659  1
  Dy  Dy15  1  0.809143  0.809143  0.194698  1
  Dy  Dy16  1  0.187079  0.187079  0.814746  1
  In  In17  1  0.834142  0.506105  0.828882  1
  In  In18  1  0.506105  0.834142  0.828882  1
  Ag  Ag19  1  0.835095  0.835095  0.498374  1
  Ir  Ir20  1  0.393036  0.393036  0.390864  1
  Ir  Ir21  1  0.392963  0.392963  0.826545  1
  Ir  Ir22  1  0.394431  0.826034  0.392440  1
  Ir  Ir23  1  0.826034  0.394431  0.392440  1
