# generated using pymatgen
data_Tb5Tm3Re3RuC8
_symmetry_space_group_name_H-M   'P 1'
_cell_length_a   5.10205400
_cell_length_b   6.56742166
_cell_length_c   9.81037118
_cell_angle_alpha   90.24028703
_cell_angle_beta   90.00000000
_cell_angle_gamma   90.00000000
_symmetry_Int_Tables_number   1
_chemical_formula_structural   Tb5Tm3Re3RuC8
_chemical_formula_sum   'Tb5 Tm3 Re3 Ru1 C8'
_cell_volume   328.71655158
_cell_formula_units_Z   1
loop_
 _symmetry_equiv_pos_site_id
 _symmetry_equiv_pos_as_xyz
  1  'x, y, z'
loop_
 _atom_site_type_symbol
 _atom_site_label
 _atom_site_symmetry_multiplicity
 _atom_site_fract_x
 _atom_site_fract_y
 _atom_site_fract_z
 _atom_site_occupancy
  Tb  Tb0  1  0.250000  0.180544  0.943721  1
  Tb  Tb1  1  0.750000  0.468740  0.784307  1
  Tb  Tb2  1  0.250000  0.032338  0.286465  1
  Tb  Tb3  1  0.750000  0.968758  0.715651  1
  Tb  Tb4  1  0.250000  0.530688  0.213445  1
  Tm  Tm5  1  0.750000  0.827171  0.056129  1
  Tm  Tm6  1  0.250000  0.677021  0.556629  1
  Tm  Tm7  1  0.750000  0.322701  0.442425  1
  Re  Re8  1  0.250000  0.222658  0.632167  1
  Re  Re9  1  0.750000  0.777696  0.365622  1
  Re  Re10  1  0.250000  0.723135  0.865590  1
  Ru  Ru11  1  0.750000  0.276698  0.136179  1
  C  C12  1  0.750000  0.171096  0.952167  1
  C  C13  1  0.250000  0.822338  0.051670  1
  C  C14  1  0.750000  0.672572  0.549938  1
  C  C15  1  0.250000  0.326223  0.448179  1
  C  C16  1  0.750000  0.043284  0.261246  1
  C  C17  1  0.250000  0.456751  0.757502  1
  C  C18  1  0.750000  0.545569  0.242612  1
  C  C19  1  0.250000  0.954015  0.738354  1
