# generated using pymatgen
data_Ho2ReB8Mo
_symmetry_space_group_name_H-M   'P 1'
_cell_length_a   3.61077900
_cell_length_b   5.99088093
_cell_length_c   11.58861880
_cell_angle_alpha   89.93609324
_cell_angle_beta   90.00000000
_cell_angle_gamma   90.00000000
_symmetry_Int_Tables_number   1
_chemical_formula_structural   Ho2ReB8Mo
_chemical_formula_sum   'Ho4 Re2 B16 Mo2'
_cell_volume   250.68191476
_cell_formula_units_Z   2
loop_
 _symmetry_equiv_pos_site_id
 _symmetry_equiv_pos_as_xyz
  1  'x, y, z'
loop_
 _atom_site_type_symbol
 _atom_site_label
 _atom_site_symmetry_multiplicity
 _atom_site_fract_x
 _atom_site_fract_y
 _atom_site_fract_z
 _atom_site_occupancy
  Ho  Ho0  1  0.000000  0.627608  0.149403  1
  Ho  Ho1  1  0.000000  0.372392  0.850597  1
  Ho  Ho2  1  0.000000  0.126722  0.349435  1
  Ho  Ho3  1  0.000000  0.873278  0.650565  1
  Re  Re4  1  0.000000  0.134691  0.087204  1
  Re  Re5  1  0.000000  0.865309  0.912796  1
  B  B6  1  0.500000  0.977280  0.191827  1
  B  B7  1  0.500000  0.022720  0.808173  1
  B  B8  1  0.500000  0.476278  0.305633  1
  B  B9  1  0.500000  0.523722  0.694367  1
  B  B10  1  0.500000  0.789645  0.313522  1
  B  B11  1  0.500000  0.210355  0.686478  1
  B  B12  1  0.500000  0.285928  0.184611  1
  B  B13  1  0.500000  0.714072  0.815389  1
  B  B14  1  0.500000  0.867352  0.467805  1
  B  B15  1  0.500000  0.132648  0.532195  1
  B  B16  1  0.500000  0.363563  0.030851  1
  B  B17  1  0.500000  0.636437  0.969149  1
  B  B18  1  0.500000  0.886561  0.047400  1
  B  B19  1  0.500000  0.113439  0.952600  1
  B  B20  1  0.500000  0.384958  0.452219  1
  B  B21  1  0.500000  0.615042  0.547781  1
  Mo  Mo22  1  0.000000  0.629516  0.415200  1
  Mo  Mo23  1  0.000000  0.370484  0.584800  1
