# generated using pymatgen
data_YbCe3(AlIr)4
_symmetry_space_group_name_H-M   'P 1'
_cell_length_a   6.92948726
_cell_length_b   4.28600200
_cell_length_c   7.96949468
_cell_angle_alpha   90.00000000
_cell_angle_beta   89.27685027
_cell_angle_gamma   90.00000000
_symmetry_Int_Tables_number   1
_chemical_formula_structural   YbCe3(AlIr)4
_chemical_formula_sum   'Yb1 Ce3 Al4 Ir4'
_cell_volume   236.67351623
_cell_formula_units_Z   1
loop_
 _symmetry_equiv_pos_site_id
 _symmetry_equiv_pos_as_xyz
  1  'x, y, z'
loop_
 _atom_site_type_symbol
 _atom_site_label
 _atom_site_symmetry_multiplicity
 _atom_site_fract_x
 _atom_site_fract_y
 _atom_site_fract_z
 _atom_site_occupancy
  Yb  Yb0  1  0.965295  0.250000  0.181640  1
  Ce  Ce1  1  0.462222  0.250000  0.316827  1
  Ce  Ce2  1  0.033600  0.750000  0.823429  1
  Ce  Ce3  1  0.536520  0.750000  0.683001  1
  Al  Al4  1  0.867073  0.250000  0.557581  1
  Al  Al5  1  0.362737  0.250000  0.939961  1
  Al  Al6  1  0.131047  0.750000  0.436185  1
  Al  Al7  1  0.641722  0.750000  0.063596  1
  Ir  Ir8  1  0.733432  0.250000  0.873073  1
  Ir  Ir9  1  0.236552  0.250000  0.621122  1
  Ir  Ir10  1  0.271473  0.750000  0.117394  1
  Ir  Ir11  1  0.758326  0.750000  0.386191  1
