# generated using pymatgen
data_YHo19FeCo3Bi8
_symmetry_space_group_name_H-M   'P 1'
_cell_length_a   7.96918276
_cell_length_b   8.87704200
_cell_length_c   12.37526126
_cell_angle_alpha   90.00000000
_cell_angle_beta   89.95019193
_cell_angle_gamma   90.00000000
_symmetry_Int_Tables_number   1
_chemical_formula_structural   YHo19FeCo3Bi8
_chemical_formula_sum   'Y1 Ho19 Fe1 Co3 Bi8'
_cell_volume   875.45993086
_cell_formula_units_Z   1
loop_
 _symmetry_equiv_pos_site_id
 _symmetry_equiv_pos_as_xyz
  1  'x, y, z'
loop_
 _atom_site_type_symbol
 _atom_site_label
 _atom_site_symmetry_multiplicity
 _atom_site_fract_x
 _atom_site_fract_y
 _atom_site_fract_z
 _atom_site_occupancy
  Y  Y0  1  0.346080  0.750000  0.701393  1
  Ho  Ho1  1  0.652888  0.250000  0.300475  1
  Ho  Ho2  1  0.847127  0.250000  0.800098  1
  Ho  Ho3  1  0.152116  0.750000  0.199313  1
  Ho  Ho4  1  0.886394  0.750000  0.811378  1
  Ho  Ho5  1  0.114491  0.250000  0.189168  1
  Ho  Ho6  1  0.385500  0.250000  0.688626  1
  Ho  Ho7  1  0.613951  0.750000  0.312033  1
  Ho  Ho8  1  0.675816  0.536990  0.563193  1
  Ho  Ho9  1  0.324513  0.461473  0.436731  1
  Ho  Ho10  1  0.174381  0.463998  0.937579  1
  Ho  Ho11  1  0.324513  0.038527  0.436731  1
  Ho  Ho12  1  0.824348  0.538464  0.062834  1
  Ho  Ho13  1  0.675816  0.963010  0.563193  1
  Ho  Ho14  1  0.824348  0.961536  0.062834  1
  Ho  Ho15  1  0.174381  0.036002  0.937579  1
  Ho  Ho16  1  0.052356  0.750000  0.496903  1
  Ho  Ho17  1  0.947516  0.250000  0.502471  1
  Ho  Ho18  1  0.554072  0.250000  0.002769  1
  Ho  Ho19  1  0.445668  0.750000  0.996905  1
  Fe  Fe20  1  0.069473  0.750000  0.990735  1
  Co  Co21  1  0.932504  0.250000  0.008526  1
  Co  Co22  1  0.566054  0.250000  0.508394  1
  Co  Co23  1  0.434422  0.750000  0.491449  1
  Bi  Bi24  1  0.572515  0.509125  0.826624  1
  Bi  Bi25  1  0.428544  0.490744  0.173169  1
  Bi  Bi26  1  0.071712  0.490638  0.673013  1
  Bi  Bi27  1  0.428544  0.009256  0.173169  1
  Bi  Bi28  1  0.927863  0.509356  0.326538  1
  Bi  Bi29  1  0.572515  0.990875  0.826624  1
  Bi  Bi30  1  0.927863  0.990644  0.326538  1
  Bi  Bi31  1  0.071712  0.009362  0.673013  1
