# generated using pymatgen
data_Li2Dy3Tm3(Co4P3)4
_symmetry_space_group_name_H-M   'P 1'
_cell_length_a   3.69629100
_cell_length_b   10.54052610
_cell_length_c   12.13785800
_cell_angle_alpha   89.99224860
_cell_angle_beta   90.00000000
_cell_angle_gamma   90.00000000
_symmetry_Int_Tables_number   1
_chemical_formula_structural   Li2Dy3Tm3(Co4P3)4
_chemical_formula_sum   'Li2 Dy3 Tm3 Co16 P12'
_cell_volume   472.90128172
_cell_formula_units_Z   1
loop_
 _symmetry_equiv_pos_site_id
 _symmetry_equiv_pos_as_xyz
  1  'x, y, z'
loop_
 _atom_site_type_symbol
 _atom_site_label
 _atom_site_symmetry_multiplicity
 _atom_site_fract_x
 _atom_site_fract_y
 _atom_site_fract_z
 _atom_site_occupancy
  Li  Li0  1  0.500000  0.499813  0.153369  1
  Li  Li1  1  0.000000  0.999994  0.846647  1
  Dy  Dy2  1  0.000000  0.499743  0.523249  1
  Dy  Dy3  1  0.500000  0.000355  0.477046  1
  Dy  Dy4  1  0.500000  0.820074  0.205921  1
  Tm  Tm5  1  0.500000  0.180361  0.206005  1
  Tm  Tm6  1  0.000000  0.679708  0.794253  1
  Tm  Tm7  1  0.000000  0.320200  0.793752  1
  Co  Co8  1  0.500000  0.499838  0.705137  1
  Co  Co9  1  0.000000  0.000985  0.295105  1
  Co  Co10  1  0.000000  0.499644  0.986971  1
  Co  Co11  1  0.500000  0.000452  0.012123  1
  Co  Co12  1  0.500000  0.332760  0.997003  1
  Co  Co13  1  0.500000  0.666806  0.996467  1
  Co  Co14  1  0.000000  0.167643  0.002644  1
  Co  Co15  1  0.000000  0.832719  0.002442  1
  Co  Co16  1  0.500000  0.296558  0.430907  1
  Co  Co17  1  0.500000  0.703273  0.431601  1
  Co  Co18  1  0.000000  0.203706  0.569062  1
  Co  Co19  1  0.000000  0.796441  0.569735  1
  Co  Co20  1  0.500000  0.877858  0.707394  1
  Co  Co21  1  0.500000  0.122223  0.707109  1
  Co  Co22  1  0.000000  0.621246  0.293424  1
  Co  Co23  1  0.000000  0.377676  0.292757  1
  P  P24  1  0.500000  0.499768  0.884636  1
  P  P25  1  0.000000  0.000863  0.114511  1
  P  P26  1  0.500000  0.499923  0.346235  1
  P  P27  1  0.000000  0.000004  0.653962  1
  P  P28  1  0.500000  0.310200  0.616684  1
  P  P29  1  0.500000  0.689664  0.617145  1
  P  P30  1  0.000000  0.190142  0.383313  1
  P  P31  1  0.000000  0.809944  0.384398  1
  P  P32  1  0.500000  0.842514  0.892526  1
  P  P33  1  0.500000  0.157719  0.892309  1
  P  P34  1  0.000000  0.656548  0.106650  1
  P  P35  1  0.000000  0.342634  0.107511  1
