# generated using pymatgen
data_LaNdSm2(WN3)4
_symmetry_space_group_name_H-M   'P 1'
_cell_length_a   7.36107567
_cell_length_b   7.36107578
_cell_length_c   6.29499300
_cell_angle_alpha   74.85773838
_cell_angle_beta   74.85774622
_cell_angle_gamma   83.11394353
_symmetry_Int_Tables_number   1
_chemical_formula_structural   LaNdSm2(WN3)4
_chemical_formula_sum   'La1 Nd1 Sm2 W4 N12'
_cell_volume   317.33362713
_cell_formula_units_Z   1
loop_
 _symmetry_equiv_pos_site_id
 _symmetry_equiv_pos_as_xyz
  1  'x, y, z'
loop_
 _atom_site_type_symbol
 _atom_site_label
 _atom_site_symmetry_multiplicity
 _atom_site_fract_x
 _atom_site_fract_y
 _atom_site_fract_z
 _atom_site_occupancy
  La  La0  1  0.304962  0.695038  0.250000  1
  Nd  Nd1  1  0.695398  0.304602  0.750000  1
  Sm  Sm2  1  0.088476  0.911524  0.750000  1
  Sm  Sm3  1  0.907501  0.092499  0.250000  1
  W  W4  1  0.379438  0.199109  0.249397  1
  W  W5  1  0.621410  0.799524  0.748987  1
  W  W6  1  0.800891  0.620562  0.250603  1
  W  W7  1  0.200476  0.378590  0.751013  1
  N  N8  1  0.616057  0.105738  0.154454  1
  N  N9  1  0.368362  0.338443  0.478086  1
  N  N10  1  0.000791  0.220943  0.849335  1
  N  N11  1  0.383191  0.888261  0.843651  1
  N  N12  1  0.779057  0.999209  0.650665  1
  N  N13  1  0.111739  0.616809  0.656349  1
  N  N14  1  0.894262  0.383943  0.345546  1
  N  N15  1  0.631689  0.656484  0.524382  1
  N  N16  1  0.661557  0.631638  0.021914  1
  N  N17  1  0.343516  0.368311  0.975618  1
  N  N18  1  0.995277  0.784054  0.150165  1
  N  N19  1  0.215946  0.004723  0.349835  1
