# generated using pymatgen
data_Dy6Tm10CdAg(HgPt2)2
_symmetry_space_group_name_H-M   'P 1'
_cell_length_a   9.58791842
_cell_length_b   9.58791833
_cell_length_c   9.58278600
_cell_angle_alpha   60.01770573
_cell_angle_beta   60.01770604
_cell_angle_gamma   60.10777595
_symmetry_Int_Tables_number   1
_chemical_formula_structural   Dy6Tm10CdAg(HgPt2)2
_chemical_formula_sum   'Dy6 Tm10 Cd1 Ag1 Hg2 Pt4'
_cell_volume   623.58305588
_cell_formula_units_Z   1
loop_
 _symmetry_equiv_pos_site_id
 _symmetry_equiv_pos_as_xyz
  1  'x, y, z'
loop_
 _atom_site_type_symbol
 _atom_site_label
 _atom_site_symmetry_multiplicity
 _atom_site_fract_x
 _atom_site_fract_y
 _atom_site_fract_z
 _atom_site_occupancy
  Dy  Dy0  1  0.936321  0.562587  0.563786  1
  Dy  Dy1  1  0.561773  0.939692  0.935058  1
  Dy  Dy2  1  0.561773  0.939692  0.563477  1
  Dy  Dy3  1  0.936321  0.562586  0.937306  1
  Dy  Dy4  1  0.563327  0.563699  0.936487  1
  Dy  Dy5  1  0.935117  0.940939  0.561971  1
  Tm  Tm6  1  0.352990  0.353254  0.350817  1
  Tm  Tm7  1  0.352990  0.353254  0.942941  1
  Tm  Tm8  1  0.357489  0.935036  0.353739  1
  Tm  Tm9  1  0.933356  0.357550  0.354548  1
  Tm  Tm10  1  0.812003  0.188533  0.189231  1
  Tm  Tm11  1  0.188431  0.811556  0.810550  1
  Tm  Tm12  1  0.188431  0.811556  0.189464  1
  Tm  Tm13  1  0.812003  0.188533  0.810233  1
  Tm  Tm14  1  0.188930  0.188972  0.811049  1
  Tm  Tm15  1  0.810894  0.810704  0.189201  1
  Cd  Cd16  1  0.257727  0.577966  0.582153  1
  Ag  Ag17  1  0.581894  0.249785  0.584160  1
  Hg  Hg18  1  0.584699  0.583038  0.587803  1
  Hg  Hg19  1  0.584699  0.583038  0.244459  1
  Pt  Pt20  1  0.143451  0.143393  0.146557  1
  Pt  Pt21  1  0.143451  0.143393  0.566602  1
  Pt  Pt22  1  0.142002  0.569679  0.144161  1
  Pt  Pt23  1  0.569931  0.141568  0.144252  1
