# generated using pymatgen
data_Mg8TiPd3O16
_symmetry_space_group_name_H-M   'P 1'
_cell_length_a   6.07871400
_cell_length_b   6.07462937
_cell_length_c   8.55158994
_cell_angle_alpha   90.48004183
_cell_angle_beta   90.00000000
_cell_angle_gamma   90.00000000
_symmetry_Int_Tables_number   1
_chemical_formula_structural   Mg8TiPd3O16
_chemical_formula_sum   'Mg8 Ti1 Pd3 O16'
_cell_volume   315.76436778
_cell_formula_units_Z   1
loop_
 _symmetry_equiv_pos_site_id
 _symmetry_equiv_pos_as_xyz
  1  'x, y, z'
loop_
 _atom_site_type_symbol
 _atom_site_label
 _atom_site_symmetry_multiplicity
 _atom_site_fract_x
 _atom_site_fract_y
 _atom_site_fract_z
 _atom_site_occupancy
  Mg  Mg0  1  0.998886  0.243411  0.996755  1
  Mg  Mg1  1  0.998886  0.756589  0.503245  1
  Mg  Mg2  1  0.245381  0.000000  0.750000  1
  Mg  Mg3  1  0.255185  0.245021  0.373093  1
  Mg  Mg4  1  0.255185  0.754979  0.126907  1
  Mg  Mg5  1  0.748496  0.252753  0.624673  1
  Mg  Mg6  1  0.748496  0.747247  0.875327  1
  Mg  Mg7  1  0.748085  0.000000  0.250000  1
  Ti  Ti8  1  0.773158  0.500000  0.250000  1
  Pd  Pd9  1  0.246733  0.500000  0.750000  1
  Pd  Pd10  1  0.499597  0.249471  0.001920  1
  Pd  Pd11  1  0.499597  0.750529  0.498080  1
  O  O12  1  0.018909  0.256692  0.754880  1
  O  O13  1  0.018909  0.743308  0.745120  1
  O  O14  1  0.251622  0.481042  0.988201  1
  O  O15  1  0.251622  0.518958  0.511799  1
  O  O16  1  0.256555  0.021325  0.994669  1
  O  O17  1  0.256555  0.978675  0.505331  1
  O  O18  1  0.479865  0.253752  0.762936  1
  O  O19  1  0.479865  0.746248  0.737064  1
  O  O20  1  0.522122  0.259979  0.238649  1
  O  O21  1  0.522122  0.740021  0.261351  1
  O  O22  1  0.743083  0.978983  0.492997  1
  O  O23  1  0.743083  0.021017  0.007003  1
  O  O24  1  0.743440  0.485944  0.018165  1
  O  O25  1  0.743440  0.514056  0.481835  1
  O  O26  1  0.975561  0.264436  0.249813  1
  O  O27  1  0.975561  0.735564  0.250187  1
