# generated using pymatgen
data_TbY7Sc11Si16Au
_symmetry_space_group_name_H-M   'P 1'
_cell_length_a   7.02422747
_cell_length_b   7.39747927
_cell_length_c   14.03700027
_cell_angle_alpha   90.01175787
_cell_angle_beta   89.98102559
_cell_angle_gamma   89.85489848
_symmetry_Int_Tables_number   1
_chemical_formula_structural   TbY7Sc11Si16Au
_chemical_formula_sum   'Tb1 Y7 Sc11 Si16 Au1'
_cell_volume   729.38227696
_cell_formula_units_Z   1
loop_
 _symmetry_equiv_pos_site_id
 _symmetry_equiv_pos_as_xyz
  1  'x, y, z'
loop_
 _atom_site_type_symbol
 _atom_site_label
 _atom_site_symmetry_multiplicity
 _atom_site_fract_x
 _atom_site_fract_y
 _atom_site_fract_z
 _atom_site_occupancy
  Tb  Tb0  1  0.484313  0.672661  0.599205  1
  Y  Y1  1  0.010804  0.174313  0.096329  1
  Y  Y2  1  0.991156  0.814686  0.900833  1
  Y  Y3  1  0.484480  0.672684  0.900792  1
  Y  Y4  1  0.991128  0.814729  0.599186  1
  Y  Y5  1  0.510578  0.323630  0.096497  1
  Y  Y6  1  0.010783  0.174421  0.403595  1
  Y  Y7  1  0.510536  0.323706  0.403462  1
  Sc  Sc8  1  0.838670  0.497931  0.250034  1
  Sc  Sc9  1  0.340175  0.002609  0.250011  1
  Sc  Sc10  1  0.657027  0.998813  0.749980  1
  Sc  Sc11  1  0.324555  0.183836  0.626905  1
  Sc  Sc12  1  0.671291  0.823547  0.375238  1
  Sc  Sc13  1  0.170935  0.678567  0.373951  1
  Sc  Sc14  1  0.671327  0.823501  0.124766  1
  Sc  Sc15  1  0.836893  0.327785  0.626884  1
  Sc  Sc16  1  0.324636  0.183817  0.873083  1
  Sc  Sc17  1  0.836707  0.327806  0.873212  1
  Sc  Sc18  1  0.170997  0.678590  0.126040  1
  Si  Si19  1  0.027147  0.097975  0.750046  1
  Si  Si20  1  0.968742  0.886507  0.249994  1
  Si  Si21  1  0.467509  0.618236  0.249958  1
  Si  Si22  1  0.537182  0.383663  0.750006  1
  Si  Si23  1  0.288830  0.885208  0.750003  1
  Si  Si24  1  0.713527  0.126792  0.250006  1
  Si  Si25  1  0.212726  0.372978  0.249992  1
  Si  Si26  1  0.778252  0.628107  0.750112  1
  Si  Si27  1  0.161145  0.459230  0.530469  1
  Si  Si28  1  0.843253  0.535567  0.461934  1
  Si  Si29  1  0.344972  0.965003  0.463080  1
  Si  Si30  1  0.843409  0.535488  0.038105  1
  Si  Si31  1  0.657204  0.034037  0.540635  1
  Si  Si32  1  0.161275  0.459298  0.969377  1
  Si  Si33  1  0.657066  0.033903  0.959342  1
  Si  Si34  1  0.345158  0.964854  0.036897  1
  Au  Au35  1  0.155610  0.515524  0.750043  1
