# generated using pymatgen
data_Er8In2OsPd
_symmetry_space_group_name_H-M   'P 1'
_cell_length_a   9.58170842
_cell_length_b   9.60998339
_cell_length_c   9.60998396
_cell_angle_alpha   60.31916449
_cell_angle_beta   60.09728155
_cell_angle_gamma   60.09727797
_symmetry_Int_Tables_number   1
_chemical_formula_structural   Er8In2OsPd
_chemical_formula_sum   'Er16 In4 Os2 Pd2'
_cell_volume   628.13063414
_cell_formula_units_Z   2
loop_
 _symmetry_equiv_pos_site_id
 _symmetry_equiv_pos_as_xyz
  1  'x, y, z'
loop_
 _atom_site_type_symbol
 _atom_site_label
 _atom_site_symmetry_multiplicity
 _atom_site_fract_x
 _atom_site_fract_y
 _atom_site_fract_z
 _atom_site_occupancy
  Er  Er0  1  0.061693  0.060152  0.434448  1
  Er  Er1  1  0.650808  0.056224  0.642161  1
  Er  Er2  1  0.183827  0.809484  0.195716  1
  Er  Er3  1  0.443706  0.060152  0.434448  1
  Er  Er4  1  0.183827  0.195716  0.809484  1
  Er  Er5  1  0.655549  0.647925  0.647925  1
  Er  Er6  1  0.048603  0.647925  0.647925  1
  Er  Er7  1  0.437229  0.062771  0.062771  1
  Er  Er8  1  0.650808  0.642161  0.056224  1
  Er  Er9  1  0.190720  0.809280  0.809280  1
  Er  Er10  1  0.810973  0.195716  0.809484  1
  Er  Er11  1  0.810463  0.189537  0.189537  1
  Er  Er12  1  0.810973  0.809484  0.195716  1
  Er  Er13  1  0.059799  0.440201  0.440201  1
  Er  Er14  1  0.443706  0.434448  0.060152  1
  Er  Er15  1  0.061693  0.434448  0.060152  1
  In  In16  1  0.750742  0.416476  0.416476  1
  In  In17  1  0.416341  0.416943  0.750376  1
  In  In18  1  0.416341  0.750376  0.416943  1
  In  In19  1  0.416306  0.416476  0.416476  1
  Os  Os20  1  0.856352  0.860475  0.426822  1
  Os  Os21  1  0.856352  0.426822  0.860475  1
  Pd  Pd22  1  0.855187  0.858405  0.858405  1
  Pd  Pd23  1  0.428003  0.858405  0.858405  1
