# generated using pymatgen
data_SrPu2O8
_symmetry_space_group_name_H-M   'P 1'
_cell_length_a   5.53350298
_cell_length_b   5.54281227
_cell_length_c   6.71705900
_cell_angle_alpha   65.82946688
_cell_angle_beta   66.05289085
_cell_angle_gamma   90.02981742
_symmetry_Int_Tables_number   1
_chemical_formula_structural   SrPu2O8
_chemical_formula_sum   'Sr1 Pu2 O8'
_cell_volume   168.31031002
_cell_formula_units_Z   1
loop_
 _symmetry_equiv_pos_site_id
 _symmetry_equiv_pos_as_xyz
  1  'x, y, z'
loop_
 _atom_site_type_symbol
 _atom_site_label
 _atom_site_symmetry_multiplicity
 _atom_site_fract_x
 _atom_site_fract_y
 _atom_site_fract_z
 _atom_site_occupancy
  Sr  Sr0  1  0.748746  0.708261  0.498010  1
  Pu  Pu1  1  0.499171  0.002393  0.999216  1
  Pu  Pu2  1  0.996649  0.503738  0.996178  1
  O  O3  1  0.161481  0.736978  0.152312  1
  O  O4  1  0.670225  0.621091  0.161258  1
  O  O5  1  0.939222  0.207912  0.275550  1
  O  O6  1  0.444796  0.009320  0.281455  1
  O  O7  1  0.556489  0.988923  0.718036  1
  O  O8  1  0.050766  0.793969  0.715324  1
  O  O9  1  0.335773  0.393251  0.842380  1
  O  O10  1  0.824696  0.285103  0.834898  1
