# generated using pymatgen
data_K8EuEr3F20
_symmetry_space_group_name_H-M   'P 1'
_cell_length_a   6.71753226
_cell_length_b   7.33963300
_cell_length_c   11.05047740
_cell_angle_alpha   90.00000000
_cell_angle_beta   90.25130806
_cell_angle_gamma   90.00000000
_symmetry_Int_Tables_number   1
_chemical_formula_structural   K8EuEr3F20
_chemical_formula_sum   'K8 Eu1 Er3 F20'
_cell_volume   544.82994409
_cell_formula_units_Z   1
loop_
 _symmetry_equiv_pos_site_id
 _symmetry_equiv_pos_as_xyz
  1  'x, y, z'
loop_
 _atom_site_type_symbol
 _atom_site_label
 _atom_site_symmetry_multiplicity
 _atom_site_fract_x
 _atom_site_fract_y
 _atom_site_fract_z
 _atom_site_occupancy
  K  K0  1  0.534486  0.995504  0.830071  1
  K  K1  1  0.465598  0.498513  0.169738  1
  K  K2  1  0.966566  0.995332  0.328526  1
  K  K3  1  0.032684  0.498816  0.671778  1
  K  K4  1  0.534486  0.504496  0.830071  1
  K  K5  1  0.465598  0.001487  0.169738  1
  K  K6  1  0.966566  0.504668  0.328526  1
  K  K7  1  0.032684  0.001184  0.671778  1
  Eu  Eu8  1  0.561643  0.250000  0.502279  1
  Er  Er9  1  0.435692  0.750000  0.497824  1
  Er  Er10  1  0.937347  0.250000  0.002160  1
  Er  Er11  1  0.062370  0.750000  0.997858  1
  F  F12  1  0.878042  0.750000  0.834902  1
  F  F13  1  0.121906  0.250000  0.165326  1
  F  F14  1  0.621663  0.750000  0.334806  1
  F  F15  1  0.375802  0.250000  0.671240  1
  F  F16  1  0.843184  0.250000  0.811505  1
  F  F17  1  0.156158  0.750000  0.188040  1
  F  F18  1  0.660954  0.250000  0.307869  1
  F  F19  1  0.341930  0.750000  0.688639  1
  F  F20  1  0.647141  0.957335  0.575287  1
  F  F21  1  0.350537  0.472712  0.423354  1
  F  F22  1  0.854519  0.964748  0.072198  1
  F  F23  1  0.145015  0.465043  0.927927  1
  F  F24  1  0.387030  0.750000  0.985713  1
  F  F25  1  0.612979  0.250000  0.014342  1
  F  F26  1  0.109955  0.750000  0.487227  1
  F  F27  1  0.900253  0.250000  0.512513  1
  F  F28  1  0.145015  0.034957  0.927927  1
  F  F29  1  0.854519  0.535252  0.072198  1
  F  F30  1  0.350537  0.027288  0.423354  1
  F  F31  1  0.647141  0.542665  0.575287  1
