# generated using pymatgen
data_LaSn3BRh6
_symmetry_space_group_name_H-M   'P 1'
_cell_length_a   5.78830700
_cell_length_b   5.78830733
_cell_length_c   13.68857600
_cell_angle_alpha   90.00000000
_cell_angle_beta   90.00000000
_cell_angle_gamma   120.00000383
_symmetry_Int_Tables_number   1
_chemical_formula_structural   LaSn3BRh6
_chemical_formula_sum   'La2 Sn6 B2 Rh12'
_cell_volume   397.18425642
_cell_formula_units_Z   2
loop_
 _symmetry_equiv_pos_site_id
 _symmetry_equiv_pos_as_xyz
  1  'x, y, z'
loop_
 _atom_site_type_symbol
 _atom_site_label
 _atom_site_symmetry_multiplicity
 _atom_site_fract_x
 _atom_site_fract_y
 _atom_site_fract_z
 _atom_site_occupancy
  La  La0  1  0.333333  0.666667  0.386230  1
  La  La1  1  0.666667  0.333333  0.886230  1
  Sn  Sn2  1  0.000000  0.000000  0.752038  1
  Sn  Sn3  1  0.000000  0.000000  0.252038  1
  Sn  Sn4  1  0.333333  0.666667  0.754640  1
  Sn  Sn5  1  0.666667  0.333333  0.254640  1
  Sn  Sn6  1  0.666667  0.333333  0.576177  1
  Sn  Sn7  1  0.333333  0.666667  0.076177  1
  B  B8  1  0.000000  0.000000  0.506234  1
  B  B9  1  0.000000  0.000000  0.006234  1
  Rh  Rh10  1  0.334140  0.167070  0.411787  1
  Rh  Rh11  1  0.832930  0.167070  0.411787  1
  Rh  Rh12  1  0.832930  0.665860  0.411787  1
  Rh  Rh13  1  0.167070  0.334140  0.911787  1
  Rh  Rh14  1  0.660680  0.830339  0.596440  1
  Rh  Rh15  1  0.665860  0.832930  0.911787  1
  Rh  Rh16  1  0.339320  0.169661  0.096440  1
  Rh  Rh17  1  0.169661  0.339320  0.596440  1
  Rh  Rh18  1  0.169661  0.830339  0.596440  1
  Rh  Rh19  1  0.830339  0.169661  0.096440  1
  Rh  Rh20  1  0.830339  0.660680  0.096440  1
  Rh  Rh21  1  0.167070  0.832930  0.911787  1
