# generated using pymatgen
data_PrW2F11
_symmetry_space_group_name_H-M   'P 1'
_cell_length_a   8.47312658
_cell_length_b   8.47312762
_cell_length_c   8.47312688
_cell_angle_alpha   125.24753474
_cell_angle_beta   107.23646379
_cell_angle_gamma   97.27166535
_symmetry_Int_Tables_number   1
_chemical_formula_structural   PrW2F11
_chemical_formula_sum   'Pr2 W4 F22'
_cell_volume   438.59303171
_cell_formula_units_Z   2
loop_
 _symmetry_equiv_pos_site_id
 _symmetry_equiv_pos_as_xyz
  1  'x, y, z'
loop_
 _atom_site_type_symbol
 _atom_site_label
 _atom_site_symmetry_multiplicity
 _atom_site_fract_x
 _atom_site_fract_y
 _atom_site_fract_z
 _atom_site_occupancy
  Pr  Pr0  1  0.750000  0.250000  0.500000  1
  Pr  Pr1  1  0.250000  0.750000  0.500000  1
  W  W2  1  0.680769  0.639678  0.320447  1
  W  W3  1  0.319231  0.360322  0.679553  1
  W  W4  1  0.180769  0.860322  0.041091  1
  W  W5  1  0.819231  0.139678  0.958909  1
  F  F6  1  0.702290  0.891095  0.334967  1
  F  F7  1  0.297710  0.108905  0.665033  1
  F  F8  1  0.556128  0.367324  0.665033  1
  F  F9  1  0.943872  0.608905  0.811195  1
  F  F10  1  0.443872  0.632676  0.334967  1
  F  F11  1  0.056128  0.391095  0.188805  1
  F  F12  1  0.797710  0.132676  0.188805  1
  F  F13  1  0.202290  0.867324  0.811195  1
  F  F14  1  0.500000  0.500000  0.000000  1
  F  F15  1  0.000000  0.000000  0.000000  1
  F  F16  1  0.781914  0.869704  0.651618  1
  F  F17  1  0.218086  0.130296  0.348382  1
  F  F18  1  0.281914  0.630296  0.912209  1
  F  F19  1  0.718086  0.369704  0.087791  1
  F  F20  1  0.949569  0.733144  0.411981  1
  F  F21  1  0.050431  0.266856  0.588019  1
  F  F22  1  0.321163  0.537588  0.588019  1
  F  F23  1  0.178837  0.766856  0.216426  1
  F  F24  1  0.678837  0.462412  0.411981  1
  F  F25  1  0.821163  0.233144  0.783574  1
  F  F26  1  0.550431  0.962412  0.783574  1
  F  F27  1  0.449569  0.037588  0.216426  1
