# generated using pymatgen
data_Ca2LaPrOs6O19
_symmetry_space_group_name_H-M   'P 1'
_cell_length_a   7.87645892
_cell_length_b   7.95876567
_cell_length_c   7.95892171
_cell_angle_alpha   109.79447859
_cell_angle_beta   109.48604249
_cell_angle_gamma   109.42966068
_symmetry_Int_Tables_number   1
_chemical_formula_structural   Ca2LaPrOs6O19
_chemical_formula_sum   'Ca2 La1 Pr1 Os6 O19'
_cell_volume   382.65353427
_cell_formula_units_Z   1
loop_
 _symmetry_equiv_pos_site_id
 _symmetry_equiv_pos_as_xyz
  1  'x, y, z'
loop_
 _atom_site_type_symbol
 _atom_site_label
 _atom_site_symmetry_multiplicity
 _atom_site_fract_x
 _atom_site_fract_y
 _atom_site_fract_z
 _atom_site_occupancy
  Ca  Ca0  1  0.998179  0.000154  0.289503  1
  Ca  Ca1  1  0.001221  0.291032  0.001621  1
  La  La2  1  0.306743  0.000606  0.001983  1
  Pr  Pr3  1  0.695477  0.697539  0.696063  1
  Os  Os4  1  0.361060  0.499292  0.864132  1
  Os  Os5  1  0.863773  0.361165  0.499228  1
  Os  Os6  1  0.500081  0.138980  0.639025  1
  Os  Os7  1  0.136081  0.635274  0.496994  1
  Os  Os8  1  0.500111  0.864496  0.364938  1
  Os  Os9  1  0.639247  0.503570  0.138420  1
  O  O10  1  0.322649  0.998934  0.327565  1
  O  O11  1  0.325503  0.325901  0.000724  1
  O  O12  1  0.999091  0.672939  0.673092  1
  O  O13  1  0.674388  0.674988  0.999311  1
  O  O14  1  0.000087  0.324979  0.324912  1
  O  O15  1  0.677337  0.003849  0.676025  1
  O  O16  1  0.999525  0.986736  0.986696  1
  O  O17  1  0.344764  0.284600  0.635139  1
  O  O18  1  0.060044  0.351060  0.717320  1
  O  O19  1  0.709140  0.368384  0.647676  1
  O  O20  1  0.370165  0.656430  0.718844  1
  O  O21  1  0.289519  0.937410  0.656566  1
  O  O22  1  0.631060  0.350668  0.287337  1
  O  O23  1  0.289537  0.631295  0.350593  1
  O  O24  1  0.710210  0.061068  0.342012  1
  O  O25  1  0.939855  0.657188  0.290396  1
  O  O26  1  0.654021  0.716369  0.370842  1
  O  O27  1  0.654757  0.289731  0.939728  1
  O  O28  1  0.346376  0.715360  0.063319  1
