# generated using pymatgen
data_YbTh2Pa3(Ni3Bi4)2
_symmetry_space_group_name_H-M   'P 1'
_cell_length_a   8.40537246
_cell_length_b   8.40734541
_cell_length_c   8.40537264
_cell_angle_alpha   109.59267116
_cell_angle_beta   109.45072467
_cell_angle_gamma   109.36084532
_symmetry_Int_Tables_number   1
_chemical_formula_structural   YbTh2Pa3(Ni3Bi4)2
_chemical_formula_sum   'Yb1 Th2 Pa3 Ni6 Bi8'
_cell_volume   457.29879963
_cell_formula_units_Z   1
loop_
 _symmetry_equiv_pos_site_id
 _symmetry_equiv_pos_as_xyz
  1  'x, y, z'
loop_
 _atom_site_type_symbol
 _atom_site_label
 _atom_site_symmetry_multiplicity
 _atom_site_fract_x
 _atom_site_fract_y
 _atom_site_fract_z
 _atom_site_occupancy
  Yb  Yb0  1  0.627128  0.750000  0.377128  1
  Th  Th1  1  0.252090  0.126873  0.876908  1
  Th  Th2  1  0.750034  0.373127  0.625217  1
  Pa  Pa3  1  0.124221  0.877111  0.250304  1
  Pa  Pa4  1  0.373193  0.622889  0.747110  1
  Pa  Pa5  1  0.873924  0.250000  0.123924  1
  Ni  Ni6  1  0.637625  0.359066  0.238730  1
  Ni  Ni7  1  0.879664  0.140934  0.778558  1
  Ni  Ni8  1  0.371835  0.250000  0.621835  1
  Ni  Ni9  1  0.125934  0.750000  0.875934  1
  Ni  Ni10  1  0.229691  0.611064  0.367604  1
  Ni  Ni11  1  0.756539  0.888936  0.118627  1
  Bi  Bi12  1  0.337488  0.337813  0.334079  1
  Bi  Bi13  1  0.172790  0.506779  0.004843  1
  Bi  Bi14  1  0.996267  0.162187  0.499676  1
  Bi  Bi15  1  0.830895  0.831951  0.830616  1
  Bi  Bi16  1  0.498065  0.993221  0.166011  1
  Bi  Bi17  1  0.667341  0.506899  0.003508  1
  Bi  Bi18  1  0.496609  0.993101  0.660441  1
  Bi  Bi19  1  0.998666  0.668049  0.498945  1
