# generated using pymatgen
data_Dy2MnOsBr2
_symmetry_space_group_name_H-M   'P 1'
_cell_length_a   3.90455600
_cell_length_b   3.90455541
_cell_length_c   12.21532600
_cell_angle_alpha   90.00000000
_cell_angle_beta   90.00000000
_cell_angle_gamma   120.00000504
_symmetry_Int_Tables_number   1
_chemical_formula_structural   Dy2MnOsBr2
_chemical_formula_sum   'Dy2 Mn1 Os1 Br2'
_cell_volume   161.27940675
_cell_formula_units_Z   1
loop_
 _symmetry_equiv_pos_site_id
 _symmetry_equiv_pos_as_xyz
  1  'x, y, z'
loop_
 _atom_site_type_symbol
 _atom_site_label
 _atom_site_symmetry_multiplicity
 _atom_site_fract_x
 _atom_site_fract_y
 _atom_site_fract_z
 _atom_site_occupancy
  Dy  Dy0  1  0.000000  0.000000  0.325529  1
  Dy  Dy1  1  0.000000  0.000000  0.675286  1
  Mn  Mn2  1  0.333333  0.666665  0.483620  1
  Os  Os3  1  0.666666  0.333334  0.514799  1
  Br  Br4  1  0.666666  0.333334  0.168727  1
  Br  Br5  1  0.333333  0.666665  0.832038  1
