# generated using pymatgen
data_HoTmFe3Re14C3
_symmetry_space_group_name_H-M   'P 1'
_cell_length_a   6.92112445
_cell_length_b   6.92112630
_cell_length_c   6.92112540
_cell_angle_alpha   82.50044418
_cell_angle_beta   82.50043878
_cell_angle_gamma   82.50044722
_symmetry_Int_Tables_number   1
_chemical_formula_structural   HoTmFe3Re14C3
_chemical_formula_sum   'Ho1 Tm1 Fe3 Re14 C3'
_cell_volume   323.70872750
_cell_formula_units_Z   1
loop_
 _symmetry_equiv_pos_site_id
 _symmetry_equiv_pos_as_xyz
  1  'x, y, z'
loop_
 _atom_site_type_symbol
 _atom_site_label
 _atom_site_symmetry_multiplicity
 _atom_site_fract_x
 _atom_site_fract_y
 _atom_site_fract_z
 _atom_site_occupancy
  Ho  Ho0  1  0.649377  0.649377  0.649377  1
  Tm  Tm1  1  0.350557  0.350557  0.350557  1
  Fe  Fe2  1  0.000027  0.000027  0.499996  1
  Fe  Fe3  1  0.499996  0.000027  0.000027  1
  Fe  Fe4  1  0.000027  0.499996  0.000027  1
  Re  Re5  1  0.722104  0.277825  0.000095  1
  Re  Re6  1  0.000095  0.722104  0.277825  1
  Re  Re7  1  0.277825  0.000095  0.722104  1
  Re  Re8  1  0.000095  0.277825  0.722104  1
  Re  Re9  1  0.722104  0.000095  0.277825  1
  Re  Re10  1  0.277825  0.722104  0.000095  1
  Re  Re11  1  0.346914  0.346914  0.860247  1
  Re  Re12  1  0.860247  0.346914  0.346914  1
  Re  Re13  1  0.346914  0.860247  0.346914  1
  Re  Re14  1  0.652858  0.652858  0.139979  1
  Re  Re15  1  0.139979  0.652858  0.652858  1
  Re  Re16  1  0.652858  0.139979  0.652858  1
  Re  Re17  1  0.897603  0.897603  0.897603  1
  Re  Re18  1  0.102553  0.102553  0.102553  1
  C  C19  1  0.499706  0.499706  0.000629  1
  C  C20  1  0.000629  0.499706  0.499706  1
  C  C21  1  0.499706  0.000629  0.499706  1
