# generated using pymatgen
data_Lu7Hf7ScSi16W5
_symmetry_space_group_name_H-M   'P 1'
_cell_length_a   6.80491765
_cell_length_b   7.01321056
_cell_length_c   13.43124222
_cell_angle_alpha   89.94825247
_cell_angle_beta   90.10401639
_cell_angle_gamma   89.88821658
_symmetry_Int_Tables_number   1
_chemical_formula_structural   Lu7Hf7ScSi16W5
_chemical_formula_sum   'Lu7 Hf7 Sc1 Si16 W5'
_cell_volume   640.99436600
_cell_formula_units_Z   1
loop_
 _symmetry_equiv_pos_site_id
 _symmetry_equiv_pos_as_xyz
  1  'x, y, z'
loop_
 _atom_site_type_symbol
 _atom_site_label
 _atom_site_symmetry_multiplicity
 _atom_site_fract_x
 _atom_site_fract_y
 _atom_site_fract_z
 _atom_site_occupancy
  Lu  Lu0  1  0.502742  0.673953  0.595390  1
  Lu  Lu1  1  0.008832  0.825729  0.900028  1
  Lu  Lu2  1  0.494064  0.324208  0.097574  1
  Lu  Lu3  1  0.995710  0.175923  0.408816  1
  Lu  Lu4  1  0.494031  0.324768  0.404034  1
  Lu  Lu5  1  0.992796  0.174326  0.096794  1
  Lu  Lu6  1  0.505046  0.673431  0.900820  1
  Hf  Hf7  1  0.666626  0.172775  0.623930  1
  Hf  Hf8  1  0.170873  0.326047  0.871769  1
  Hf  Hf9  1  0.328553  0.826387  0.126251  1
  Hf  Hf10  1  0.832450  0.671225  0.377346  1
  Hf  Hf11  1  0.328119  0.825170  0.376402  1
  Hf  Hf12  1  0.829256  0.673301  0.126354  1
  Hf  Hf13  1  0.672775  0.173151  0.870461  1
  Sc  Sc14  1  0.005268  0.823016  0.597277  1
  Si  Si15  1  0.662221  0.969347  0.457021  1
  Si  Si16  1  0.162664  0.531365  0.041335  1
  Si  Si17  1  0.338925  0.031649  0.956241  1
  Si  Si18  1  0.848816  0.471630  0.548682  1
  Si  Si19  1  0.322466  0.037358  0.545746  1
  Si  Si20  1  0.838146  0.468430  0.956199  1
  Si  Si21  1  0.661088  0.968043  0.041706  1
  Si  Si22  1  0.167314  0.534117  0.466224  1
  Si  Si23  1  0.465365  0.387704  0.747264  1
  Si  Si24  1  0.974779  0.114718  0.743760  1
  Si  Si25  1  0.530224  0.610951  0.251262  1
  Si  Si26  1  0.028296  0.889678  0.251926  1
  Si  Si27  1  0.710903  0.861331  0.746489  1
  Si  Si28  1  0.203875  0.636179  0.746281  1
  Si  Si29  1  0.289915  0.138768  0.251382  1
  Si  Si30  1  0.793678  0.359859  0.251239  1
  W  W31  1  0.173095  0.329716  0.626806  1
  W  W32  1  0.842829  0.491238  0.747499  1
  W  W33  1  0.342908  0.006899  0.747082  1
  W  W34  1  0.158834  0.505013  0.251290  1
  W  W35  1  0.656518  0.992598  0.251320  1
