# generated using pymatgen
data_HfSc3In5Co2
_symmetry_space_group_name_H-M   'P 1'
_cell_length_a   3.27853100
_cell_length_b   7.52271603
_cell_length_c   9.19388761
_cell_angle_alpha   85.13753592
_cell_angle_beta   90.00000000
_cell_angle_gamma   90.00000000
_symmetry_Int_Tables_number   1
_chemical_formula_structural   HfSc3In5Co2
_chemical_formula_sum   'Hf1 Sc3 In5 Co2'
_cell_volume   225.93698313
_cell_formula_units_Z   1
loop_
 _symmetry_equiv_pos_site_id
 _symmetry_equiv_pos_as_xyz
  1  'x, y, z'
loop_
 _atom_site_type_symbol
 _atom_site_label
 _atom_site_symmetry_multiplicity
 _atom_site_fract_x
 _atom_site_fract_y
 _atom_site_fract_z
 _atom_site_occupancy
  Hf  Hf0  1  0.500000  0.807137  0.438917  1
  Sc  Sc1  1  0.500000  0.181513  0.160321  1
  Sc  Sc2  1  0.500000  0.201737  0.562891  1
  Sc  Sc3  1  0.500000  0.816102  0.839802  1
  In  In4  1  0.000000  0.545469  0.664564  1
  In  In5  1  0.000000  0.155029  0.857184  1
  In  In6  1  0.000000  0.498569  0.999586  1
  In  In7  1  0.000000  0.843267  0.142415  1
  In  In8  1  0.000000  0.456696  0.335565  1
  Co  Co9  1  0.000000  0.074559  0.367456  1
  Co  Co10  1  0.000000  0.919923  0.631299  1
