# generated using pymatgen
data_Eu8Al(Si4Au)3
_symmetry_space_group_name_H-M   'P 1'
_cell_length_a   8.30678800
_cell_length_b   8.30678899
_cell_length_c   8.71796500
_cell_angle_alpha   90.00000000
_cell_angle_beta   90.00000000
_cell_angle_gamma   120.00000401
_symmetry_Int_Tables_number   1
_chemical_formula_structural   Eu8Al(Si4Au)3
_chemical_formula_sum   'Eu8 Al1 Si12 Au3'
_cell_volume   520.96919100
_cell_formula_units_Z   1
loop_
 _symmetry_equiv_pos_site_id
 _symmetry_equiv_pos_as_xyz
  1  'x, y, z'
loop_
 _atom_site_type_symbol
 _atom_site_label
 _atom_site_symmetry_multiplicity
 _atom_site_fract_x
 _atom_site_fract_y
 _atom_site_fract_z
 _atom_site_occupancy
  Eu  Eu0  1  0.500354  0.499646  0.749324  1
  Eu  Eu1  1  0.500759  0.499241  0.250856  1
  Eu  Eu2  1  0.999291  0.499646  0.749324  1
  Eu  Eu3  1  0.998481  0.499241  0.250856  1
  Eu  Eu4  1  0.500354  0.000709  0.749324  1
  Eu  Eu5  1  0.500759  0.001519  0.250856  1
  Eu  Eu6  1  0.000000  0.000000  0.749606  1
  Eu  Eu7  1  0.000000  0.000000  0.250010  1
  Al  Al8  1  0.666667  0.333333  0.502070  1
  Si  Si9  1  0.837143  0.162857  0.000185  1
  Si  Si10  1  0.162853  0.837147  0.998473  1
  Si  Si11  1  0.325714  0.162857  0.000185  1
  Si  Si12  1  0.163346  0.836654  0.500100  1
  Si  Si13  1  0.674293  0.837147  0.998473  1
  Si  Si14  1  0.836900  0.163100  0.500853  1
  Si  Si15  1  0.837143  0.674286  0.000185  1
  Si  Si16  1  0.673307  0.836654  0.500100  1
  Si  Si17  1  0.162853  0.325707  0.998473  1
  Si  Si18  1  0.326200  0.163100  0.500853  1
  Si  Si19  1  0.163346  0.326693  0.500100  1
  Si  Si20  1  0.836900  0.673800  0.500853  1
  Au  Au21  1  0.666667  0.333333  0.998931  1
  Au  Au22  1  0.333333  0.666667  0.000245  1
  Au  Au23  1  0.333333  0.666667  0.499763  1
