# generated using pymatgen
data_Tb3Fe5(P3Ir2)2
_symmetry_space_group_name_H-M   'P 1'
_cell_length_a   3.87683700
_cell_length_b   10.98083200
_cell_length_c   12.54158100
_cell_angle_alpha   90.00000000
_cell_angle_beta   90.00000000
_cell_angle_gamma   90.00000000
_symmetry_Int_Tables_number   1
_chemical_formula_structural   Tb3Fe5(P3Ir2)2
_chemical_formula_sum   'Tb6 Fe10 P12 Ir8'
_cell_volume   533.90633777
_cell_formula_units_Z   2
loop_
 _symmetry_equiv_pos_site_id
 _symmetry_equiv_pos_as_xyz
  1  'x, y, z'
loop_
 _atom_site_type_symbol
 _atom_site_label
 _atom_site_symmetry_multiplicity
 _atom_site_fract_x
 _atom_site_fract_y
 _atom_site_fract_z
 _atom_site_occupancy
  Tb  Tb0  1  0.000000  0.500000  0.522386  1
  Tb  Tb1  1  0.500000  0.000000  0.477614  1
  Tb  Tb2  1  0.500000  0.817940  0.195329  1
  Tb  Tb3  1  0.500000  0.182060  0.195329  1
  Tb  Tb4  1  0.000000  0.682060  0.804671  1
  Tb  Tb5  1  0.000000  0.317940  0.804671  1
  Fe  Fe6  1  0.000000  0.500000  0.995019  1
  Fe  Fe7  1  0.500000  0.000000  0.004981  1
  Fe  Fe8  1  0.500000  0.881830  0.717780  1
  Fe  Fe9  1  0.500000  0.118170  0.717780  1
  Fe  Fe10  1  0.000000  0.618170  0.282220  1
  Fe  Fe11  1  0.000000  0.381830  0.282220  1
  Fe  Fe12  1  0.500000  0.332894  0.995875  1
  Fe  Fe13  1  0.500000  0.667106  0.995875  1
  Fe  Fe14  1  0.000000  0.167106  0.004125  1
  Fe  Fe15  1  0.000000  0.832894  0.004125  1
  P  P16  1  0.500000  0.303036  0.627128  1
  P  P17  1  0.500000  0.696964  0.627128  1
  P  P18  1  0.000000  0.196964  0.372872  1
  P  P19  1  0.000000  0.803036  0.372872  1
  P  P20  1  0.500000  0.500000  0.896680  1
  P  P21  1  0.000000  0.000000  0.103320  1
  P  P22  1  0.500000  0.840863  0.901023  1
  P  P23  1  0.500000  0.159137  0.901023  1
  P  P24  1  0.000000  0.659137  0.098977  1
  P  P25  1  0.000000  0.340863  0.098977  1
  P  P26  1  0.500000  0.500000  0.337447  1
  P  P27  1  0.000000  0.000000  0.662553  1
  Ir  Ir28  1  0.500000  0.299158  0.426520  1
  Ir  Ir29  1  0.500000  0.700842  0.426520  1
  Ir  Ir30  1  0.000000  0.200842  0.573480  1
  Ir  Ir31  1  0.000000  0.799158  0.573480  1
  Ir  Ir32  1  0.500000  0.500000  0.153726  1
  Ir  Ir33  1  0.000000  0.000000  0.846274  1
  Ir  Ir34  1  0.500000  0.500000  0.702836  1
  Ir  Ir35  1  0.000000  0.000000  0.297164  1
