# generated using pymatgen
data_TbCo2(NiP)3
_symmetry_space_group_name_H-M   'P 1'
_cell_length_a   3.69839700
_cell_length_b   10.30962400
_cell_length_c   11.82419300
_cell_angle_alpha   90.00000000
_cell_angle_beta   90.00000000
_cell_angle_gamma   90.00000000
_symmetry_Int_Tables_number   1
_chemical_formula_structural   TbCo2(NiP)3
_chemical_formula_sum   'Tb4 Co8 Ni12 P12'
_cell_volume   450.84563007
_cell_formula_units_Z   4
loop_
 _symmetry_equiv_pos_site_id
 _symmetry_equiv_pos_as_xyz
  1  'x, y, z'
loop_
 _atom_site_type_symbol
 _atom_site_label
 _atom_site_symmetry_multiplicity
 _atom_site_fract_x
 _atom_site_fract_y
 _atom_site_fract_z
 _atom_site_occupancy
  Tb  Tb0  1  0.250000  0.917164  0.203751  1
  Tb  Tb1  1  0.750000  0.082836  0.796249  1
  Tb  Tb2  1  0.750000  0.417164  0.296249  1
  Tb  Tb3  1  0.250000  0.582836  0.703751  1
  Co  Co4  1  0.250000  0.619400  0.197741  1
  Co  Co5  1  0.750000  0.380600  0.802259  1
  Co  Co6  1  0.750000  0.119400  0.302259  1
  Co  Co7  1  0.250000  0.880600  0.697741  1
  Co  Co8  1  0.250000  0.032013  0.433162  1
  Co  Co9  1  0.750000  0.967987  0.566838  1
  Co  Co10  1  0.750000  0.532013  0.066838  1
  Co  Co11  1  0.250000  0.467987  0.933162  1
  Ni  Ni12  1  0.250000  0.786053  0.490527  1
  Ni  Ni13  1  0.750000  0.213947  0.509473  1
  Ni  Ni14  1  0.750000  0.286053  0.009473  1
  Ni  Ni15  1  0.250000  0.713947  0.990527  1
  Ni  Ni16  1  0.250000  0.092879  0.986992  1
  Ni  Ni17  1  0.750000  0.907121  0.013008  1
  Ni  Ni18  1  0.750000  0.592879  0.513008  1
  Ni  Ni19  1  0.250000  0.407121  0.486992  1
  Ni  Ni20  1  0.250000  0.277126  0.676258  1
  Ni  Ni21  1  0.750000  0.722874  0.323742  1
  Ni  Ni22  1  0.750000  0.777126  0.823742  1
  Ni  Ni23  1  0.250000  0.222874  0.176258  1
  P  P24  1  0.250000  0.076335  0.613294  1
  P  P25  1  0.750000  0.923665  0.386706  1
  P  P26  1  0.750000  0.576335  0.886706  1
  P  P27  1  0.250000  0.423665  0.113294  1
  P  P28  1  0.250000  0.226735  0.367912  1
  P  P29  1  0.750000  0.773265  0.632088  1
  P  P30  1  0.750000  0.726735  0.132088  1
  P  P31  1  0.250000  0.273265  0.867912  1
  P  P32  1  0.250000  0.897528  0.889270  1
  P  P33  1  0.750000  0.102472  0.110730  1
  P  P34  1  0.750000  0.397528  0.610730  1
  P  P35  1  0.250000  0.602472  0.389270  1
