# generated using pymatgen
data_HoEr2Co4P6Rh5
_symmetry_space_group_name_H-M   'P 1'
_cell_length_a   3.77134100
_cell_length_b   10.92371100
_cell_length_c   12.51301700
_cell_angle_alpha   90.00000000
_cell_angle_beta   90.00000000
_cell_angle_gamma   90.00000000
_symmetry_Int_Tables_number   1
_chemical_formula_structural   HoEr2Co4P6Rh5
_chemical_formula_sum   'Ho2 Er4 Co8 P12 Rh10'
_cell_volume   515.49925144
_cell_formula_units_Z   2
loop_
 _symmetry_equiv_pos_site_id
 _symmetry_equiv_pos_as_xyz
  1  'x, y, z'
loop_
 _atom_site_type_symbol
 _atom_site_label
 _atom_site_symmetry_multiplicity
 _atom_site_fract_x
 _atom_site_fract_y
 _atom_site_fract_z
 _atom_site_occupancy
  Ho  Ho0  1  0.000000  0.500000  0.517905  1
  Ho  Ho1  1  0.500000  0.000000  0.475989  1
  Er  Er2  1  0.500000  0.815793  0.197817  1
  Er  Er3  1  0.500000  0.184207  0.197817  1
  Er  Er4  1  0.000000  0.680082  0.803940  1
  Er  Er5  1  0.000000  0.319918  0.803940  1
  Co  Co6  1  0.000000  0.500000  0.992446  1
  Co  Co7  1  0.500000  0.000000  0.011457  1
  Co  Co8  1  0.000000  0.620858  0.283833  1
  Co  Co9  1  0.000000  0.379142  0.283833  1
  Co  Co10  1  0.500000  0.334168  0.997286  1
  Co  Co11  1  0.500000  0.665832  0.997286  1
  Co  Co12  1  0.000000  0.168691  0.007169  1
  Co  Co13  1  0.000000  0.831309  0.007169  1
  P  P14  1  0.500000  0.317079  0.619663  1
  P  P15  1  0.500000  0.682921  0.619663  1
  P  P16  1  0.000000  0.192176  0.372042  1
  P  P17  1  0.000000  0.807824  0.372042  1
  P  P18  1  0.500000  0.500000  0.894587  1
  P  P19  1  0.000000  0.000000  0.107477  1
  P  P20  1  0.500000  0.839907  0.904569  1
  P  P21  1  0.500000  0.160093  0.904569  1
  P  P22  1  0.000000  0.657035  0.104380  1
  P  P23  1  0.000000  0.342965  0.104380  1
  P  P24  1  0.500000  0.500000  0.341598  1
  P  P25  1  0.000000  0.000000  0.652212  1
  Rh  Rh26  1  0.500000  0.301088  0.425684  1
  Rh  Rh27  1  0.500000  0.698912  0.425684  1
  Rh  Rh28  1  0.000000  0.205205  0.569027  1
  Rh  Rh29  1  0.000000  0.794795  0.569027  1
  Rh  Rh30  1  0.500000  0.872085  0.716554  1
  Rh  Rh31  1  0.500000  0.127915  0.716554  1
  Rh  Rh32  1  0.500000  0.500000  0.157442  1
  Rh  Rh33  1  0.000000  0.000000  0.843113  1
  Rh  Rh34  1  0.500000  0.500000  0.709104  1
  Rh  Rh35  1  0.000000  0.000000  0.292740  1
