# generated using pymatgen
data_Tb2Ho10TlGaCo4
_symmetry_space_group_name_H-M   'P 1'
_cell_length_a   8.28560960
_cell_length_b   8.31358914
_cell_length_c   8.31358862
_cell_angle_alpha   112.29436658
_cell_angle_beta   109.40053958
_cell_angle_gamma   106.89151713
_symmetry_Int_Tables_number   1
_chemical_formula_structural   Tb2Ho10TlGaCo4
_chemical_formula_sum   'Tb2 Ho10 Tl1 Ga1 Co4'
_cell_volume   439.16086049
_cell_formula_units_Z   1
loop_
 _symmetry_equiv_pos_site_id
 _symmetry_equiv_pos_as_xyz
  1  'x, y, z'
loop_
 _atom_site_type_symbol
 _atom_site_label
 _atom_site_symmetry_multiplicity
 _atom_site_fract_x
 _atom_site_fract_y
 _atom_site_fract_z
 _atom_site_occupancy
  Tb  Tb0  1  0.966704  0.266395  0.700310  1
  Tb  Tb1  1  0.033296  0.733605  0.299690  1
  Ho  Ho2  1  0.673927  0.860999  0.185362  1
  Ho  Ho3  1  0.326073  0.511435  0.187070  1
  Ho  Ho4  1  0.326073  0.139001  0.814638  1
  Ho  Ho5  1  0.673927  0.488565  0.812930  1
  Ho  Ho6  1  0.565401  0.265818  0.299583  1
  Ho  Ho7  1  0.434599  0.734182  0.700417  1
  Ho  Ho8  1  0.180255  0.781987  0.961482  1
  Ho  Ho9  1  0.819745  0.781227  0.601732  1
  Ho  Ho10  1  0.180255  0.218773  0.398268  1
  Ho  Ho11  1  0.819745  0.218013  0.038518  1
  Tl  Tl12  1  0.500000  0.000000  0.500000  1
  Ga  Ga13  1  0.000000  0.500000  0.500000  1
  Co  Co14  1  0.115331  0.114252  0.001080  1
  Co  Co15  1  0.884669  0.885748  0.998920  1
  Co  Co16  1  0.660467  0.499562  0.160906  1
  Co  Co17  1  0.339533  0.500438  0.839094  1
