# generated using pymatgen
data_CaMn3Ni3As4
_symmetry_space_group_name_H-M   'P 1'
_cell_length_a   7.03080500
_cell_length_b   7.03080498
_cell_length_c   3.70162200
_cell_angle_alpha   90.00000000
_cell_angle_beta   90.00000000
_cell_angle_gamma   119.99999541
_symmetry_Int_Tables_number   1
_chemical_formula_structural   CaMn3Ni3As4
_chemical_formula_sum   'Ca1 Mn3 Ni3 As4'
_cell_volume   158.46480618
_cell_formula_units_Z   1
loop_
 _symmetry_equiv_pos_site_id
 _symmetry_equiv_pos_as_xyz
  1  'x, y, z'
loop_
 _atom_site_type_symbol
 _atom_site_label
 _atom_site_symmetry_multiplicity
 _atom_site_fract_x
 _atom_site_fract_y
 _atom_site_fract_z
 _atom_site_occupancy
  Ca  Ca0  1  0.000000  0.000000  0.000000  1
  Mn  Mn1  1  0.538103  0.076208  0.000000  1
  Mn  Mn2  1  0.923792  0.461897  0.000000  1
  Mn  Mn3  1  0.538103  0.461897  0.000000  1
  Ni  Ni4  1  0.202980  0.797020  0.500000  1
  Ni  Ni5  1  0.202980  0.405959  0.500000  1
  Ni  Ni6  1  0.594041  0.797020  0.500000  1
  As  As7  1  0.815214  0.184786  0.500000  1
  As  As8  1  0.369571  0.184786  0.500000  1
  As  As9  1  0.333333  0.666667  0.000000  1
  As  As10  1  0.815214  0.630429  0.500000  1
