# generated using pymatgen
data_Ba2SrP14
_symmetry_space_group_name_H-M   'P 1'
_cell_length_a   13.09218300
_cell_length_b   6.51222791
_cell_length_c   12.14309492
_cell_angle_alpha   57.02495011
_cell_angle_beta   90.00000000
_cell_angle_gamma   90.00000000
_symmetry_Int_Tables_number   1
_chemical_formula_structural   Ba2SrP14
_chemical_formula_sum   'Ba4 Sr2 P28'
_cell_volume   868.53076634
_cell_formula_units_Z   2
loop_
 _symmetry_equiv_pos_site_id
 _symmetry_equiv_pos_as_xyz
  1  'x, y, z'
loop_
 _atom_site_type_symbol
 _atom_site_label
 _atom_site_symmetry_multiplicity
 _atom_site_fract_x
 _atom_site_fract_y
 _atom_site_fract_z
 _atom_site_occupancy
  Ba  Ba0  1  0.652454  0.192911  0.609691  1
  Ba  Ba1  1  0.152454  0.807089  0.890309  1
  Ba  Ba2  1  0.347546  0.807089  0.390309  1
  Ba  Ba3  1  0.847546  0.192911  0.109691  1
  Sr  Sr4  1  0.500000  0.000000  0.000000  1
  Sr  Sr5  1  0.000000  0.000000  0.500000  1
  P  P6  1  0.847874  0.049661  0.848394  1
  P  P7  1  0.347874  0.950339  0.651606  1
  P  P8  1  0.152126  0.950339  0.151606  1
  P  P9  1  0.652126  0.049661  0.348394  1
  P  P10  1  0.490335  0.723351  0.688496  1
  P  P11  1  0.990335  0.276649  0.811504  1
  P  P12  1  0.676156  0.624180  0.045499  1
  P  P13  1  0.176156  0.375820  0.454501  1
  P  P14  1  0.323844  0.375820  0.954501  1
  P  P15  1  0.823844  0.624180  0.545499  1
  P  P16  1  0.584857  0.294002  0.140406  1
  P  P17  1  0.084857  0.705998  0.359594  1
  P  P18  1  0.415143  0.705998  0.859594  1
  P  P19  1  0.915143  0.294002  0.640406  1
  P  P20  1  0.713296  0.634670  0.219099  1
  P  P21  1  0.213296  0.365330  0.280901  1
  P  P22  1  0.286704  0.365330  0.780901  1
  P  P23  1  0.786704  0.634670  0.719099  1
  P  P24  1  0.560182  0.600150  0.304302  1
  P  P25  1  0.060182  0.399850  0.195698  1
  P  P26  1  0.439818  0.399850  0.695698  1
  P  P27  1  0.939818  0.600150  0.804302  1
  P  P28  1  0.776794  0.265316  0.352860  1
  P  P29  1  0.276794  0.734684  0.147140  1
  P  P30  1  0.223206  0.734684  0.647140  1
  P  P31  1  0.723206  0.265316  0.852860  1
  P  P32  1  0.009665  0.723351  0.188496  1
  P  P33  1  0.509665  0.276649  0.311504  1
