# generated using pymatgen
data_Ho3Pa(Si5Pt3)2
_symmetry_space_group_name_H-M   'P 1'
_cell_length_a   8.14034314
_cell_length_b   8.13986818
_cell_length_c   8.13986900
_cell_angle_alpha   136.27878942
_cell_angle_beta   104.39298753
_cell_angle_gamma   91.64467895
_symmetry_Int_Tables_number   1
_chemical_formula_structural   Ho3Pa(Si5Pt3)2
_chemical_formula_sum   'Ho3 Pa1 Si10 Pt6'
_cell_volume   343.14594914
_cell_formula_units_Z   1
loop_
 _symmetry_equiv_pos_site_id
 _symmetry_equiv_pos_as_xyz
  1  'x, y, z'
loop_
 _atom_site_type_symbol
 _atom_site_label
 _atom_site_symmetry_multiplicity
 _atom_site_fract_x
 _atom_site_fract_y
 _atom_site_fract_z
 _atom_site_occupancy
  Ho  Ho0  1  0.641676  0.369852  0.271824  1
  Ho  Ho1  1  0.357549  0.628755  0.728794  1
  Ho  Ho2  1  0.099537  0.871880  0.227656  1
  Pa  Pa3  1  0.903246  0.129971  0.773276  1
  Si  Si4  1  0.272527  0.521271  0.249323  1
  Si  Si5  1  0.727018  0.476977  0.749866  1
  Si  Si6  1  0.727018  0.977152  0.250041  1
  Si  Si7  1  0.272527  0.023205  0.751255  1
  Si  Si8  1  0.462755  0.113477  0.349276  1
  Si  Si9  1  0.537397  0.886809  0.650589  1
  Si  Si10  1  0.763410  0.613115  0.150295  1
  Si  Si11  1  0.235271  0.385353  0.849919  1
  Si  Si12  1  0.000275  0.250089  0.248410  1
  Si  Si13  1  0.000275  0.751864  0.750186  1
  Pt  Pt14  1  0.251718  0.137525  0.114194  1
  Pt  Pt15  1  0.748553  0.861178  0.887375  1
  Pt  Pt16  1  0.025333  0.638640  0.386693  1
  Pt  Pt17  1  0.976078  0.363787  0.612291  1
  Pt  Pt18  1  0.498918  0.247939  0.747758  1
  Pt  Pt19  1  0.498918  0.751162  0.250980  1
