# generated using pymatgen
data_LiYb2ZnIr2
_symmetry_space_group_name_H-M   'P 1'
_cell_length_a   5.37424194
_cell_length_b   5.12312672
_cell_length_c   5.37424216
_cell_angle_alpha   60.12474926
_cell_angle_beta   61.94301984
_cell_angle_gamma   60.12474422
_symmetry_Int_Tables_number   1
_chemical_formula_structural   LiYb2ZnIr2
_chemical_formula_sum   'Li1 Yb2 Zn1 Ir2'
_cell_volume   106.28440751
_cell_formula_units_Z   1
loop_
 _symmetry_equiv_pos_site_id
 _symmetry_equiv_pos_as_xyz
  1  'x, y, z'
loop_
 _atom_site_type_symbol
 _atom_site_label
 _atom_site_symmetry_multiplicity
 _atom_site_fract_x
 _atom_site_fract_y
 _atom_site_fract_z
 _atom_site_occupancy
  Li  Li0  1  0.125000  0.125000  0.125000  1
  Yb  Yb1  1  0.508131  0.497670  0.508131  1
  Yb  Yb2  1  0.741869  0.752330  0.741869  1
  Zn  Zn3  1  0.125000  0.625000  0.125000  1
  Ir  Ir4  1  0.625000  0.125000  0.125000  1
  Ir  Ir5  1  0.125000  0.125000  0.625000  1
