# generated using pymatgen
data_Dy2Cr3Re14C3
_symmetry_space_group_name_H-M   'P 1'
_cell_length_a   6.94712375
_cell_length_b   6.94712431
_cell_length_c   6.94712310
_cell_angle_alpha   82.49987614
_cell_angle_beta   82.49987618
_cell_angle_gamma   82.49986925
_symmetry_Int_Tables_number   1
_chemical_formula_structural   Dy2Cr3Re14C3
_chemical_formula_sum   'Dy2 Cr3 Re14 C3'
_cell_volume   327.36920872
_cell_formula_units_Z   1
loop_
 _symmetry_equiv_pos_site_id
 _symmetry_equiv_pos_as_xyz
  1  'x, y, z'
loop_
 _atom_site_type_symbol
 _atom_site_label
 _atom_site_symmetry_multiplicity
 _atom_site_fract_x
 _atom_site_fract_y
 _atom_site_fract_z
 _atom_site_occupancy
  Dy  Dy0  1  0.649031  0.649031  0.649031  1
  Dy  Dy1  1  0.350969  0.350969  0.350969  1
  Cr  Cr2  1  0.000000  0.000000  0.500000  1
  Cr  Cr3  1  0.500000  0.000000  0.000000  1
  Cr  Cr4  1  0.000000  0.500000  0.000000  1
  Re  Re5  1  0.721233  0.278767  0.000000  1
  Re  Re6  1  0.000000  0.721233  0.278767  1
  Re  Re7  1  0.278767  0.000000  0.721233  1
  Re  Re8  1  0.000000  0.278767  0.721233  1
  Re  Re9  1  0.721233  0.000000  0.278767  1
  Re  Re10  1  0.278767  0.721233  0.000000  1
  Re  Re11  1  0.345793  0.345793  0.862536  1
  Re  Re12  1  0.862536  0.345793  0.345793  1
  Re  Re13  1  0.345793  0.862536  0.345793  1
  Re  Re14  1  0.654207  0.654207  0.137464  1
  Re  Re15  1  0.137464  0.654207  0.654207  1
  Re  Re16  1  0.654207  0.137464  0.654207  1
  Re  Re17  1  0.899952  0.899952  0.899952  1
  Re  Re18  1  0.100048  0.100048  0.100048  1
  C  C19  1  0.500000  0.500000  0.000000  1
  C  C20  1  0.000000  0.500000  0.500000  1
  C  C21  1  0.500000  0.000000  0.500000  1
