# generated using pymatgen
data_CeEr(GaNi4)2
_symmetry_space_group_name_H-M   'P 1'
_cell_length_a   4.05774400
_cell_length_b   5.01874400
_cell_length_c   8.31280500
_cell_angle_alpha   90.00000000
_cell_angle_beta   90.00000000
_cell_angle_gamma   90.00000000
_symmetry_Int_Tables_number   1
_chemical_formula_structural   CeEr(GaNi4)2
_chemical_formula_sum   'Ce1 Er1 Ga2 Ni8'
_cell_volume   169.28843132
_cell_formula_units_Z   1
loop_
 _symmetry_equiv_pos_site_id
 _symmetry_equiv_pos_as_xyz
  1  'x, y, z'
loop_
 _atom_site_type_symbol
 _atom_site_label
 _atom_site_symmetry_multiplicity
 _atom_site_fract_x
 _atom_site_fract_y
 _atom_site_fract_z
 _atom_site_occupancy
  Ce  Ce0  1  0.000000  0.500000  0.000000  1
  Er  Er1  1  0.000000  0.000000  0.500000  1
  Ga  Ga2  1  0.500000  0.500000  0.500000  1
  Ga  Ga3  1  0.500000  0.000000  0.000000  1
  Ni  Ni4  1  0.000000  0.500000  0.327823  1
  Ni  Ni5  1  0.000000  0.000000  0.832466  1
  Ni  Ni6  1  0.000000  0.000000  0.167534  1
  Ni  Ni7  1  0.000000  0.500000  0.672177  1
  Ni  Ni8  1  0.500000  0.752173  0.251786  1
  Ni  Ni9  1  0.500000  0.247827  0.748214  1
  Ni  Ni10  1  0.500000  0.247827  0.251786  1
  Ni  Ni11  1  0.500000  0.752173  0.748214  1
