# generated using pymatgen
data_Hf2Nb18Al9Au
_symmetry_space_group_name_H-M   'P 1'
_cell_length_a   10.02807300
_cell_length_b   10.03252556
_cell_length_c   5.24095700
_cell_angle_alpha   90.00000000
_cell_angle_beta   90.00000000
_cell_angle_gamma   89.23796601
_symmetry_Int_Tables_number   1
_chemical_formula_structural   Hf2Nb18Al9Au
_chemical_formula_sum   'Hf2 Nb18 Al9 Au1'
_cell_volume   527.22979583
_cell_formula_units_Z   1
loop_
 _symmetry_equiv_pos_site_id
 _symmetry_equiv_pos_as_xyz
  1  'x, y, z'
loop_
 _atom_site_type_symbol
 _atom_site_label
 _atom_site_symmetry_multiplicity
 _atom_site_fract_x
 _atom_site_fract_y
 _atom_site_fract_z
 _atom_site_occupancy
  Hf  Hf0  1  0.398569  0.398246  0.000000  1
  Hf  Hf1  1  0.899327  0.100529  0.500000  1
  Nb  Nb2  1  0.108885  0.890791  0.500000  1
  Nb  Nb3  1  0.604504  0.604253  0.000000  1
  Nb  Nb4  1  0.125019  0.465964  0.000000  1
  Nb  Nb5  1  0.965915  0.375422  0.500000  1
  Nb  Nb6  1  0.032753  0.630973  0.500000  1
  Nb  Nb7  1  0.872054  0.538312  0.000000  1
  Nb  Nb8  1  0.370055  0.964400  0.500000  1
  Nb  Nb9  1  0.626192  0.031180  0.500000  1
  Nb  Nb10  1  0.462331  0.123602  0.000000  1
  Nb  Nb11  1  0.535154  0.870653  0.000000  1
  Nb  Nb12  1  0.183517  0.184479  0.252520  1
  Nb  Nb13  1  0.682135  0.317969  0.752976  1
  Nb  Nb14  1  0.317895  0.681983  0.753242  1
  Nb  Nb15  1  0.815918  0.817099  0.252999  1
  Nb  Nb16  1  0.317895  0.681983  0.246758  1
  Nb  Nb17  1  0.682135  0.317969  0.247024  1
  Nb  Nb18  1  0.183517  0.184479  0.747480  1
  Nb  Nb19  1  0.815918  0.817099  0.747001  1
  Al  Al20  1  0.502381  0.502063  0.500000  1
  Al  Al21  1  0.260181  0.932600  0.000000  1
  Al  Al22  1  0.434939  0.236666  0.500000  1
  Al  Al23  1  0.566133  0.760759  0.500000  1
  Al  Al24  1  0.736594  0.065870  0.000000  1
  Al  Al25  1  0.237051  0.435607  0.500000  1
  Al  Al26  1  0.761310  0.566557  0.500000  1
  Al  Al27  1  0.933585  0.263701  0.000000  1
  Al  Al28  1  0.066775  0.739982  0.000000  1
  Au  Au29  1  0.001366  0.998810  0.000000  1
