# generated using pymatgen
data_Rb(NbTe2)3
_symmetry_space_group_name_H-M   'P 1'
_cell_length_a   6.47907300
_cell_length_b   6.47907428
_cell_length_c   19.44921000
_cell_angle_alpha   90.00000000
_cell_angle_beta   90.00000000
_cell_angle_gamma   119.99999857
_symmetry_Int_Tables_number   1
_chemical_formula_structural   Rb(NbTe2)3
_chemical_formula_sum   'Rb2 Nb6 Te12'
_cell_volume   707.06352766
_cell_formula_units_Z   2
loop_
 _symmetry_equiv_pos_site_id
 _symmetry_equiv_pos_as_xyz
  1  'x, y, z'
loop_
 _atom_site_type_symbol
 _atom_site_label
 _atom_site_symmetry_multiplicity
 _atom_site_fract_x
 _atom_site_fract_y
 _atom_site_fract_z
 _atom_site_occupancy
  Rb  Rb0  1  0.000000  0.000000  0.000000  1
  Rb  Rb1  1  0.000000  0.000000  0.500000  1
  Nb  Nb2  1  0.000000  0.000000  0.750000  1
  Nb  Nb3  1  0.000000  0.000000  0.250000  1
  Nb  Nb4  1  0.333333  0.666667  0.250000  1
  Nb  Nb5  1  0.666667  0.333333  0.750000  1
  Nb  Nb6  1  0.666667  0.333333  0.250000  1
  Nb  Nb7  1  0.333333  0.666667  0.750000  1
  Te  Te8  1  0.334638  0.000000  0.156587  1
  Te  Te9  1  0.000000  0.334638  0.156587  1
  Te  Te10  1  0.665362  0.665362  0.156587  1
  Te  Te11  1  0.334638  0.334638  0.656587  1
  Te  Te12  1  0.665362  0.665362  0.343413  1
  Te  Te13  1  0.665362  0.000000  0.656587  1
  Te  Te14  1  0.000000  0.665362  0.656587  1
  Te  Te15  1  0.000000  0.665362  0.843413  1
  Te  Te16  1  0.334638  0.334638  0.843413  1
  Te  Te17  1  0.000000  0.334638  0.343413  1
  Te  Te18  1  0.334638  0.000000  0.343413  1
  Te  Te19  1  0.665362  0.000000  0.843413  1
