# generated using pymatgen
data_Yb2Tm2TaOs7
_symmetry_space_group_name_H-M   'P 1'
_cell_length_a   5.41734300
_cell_length_b   5.41734218
_cell_length_c   8.59253800
_cell_angle_alpha   90.00000000
_cell_angle_beta   90.00000000
_cell_angle_gamma   119.99999891
_symmetry_Int_Tables_number   1
_chemical_formula_structural   Yb2Tm2TaOs7
_chemical_formula_sum   'Yb2 Tm2 Ta1 Os7'
_cell_volume   218.38595282
_cell_formula_units_Z   1
loop_
 _symmetry_equiv_pos_site_id
 _symmetry_equiv_pos_as_xyz
  1  'x, y, z'
loop_
 _atom_site_type_symbol
 _atom_site_label
 _atom_site_symmetry_multiplicity
 _atom_site_fract_x
 _atom_site_fract_y
 _atom_site_fract_z
 _atom_site_occupancy
  Yb  Yb0  1  0.666667  0.333333  0.941217  1
  Yb  Yb1  1  0.333333  0.666667  0.058783  1
  Tm  Tm2  1  0.333333  0.666667  0.422837  1
  Tm  Tm3  1  0.666667  0.333333  0.577163  1
  Ta  Ta4  1  0.000000  0.000000  0.500000  1
  Os  Os5  1  0.000000  0.000000  0.000000  1
  Os  Os6  1  0.826685  0.173315  0.251299  1
  Os  Os7  1  0.826685  0.653371  0.251299  1
  Os  Os8  1  0.346629  0.173315  0.251299  1
  Os  Os9  1  0.173315  0.826685  0.748701  1
  Os  Os10  1  0.173315  0.346629  0.748701  1
  Os  Os11  1  0.653371  0.826685  0.748701  1
