# generated using pymatgen
data_Zr3Mn(NiTe2)4
_symmetry_space_group_name_H-M   'P 1'
_cell_length_a   6.61944225
_cell_length_b   7.40832901
_cell_length_c   8.05490400
_cell_angle_alpha   90.00000000
_cell_angle_beta   90.00000000
_cell_angle_gamma   88.49013297
_symmetry_Int_Tables_number   1
_chemical_formula_structural   Zr3Mn(NiTe2)4
_chemical_formula_sum   'Zr3 Mn1 Ni4 Te8'
_cell_volume   394.86734159
_cell_formula_units_Z   1
loop_
 _symmetry_equiv_pos_site_id
 _symmetry_equiv_pos_as_xyz
  1  'x, y, z'
loop_
 _atom_site_type_symbol
 _atom_site_label
 _atom_site_symmetry_multiplicity
 _atom_site_fract_x
 _atom_site_fract_y
 _atom_site_fract_z
 _atom_site_occupancy
  Zr  Zr0  1  0.500000  0.000000  0.795700  1
  Zr  Zr1  1  0.000000  0.000000  0.705757  1
  Zr  Zr2  1  0.000000  0.000000  0.289947  1
  Mn  Mn3  1  0.500000  0.000000  0.200219  1
  Ni  Ni4  1  0.854954  0.879022  0.993053  1
  Ni  Ni5  1  0.650065  0.884648  0.493784  1
  Ni  Ni6  1  0.349935  0.115352  0.493784  1
  Ni  Ni7  1  0.145046  0.120978  0.993053  1
  Te  Te8  1  0.240617  0.786067  0.018067  1
  Te  Te9  1  0.735365  0.692168  0.242103  1
  Te  Te10  1  0.728961  0.221669  0.512442  1
  Te  Te11  1  0.759383  0.213933  0.018067  1
  Te  Te12  1  0.264635  0.307832  0.242103  1
  Te  Te13  1  0.242952  0.320868  0.744738  1
  Te  Te14  1  0.757048  0.679132  0.744738  1
  Te  Te15  1  0.271039  0.778331  0.512442  1
