# generated using pymatgen
data_HoTm4P12Ir10Ru9
_symmetry_space_group_name_H-M   'P 1'
_cell_length_a   12.61018908
_cell_length_b   12.61018960
_cell_length_c   3.93832700
_cell_angle_alpha   90.00000000
_cell_angle_beta   90.00000000
_cell_angle_gamma   119.98744121
_symmetry_Int_Tables_number   1
_chemical_formula_structural   HoTm4P12Ir10Ru9
_chemical_formula_sum   'Ho1 Tm4 P12 Ir10 Ru9'
_cell_volume   542.42608408
_cell_formula_units_Z   1
loop_
 _symmetry_equiv_pos_site_id
 _symmetry_equiv_pos_as_xyz
  1  'x, y, z'
loop_
 _atom_site_type_symbol
 _atom_site_label
 _atom_site_symmetry_multiplicity
 _atom_site_fract_x
 _atom_site_fract_y
 _atom_site_fract_z
 _atom_site_occupancy
  Ho  Ho0  1  0.187557  0.187557  0.000000  1
  Tm  Tm1  1  0.333348  0.666659  0.500000  1
  Tm  Tm2  1  0.666659  0.333348  0.500000  1
  Tm  Tm3  1  0.812437  0.999976  0.000000  1
  Tm  Tm4  1  0.999976  0.812437  0.000000  1
  P  P5  1  0.308542  0.827256  0.000000  1
  P  P6  1  0.172717  0.481220  0.000000  1
  P  P7  1  0.518787  0.691498  0.000000  1
  P  P8  1  0.827256  0.308542  0.000000  1
  P  P9  1  0.481220  0.172717  0.000000  1
  P  P10  1  0.691498  0.518787  0.000000  1
  P  P11  1  0.362372  0.362372  0.500000  1
  P  P12  1  0.637981  0.000003  0.500000  1
  P  P13  1  0.000003  0.637981  0.500000  1
  P  P14  1  0.819112  0.819112  0.500000  1
  P  P15  1  0.180737  0.999781  0.500000  1
  P  P16  1  0.999781  0.180737  0.500000  1
  Ir  Ir17  1  0.130644  0.636718  0.000000  1
  Ir  Ir18  1  0.363308  0.493935  0.000000  1
  Ir  Ir19  1  0.506129  0.869385  0.000000  1
  Ir  Ir20  1  0.636718  0.130644  0.000000  1
  Ir  Ir21  1  0.493935  0.363308  0.000000  1
  Ir  Ir22  1  0.869385  0.506129  0.000000  1
  Ir  Ir23  1  0.714067  0.714067  0.000000  1
  Ir  Ir24  1  0.286029  0.999851  0.000000  1
  Ir  Ir25  1  0.999851  0.286029  0.000000  1
  Ir  Ir26  1  0.999589  0.999589  0.500000  1
  Ru  Ru27  1  0.195436  0.818016  0.500000  1
  Ru  Ru28  1  0.181877  0.377840  0.500000  1
  Ru  Ru29  1  0.622588  0.804551  0.500000  1
  Ru  Ru30  1  0.818016  0.195436  0.500000  1
  Ru  Ru31  1  0.377840  0.181877  0.500000  1
  Ru  Ru32  1  0.804551  0.622588  0.500000  1
  Ru  Ru33  1  0.546787  0.546787  0.500000  1
  Ru  Ru34  1  0.453293  0.999974  0.500000  1
  Ru  Ru35  1  0.999974  0.453293  0.500000  1
