# generated using pymatgen
data_Tb2YIn3PdAu2
_symmetry_space_group_name_H-M   'P 1'
_cell_length_a   7.87322100
_cell_length_b   7.88095578
_cell_length_c   3.84783300
_cell_angle_alpha   90.00000000
_cell_angle_beta   90.00000000
_cell_angle_gamma   119.96754334
_symmetry_Int_Tables_number   1
_chemical_formula_structural   Tb2YIn3PdAu2
_chemical_formula_sum   'Tb2 Y1 In3 Pd1 Au2'
_cell_volume   206.83313976
_cell_formula_units_Z   1
loop_
 _symmetry_equiv_pos_site_id
 _symmetry_equiv_pos_as_xyz
  1  'x, y, z'
loop_
 _atom_site_type_symbol
 _atom_site_label
 _atom_site_symmetry_multiplicity
 _atom_site_fract_x
 _atom_site_fract_y
 _atom_site_fract_z
 _atom_site_occupancy
  Tb  Tb0  1  0.404965  0.404793  0.500000  1
  Tb  Tb1  1  0.000171  0.595207  0.500000  1
  Y  Y2  1  0.595142  0.000000  0.500000  1
  In  In3  1  0.743392  0.743400  0.000000  1
  In  In4  1  0.256735  0.000000  0.000000  1
  In  In5  1  0.999992  0.256600  0.000000  1
  Pd  Pd6  1  0.999883  0.000000  0.500000  1
  Au  Au7  1  0.666495  0.333268  0.000000  1
  Au  Au8  1  0.333226  0.666732  0.000000  1
