# generated using pymatgen
data_TbHo7(HgIr)2
_symmetry_space_group_name_H-M   'P 1'
_cell_length_a   9.56659376
_cell_length_b   9.56659356
_cell_length_c   9.56319400
_cell_angle_alpha   60.01176134
_cell_angle_beta   60.01176206
_cell_angle_gamma   59.97648601
_symmetry_Int_Tables_number   1
_chemical_formula_structural   TbHo7(HgIr)2
_chemical_formula_sum   'Tb2 Ho14 Hg4 Ir4'
_cell_volume   618.87443803
_cell_formula_units_Z   2
loop_
 _symmetry_equiv_pos_site_id
 _symmetry_equiv_pos_as_xyz
  1  'x, y, z'
loop_
 _atom_site_type_symbol
 _atom_site_label
 _atom_site_symmetry_multiplicity
 _atom_site_fract_x
 _atom_site_fract_y
 _atom_site_fract_z
 _atom_site_occupancy
  Tb  Tb0  1  0.937624  0.937624  0.562376  1
  Tb  Tb1  1  0.562376  0.562376  0.937624  1
  Ho  Ho2  1  0.690028  0.690028  0.309972  1
  Ho  Ho3  1  0.149458  0.552599  0.148972  1
  Ho  Ho4  1  0.689716  0.310284  0.689716  1
  Ho  Ho5  1  0.148972  0.148972  0.149458  1
  Ho  Ho6  1  0.552599  0.149458  0.148972  1
  Ho  Ho7  1  0.689716  0.310284  0.310284  1
  Ho  Ho8  1  0.148972  0.148972  0.552599  1
  Ho  Ho9  1  0.310284  0.689716  0.310284  1
  Ho  Ho10  1  0.310284  0.689716  0.689716  1
  Ho  Ho11  1  0.938828  0.561172  0.561172  1
  Ho  Ho12  1  0.938828  0.561172  0.938828  1
  Ho  Ho13  1  0.561172  0.938828  0.561172  1
  Ho  Ho14  1  0.561172  0.938828  0.938828  1
  Ho  Ho15  1  0.309972  0.309972  0.690028  1
  Hg  Hg16  1  0.914902  0.914902  0.254384  1
  Hg  Hg17  1  0.254384  0.915811  0.914902  1
  Hg  Hg18  1  0.914902  0.914902  0.915811  1
  Hg  Hg19  1  0.915811  0.254384  0.914902  1
  Ir  Ir20  1  0.357530  0.357530  0.926257  1
  Ir  Ir21  1  0.358681  0.926257  0.357530  1
  Ir  Ir22  1  0.926257  0.358681  0.357530  1
  Ir  Ir23  1  0.357530  0.357530  0.358681  1
