# generated using pymatgen
data_Pr5Hg4IrPt
_symmetry_space_group_name_H-M   'P 1'
_cell_length_a   3.84454000
_cell_length_b   8.26022838
_cell_length_c   18.54119707
_cell_angle_alpha   89.38416434
_cell_angle_beta   90.00000000
_cell_angle_gamma   90.00000000
_symmetry_Int_Tables_number   1
_chemical_formula_structural   Pr5Hg4IrPt
_chemical_formula_sum   'Pr10 Hg8 Ir2 Pt2'
_cell_volume   588.77467525
_cell_formula_units_Z   2
loop_
 _symmetry_equiv_pos_site_id
 _symmetry_equiv_pos_as_xyz
  1  'x, y, z'
loop_
 _atom_site_type_symbol
 _atom_site_label
 _atom_site_symmetry_multiplicity
 _atom_site_fract_x
 _atom_site_fract_y
 _atom_site_fract_z
 _atom_site_occupancy
  Pr  Pr0  1  0.000000  0.110395  0.410796  1
  Pr  Pr1  1  0.000000  0.889605  0.589204  1
  Pr  Pr2  1  0.000000  0.387183  0.912303  1
  Pr  Pr3  1  0.000000  0.612817  0.087697  1
  Pr  Pr4  1  0.000000  0.225994  0.216871  1
  Pr  Pr5  1  0.000000  0.774006  0.783129  1
  Pr  Pr6  1  0.000000  0.257637  0.716307  1
  Pr  Pr7  1  0.000000  0.742363  0.283693  1
  Pr  Pr8  1  0.000000  0.000000  0.000000  1
  Pr  Pr9  1  0.000000  0.500000  0.500000  1
  Hg  Hg10  1  0.500000  0.421231  0.354275  1
  Hg  Hg11  1  0.500000  0.578769  0.645725  1
  Hg  Hg12  1  0.500000  0.079792  0.853412  1
  Hg  Hg13  1  0.500000  0.920208  0.146588  1
  Hg  Hg14  1  0.500000  0.289570  0.063121  1
  Hg  Hg15  1  0.500000  0.710430  0.936879  1
  Hg  Hg16  1  0.500000  0.211452  0.563766  1
  Hg  Hg17  1  0.500000  0.788548  0.436234  1
  Ir  Ir18  1  0.500000  0.019269  0.302531  1
  Ir  Ir19  1  0.500000  0.980731  0.697469  1
  Pt  Pt20  1  0.500000  0.480975  0.800624  1
  Pt  Pt21  1  0.500000  0.519025  0.199376  1
