# generated using pymatgen
data_TbInTc2F14
_symmetry_space_group_name_H-M   'P 1'
_cell_length_a   5.55043494
_cell_length_b   8.80745866
_cell_length_c   11.93232939
_cell_angle_alpha   63.01448663
_cell_angle_beta   90.41590807
_cell_angle_gamma   89.93436603
_symmetry_Int_Tables_number   1
_chemical_formula_structural   TbInTc2F14
_chemical_formula_sum   'Tb2 In2 Tc4 F28'
_cell_volume   519.78392942
_cell_formula_units_Z   2
loop_
 _symmetry_equiv_pos_site_id
 _symmetry_equiv_pos_as_xyz
  1  'x, y, z'
loop_
 _atom_site_type_symbol
 _atom_site_label
 _atom_site_symmetry_multiplicity
 _atom_site_fract_x
 _atom_site_fract_y
 _atom_site_fract_z
 _atom_site_occupancy
  Tb  Tb0  1  0.758002  0.183518  0.235334  1
  Tb  Tb1  1  0.241998  0.816482  0.764666  1
  In  In2  1  0.263140  0.811779  0.264216  1
  In  In3  1  0.736860  0.188221  0.735784  1
  Tc  Tc4  1  0.759470  0.729171  0.046107  1
  Tc  Tc5  1  0.240530  0.270829  0.953893  1
  Tc  Tc6  1  0.258629  0.277184  0.458150  1
  Tc  Tc7  1  0.741371  0.722816  0.541850  1
  F  F8  1  0.945255  0.701554  0.417747  1
  F  F9  1  0.054745  0.298446  0.582253  1
  F  F10  1  0.446283  0.291663  0.079984  1
  F  F11  1  0.553717  0.708337  0.920016  1
  F  F12  1  0.471866  0.728416  0.142775  1
  F  F13  1  0.528134  0.271584  0.857225  1
  F  F14  1  0.975853  0.271698  0.360618  1
  F  F15  1  0.024147  0.728302  0.639382  1
  F  F16  1  0.962910  0.746443  0.177638  1
  F  F17  1  0.037090  0.253557  0.822362  1
  F  F18  1  0.456834  0.256599  0.328482  1
  F  F19  1  0.543166  0.743401  0.671518  1
  F  F20  1  0.772006  0.479605  0.142479  1
  F  F21  1  0.227994  0.520395  0.857521  1
  F  F22  1  0.272587  0.527439  0.356178  1
  F  F23  1  0.727413  0.472561  0.643822  1
  F  F24  1  0.950209  0.278461  0.045175  1
  F  F25  1  0.049791  0.721539  0.954825  1
  F  F26  1  0.441797  0.718660  0.452093  1
  F  F27  1  0.558203  0.281340  0.547907  1
  F  F28  1  0.742268  0.971025  0.447082  1
  F  F29  1  0.257732  0.028975  0.552918  1
  F  F30  1  0.240537  0.023899  0.048979  1
  F  F31  1  0.759463  0.976101  0.951021  1
  F  F32  1  0.576950  0.963105  0.231831  1
  F  F33  1  0.423050  0.036895  0.768169  1
  F  F34  1  0.088578  0.020063  0.269166  1
  F  F35  1  0.911422  0.979937  0.730834  1
