# generated using pymatgen
data_Zr10AlSb5C2
_symmetry_space_group_name_H-M   'P 1'
_cell_length_a   8.44154314
_cell_length_b   8.44154338
_cell_length_c   5.82326300
_cell_angle_alpha   90.00000000
_cell_angle_beta   90.00000000
_cell_angle_gamma   120.30623799
_symmetry_Int_Tables_number   1
_chemical_formula_structural   Zr10AlSb5C2
_chemical_formula_sum   'Zr10 Al1 Sb5 C2'
_cell_volume   358.25501529
_cell_formula_units_Z   1
loop_
 _symmetry_equiv_pos_site_id
 _symmetry_equiv_pos_as_xyz
  1  'x, y, z'
loop_
 _atom_site_type_symbol
 _atom_site_label
 _atom_site_symmetry_multiplicity
 _atom_site_fract_x
 _atom_site_fract_y
 _atom_site_fract_z
 _atom_site_occupancy
  Zr  Zr0  1  0.665926  0.334920  0.997544  1
  Zr  Zr1  1  0.334920  0.665926  0.997544  1
  Zr  Zr2  1  0.221163  0.001166  0.250000  1
  Zr  Zr3  1  0.001166  0.221163  0.250000  1
  Zr  Zr4  1  0.776795  0.776795  0.250000  1
  Zr  Zr5  1  0.665926  0.334920  0.502456  1
  Zr  Zr6  1  0.334920  0.665926  0.502456  1
  Zr  Zr7  1  0.776184  0.994063  0.750000  1
  Zr  Zr8  1  0.994063  0.776184  0.750000  1
  Zr  Zr9  1  0.225929  0.225929  0.750000  1
  Al  Al10  1  0.593006  0.593006  0.750000  1
  Sb  Sb11  1  0.597162  0.000184  0.250000  1
  Sb  Sb12  1  0.000184  0.597162  0.250000  1
  Sb  Sb13  1  0.411598  0.411598  0.250000  1
  Sb  Sb14  1  0.401177  0.999114  0.750000  1
  Sb  Sb15  1  0.999114  0.401177  0.750000  1
  C  C16  1  0.000384  0.000384  0.000021  1
  C  C17  1  0.000384  0.000384  0.499979  1
