# generated using pymatgen
data_BaAcCdAgSn2
_symmetry_space_group_name_H-M   'P 1'
_cell_length_a   5.00462400
_cell_length_b   5.00462528
_cell_length_c   8.78793000
_cell_angle_alpha   90.00000000
_cell_angle_beta   90.00000000
_cell_angle_gamma   119.99999153
_symmetry_Int_Tables_number   1
_chemical_formula_structural   BaAcCdAgSn2
_chemical_formula_sum   'Ba1 Ac1 Cd1 Ag1 Sn2'
_cell_volume   190.61640625
_cell_formula_units_Z   1
loop_
 _symmetry_equiv_pos_site_id
 _symmetry_equiv_pos_as_xyz
  1  'x, y, z'
loop_
 _atom_site_type_symbol
 _atom_site_label
 _atom_site_symmetry_multiplicity
 _atom_site_fract_x
 _atom_site_fract_y
 _atom_site_fract_z
 _atom_site_occupancy
  Ba  Ba0  1  0.000000  0.000000  0.259100  1
  Ac  Ac1  1  0.000000  0.000000  0.736438  1
  Cd  Cd2  1  0.333333  0.666667  0.017280  1
  Ag  Ag3  1  0.666667  0.333333  0.534753  1
  Sn  Sn4  1  0.666667  0.333333  0.952462  1
  Sn  Sn5  1  0.333333  0.666667  0.493967  1
