# generated using pymatgen
data_Y5Lu3(P3Ir4)4
_symmetry_space_group_name_H-M   'P 1'
_cell_length_a   12.93514000
_cell_length_b   12.93514014
_cell_length_c   3.99520700
_cell_angle_alpha   90.00000000
_cell_angle_beta   90.00000000
_cell_angle_gamma   119.99999965
_symmetry_Int_Tables_number   1
_chemical_formula_structural   Y5Lu3(P3Ir4)4
_chemical_formula_sum   'Y5 Lu3 P12 Ir16'
_cell_volume   578.91151868
_cell_formula_units_Z   1
loop_
 _symmetry_equiv_pos_site_id
 _symmetry_equiv_pos_as_xyz
  1  'x, y, z'
loop_
 _atom_site_type_symbol
 _atom_site_label
 _atom_site_symmetry_multiplicity
 _atom_site_fract_x
 _atom_site_fract_y
 _atom_site_fract_z
 _atom_site_occupancy
  Y  Y0  1  0.333333  0.666667  0.500000  1
  Y  Y1  1  0.666667  0.333333  0.500000  1
  Y  Y2  1  0.000000  0.814183  0.000000  1
  Y  Y3  1  0.185817  0.185817  0.000000  1
  Y  Y4  1  0.814183  0.000000  0.000000  1
  Lu  Lu5  1  0.000000  0.446317  0.500000  1
  Lu  Lu6  1  0.553683  0.553683  0.500000  1
  Lu  Lu7  1  0.446317  0.000000  0.500000  1
  P  P8  1  0.000000  0.651380  0.500000  1
  P  P9  1  0.348620  0.348620  0.500000  1
  P  P10  1  0.651380  0.000000  0.500000  1
  P  P11  1  0.516849  0.687893  0.000000  1
  P  P12  1  0.312107  0.828957  0.000000  1
  P  P13  1  0.171043  0.483151  0.000000  1
  P  P14  1  0.483151  0.171043  0.000000  1
  P  P15  1  0.687893  0.516849  0.000000  1
  P  P16  1  0.828957  0.312107  0.000000  1
  P  P17  1  0.000000  0.176705  0.500000  1
  P  P18  1  0.823295  0.823295  0.500000  1
  P  P19  1  0.176705  0.000000  0.500000  1
  Ir  Ir20  1  0.509575  0.866422  0.000000  1
  Ir  Ir21  1  0.133578  0.643154  0.000000  1
  Ir  Ir22  1  0.356846  0.490425  0.000000  1
  Ir  Ir23  1  0.490425  0.356846  0.000000  1
  Ir  Ir24  1  0.866422  0.509575  0.000000  1
  Ir  Ir25  1  0.643154  0.133578  0.000000  1
  Ir  Ir26  1  0.000000  0.276167  0.000000  1
  Ir  Ir27  1  0.723833  0.723833  0.000000  1
  Ir  Ir28  1  0.276167  0.000000  0.000000  1
  Ir  Ir29  1  0.629599  0.808181  0.500000  1
  Ir  Ir30  1  0.191819  0.821418  0.500000  1
  Ir  Ir31  1  0.178582  0.370401  0.500000  1
  Ir  Ir32  1  0.370401  0.178582  0.500000  1
  Ir  Ir33  1  0.808181  0.629599  0.500000  1
  Ir  Ir34  1  0.821418  0.191819  0.500000  1
  Ir  Ir35  1  0.000000  0.000000  0.500000  1
