# generated using pymatgen
data_Er2AlNiOs
_symmetry_space_group_name_H-M   'P 1'
_cell_length_a   5.44528851
_cell_length_b   5.44528838
_cell_length_c   5.44528900
_cell_angle_alpha   135.60935410
_cell_angle_beta   118.62620955
_cell_angle_gamma   78.83236269
_symmetry_Int_Tables_number   1
_chemical_formula_structural   Er2AlNiOs
_chemical_formula_sum   'Er2 Al1 Ni1 Os1'
_cell_volume   96.19191774
_cell_formula_units_Z   1
loop_
 _symmetry_equiv_pos_site_id
 _symmetry_equiv_pos_as_xyz
  1  'x, y, z'
loop_
 _atom_site_type_symbol
 _atom_site_label
 _atom_site_symmetry_multiplicity
 _atom_site_fract_x
 _atom_site_fract_y
 _atom_site_fract_z
 _atom_site_occupancy
  Er  Er0  1  0.695265  0.201355  0.493910  1
  Er  Er1  1  0.292555  0.798645  0.493910  1
  Al  Al2  1  0.999506  0.000000  0.999506  1
  Ni  Ni3  1  0.737732  0.500000  0.237732  1
  Os  Os4  1  0.274942  0.500000  0.774942  1
