# generated using pymatgen
data_EuFeCoC2
_symmetry_space_group_name_H-M   'P 1'
_cell_length_a   5.69225350
_cell_length_b   5.69225345
_cell_length_c   5.69225493
_cell_angle_alpha   144.99220741
_cell_angle_beta   144.99222496
_cell_angle_gamma   50.34612807
_symmetry_Int_Tables_number   1
_chemical_formula_structural   EuFeCoC2
_chemical_formula_sum   'Eu1 Fe1 Co1 C2'
_cell_volume   60.40113498
_cell_formula_units_Z   1
loop_
 _symmetry_equiv_pos_site_id
 _symmetry_equiv_pos_as_xyz
  1  'x, y, z'
loop_
 _atom_site_type_symbol
 _atom_site_label
 _atom_site_symmetry_multiplicity
 _atom_site_fract_x
 _atom_site_fract_y
 _atom_site_fract_z
 _atom_site_occupancy
  Eu  Eu0  1  0.000000  0.000000  0.000000  1
  Fe  Fe1  1  0.250000  0.750000  0.500000  1
  Co  Co2  1  0.750000  0.250000  0.500000  1
  C  C3  1  0.663719  0.663719  0.000000  1
  C  C4  1  0.336281  0.336281  0.000000  1
