# generated using pymatgen
data_YTm3(ZrPt)4
_symmetry_space_group_name_H-M   'P 1'
_cell_length_a   4.68282500
_cell_length_b   7.06645863
_cell_length_c   8.23472957
_cell_angle_alpha   90.02921352
_cell_angle_beta   90.00000000
_cell_angle_gamma   90.00000000
_symmetry_Int_Tables_number   1
_chemical_formula_structural   YTm3(ZrPt)4
_chemical_formula_sum   'Y1 Tm3 Zr4 Pt4'
_cell_volume   272.49531124
_cell_formula_units_Z   1
loop_
 _symmetry_equiv_pos_site_id
 _symmetry_equiv_pos_as_xyz
  1  'x, y, z'
loop_
 _atom_site_type_symbol
 _atom_site_label
 _atom_site_symmetry_multiplicity
 _atom_site_fract_x
 _atom_site_fract_y
 _atom_site_fract_z
 _atom_site_occupancy
  Y  Y0  1  0.750000  0.514849  0.820576  1
  Tm  Tm1  1  0.250000  0.984056  0.321220  1
  Tm  Tm2  1  0.250000  0.484211  0.178873  1
  Tm  Tm3  1  0.750000  0.015413  0.677898  1
  Zr  Zr4  1  0.250000  0.851470  0.920326  1
  Zr  Zr5  1  0.250000  0.350049  0.578670  1
  Zr  Zr6  1  0.750000  0.148905  0.081034  1
  Zr  Zr7  1  0.750000  0.649799  0.419257  1
  Pt  Pt8  1  0.250000  0.230970  0.906611  1
  Pt  Pt9  1  0.250000  0.733336  0.592850  1
  Pt  Pt10  1  0.750000  0.769202  0.096501  1
  Pt  Pt11  1  0.750000  0.267741  0.406183  1
