# generated using pymatgen
data_EuNi5AsP2
_symmetry_space_group_name_H-M   'P 1'
_cell_length_a   6.21052896
_cell_length_b   6.21052818
_cell_length_c   11.57775100
_cell_angle_alpha   90.00000000
_cell_angle_beta   90.00000000
_cell_angle_gamma   145.76767380
_symmetry_Int_Tables_number   1
_chemical_formula_structural   EuNi5AsP2
_chemical_formula_sum   'Eu2 Ni10 As2 P4'
_cell_volume   251.21317055
_cell_formula_units_Z   2
loop_
 _symmetry_equiv_pos_site_id
 _symmetry_equiv_pos_as_xyz
  1  'x, y, z'
loop_
 _atom_site_type_symbol
 _atom_site_label
 _atom_site_symmetry_multiplicity
 _atom_site_fract_x
 _atom_site_fract_y
 _atom_site_fract_z
 _atom_site_occupancy
  Eu  Eu0  1  0.160019  0.839981  0.250000  1
  Eu  Eu1  1  0.839981  0.160019  0.750000  1
  Ni  Ni2  1  0.198990  0.801010  0.940531  1
  Ni  Ni3  1  0.801010  0.198990  0.440531  1
  Ni  Ni4  1  0.000000  0.000000  0.000000  1
  Ni  Ni5  1  0.000000  0.000000  0.500000  1
  Ni  Ni6  1  0.544778  0.455222  0.642116  1
  Ni  Ni7  1  0.455222  0.544778  0.357884  1
  Ni  Ni8  1  0.455222  0.544778  0.142116  1
  Ni  Ni9  1  0.198990  0.801010  0.559469  1
  Ni  Ni10  1  0.801010  0.198990  0.059469  1
  Ni  Ni11  1  0.544778  0.455222  0.857884  1
  As  As12  1  0.119821  0.880179  0.750000  1
  As  As13  1  0.880179  0.119821  0.250000  1
  P  P14  1  0.618945  0.381055  0.461021  1
  P  P15  1  0.618945  0.381055  0.038979  1
  P  P16  1  0.381055  0.618945  0.961021  1
  P  P17  1  0.381055  0.618945  0.538979  1
