# generated using pymatgen
data_Yb6Y2PPd24
_symmetry_space_group_name_H-M   'P 1'
_cell_length_a   8.29103728
_cell_length_b   8.29103756
_cell_length_c   8.29103700
_cell_angle_alpha   89.98516992
_cell_angle_beta   90.01483008
_cell_angle_gamma   90.01483392
_symmetry_Int_Tables_number   1
_chemical_formula_structural   Yb6Y2PPd24
_chemical_formula_sum   'Yb6 Y2 P1 Pd24'
_cell_volume   569.93661642
_cell_formula_units_Z   1
loop_
 _symmetry_equiv_pos_site_id
 _symmetry_equiv_pos_as_xyz
  1  'x, y, z'
loop_
 _atom_site_type_symbol
 _atom_site_label
 _atom_site_symmetry_multiplicity
 _atom_site_fract_x
 _atom_site_fract_y
 _atom_site_fract_z
 _atom_site_occupancy
  Yb  Yb0  1  0.252924  0.252683  0.252683  1
  Yb  Yb1  1  0.747076  0.747317  0.747317  1
  Yb  Yb2  1  0.747317  0.747076  0.252683  1
  Yb  Yb3  1  0.747317  0.252683  0.747076  1
  Yb  Yb4  1  0.252683  0.252924  0.747317  1
  Yb  Yb5  1  0.252683  0.747317  0.252924  1
  Y  Y6  1  0.254219  0.745781  0.745781  1
  Y  Y7  1  0.745781  0.254219  0.254219  1
  P  P8  1  0.000000  0.000000  0.000000  1
  Pd  Pd9  1  0.255443  0.499770  0.000781  1
  Pd  Pd10  1  0.744557  0.500230  0.999219  1
  Pd  Pd11  1  0.000781  0.255443  0.500230  1
  Pd  Pd12  1  0.499770  0.255443  0.999219  1
  Pd  Pd13  1  0.999219  0.744557  0.499770  1
  Pd  Pd14  1  0.500230  0.744557  0.000781  1
  Pd  Pd15  1  0.499770  0.999219  0.255443  1
  Pd  Pd16  1  0.255443  0.000781  0.499770  1
  Pd  Pd17  1  0.500230  0.000781  0.744557  1
  Pd  Pd18  1  0.744557  0.999219  0.500230  1
  Pd  Pd19  1  0.000781  0.500230  0.255443  1
  Pd  Pd20  1  0.999219  0.499770  0.744557  1
  Pd  Pd21  1  0.251461  0.498824  0.498824  1
  Pd  Pd22  1  0.748539  0.501176  0.501176  1
  Pd  Pd23  1  0.498824  0.251461  0.501176  1
  Pd  Pd24  1  0.501176  0.748539  0.498824  1
  Pd  Pd25  1  0.498824  0.501176  0.251461  1
  Pd  Pd26  1  0.501176  0.498824  0.748539  1
  Pd  Pd27  1  0.275228  0.001073  0.001073  1
  Pd  Pd28  1  0.724772  0.998927  0.998927  1
  Pd  Pd29  1  0.001073  0.275228  0.998927  1
  Pd  Pd30  1  0.998927  0.724772  0.001073  1
  Pd  Pd31  1  0.001073  0.998927  0.275228  1
  Pd  Pd32  1  0.998927  0.001073  0.724772  1
