# generated using pymatgen
data_Tb7Th(AlIr)2
_symmetry_space_group_name_H-M   'P 1'
_cell_length_a   9.65732862
_cell_length_b   9.65732277
_cell_length_c   9.63265600
_cell_angle_alpha   60.08470795
_cell_angle_beta   60.08464975
_cell_angle_gamma   60.31130187
_symmetry_Int_Tables_number   1
_chemical_formula_structural   Tb7Th(AlIr)2
_chemical_formula_sum   'Tb14 Th2 Al4 Ir4'
_cell_volume   637.54882996
_cell_formula_units_Z   2
loop_
 _symmetry_equiv_pos_site_id
 _symmetry_equiv_pos_as_xyz
  1  'x, y, z'
loop_
 _atom_site_type_symbol
 _atom_site_label
 _atom_site_symmetry_multiplicity
 _atom_site_fract_x
 _atom_site_fract_y
 _atom_site_fract_z
 _atom_site_occupancy
  Tb  Tb0  1  0.604708  0.191046  0.602124  1
  Tb  Tb1  1  0.191047  0.604709  0.602123  1
  Tb  Tb2  1  0.058450  0.443818  0.441626  1
  Tb  Tb3  1  0.443819  0.058446  0.056100  1
  Tb  Tb4  1  0.443818  0.058450  0.441625  1
  Tb  Tb5  1  0.058445  0.443819  0.056101  1
  Tb  Tb6  1  0.440710  0.440709  0.059292  1
  Tb  Tb7  1  0.056518  0.056518  0.443484  1
  Tb  Tb8  1  0.188421  0.814211  0.811938  1
  Tb  Tb9  1  0.814210  0.188416  0.185432  1
  Tb  Tb10  1  0.814212  0.188420  0.811938  1
  Tb  Tb11  1  0.188415  0.814210  0.185433  1
  Tb  Tb12  1  0.813946  0.813944  0.186056  1
  Tb  Tb13  1  0.191791  0.191791  0.808197  1
  Th  Th14  1  0.597684  0.597687  0.601010  1
  Th  Th15  1  0.597681  0.597680  0.203631  1
  Al  Al16  1  0.827623  0.827622  0.827940  1
  Al  Al17  1  0.827623  0.827622  0.516821  1
  Al  Al18  1  0.826609  0.516676  0.828362  1
  Al  Al19  1  0.516676  0.826609  0.828362  1
  Ir  Ir20  1  0.390606  0.390608  0.396235  1
  Ir  Ir21  1  0.390611  0.390610  0.822552  1
  Ir  Ir22  1  0.393694  0.822684  0.391811  1
  Ir  Ir23  1  0.822685  0.393694  0.391810  1
