# generated using pymatgen
data_Ca8Si6Pd5Pt3
_symmetry_space_group_name_H-M   'P 1'
_cell_length_a   10.80789554
_cell_length_b   10.82902097
_cell_length_c   7.79274552
_cell_angle_alpha   71.82524492
_cell_angle_beta   71.74521693
_cell_angle_gamma   31.09522153
_symmetry_Int_Tables_number   1
_chemical_formula_structural   Ca8Si6Pd5Pt3
_chemical_formula_sum   'Ca8 Si6 Pd5 Pt3'
_cell_volume   445.55759773
_cell_formula_units_Z   1
loop_
 _symmetry_equiv_pos_site_id
 _symmetry_equiv_pos_as_xyz
  1  'x, y, z'
loop_
 _atom_site_type_symbol
 _atom_site_label
 _atom_site_symmetry_multiplicity
 _atom_site_fract_x
 _atom_site_fract_y
 _atom_site_fract_z
 _atom_site_occupancy
  Ca  Ca0  1  0.934708  0.201126  0.326564  1
  Ca  Ca1  1  0.068564  0.795280  0.670673  1
  Ca  Ca2  1  0.799365  0.064821  0.171918  1
  Ca  Ca3  1  0.454963  0.206019  0.908099  1
  Ca  Ca4  1  0.791684  0.547661  0.592428  1
  Ca  Ca5  1  0.206717  0.454308  0.407773  1
  Ca  Ca6  1  0.201953  0.934315  0.828284  1
  Ca  Ca7  1  0.543831  0.794882  0.092878  1
  Si  Si8  1  0.302058  0.041803  0.433330  1
  Si  Si9  1  0.398145  0.599505  0.249578  1
  Si  Si10  1  0.033864  0.307446  0.933359  1
  Si  Si11  1  0.694209  0.964959  0.566120  1
  Si  Si12  1  0.965320  0.693652  0.065988  1
  Si  Si13  1  0.604304  0.393417  0.752925  1
  Pd  Pd14  1  0.421865  0.701518  0.472402  1
  Pd  Pd15  1  0.644000  0.912656  0.319565  1
  Pd  Pd16  1  0.910978  0.644933  0.820050  1
  Pd  Pd17  1  0.356961  0.087573  0.680987  1
  Pd  Pd18  1  0.085215  0.359004  0.179562  1
  Pt  Pt19  1  0.581393  0.295597  0.528285  1
  Pt  Pt20  1  0.703579  0.420932  0.971225  1
  Pt  Pt21  1  0.296325  0.578594  0.028006  1
