# generated using pymatgen
data_Li2SiNi9(P2Ru)3
_symmetry_space_group_name_H-M   'P 1'
_cell_length_a   9.08306400
_cell_length_b   9.08306349
_cell_length_c   3.58272700
_cell_angle_alpha   90.00000000
_cell_angle_beta   90.00000000
_cell_angle_gamma   120.00000915
_symmetry_Int_Tables_number   1
_chemical_formula_structural   Li2SiNi9(P2Ru)3
_chemical_formula_sum   'Li2 Si1 Ni9 P6 Ru3'
_cell_volume   255.98176688
_cell_formula_units_Z   1
loop_
 _symmetry_equiv_pos_site_id
 _symmetry_equiv_pos_as_xyz
  1  'x, y, z'
loop_
 _atom_site_type_symbol
 _atom_site_label
 _atom_site_symmetry_multiplicity
 _atom_site_fract_x
 _atom_site_fract_y
 _atom_site_fract_z
 _atom_site_occupancy
  Li  Li0  1  0.333333  0.666667  0.000000  1
  Li  Li1  1  0.666667  0.333333  0.500000  1
  Si  Si2  1  0.000000  0.000000  0.000000  1
  Ni  Ni3  1  0.706313  0.874312  0.000000  1
  Ni  Ni4  1  0.168000  0.293687  0.000000  1
  Ni  Ni5  1  0.125688  0.832000  0.000000  1
  Ni  Ni6  1  0.623747  0.560448  0.000000  1
  Ni  Ni7  1  0.936701  0.376253  0.000000  1
  Ni  Ni8  1  0.439552  0.063299  0.000000  1
  Ni  Ni9  1  0.557027  0.945115  0.500000  1
  Ni  Ni10  1  0.388088  0.442973  0.500000  1
  Ni  Ni11  1  0.054885  0.611912  0.500000  1
  P  P12  1  0.586139  0.709290  0.500000  1
  P  P13  1  0.123150  0.413861  0.500000  1
  P  P14  1  0.290710  0.876850  0.500000  1
  P  P15  1  0.877495  0.584183  0.000000  1
  P  P16  1  0.706688  0.122505  0.000000  1
  P  P17  1  0.415817  0.293312  0.000000  1
  Ru  Ru18  1  0.874053  0.778927  0.500000  1
  Ru  Ru19  1  0.904873  0.125947  0.500000  1
  Ru  Ru20  1  0.221073  0.095127  0.500000  1
