# generated using pymatgen
data_MnSe8I3
_symmetry_space_group_name_H-M   'P 1'
_cell_length_a   9.38451009
_cell_length_b   10.72782882
_cell_length_c   12.28344594
_cell_angle_alpha   82.90817825
_cell_angle_beta   120.65315056
_cell_angle_gamma   106.87791405
_symmetry_Int_Tables_number   1
_chemical_formula_structural   MnSe8I3
_chemical_formula_sum   'Mn2 Se16 I6'
_cell_volume   1017.56671789
_cell_formula_units_Z   2
loop_
 _symmetry_equiv_pos_site_id
 _symmetry_equiv_pos_as_xyz
  1  'x, y, z'
loop_
 _atom_site_type_symbol
 _atom_site_label
 _atom_site_symmetry_multiplicity
 _atom_site_fract_x
 _atom_site_fract_y
 _atom_site_fract_z
 _atom_site_occupancy
  Mn  Mn0  1  0.816703  0.012316  0.830459  1
  Mn  Mn1  1  0.183297  0.987684  0.169541  1
  Se  Se2  1  0.878813  0.479386  0.834037  1
  Se  Se3  1  0.121187  0.520614  0.165963  1
  Se  Se4  1  0.684494  0.362101  0.643808  1
  Se  Se5  1  0.315506  0.637899  0.356192  1
  Se  Se6  1  0.740554  0.156750  0.634572  1
  Se  Se7  1  0.259446  0.843250  0.365428  1
  Se  Se8  1  0.930284  0.203106  0.546489  1
  Se  Se9  1  0.069716  0.796894  0.453511  1
  Se  Se10  1  0.916959  0.351627  0.194863  1
  Se  Se11  1  0.083041  0.648373  0.805137  1
  Se  Se12  1  0.667497  0.424577  0.117815  1
  Se  Se13  1  0.332503  0.575423  0.882185  1
  Se  Se14  1  0.682526  0.500960  0.296022  1
  Se  Se15  1  0.317474  0.499040  0.703978  1
  Se  Se16  1  0.778543  0.731383  0.304266  1
  Se  Se17  1  0.221457  0.268617  0.695734  1
  I  I18  1  0.553693  0.056260  0.822377  1
  I  I19  1  0.446307  0.943740  0.177623  1
  I  I20  1  0.858780  0.837988  0.012232  1
  I  I21  1  0.141220  0.162012  0.987768  1
  I  I22  1  0.783391  0.850858  0.670229  1
  I  I23  1  0.216609  0.149142  0.329771  1
