# generated using pymatgen
data_Zr3Ti3GeBSe
_symmetry_space_group_name_H-M   'P 1'
_cell_length_a   6.97809700
_cell_length_b   6.97809751
_cell_length_c   3.62072200
_cell_angle_alpha   90.00000000
_cell_angle_beta   90.00000000
_cell_angle_gamma   120.00001178
_symmetry_Int_Tables_number   1
_chemical_formula_structural   Zr3Ti3GeBSe
_chemical_formula_sum   'Zr3 Ti3 Ge1 B1 Se1'
_cell_volume   152.68620372
_cell_formula_units_Z   1
loop_
 _symmetry_equiv_pos_site_id
 _symmetry_equiv_pos_as_xyz
  1  'x, y, z'
loop_
 _atom_site_type_symbol
 _atom_site_label
 _atom_site_symmetry_multiplicity
 _atom_site_fract_x
 _atom_site_fract_y
 _atom_site_fract_z
 _atom_site_occupancy
  Zr  Zr0  1  0.998637  0.394135  0.500000  1
  Zr  Zr1  1  0.605865  0.604503  0.500000  1
  Zr  Zr2  1  0.395497  0.001363  0.500000  1
  Ti  Ti3  1  0.997096  0.770643  0.000000  1
  Ti  Ti4  1  0.229357  0.226453  0.000000  1
  Ti  Ti5  1  0.773547  0.002904  0.000000  1
  Ge  Ge6  1  0.666667  0.333333  0.000000  1
  B  B7  1  0.000000  0.000000  0.500000  1
  Se  Se8  1  0.333333  0.666667  0.000000  1
