# generated using pymatgen
data_Rb2LaU(AuSe3)2
_symmetry_space_group_name_H-M   'P 1'
_cell_length_a   4.29844300
_cell_length_b   8.00260450
_cell_length_c   11.00749889
_cell_angle_alpha   89.60757098
_cell_angle_beta   90.00000000
_cell_angle_gamma   74.42108743
_symmetry_Int_Tables_number   1
_chemical_formula_structural   Rb2LaU(AuSe3)2
_chemical_formula_sum   'Rb2 La1 U1 Au2 Se6'
_cell_volume   364.72403994
_cell_formula_units_Z   1
loop_
 _symmetry_equiv_pos_site_id
 _symmetry_equiv_pos_as_xyz
  1  'x, y, z'
loop_
 _atom_site_type_symbol
 _atom_site_label
 _atom_site_symmetry_multiplicity
 _atom_site_fract_x
 _atom_site_fract_y
 _atom_site_fract_z
 _atom_site_occupancy
  Rb  Rb0  1  0.251340  0.497319  0.240617  1
  Rb  Rb1  1  0.748660  0.502680  0.759384  1
  La  La2  1  0.000000  0.000000  0.000000  1
  U  U3  1  0.000000  0.000000  0.500000  1
  Au  Au4  1  0.543594  0.912812  0.249234  1
  Au  Au5  1  0.456406  0.087187  0.750766  1
  Se  Se6  1  0.631300  0.737400  0.053355  1
  Se  Se7  1  0.935422  0.129157  0.266974  1
  Se  Se8  1  0.617570  0.764857  0.462384  1
  Se  Se9  1  0.382430  0.235142  0.537616  1
  Se  Se10  1  0.064578  0.870844  0.733026  1
  Se  Se11  1  0.368700  0.262600  0.946645  1
