# generated using pymatgen
data_Tb3Hf(P3Ir4)2
_symmetry_space_group_name_H-M   'P 1'
_cell_length_a   4.00534800
_cell_length_b   11.22065700
_cell_length_c   12.92648600
_cell_angle_alpha   90.00000000
_cell_angle_beta   90.00000000
_cell_angle_gamma   90.00000000
_symmetry_Int_Tables_number   1
_chemical_formula_structural   Tb3Hf(P3Ir4)2
_chemical_formula_sum   'Tb6 Hf2 P12 Ir16'
_cell_volume   580.95035601
_cell_formula_units_Z   2
loop_
 _symmetry_equiv_pos_site_id
 _symmetry_equiv_pos_as_xyz
  1  'x, y, z'
loop_
 _atom_site_type_symbol
 _atom_site_label
 _atom_site_symmetry_multiplicity
 _atom_site_fract_x
 _atom_site_fract_y
 _atom_site_fract_z
 _atom_site_occupancy
  Tb  Tb0  1  0.000000  0.500000  0.522732  1
  Tb  Tb1  1  0.500000  0.000000  0.477268  1
  Tb  Tb2  1  0.500000  0.820226  0.202748  1
  Tb  Tb3  1  0.500000  0.179774  0.202748  1
  Tb  Tb4  1  0.000000  0.679774  0.797252  1
  Tb  Tb5  1  0.000000  0.320226  0.797252  1
  Hf  Hf6  1  0.500000  0.500000  0.158675  1
  Hf  Hf7  1  0.000000  0.000000  0.841325  1
  P  P8  1  0.500000  0.500000  0.876961  1
  P  P9  1  0.000000  0.000000  0.123039  1
  P  P10  1  0.500000  0.500000  0.359563  1
  P  P11  1  0.000000  0.000000  0.640437  1
  P  P12  1  0.500000  0.313309  0.616973  1
  P  P13  1  0.500000  0.686691  0.616973  1
  P  P14  1  0.000000  0.186691  0.383027  1
  P  P15  1  0.000000  0.813309  0.383027  1
  P  P16  1  0.500000  0.842448  0.887205  1
  P  P17  1  0.500000  0.157552  0.887205  1
  P  P18  1  0.000000  0.657552  0.112795  1
  P  P19  1  0.000000  0.342448  0.112795  1
  Ir  Ir20  1  0.500000  0.500000  0.699011  1
  Ir  Ir21  1  0.000000  0.000000  0.300989  1
  Ir  Ir22  1  0.000000  0.500000  0.991157  1
  Ir  Ir23  1  0.500000  0.000000  0.008843  1
  Ir  Ir24  1  0.500000  0.331136  0.983485  1
  Ir  Ir25  1  0.500000  0.668864  0.983485  1
  Ir  Ir26  1  0.000000  0.168864  0.016515  1
  Ir  Ir27  1  0.000000  0.831136  0.016515  1
  Ir  Ir28  1  0.500000  0.293802  0.431963  1
  Ir  Ir29  1  0.500000  0.706198  0.431963  1
  Ir  Ir30  1  0.000000  0.206198  0.568037  1
  Ir  Ir31  1  0.000000  0.793802  0.568037  1
  Ir  Ir32  1  0.500000  0.871840  0.709001  1
  Ir  Ir33  1  0.500000  0.128160  0.709001  1
  Ir  Ir34  1  0.000000  0.628160  0.290999  1
  Ir  Ir35  1  0.000000  0.371840  0.290999  1
