# generated using pymatgen
data_Nb3Cr8Si10W
_symmetry_space_group_name_H-M   'P 1'
_cell_length_a   9.04187156
_cell_length_b   9.04187064
_cell_length_c   9.04319030
_cell_angle_alpha   131.03901320
_cell_angle_beta   59.17480315
_cell_angle_gamma   148.85118806
_symmetry_Int_Tables_number   1
_chemical_formula_structural   Nb3Cr8Si10W
_chemical_formula_sum   'Nb3 Cr8 Si10 W1'
_cell_volume   286.12073125
_cell_formula_units_Z   1
loop_
 _symmetry_equiv_pos_site_id
 _symmetry_equiv_pos_as_xyz
  1  'x, y, z'
loop_
 _atom_site_type_symbol
 _atom_site_label
 _atom_site_symmetry_multiplicity
 _atom_site_fract_x
 _atom_site_fract_y
 _atom_site_fract_z
 _atom_site_occupancy
  Nb  Nb0  1  0.858416  0.878796  0.737209  1
  Nb  Nb1  1  0.358137  0.619225  0.977362  1
  Nb  Nb2  1  0.641639  0.380552  0.022188  1
  Cr  Cr3  1  0.557628  0.250419  0.306823  1
  Cr  Cr4  1  0.941883  0.249881  0.693187  1
  Cr  Cr5  1  0.443308  0.751306  0.693188  1
  Cr  Cr6  1  0.056405  0.749196  0.306823  1
  Cr  Cr7  1  0.439665  0.245217  0.684881  1
  Cr  Cr8  1  0.560719  0.756100  0.316817  1
  Cr  Cr9  1  0.060389  0.743753  0.804142  1
  Cr  Cr10  1  0.939763  0.255448  0.195209  1
  Si  Si11  1  0.065812  0.418691  0.484503  1
  Si  Si12  1  0.935167  0.576209  0.511375  1
  Si  Si13  1  0.434643  0.923157  0.357797  1
  Si  Si14  1  0.564718  0.077453  0.642171  1
  Si  Si15  1  0.287173  0.289995  0.577168  1
  Si  Si16  1  0.711080  0.707057  0.418135  1
  Si  Si17  1  0.210900  0.795824  0.006722  1
  Si  Si18  1  0.788442  0.207509  0.995950  1
  Si  Si19  1  0.250326  0.250161  0.002076  1
  Si  Si20  1  0.751914  0.751750  0.002076  1
  W  W21  1  0.141884  0.122316  0.264200  1
