# generated using pymatgen
data_Tb6InHg7
_symmetry_space_group_name_H-M   'P 1'
_cell_length_a   8.31675802
_cell_length_b   8.31675740
_cell_length_c   8.31675806
_cell_angle_alpha   113.53273850
_cell_angle_beta   113.53273086
_cell_angle_gamma   113.53273468
_symmetry_Int_Tables_number   1
_chemical_formula_structural   Tb6InHg7
_chemical_formula_sum   'Tb6 In1 Hg7'
_cell_volume   361.28727778
_cell_formula_units_Z   1
loop_
 _symmetry_equiv_pos_site_id
 _symmetry_equiv_pos_as_xyz
  1  'x, y, z'
loop_
 _atom_site_type_symbol
 _atom_site_label
 _atom_site_symmetry_multiplicity
 _atom_site_fract_x
 _atom_site_fract_y
 _atom_site_fract_z
 _atom_site_occupancy
  Tb  Tb0  1  0.999490  0.260607  0.392850  1
  Tb  Tb1  1  0.260607  0.392850  0.999490  1
  Tb  Tb2  1  0.392850  0.999490  0.260607  1
  Tb  Tb3  1  0.000510  0.739393  0.607150  1
  Tb  Tb4  1  0.739393  0.607150  0.000510  1
  Tb  Tb5  1  0.607150  0.000510  0.739393  1
  In  In6  1  0.500000  0.500000  0.500000  1
  Hg  Hg7  1  0.000000  0.000000  0.000000  1
  Hg  Hg8  1  0.094867  0.563394  0.250586  1
  Hg  Hg9  1  0.563394  0.250586  0.094867  1
  Hg  Hg10  1  0.250586  0.094867  0.563394  1
  Hg  Hg11  1  0.905133  0.436606  0.749414  1
  Hg  Hg12  1  0.436606  0.749414  0.905133  1
  Hg  Hg13  1  0.749414  0.905133  0.436606  1
