# generated using pymatgen
data_Nd12InCo4Rh
_symmetry_space_group_name_H-M   'P 1'
_cell_length_a   8.62517834
_cell_length_b   8.62517833
_cell_length_c   8.62517800
_cell_angle_alpha   110.77642508
_cell_angle_beta   110.12784340
_cell_angle_gamma   107.52739444
_symmetry_Int_Tables_number   1
_chemical_formula_structural   Nd12InCo4Rh
_chemical_formula_sum   'Nd12 In1 Co4 Rh1'
_cell_volume   493.50823833
_cell_formula_units_Z   1
loop_
 _symmetry_equiv_pos_site_id
 _symmetry_equiv_pos_as_xyz
  1  'x, y, z'
loop_
 _atom_site_type_symbol
 _atom_site_label
 _atom_site_symmetry_multiplicity
 _atom_site_fract_x
 _atom_site_fract_y
 _atom_site_fract_z
 _atom_site_occupancy
  Nd  Nd0  1  0.396217  0.204129  0.192087  1
  Nd  Nd1  1  0.603783  0.795871  0.807913  1
  Nd  Nd2  1  0.012043  0.204129  0.807913  1
  Nd  Nd3  1  0.987957  0.795871  0.192087  1
  Nd  Nd4  1  0.185880  0.299604  0.485484  1
  Nd  Nd5  1  0.814120  0.700396  0.514516  1
  Nd  Nd6  1  0.185880  0.700396  0.886277  1
  Nd  Nd7  1  0.814120  0.299604  0.113723  1
  Nd  Nd8  1  0.316469  0.624029  0.307559  1
  Nd  Nd9  1  0.683531  0.375971  0.692441  1
  Nd  Nd10  1  0.316469  0.008911  0.692441  1
  Nd  Nd11  1  0.683531  0.991089  0.307559  1
  In  In12  1  0.500000  0.500000  0.000000  1
  Co  Co13  1  0.380558  0.000000  0.380558  1
  Co  Co14  1  0.619442  0.000000  0.619442  1
  Co  Co15  1  0.111881  0.611881  0.500000  1
  Co  Co16  1  0.888119  0.388119  0.500000  1
  Rh  Rh17  1  0.000000  0.000000  0.000000  1
