# generated using pymatgen
data_Hf3Nb(InRh5)2
_symmetry_space_group_name_H-M   'P 1'
_cell_length_a   4.13088500
_cell_length_b   5.60217558
_cell_length_c   11.14348859
_cell_angle_alpha   89.67523731
_cell_angle_beta   90.00000000
_cell_angle_gamma   90.00000000
_symmetry_Int_Tables_number   1
_chemical_formula_structural   Hf3Nb(InRh5)2
_chemical_formula_sum   'Hf3 Nb1 In2 Rh10'
_cell_volume   257.87783594
_cell_formula_units_Z   1
loop_
 _symmetry_equiv_pos_site_id
 _symmetry_equiv_pos_as_xyz
  1  'x, y, z'
loop_
 _atom_site_type_symbol
 _atom_site_label
 _atom_site_symmetry_multiplicity
 _atom_site_fract_x
 _atom_site_fract_y
 _atom_site_fract_z
 _atom_site_occupancy
  Hf  Hf0  1  0.500000  0.807151  0.359265  1
  Hf  Hf1  1  0.500000  0.688394  0.862150  1
  Hf  Hf2  1  0.500000  0.308830  0.141308  1
  Nb  Nb3  1  0.500000  0.187042  0.640134  1
  In  In4  1  0.000000  0.500777  0.501839  1
  In  In5  1  0.000000  0.000591  0.999226  1
  Rh  Rh6  1  0.500000  0.209919  0.876758  1
  Rh  Rh7  1  0.500000  0.788352  0.117730  1
  Rh  Rh8  1  0.500000  0.719948  0.618854  1
  Rh  Rh9  1  0.500000  0.286127  0.384973  1
  Rh  Rh10  1  0.000000  0.445412  0.748096  1
  Rh  Rh11  1  0.000000  0.550309  0.250314  1
  Rh  Rh12  1  0.000000  0.004480  0.502374  1
  Rh  Rh13  1  0.000000  0.498976  0.999186  1
  Rh  Rh14  1  0.000000  0.050618  0.251268  1
  Rh  Rh15  1  0.000000  0.953073  0.746525  1
