# generated using pymatgen
data_Tb6Ho3Tm7(In3Co)2
_symmetry_space_group_name_H-M   'P 1'
_cell_length_a   10.30267400
_cell_length_b   10.30267364
_cell_length_c   7.02982600
_cell_angle_alpha   90.00000000
_cell_angle_beta   90.00000000
_cell_angle_gamma   120.00000114
_symmetry_Int_Tables_number   1
_chemical_formula_structural   Tb6Ho3Tm7(In3Co)2
_chemical_formula_sum   'Tb6 Ho3 Tm7 In6 Co2'
_cell_volume   646.21212616
_cell_formula_units_Z   1
loop_
 _symmetry_equiv_pos_site_id
 _symmetry_equiv_pos_as_xyz
  1  'x, y, z'
loop_
 _atom_site_type_symbol
 _atom_site_label
 _atom_site_symmetry_multiplicity
 _atom_site_fract_x
 _atom_site_fract_y
 _atom_site_fract_z
 _atom_site_occupancy
  Tb  Tb0  1  0.534864  0.069728  0.504392  1
  Tb  Tb1  1  0.930272  0.465136  0.504392  1
  Tb  Tb2  1  0.534864  0.465136  0.504392  1
  Tb  Tb3  1  0.465486  0.930972  0.003974  1
  Tb  Tb4  1  0.069028  0.534514  0.003974  1
  Tb  Tb5  1  0.465486  0.534514  0.003974  1
  Ho  Ho6  1  0.333333  0.666667  0.397042  1
  Ho  Ho7  1  0.000000  0.000000  0.493390  1
  Ho  Ho8  1  0.000000  0.000000  0.993993  1
  Tm  Tm9  1  0.178272  0.356544  0.712039  1
  Tm  Tm10  1  0.643456  0.821728  0.712039  1
  Tm  Tm11  1  0.178272  0.821728  0.712039  1
  Tm  Tm12  1  0.821360  0.642721  0.211214  1
  Tm  Tm13  1  0.357279  0.178640  0.211214  1
  Tm  Tm14  1  0.821360  0.178640  0.211214  1
  Tm  Tm15  1  0.666667  0.333333  0.898767  1
  In  In16  1  0.837236  0.674472  0.753831  1
  In  In17  1  0.325528  0.162764  0.753831  1
  In  In18  1  0.837236  0.162764  0.753831  1
  In  In19  1  0.162342  0.324683  0.253275  1
  In  In20  1  0.675317  0.837658  0.253275  1
  In  In21  1  0.162342  0.837658  0.253275  1
  Co  Co22  1  0.666667  0.333333  0.279443  1
  Co  Co23  1  0.333333  0.666667  0.779234  1
