# generated using pymatgen
data_Sc12Ir2OsBr16
_symmetry_space_group_name_H-M   'P 1'
_cell_length_a   8.99315419
_cell_length_b   11.23602227
_cell_length_c   11.91111687
_cell_angle_alpha   117.06902200
_cell_angle_beta   101.60790953
_cell_angle_gamma   101.23124120
_symmetry_Int_Tables_number   1
_chemical_formula_structural   Sc12Ir2OsBr16
_chemical_formula_sum   'Sc12 Ir2 Os1 Br16'
_cell_volume   991.64632029
_cell_formula_units_Z   1
loop_
 _symmetry_equiv_pos_site_id
 _symmetry_equiv_pos_as_xyz
  1  'x, y, z'
loop_
 _atom_site_type_symbol
 _atom_site_label
 _atom_site_symmetry_multiplicity
 _atom_site_fract_x
 _atom_site_fract_y
 _atom_site_fract_z
 _atom_site_occupancy
  Sc  Sc0  1  0.082129  0.260021  0.353149  1
  Sc  Sc1  1  0.915706  0.739945  0.646780  1
  Sc  Sc2  1  0.777531  0.537838  0.323056  1
  Sc  Sc3  1  0.220811  0.462108  0.676958  1
  Sc  Sc4  1  0.279161  0.740749  0.647399  1
  Sc  Sc5  1  0.718812  0.259241  0.352602  1
  Sc  Sc6  1  0.140691  0.537914  0.324112  1
  Sc  Sc7  1  0.857488  0.462253  0.675778  1
  Sc  Sc8  1  0.403842  0.354271  0.267602  1
  Sc  Sc9  1  0.597843  0.645674  0.732378  1
  Sc  Sc10  1  0.457805  0.300541  0.521028  1
  Sc  Sc11  1  0.544184  0.699480  0.479043  1
  Ir  Ir12  1  0.999396  0.500017  0.499990  1
  Ir  Ir13  1  0.658723  0.499886  0.500509  1
  Os  Os14  1  0.336650  0.500080  0.499457  1
  Br  Br15  1  0.396531  0.739500  0.880574  1
  Br  Br16  1  0.603777  0.260160  0.118600  1
  Br  Br17  1  0.187640  0.964200  0.783178  1
  Br  Br18  1  0.810102  0.035749  0.216886  1
  Br  Br19  1  0.342062  0.095249  0.250591  1
  Br  Br20  1  0.663590  0.904739  0.749479  1
  Br  Br21  1  0.556150  0.438680  0.798465  1
  Br  Br22  1  0.449071  0.561332  0.201643  1
  Br  Br23  1  0.310608  0.827156  0.463439  1
  Br  Br24  1  0.689774  0.172112  0.536835  1
  Br  Br25  1  0.168058  0.170743  0.531663  1
  Br  Br26  1  0.832667  0.829805  0.467942  1
  Br  Br27  1  0.925315  0.574827  0.161432  1
  Br  Br28  1  0.072879  0.425249  0.838519  1
  Br  Br29  1  0.921321  0.737811  0.881320  1
  Br  Br30  1  0.079687  0.262668  0.119592  1
