# generated using pymatgen
data_Ta3MnSe6
_symmetry_space_group_name_H-M   'P 1'
_cell_length_a   6.06230100
_cell_length_b   6.06230017
_cell_length_c   13.16760900
_cell_angle_alpha   90.00000000
_cell_angle_beta   90.00000000
_cell_angle_gamma   119.99999908
_symmetry_Int_Tables_number   1
_chemical_formula_structural   Ta3MnSe6
_chemical_formula_sum   'Ta6 Mn2 Se12'
_cell_volume   419.09500990
_cell_formula_units_Z   2
loop_
 _symmetry_equiv_pos_site_id
 _symmetry_equiv_pos_as_xyz
  1  'x, y, z'
loop_
 _atom_site_type_symbol
 _atom_site_label
 _atom_site_symmetry_multiplicity
 _atom_site_fract_x
 _atom_site_fract_y
 _atom_site_fract_z
 _atom_site_occupancy
  Ta  Ta0  1  0.000000  0.000000  0.500000  1
  Ta  Ta1  1  0.000000  0.000000  0.000000  1
  Ta  Ta2  1  0.333333  0.666667  0.001964  1
  Ta  Ta3  1  0.666667  0.333333  0.998036  1
  Ta  Ta4  1  0.666667  0.333333  0.501964  1
  Ta  Ta5  1  0.333333  0.666667  0.498036  1
  Mn  Mn6  1  0.333333  0.666667  0.250000  1
  Mn  Mn7  1  0.666667  0.333333  0.750000  1
  Se  Se8  1  0.334247  0.325710  0.373006  1
  Se  Se9  1  0.674290  0.008537  0.373006  1
  Se  Se10  1  0.991463  0.665753  0.373006  1
  Se  Se11  1  0.325710  0.334247  0.626994  1
  Se  Se12  1  0.008537  0.674290  0.626994  1
  Se  Se13  1  0.665753  0.991463  0.626994  1
  Se  Se14  1  0.665753  0.674290  0.873006  1
  Se  Se15  1  0.325710  0.991463  0.873006  1
  Se  Se16  1  0.008537  0.334247  0.873006  1
  Se  Se17  1  0.674290  0.665753  0.126994  1
  Se  Se18  1  0.991463  0.325710  0.126994  1
  Se  Se19  1  0.334247  0.008537  0.126994  1
