# generated using pymatgen
data_Pr4Si2Pd25Au3
_symmetry_space_group_name_H-M   'P 1'
_cell_length_a   9.09889435
_cell_length_b   9.09889435
_cell_length_c   7.15651382
_cell_angle_alpha   90.03762073
_cell_angle_beta   90.03762073
_cell_angle_gamma   90.38323058
_symmetry_Int_Tables_number   1
_chemical_formula_structural   Pr4Si2Pd25Au3
_chemical_formula_sum   'Pr4 Si2 Pd25 Au3'
_cell_volume   592.47339827
_cell_formula_units_Z   1
loop_
 _symmetry_equiv_pos_site_id
 _symmetry_equiv_pos_as_xyz
  1  'x, y, z'
loop_
 _atom_site_type_symbol
 _atom_site_label
 _atom_site_symmetry_multiplicity
 _atom_site_fract_x
 _atom_site_fract_y
 _atom_site_fract_z
 _atom_site_occupancy
  Pr  Pr0  1  0.502810  0.002810  0.932659  1
  Pr  Pr1  1  0.997190  0.497190  0.067341  1
  Pr  Pr2  1  0.999460  0.000540  0.500000  1
  Pr  Pr3  1  0.500540  0.499460  0.500000  1
  Si  Si4  1  0.500852  0.000852  0.448042  1
  Si  Si5  1  0.999148  0.499148  0.551958  1
  Pd  Pd6  1  0.336138  0.836138  0.612644  1
  Pd  Pd7  1  0.336588  0.164249  0.611725  1
  Pd  Pd8  1  0.664249  0.836588  0.611725  1
  Pd  Pd9  1  0.665430  0.165430  0.614786  1
  Pd  Pd10  1  0.163862  0.663862  0.387356  1
  Pd  Pd11  1  0.163412  0.335751  0.388275  1
  Pd  Pd12  1  0.835751  0.663412  0.388275  1
  Pd  Pd13  1  0.834570  0.334570  0.385214  1
  Pd  Pd14  1  0.499862  0.771382  0.259635  1
  Pd  Pd15  1  0.502174  0.228621  0.258025  1
  Pd  Pd16  1  0.271382  0.999862  0.259635  1
  Pd  Pd17  1  0.728621  0.002174  0.258025  1
  Pd  Pd18  1  0.000138  0.728618  0.740365  1
  Pd  Pd19  1  0.997826  0.271379  0.741975  1
  Pd  Pd20  1  0.228618  0.500138  0.740365  1
  Pd  Pd21  1  0.771379  0.497826  0.741975  1
  Pd  Pd22  1  0.502153  0.348862  0.855517  1
  Pd  Pd23  1  0.499623  0.649923  0.853561  1
  Pd  Pd24  1  0.848862  0.002153  0.855517  1
  Pd  Pd25  1  0.149923  0.999623  0.853561  1
  Pd  Pd26  1  0.997847  0.151138  0.144483  1
  Pd  Pd27  1  0.000377  0.850077  0.146439  1
  Pd  Pd28  1  0.651138  0.497847  0.144483  1
  Pd  Pd29  1  0.350077  0.500377  0.146439  1
  Pd  Pd30  1  0.750000  0.250000  0.000000  1
  Au  Au31  1  0.250000  0.750000  0.000000  1
  Au  Au32  1  0.250000  0.250000  0.000000  1
  Au  Au33  1  0.750000  0.750000  0.000000  1
