# generated using pymatgen
data_Ba4Lu2FeReO12
_symmetry_space_group_name_H-M   'P 1'
_cell_length_a   7.30950800
_cell_length_b   7.30950797
_cell_length_c   7.30950851
_cell_angle_alpha   107.57331459
_cell_angle_beta   110.42842011
_cell_angle_gamma   110.42843002
_symmetry_Int_Tables_number   1
_chemical_formula_structural   Ba4Lu2FeReO12
_chemical_formula_sum   'Ba4 Lu2 Fe1 Re1 O12'
_cell_volume   300.39073011
_cell_formula_units_Z   1
loop_
 _symmetry_equiv_pos_site_id
 _symmetry_equiv_pos_as_xyz
  1  'x, y, z'
loop_
 _atom_site_type_symbol
 _atom_site_label
 _atom_site_symmetry_multiplicity
 _atom_site_fract_x
 _atom_site_fract_y
 _atom_site_fract_z
 _atom_site_occupancy
  Ba  Ba0  1  0.000000  0.500000  0.000000  1
  Ba  Ba1  1  0.500000  0.000000  0.000000  1
  Ba  Ba2  1  0.000000  0.000000  0.500000  1
  Ba  Ba3  1  0.500000  0.500000  0.500000  1
  Lu  Lu4  1  0.500000  0.000000  0.500000  1
  Lu  Lu5  1  0.500000  0.500000  0.000000  1
  Fe  Fe6  1  0.000000  0.500000  0.500000  1
  Re  Re7  1  0.000000  0.000000  0.000000  1
  O  O8  1  0.238705  0.738705  0.500000  1
  O  O9  1  0.770939  0.000000  0.770939  1
  O  O10  1  0.000000  0.780799  0.780799  1
  O  O11  1  0.000000  0.219201  0.219201  1
  O  O12  1  0.229061  0.229061  0.000000  1
  O  O13  1  0.229061  0.000000  0.229061  1
  O  O14  1  0.770939  0.770939  0.000000  1
  O  O15  1  0.761295  0.261295  0.500000  1
  O  O16  1  0.500000  0.250000  0.750000  1
  O  O17  1  0.500000  0.750000  0.250000  1
  O  O18  1  0.238705  0.500000  0.738705  1
  O  O19  1  0.761295  0.500000  0.261295  1
