# generated using pymatgen
data_Hf8Tc3MoIr4
_symmetry_space_group_name_H-M   'P 1'
_cell_length_a   6.51652500
_cell_length_b   4.63426000
_cell_length_c   9.25714300
_cell_angle_alpha   90.00000000
_cell_angle_beta   90.00003615
_cell_angle_gamma   90.00000000
_symmetry_Int_Tables_number   1
_chemical_formula_structural   Hf8Tc3MoIr4
_chemical_formula_sum   'Hf8 Tc3 Mo1 Ir4'
_cell_volume   279.55897150
_cell_formula_units_Z   1
loop_
 _symmetry_equiv_pos_site_id
 _symmetry_equiv_pos_as_xyz
  1  'x, y, z'
loop_
 _atom_site_type_symbol
 _atom_site_label
 _atom_site_symmetry_multiplicity
 _atom_site_fract_x
 _atom_site_fract_y
 _atom_site_fract_z
 _atom_site_occupancy
  Hf  Hf0  1  0.499950  0.749999  0.125006  1
  Hf  Hf1  1  0.000029  0.749999  0.125008  1
  Hf  Hf2  1  0.500566  0.250001  0.374889  1
  Hf  Hf3  1  0.999449  0.250001  0.374890  1
  Hf  Hf4  1  0.999568  0.749999  0.625010  1
  Hf  Hf5  1  0.500418  0.749999  0.625010  1
  Hf  Hf6  1  0.999455  0.250001  0.875091  1
  Hf  Hf7  1  0.500565  0.250001  0.875091  1
  Tc  Tc8  1  0.250000  0.749999  0.375836  1
  Tc  Tc9  1  0.750001  0.250001  0.625006  1
  Tc  Tc10  1  0.250001  0.749999  0.874156  1
  Mo  Mo11  1  0.749999  0.250001  0.124992  1
  Ir  Ir12  1  0.249998  0.250001  0.125003  1
  Ir  Ir13  1  0.749998  0.749999  0.376143  1
  Ir  Ir14  1  0.250002  0.250001  0.625004  1
  Ir  Ir15  1  0.750002  0.749999  0.873863  1
