# generated using pymatgen
data_PrTa6TlBr18
_symmetry_space_group_name_H-M   'P 1'
_cell_length_a   10.83986511
_cell_length_b   10.83986428
_cell_length_c   10.83986400
_cell_angle_alpha   55.41051193
_cell_angle_beta   55.41050855
_cell_angle_gamma   55.41051158
_symmetry_Int_Tables_number   1
_chemical_formula_structural   PrTa6TlBr18
_chemical_formula_sum   'Pr1 Ta6 Tl1 Br18'
_cell_volume   804.64113768
_cell_formula_units_Z   1
loop_
 _symmetry_equiv_pos_site_id
 _symmetry_equiv_pos_as_xyz
  1  'x, y, z'
loop_
 _atom_site_type_symbol
 _atom_site_label
 _atom_site_symmetry_multiplicity
 _atom_site_fract_x
 _atom_site_fract_y
 _atom_site_fract_z
 _atom_site_occupancy
  Pr  Pr0  1  0.498285  0.498285  0.498285  1
  Ta  Ta1  1  0.811508  0.139397  0.919461  1
  Ta  Ta2  1  0.919461  0.811508  0.139397  1
  Ta  Ta3  1  0.139397  0.919461  0.811508  1
  Ta  Ta4  1  0.189368  0.861066  0.080080  1
  Ta  Ta5  1  0.080080  0.189368  0.861066  1
  Ta  Ta6  1  0.861066  0.080080  0.189368  1
  Tl  Tl7  1  0.221088  0.221088  0.221088  1
  Br  Br8  1  0.863410  0.408855  0.729013  1
  Br  Br9  1  0.729013  0.863410  0.408855  1
  Br  Br10  1  0.408855  0.729013  0.863410  1
  Br  Br11  1  0.136025  0.591025  0.273028  1
  Br  Br12  1  0.273028  0.136025  0.591025  1
  Br  Br13  1  0.591025  0.273028  0.136025  1
  Br  Br14  1  0.535438  0.334899  0.813999  1
  Br  Br15  1  0.813999  0.535438  0.334899  1
  Br  Br16  1  0.334899  0.813999  0.535438  1
  Br  Br17  1  0.460450  0.666599  0.188919  1
  Br  Br18  1  0.188919  0.460450  0.666599  1
  Br  Br19  1  0.666599  0.188919  0.460450  1
  Br  Br20  1  0.665794  0.937231  0.071821  1
  Br  Br21  1  0.071821  0.665794  0.937231  1
  Br  Br22  1  0.937231  0.071821  0.665794  1
  Br  Br23  1  0.336620  0.062032  0.925729  1
  Br  Br24  1  0.925729  0.336620  0.062032  1
  Br  Br25  1  0.062032  0.925729  0.336620  1
