# generated using pymatgen
data_Ho2Zr2CN3
_symmetry_space_group_name_H-M   'P 1'
_cell_length_a   11.20290506
_cell_length_b   11.20290501
_cell_length_c   11.20290498
_cell_angle_alpha   17.27172509
_cell_angle_beta   17.27172781
_cell_angle_gamma   17.27172562
_symmetry_Int_Tables_number   1
_chemical_formula_structural   Ho2Zr2CN3
_chemical_formula_sum   'Ho2 Zr2 C1 N3'
_cell_volume   108.15077499
_cell_formula_units_Z   1
loop_
 _symmetry_equiv_pos_site_id
 _symmetry_equiv_pos_as_xyz
  1  'x, y, z'
loop_
 _atom_site_type_symbol
 _atom_site_label
 _atom_site_symmetry_multiplicity
 _atom_site_fract_x
 _atom_site_fract_y
 _atom_site_fract_z
 _atom_site_occupancy
  Ho  Ho0  1  0.876128  0.876128  0.876128  1
  Ho  Ho1  1  0.123872  0.123872  0.123872  1
  Zr  Zr2  1  0.373278  0.373278  0.373278  1
  Zr  Zr3  1  0.626722  0.626722  0.626722  1
  C  C4  1  0.000000  0.000000  0.000000  1
  N  N5  1  0.252516  0.252516  0.252516  1
  N  N6  1  0.500000  0.500000  0.500000  1
  N  N7  1  0.747484  0.747484  0.747484  1
