# generated using pymatgen
data_Sc7Ag(Sn11Os3)2
_symmetry_space_group_name_H-M   'P 1'
_cell_length_a   9.61920900
_cell_length_b   9.61920807
_cell_length_c   9.84010600
_cell_angle_alpha   90.00000000
_cell_angle_beta   90.00000000
_cell_angle_gamma   120.00000662
_symmetry_Int_Tables_number   1
_chemical_formula_structural   Sc7Ag(Sn11Os3)2
_chemical_formula_sum   'Sc7 Ag1 Sn22 Os6'
_cell_volume   788.51336614
_cell_formula_units_Z   1
loop_
 _symmetry_equiv_pos_site_id
 _symmetry_equiv_pos_as_xyz
  1  'x, y, z'
loop_
 _atom_site_type_symbol
 _atom_site_label
 _atom_site_symmetry_multiplicity
 _atom_site_fract_x
 _atom_site_fract_y
 _atom_site_fract_z
 _atom_site_occupancy
  Sc  Sc0  1  0.000000  0.000000  0.000000  1
  Sc  Sc1  1  0.489324  0.510676  0.303664  1
  Sc  Sc2  1  0.510676  0.489324  0.696336  1
  Sc  Sc3  1  0.489324  0.978648  0.303664  1
  Sc  Sc4  1  0.510676  0.021352  0.696336  1
  Sc  Sc5  1  0.021352  0.510676  0.303664  1
  Sc  Sc6  1  0.978648  0.489324  0.696336  1
  Ag  Ag7  1  0.000000  0.000000  0.500000  1
  Sn  Sn8  1  0.349543  0.000000  0.000000  1
  Sn  Sn9  1  0.650457  0.000000  0.000000  1
  Sn  Sn10  1  0.000000  0.349543  0.000000  1
  Sn  Sn11  1  0.000000  0.650457  0.000000  1
  Sn  Sn12  1  0.650457  0.650457  0.000000  1
  Sn  Sn13  1  0.349543  0.349543  0.000000  1
  Sn  Sn14  1  0.333333  0.666667  0.830233  1
  Sn  Sn15  1  0.666667  0.333333  0.169767  1
  Sn  Sn16  1  0.776083  0.223917  0.469478  1
  Sn  Sn17  1  0.223917  0.776083  0.530522  1
  Sn  Sn18  1  0.776083  0.552167  0.469478  1
  Sn  Sn19  1  0.223917  0.447833  0.530522  1
  Sn  Sn20  1  0.447833  0.223917  0.469478  1
  Sn  Sn21  1  0.552167  0.776083  0.530522  1
  Sn  Sn22  1  0.333333  0.666667  0.145763  1
  Sn  Sn23  1  0.666667  0.333333  0.854237  1
  Sn  Sn24  1  0.121575  0.878425  0.280512  1
  Sn  Sn25  1  0.878425  0.121575  0.719488  1
  Sn  Sn26  1  0.121575  0.243151  0.280512  1
  Sn  Sn27  1  0.878425  0.756849  0.719488  1
  Sn  Sn28  1  0.756849  0.878425  0.280512  1
  Sn  Sn29  1  0.243151  0.121575  0.719488  1
  Os  Os30  1  0.829205  0.170795  0.207988  1
  Os  Os31  1  0.170795  0.829205  0.792012  1
  Os  Os32  1  0.829205  0.658411  0.207988  1
  Os  Os33  1  0.170795  0.341589  0.792012  1
  Os  Os34  1  0.341589  0.170795  0.207988  1
  Os  Os35  1  0.658411  0.829205  0.792012  1
