# generated using pymatgen
data_NaLu(PSe3)2
_symmetry_space_group_name_H-M   'P 1'
_cell_length_a   13.13399627
_cell_length_b   12.48301206
_cell_length_c   7.48802922
_cell_angle_alpha   77.83513369
_cell_angle_beta   68.29394852
_cell_angle_gamma   33.87091899
_symmetry_Int_Tables_number   1
_chemical_formula_structural   NaLu(PSe3)2
_chemical_formula_sum   'Na2 Lu2 P4 Se12'
_cell_volume   624.59480090
_cell_formula_units_Z   2
loop_
 _symmetry_equiv_pos_site_id
 _symmetry_equiv_pos_as_xyz
  1  'x, y, z'
loop_
 _atom_site_type_symbol
 _atom_site_label
 _atom_site_symmetry_multiplicity
 _atom_site_fract_x
 _atom_site_fract_y
 _atom_site_fract_z
 _atom_site_occupancy
  Na  Na0  1  0.844378  0.844378  0.655622  1
  Na  Na1  1  0.594378  0.594378  0.405622  1
  Lu  Lu2  1  0.180044  0.180044  0.319956  1
  Lu  Lu3  1  0.930044  0.930044  0.069956  1
  P  P4  1  0.967280  0.066135  0.643066  1
  P  P5  1  0.066135  0.967280  0.323520  1
  P  P6  1  0.926480  0.606934  0.183865  1
  P  P7  1  0.606934  0.926480  0.282720  1
  Se  Se8  1  0.085997  0.606965  0.938438  1
  Se  Se9  1  0.606965  0.085997  0.368599  1
  Se  Se10  1  0.881401  0.311562  0.643035  1
  Se  Se11  1  0.311562  0.881401  0.164003  1
  Se  Se12  1  0.219026  0.804616  0.735119  1
  Se  Se13  1  0.804616  0.219026  0.241239  1
  Se  Se14  1  0.008761  0.514881  0.445384  1
  Se  Se15  1  0.514881  0.008761  0.030974  1
  Se  Se16  1  0.171438  0.712082  0.294417  1
  Se  Se17  1  0.712082  0.171438  0.822063  1
  Se  Se18  1  0.427937  0.955583  0.537918  1
  Se  Se19  1  0.955583  0.427937  0.078562  1
