# generated using pymatgen
data_Al3Cd2GaBr16
_symmetry_space_group_name_H-M   'P 1'
_cell_length_a   10.68101267
_cell_length_b   10.62882479
_cell_length_c   12.64840000
_cell_angle_alpha   55.34852751
_cell_angle_beta   55.45602115
_cell_angle_gamma   48.80264296
_symmetry_Int_Tables_number   1
_chemical_formula_structural   Al3Cd2GaBr16
_chemical_formula_sum   'Al3 Cd2 Ga1 Br16'
_cell_volume   844.72027794
_cell_formula_units_Z   1
loop_
 _symmetry_equiv_pos_site_id
 _symmetry_equiv_pos_as_xyz
  1  'x, y, z'
loop_
 _atom_site_type_symbol
 _atom_site_label
 _atom_site_symmetry_multiplicity
 _atom_site_fract_x
 _atom_site_fract_y
 _atom_site_fract_z
 _atom_site_occupancy
  Al  Al0  1  0.162191  0.668167  0.032594  1
  Al  Al1  1  0.668867  0.161842  0.533041  1
  Al  Al2  1  0.837711  0.332022  0.967334  1
  Cd  Cd3  1  0.000048  0.000024  0.250355  1
  Cd  Cd4  1  0.998939  0.000330  0.749985  1
  Ga  Ga5  1  0.332882  0.837012  0.465946  1
  Br  Br6  1  0.620941  0.694964  0.449332  1
  Br  Br7  1  0.303508  0.381265  0.050094  1
  Br  Br8  1  0.384202  0.303502  0.549020  1
  Br  Br9  1  0.696164  0.618685  0.950345  1
  Br  Br10  1  0.173713  0.127692  0.478759  1
  Br  Br11  1  0.876601  0.823039  0.023068  1
  Br  Br12  1  0.824098  0.874903  0.523298  1
  Br  Br13  1  0.122916  0.177806  0.976781  1
  Br  Br14  1  0.325810  0.849883  0.273555  1
  Br  Br15  1  0.149747  0.673981  0.222309  1
  Br  Br16  1  0.674422  0.150173  0.722456  1
  Br  Br17  1  0.849223  0.326177  0.778079  1
  Br  Br18  1  0.168447  0.705464  0.671643  1
  Br  Br19  1  0.291584  0.830516  0.831455  1
  Br  Br20  1  0.829512  0.293235  0.331780  1
  Br  Br21  1  0.708474  0.169320  0.168770  1
