# generated using pymatgen
data_Hf3MoRh2
_symmetry_space_group_name_H-M   'P 1'
_cell_length_a   8.02163800
_cell_length_b   8.02163862
_cell_length_c   5.67422900
_cell_angle_alpha   90.00000000
_cell_angle_beta   90.00000000
_cell_angle_gamma   119.99999746
_symmetry_Int_Tables_number   1
_chemical_formula_structural   Hf3MoRh2
_chemical_formula_sum   'Hf9 Mo3 Rh6'
_cell_volume   316.20130194
_cell_formula_units_Z   3
loop_
 _symmetry_equiv_pos_site_id
 _symmetry_equiv_pos_as_xyz
  1  'x, y, z'
loop_
 _atom_site_type_symbol
 _atom_site_label
 _atom_site_symmetry_multiplicity
 _atom_site_fract_x
 _atom_site_fract_y
 _atom_site_fract_z
 _atom_site_occupancy
  Hf  Hf0  1  0.666999  0.000000  0.222544  1
  Hf  Hf1  1  0.333000  0.333001  0.222544  1
  Hf  Hf2  1  0.000000  0.666999  0.222544  1
  Hf  Hf3  1  0.000000  0.000000  0.558572  1
  Hf  Hf4  1  0.666666  0.333333  0.558856  1
  Hf  Hf5  1  0.333334  0.666667  0.558856  1
  Hf  Hf6  1  0.333694  0.000000  0.894994  1
  Hf  Hf7  1  0.000000  0.333694  0.894994  1
  Hf  Hf8  1  0.666306  0.666306  0.894994  1
  Mo  Mo9  1  0.000000  0.000000  0.058493  1
  Mo  Mo10  1  0.666666  0.333333  0.058914  1
  Mo  Mo11  1  0.333334  0.666667  0.058914  1
  Rh  Rh12  1  0.333619  0.000000  0.392941  1
  Rh  Rh13  1  0.000000  0.333619  0.392941  1
  Rh  Rh14  1  0.666382  0.666381  0.392941  1
  Rh  Rh15  1  0.667044  0.000000  0.724603  1
  Rh  Rh16  1  0.332957  0.332957  0.724603  1
  Rh  Rh17  1  0.000000  0.667043  0.724603  1
