# generated using pymatgen
data_NpB4Os
_symmetry_space_group_name_H-M   'P 1'
_cell_length_a   3.51436600
_cell_length_b   6.00233400
_cell_length_c   11.62105100
_cell_angle_alpha   90.00000000
_cell_angle_beta   90.00000000
_cell_angle_gamma   90.00000000
_symmetry_Int_Tables_number   1
_chemical_formula_structural   NpB4Os
_chemical_formula_sum   'Np4 B16 Os4'
_cell_volume   245.13908113
_cell_formula_units_Z   4
loop_
 _symmetry_equiv_pos_site_id
 _symmetry_equiv_pos_as_xyz
  1  'x, y, z'
loop_
 _atom_site_type_symbol
 _atom_site_label
 _atom_site_symmetry_multiplicity
 _atom_site_fract_x
 _atom_site_fract_y
 _atom_site_fract_z
 _atom_site_occupancy
  Np  Np0  1  0.500000  0.127702  0.650094  1
  Np  Np1  1  0.500000  0.872298  0.349906  1
  Np  Np2  1  0.500000  0.627702  0.849906  1
  Np  Np3  1  0.500000  0.372298  0.150094  1
  B  B4  1  0.000000  0.471661  0.691953  1
  B  B5  1  0.000000  0.528339  0.308047  1
  B  B6  1  0.000000  0.971661  0.808047  1
  B  B7  1  0.000000  0.028339  0.191953  1
  B  B8  1  0.000000  0.289112  0.812321  1
  B  B9  1  0.000000  0.710888  0.187679  1
  B  B10  1  0.000000  0.789112  0.687679  1
  B  B11  1  0.000000  0.210888  0.312321  1
  B  B12  1  0.000000  0.366030  0.968569  1
  B  B13  1  0.000000  0.633970  0.031431  1
  B  B14  1  0.000000  0.866030  0.531431  1
  B  B15  1  0.000000  0.133970  0.468569  1
  B  B16  1  0.000000  0.385228  0.546838  1
  B  B17  1  0.000000  0.614772  0.453162  1
  B  B18  1  0.000000  0.885228  0.953162  1
  B  B19  1  0.000000  0.114772  0.046838  1
  Os  Os20  1  0.500000  0.139027  0.906710  1
  Os  Os21  1  0.500000  0.860973  0.093290  1
  Os  Os22  1  0.500000  0.639027  0.593290  1
  Os  Os23  1  0.500000  0.360973  0.406710  1
