# generated using pymatgen
data_Y16Al4CoNi3
_symmetry_space_group_name_H-M   'P 1'
_cell_length_a   9.50363979
_cell_length_b   9.50363853
_cell_length_c   9.50363945
_cell_angle_alpha   59.88895737
_cell_angle_beta   59.88896466
_cell_angle_gamma   59.88896473
_symmetry_Int_Tables_number   1
_chemical_formula_structural   Y16Al4CoNi3
_chemical_formula_sum   'Y16 Al4 Co1 Ni3'
_cell_volume   605.42360641
_cell_formula_units_Z   1
loop_
 _symmetry_equiv_pos_site_id
 _symmetry_equiv_pos_as_xyz
  1  'x, y, z'
loop_
 _atom_site_type_symbol
 _atom_site_label
 _atom_site_symmetry_multiplicity
 _atom_site_fract_x
 _atom_site_fract_y
 _atom_site_fract_z
 _atom_site_occupancy
  Y  Y0  1  0.600452  0.600452  0.600452  1
  Y  Y1  1  0.599101  0.599101  0.197801  1
  Y  Y2  1  0.599101  0.197801  0.599101  1
  Y  Y3  1  0.197801  0.599101  0.599101  1
  Y  Y4  1  0.062133  0.441129  0.441129  1
  Y  Y5  1  0.442612  0.058232  0.058232  1
  Y  Y6  1  0.441129  0.062133  0.441129  1
  Y  Y7  1  0.058232  0.442612  0.058232  1
  Y  Y8  1  0.441129  0.441129  0.062133  1
  Y  Y9  1  0.058232  0.058232  0.442612  1
  Y  Y10  1  0.186462  0.813121  0.813121  1
  Y  Y11  1  0.811779  0.186878  0.186878  1
  Y  Y12  1  0.813121  0.186462  0.813121  1
  Y  Y13  1  0.186878  0.811779  0.186878  1
  Y  Y14  1  0.813121  0.813121  0.186462  1
  Y  Y15  1  0.186878  0.186878  0.811779  1
  Al  Al16  1  0.828339  0.828339  0.828339  1
  Al  Al17  1  0.827538  0.827538  0.518949  1
  Al  Al18  1  0.827538  0.518949  0.827538  1
  Al  Al19  1  0.518949  0.827538  0.827538  1
  Co  Co20  1  0.392212  0.392212  0.392212  1
  Ni  Ni21  1  0.392363  0.392363  0.822539  1
  Ni  Ni22  1  0.392363  0.822539  0.392363  1
  Ni  Ni23  1  0.822539  0.392363  0.392363  1
