# generated using pymatgen
data_Zr8Ga14AsRh7
_symmetry_space_group_name_H-M   'P 1'
_cell_length_a   8.89639084
_cell_length_b   8.89650578
_cell_length_c   8.89635400
_cell_angle_alpha   120.07710338
_cell_angle_beta   119.84611016
_cell_angle_gamma   90.06599198
_symmetry_Int_Tables_number   1
_chemical_formula_structural   Zr8Ga14AsRh7
_chemical_formula_sum   'Zr8 Ga14 As1 Rh7'
_cell_volume   498.17533808
_cell_formula_units_Z   1
loop_
 _symmetry_equiv_pos_site_id
 _symmetry_equiv_pos_as_xyz
  1  'x, y, z'
loop_
 _atom_site_type_symbol
 _atom_site_label
 _atom_site_symmetry_multiplicity
 _atom_site_fract_x
 _atom_site_fract_y
 _atom_site_fract_z
 _atom_site_occupancy
  Zr  Zr0  1  0.802261  0.291979  0.079599  1
  Zr  Zr1  1  0.212384  0.291976  0.489715  1
  Zr  Zr2  1  0.197222  0.697227  0.500003  1
  Zr  Zr3  1  0.212377  0.722662  0.920402  1
  Zr  Zr4  1  0.802261  0.722670  0.510289  1
  Zr  Zr5  1  0.779023  0.279020  0.500004  1
  Zr  Zr6  1  0.379280  0.121848  0.742571  1
  Zr  Zr7  1  0.379276  0.636704  0.257430  1
  Ga  Ga8  1  0.160898  0.337912  0.177005  1
  Ga  Ga9  1  0.160909  0.983885  0.822981  1
  Ga  Ga10  1  0.153755  0.343826  0.809933  1
  Ga  Ga11  1  0.533894  0.343826  0.190079  1
  Ga  Ga12  1  0.838431  0.658607  0.820170  1
  Ga  Ga13  1  0.838440  0.018263  0.179823  1
  Ga  Ga14  1  0.839855  0.660460  0.179409  1
  Ga  Ga15  1  0.481049  0.660459  0.820606  1
  Ga  Ga16  1  0.376994  0.123185  0.253797  1
  Ga  Ga17  1  0.869391  0.123191  0.746201  1
  Ga  Ga18  1  0.619205  0.869642  0.250436  1
  Ga  Ga19  1  0.619201  0.368762  0.749556  1
  Ga  Ga20  1  0.614383  0.877170  0.737206  1
  Ga  Ga21  1  0.139969  0.877180  0.262798  1
  As  As22  1  0.989013  0.489014  0.500003  1
  Rh  Rh23  1  0.998696  0.999956  0.501035  1
  Rh  Rh24  1  0.498942  0.999955  0.001283  1
  Rh  Rh25  1  0.498885  0.498878  0.999997  1
  Rh  Rh26  1  0.498900  0.497657  0.498980  1
  Rh  Rh27  1  0.998651  0.497648  0.998701  1
  Rh  Rh28  1  0.998648  0.998645  0.999991  1
  Rh  Rh29  1  0.507799  0.007790  0.499997  1
