# generated using pymatgen
data_MnZn2Ni2AsO8
_symmetry_space_group_name_H-M   'P 1'
_cell_length_a   6.11050108
_cell_length_b   6.03256638
_cell_length_c   5.92572800
_cell_angle_alpha   60.58353061
_cell_angle_beta   90.00127888
_cell_angle_gamma   121.72515658
_symmetry_Int_Tables_number   1
_chemical_formula_structural   MnZn2Ni2AsO8
_chemical_formula_sum   'Mn1 Zn2 Ni2 As1 O8'
_cell_volume   151.69244950
_cell_formula_units_Z   1
loop_
 _symmetry_equiv_pos_site_id
 _symmetry_equiv_pos_as_xyz
  1  'x, y, z'
loop_
 _atom_site_type_symbol
 _atom_site_label
 _atom_site_symmetry_multiplicity
 _atom_site_fract_x
 _atom_site_fract_y
 _atom_site_fract_z
 _atom_site_occupancy
  Mn  Mn0  1  0.499873  0.999774  0.000082  1
  Zn  Zn1  1  0.631203  0.718727  0.640646  1
  Zn  Zn2  1  0.368886  0.281332  0.359355  1
  Ni  Ni3  1  0.000023  0.500007  0.499963  1
  Ni  Ni4  1  0.000065  0.500036  0.000091  1
  As  As5  1  0.000071  0.000058  0.999995  1
  O  O6  1  0.784107  0.552009  0.223996  1
  O  O7  1  0.223851  0.997462  0.778913  1
  O  O8  1  0.223885  0.997498  0.223613  1
  O  O9  1  0.215924  0.448033  0.775987  1
  O  O10  1  0.752627  0.452684  0.773602  1
  O  O11  1  0.776093  0.002491  0.221102  1
  O  O12  1  0.247273  0.547370  0.226274  1
  O  O13  1  0.776122  0.002518  0.776384  1
