# generated using pymatgen
data_Tb5AsS4
_symmetry_space_group_name_H-M   'P 1'
_cell_length_a   6.87650617
_cell_length_b   6.87651036
_cell_length_c   6.87651012
_cell_angle_alpha   99.59794581
_cell_angle_beta   99.59760176
_cell_angle_gamma   131.80067312
_symmetry_Int_Tables_number   1
_chemical_formula_structural   Tb5AsS4
_chemical_formula_sum   'Tb5 As1 S4'
_cell_volume   221.27156917
_cell_formula_units_Z   1
loop_
 _symmetry_equiv_pos_site_id
 _symmetry_equiv_pos_as_xyz
  1  'x, y, z'
loop_
 _atom_site_type_symbol
 _atom_site_label
 _atom_site_symmetry_multiplicity
 _atom_site_fract_x
 _atom_site_fract_y
 _atom_site_fract_z
 _atom_site_occupancy
  Tb  Tb0  1  0.398955  0.802169  0.201125  1
  Tb  Tb1  1  0.000000  0.000000  0.000000  1
  Tb  Tb2  1  0.601045  0.197831  0.798875  1
  Tb  Tb3  1  0.197831  0.398957  0.596786  1
  Tb  Tb4  1  0.802169  0.601043  0.403214  1
  As  As5  1  0.500000  0.500000  0.000000  1
  S  S6  1  0.100732  0.699717  0.800448  1
  S  S7  1  0.699717  0.899270  0.598986  1
  S  S8  1  0.300283  0.100730  0.401014  1
  S  S9  1  0.899268  0.300283  0.199552  1
