# generated using pymatgen
data_Dy4MgSi12Ir19
_symmetry_space_group_name_H-M   'P 1'
_cell_length_a   12.82767213
_cell_length_b   12.80264628
_cell_length_c   3.98100200
_cell_angle_alpha   90.00000000
_cell_angle_beta   90.00000000
_cell_angle_gamma   119.93548402
_symmetry_Int_Tables_number   1
_chemical_formula_structural   Dy4MgSi12Ir19
_chemical_formula_sum   'Dy4 Mg1 Si12 Ir19'
_cell_volume   566.56872280
_cell_formula_units_Z   1
loop_
 _symmetry_equiv_pos_site_id
 _symmetry_equiv_pos_as_xyz
  1  'x, y, z'
loop_
 _atom_site_type_symbol
 _atom_site_label
 _atom_site_symmetry_multiplicity
 _atom_site_fract_x
 _atom_site_fract_y
 _atom_site_fract_z
 _atom_site_occupancy
  Dy  Dy0  1  0.333860  0.667179  0.500000  1
  Dy  Dy1  1  0.666140  0.333318  0.500000  1
  Dy  Dy2  1  0.183778  0.183701  0.000000  1
  Dy  Dy3  1  0.816222  0.999923  0.000000  1
  Mg  Mg4  1  0.000000  0.815960  0.000000  1
  Si  Si5  1  0.000000  0.633293  0.500000  1
  Si  Si6  1  0.367559  0.367814  0.500000  1
  Si  Si7  1  0.632441  0.000256  0.500000  1
  Si  Si8  1  0.520580  0.687436  0.000000  1
  Si  Si9  1  0.311269  0.831613  0.000000  1
  Si  Si10  1  0.168520  0.481113  0.000000  1
  Si  Si11  1  0.479420  0.166856  0.000000  1
  Si  Si12  1  0.688731  0.520344  0.000000  1
  Si  Si13  1  0.831480  0.312593  0.000000  1
  Si  Si14  1  0.000000  0.180122  0.500000  1
  Si  Si15  1  0.819539  0.817882  0.500000  1
  Si  Si16  1  0.180461  0.998342  0.500000  1
  Ir  Ir17  1  0.511617  0.873079  0.000000  1
  Ir  Ir18  1  0.126192  0.638743  0.000000  1
  Ir  Ir19  1  0.360960  0.487971  0.000000  1
  Ir  Ir20  1  0.488383  0.361462  0.000000  1
  Ir  Ir21  1  0.873808  0.512551  0.000000  1
  Ir  Ir22  1  0.639040  0.127012  0.000000  1
  Ir  Ir23  1  0.000000  0.447530  0.500000  1
  Ir  Ir24  1  0.550855  0.553008  0.500000  1
  Ir  Ir25  1  0.449145  0.002152  0.500000  1
  Ir  Ir26  1  0.000000  0.282888  0.000000  1
  Ir  Ir27  1  0.718800  0.718667  0.000000  1
  Ir  Ir28  1  0.281200  0.999867  0.000000  1
  Ir  Ir29  1  0.623598  0.806252  0.500000  1
  Ir  Ir30  1  0.191945  0.815898  0.500000  1
  Ir  Ir31  1  0.182117  0.376119  0.500000  1
  Ir  Ir32  1  0.376402  0.182655  0.500000  1
  Ir  Ir33  1  0.808055  0.623954  0.500000  1
  Ir  Ir34  1  0.817883  0.194003  0.500000  1
  Ir  Ir35  1  0.000000  0.998443  0.500000  1
