# generated using pymatgen
data_Tb2Co2Se
_symmetry_space_group_name_H-M   'P 1'
_cell_length_a   3.90676700
_cell_length_b   3.90676634
_cell_length_c   7.80344600
_cell_angle_alpha   90.00000000
_cell_angle_beta   90.00000000
_cell_angle_gamma   119.99999709
_symmetry_Int_Tables_number   1
_chemical_formula_structural   Tb2Co2Se
_chemical_formula_sum   'Tb2 Co2 Se1'
_cell_volume   103.14591248
_cell_formula_units_Z   1
loop_
 _symmetry_equiv_pos_site_id
 _symmetry_equiv_pos_as_xyz
  1  'x, y, z'
loop_
 _atom_site_type_symbol
 _atom_site_label
 _atom_site_symmetry_multiplicity
 _atom_site_fract_x
 _atom_site_fract_y
 _atom_site_fract_z
 _atom_site_occupancy
  Tb  Tb0  1  0.000000  0.000000  0.255991  1
  Tb  Tb1  1  0.000000  0.000000  0.744009  1
  Co  Co2  1  0.333333  0.666667  0.500000  1
  Co  Co3  1  0.666667  0.333333  0.500000  1
  Se  Se4  1  0.666667  0.333333  0.000000  1
