# generated using pymatgen
data_Ac20Sn15Te
_symmetry_space_group_name_H-M   'P 1'
_cell_length_a   8.84184574
_cell_length_b   8.93419553
_cell_length_c   17.03865996
_cell_angle_alpha   90.32699137
_cell_angle_beta   90.59782614
_cell_angle_gamma   89.89484073
_symmetry_Int_Tables_number   1
_chemical_formula_structural   Ac20Sn15Te
_chemical_formula_sum   'Ac20 Sn15 Te1'
_cell_volume   1345.86786643
_cell_formula_units_Z   1
loop_
 _symmetry_equiv_pos_site_id
 _symmetry_equiv_pos_as_xyz
  1  'x, y, z'
loop_
 _atom_site_type_symbol
 _atom_site_label
 _atom_site_symmetry_multiplicity
 _atom_site_fract_x
 _atom_site_fract_y
 _atom_site_fract_z
 _atom_site_occupancy
  Ac  Ac0  1  0.378311  0.840382  0.883698  1
  Ac  Ac1  1  0.872308  0.659768  0.617676  1
  Ac  Ac2  1  0.630608  0.156751  0.380647  1
  Ac  Ac3  1  0.121790  0.342053  0.117224  1
  Ac  Ac4  1  0.625380  0.160835  0.115923  1
  Ac  Ac5  1  0.129508  0.342293  0.381245  1
  Ac  Ac6  1  0.371757  0.842186  0.618967  1
  Ac  Ac7  1  0.878153  0.661488  0.883055  1
  Ac  Ac8  1  0.534381  0.332384  0.893786  1
  Ac  Ac9  1  0.019459  0.179619  0.599246  1
  Ac  Ac10  1  0.481012  0.677929  0.400402  1
  Ac  Ac11  1  0.965198  0.815584  0.103131  1
  Ac  Ac12  1  0.473955  0.670735  0.102846  1
  Ac  Ac13  1  0.979884  0.819882  0.400028  1
  Ac  Ac14  1  0.519457  0.319631  0.599506  1
  Ac  Ac15  1  0.018747  0.186166  0.895837  1
  Ac  Ac16  1  0.207073  0.500298  0.746165  1
  Ac  Ac17  1  0.706716  0.000675  0.746384  1
  Ac  Ac18  1  0.792717  0.498828  0.255454  1
  Ac  Ac19  1  0.293425  0.998967  0.261325  1
  Sn  Sn20  1  0.786558  0.461404  0.457645  1
  Sn  Sn21  1  0.713293  0.963820  0.542380  1
  Sn  Sn22  1  0.222351  0.529646  0.955732  1
  Sn  Sn23  1  0.718640  0.970994  0.954590  1
  Sn  Sn24  1  0.214629  0.537552  0.542658  1
  Sn  Sn25  1  0.287161  0.036997  0.458507  1
  Sn  Sn26  1  0.783615  0.468261  0.045654  1
  Sn  Sn27  1  0.575997  0.620304  0.749956  1
  Sn  Sn28  1  0.077585  0.885564  0.752820  1
  Sn  Sn29  1  0.424372  0.380132  0.246022  1
  Sn  Sn30  1  0.925234  0.115944  0.245228  1
  Sn  Sn31  1  0.325465  0.138537  0.752113  1
  Sn  Sn32  1  0.827125  0.363269  0.748978  1
  Sn  Sn33  1  0.671891  0.859355  0.247439  1
  Sn  Sn34  1  0.172384  0.639091  0.247356  1
  Te  Te35  1  0.273863  0.022676  0.050377  1
