# generated using pymatgen
data_TbEr7(LuPb3)2
_symmetry_space_group_name_H-M   'P 1'
_cell_length_a   8.98261700
_cell_length_b   8.98756609
_cell_length_c   6.53794500
_cell_angle_alpha   90.00010200
_cell_angle_beta   89.99979589
_cell_angle_gamma   119.98178230
_symmetry_Int_Tables_number   1
_chemical_formula_structural   TbEr7(LuPb3)2
_chemical_formula_sum   'Tb1 Er7 Lu2 Pb6'
_cell_volume   457.18983941
_cell_formula_units_Z   1
loop_
 _symmetry_equiv_pos_site_id
 _symmetry_equiv_pos_as_xyz
  1  'x, y, z'
loop_
 _atom_site_type_symbol
 _atom_site_label
 _atom_site_symmetry_multiplicity
 _atom_site_fract_x
 _atom_site_fract_y
 _atom_site_fract_z
 _atom_site_occupancy
  Tb  Tb0  1  0.762878  0.000000  0.749625  1
  Er  Er1  1  0.237135  0.237405  0.749526  1
  Er  Er2  1  0.235949  0.000000  0.250400  1
  Er  Er3  1  0.333903  0.667248  0.000159  1
  Er  Er4  1  0.666656  0.332752  0.000159  1
  Er  Er5  1  0.999729  0.762595  0.749526  1
  Er  Er6  1  0.762632  0.762009  0.250476  1
  Er  Er7  1  0.000625  0.237991  0.250476  1
  Lu  Lu8  1  0.333855  0.667258  0.499940  1
  Lu  Lu9  1  0.666598  0.332742  0.499940  1
  Pb  Pb10  1  0.001093  0.396525  0.748023  1
  Pb  Pb11  1  0.394900  0.394642  0.251943  1
  Pb  Pb12  1  0.605763  0.000000  0.252004  1
  Pb  Pb13  1  0.604569  0.603475  0.748023  1
  Pb  Pb14  1  0.393461  0.000000  0.747832  1
  Pb  Pb15  1  0.000258  0.605358  0.251943  1
