# generated using pymatgen
data_DyHo3Lu12(CdPt)4
_symmetry_space_group_name_H-M   'P 1'
_cell_length_a   9.53181656
_cell_length_b   9.51998302
_cell_length_c   9.52890611
_cell_angle_alpha   60.05119659
_cell_angle_beta   59.92796159
_cell_angle_gamma   59.87563898
_symmetry_Int_Tables_number   1
_chemical_formula_structural   DyHo3Lu12(CdPt)4
_chemical_formula_sum   'Dy1 Ho3 Lu12 Cd4 Pt4'
_cell_volume   610.74617701
_cell_formula_units_Z   1
loop_
 _symmetry_equiv_pos_site_id
 _symmetry_equiv_pos_as_xyz
  1  'x, y, z'
loop_
 _atom_site_type_symbol
 _atom_site_label
 _atom_site_symmetry_multiplicity
 _atom_site_fract_x
 _atom_site_fract_y
 _atom_site_fract_z
 _atom_site_occupancy
  Dy  Dy0  1  0.935549  0.935549  0.564450  1
  Ho  Ho1  1  0.564494  0.935033  0.565154  1
  Ho  Ho2  1  0.935033  0.564493  0.935319  1
  Ho  Ho3  1  0.565478  0.565478  0.934522  1
  Lu  Lu4  1  0.353461  0.352290  0.350999  1
  Lu  Lu5  1  0.352290  0.353461  0.943250  1
  Lu  Lu6  1  0.353658  0.940867  0.353382  1
  Lu  Lu7  1  0.940867  0.353658  0.352094  1
  Lu  Lu8  1  0.811044  0.188901  0.189165  1
  Lu  Lu9  1  0.188901  0.811044  0.810890  1
  Lu  Lu10  1  0.188851  0.811112  0.188920  1
  Lu  Lu11  1  0.811112  0.188851  0.811117  1
  Lu  Lu12  1  0.189079  0.189079  0.810921  1
  Lu  Lu13  1  0.811329  0.811329  0.188671  1
  Lu  Lu14  1  0.938533  0.561122  0.561434  1
  Lu  Lu15  1  0.561122  0.938533  0.938912  1
  Cd  Cd16  1  0.583114  0.580886  0.581255  1
  Cd  Cd17  1  0.580886  0.583114  0.254745  1
  Cd  Cd18  1  0.580809  0.254563  0.583281  1
  Cd  Cd19  1  0.254563  0.580809  0.581347  1
  Pt  Pt20  1  0.144500  0.142550  0.142774  1
  Pt  Pt21  1  0.142550  0.144500  0.570176  1
  Pt  Pt22  1  0.142402  0.570378  0.144579  1
  Pt  Pt23  1  0.570378  0.142402  0.142642  1
