# generated using pymatgen
data_HfZr5Al16CoNi6
_symmetry_space_group_name_H-M   'P 1'
_cell_length_a   8.53782445
_cell_length_b   8.53770631
_cell_length_c   8.53770700
_cell_angle_alpha   60.00091367
_cell_angle_beta   59.99954541
_cell_angle_gamma   59.99954203
_symmetry_Int_Tables_number   1
_chemical_formula_structural   HfZr5Al16CoNi6
_chemical_formula_sum   'Hf1 Zr5 Al16 Co1 Ni6'
_cell_volume   440.06282704
_cell_formula_units_Z   1
loop_
 _symmetry_equiv_pos_site_id
 _symmetry_equiv_pos_as_xyz
  1  'x, y, z'
loop_
 _atom_site_type_symbol
 _atom_site_label
 _atom_site_symmetry_multiplicity
 _atom_site_fract_x
 _atom_site_fract_y
 _atom_site_fract_z
 _atom_site_occupancy
  Hf  Hf0  1  0.310133  0.689867  0.689867  1
  Zr  Zr1  1  0.690238  0.690773  0.309762  1
  Zr  Zr2  1  0.309227  0.690773  0.309762  1
  Zr  Zr3  1  0.691973  0.308027  0.308027  1
  Zr  Zr4  1  0.309227  0.309762  0.690773  1
  Zr  Zr5  1  0.690238  0.309762  0.690773  1
  Al  Al6  1  0.882118  0.881779  0.353984  1
  Al  Al7  1  0.882118  0.353984  0.881779  1
  Al  Al8  1  0.353574  0.881974  0.881974  1
  Al  Al9  1  0.882477  0.881974  0.881974  1
  Al  Al10  1  0.118026  0.117523  0.646426  1
  Al  Al11  1  0.118026  0.646426  0.117523  1
  Al  Al12  1  0.646016  0.117882  0.117882  1
  Al  Al13  1  0.118221  0.117882  0.117882  1
  Al  Al14  1  0.666394  0.666433  0.000780  1
  Al  Al15  1  0.666394  0.000780  0.666433  1
  Al  Al16  1  0.001064  0.666487  0.666487  1
  Al  Al17  1  0.665962  0.666487  0.666487  1
  Al  Al18  1  0.333513  0.334038  0.998936  1
  Al  Al19  1  0.333513  0.998936  0.334038  1
  Al  Al20  1  0.999220  0.333606  0.333606  1
  Al  Al21  1  0.333567  0.333606  0.333606  1
  Co  Co22  1  0.999828  0.000172  0.000172  1
  Ni  Ni23  1  0.000592  0.999408  0.500910  1
  Ni  Ni24  1  0.499090  0.999408  0.500910  1
  Ni  Ni25  1  0.999784  0.500216  0.500216  1
  Ni  Ni26  1  0.499090  0.500910  0.999408  1
  Ni  Ni27  1  0.000592  0.500910  0.999408  1
  Ni  Ni28  1  0.499784  0.000216  0.000216  1
