# generated using pymatgen
data_Dy8Tm12Sn13Bi3
_symmetry_space_group_name_H-M   'P 1'
_cell_length_a   8.07383003
_cell_length_b   8.12265633
_cell_length_c   15.31925713
_cell_angle_alpha   90.03873917
_cell_angle_beta   89.77689155
_cell_angle_gamma   90.05276048
_symmetry_Int_Tables_number   1
_chemical_formula_structural   Dy8Tm12Sn13Bi3
_chemical_formula_sum   'Dy8 Tm12 Sn13 Bi3'
_cell_volume   1004.64311409
_cell_formula_units_Z   1
loop_
 _symmetry_equiv_pos_site_id
 _symmetry_equiv_pos_as_xyz
  1  'x, y, z'
loop_
 _atom_site_type_symbol
 _atom_site_label
 _atom_site_symmetry_multiplicity
 _atom_site_fract_x
 _atom_site_fract_y
 _atom_site_fract_z
 _atom_site_occupancy
  Dy  Dy0  1  0.528564  0.326621  0.900308  1
  Dy  Dy1  1  0.037892  0.176846  0.602636  1
  Dy  Dy2  1  0.462289  0.676530  0.397698  1
  Dy  Dy3  1  0.966887  0.820107  0.100130  1
  Dy  Dy4  1  0.476300  0.673057  0.098191  1
  Dy  Dy5  1  0.978968  0.825135  0.398799  1
  Dy  Dy6  1  0.520779  0.324331  0.601212  1
  Dy  Dy7  1  0.020883  0.180874  0.900061  1
  Tm  Tm8  1  0.370117  0.834482  0.875472  1
  Tm  Tm9  1  0.874927  0.660225  0.625723  1
  Tm  Tm10  1  0.626358  0.159777  0.373924  1
  Tm  Tm11  1  0.129389  0.342343  0.124228  1
  Tm  Tm12  1  0.637179  0.162227  0.123688  1
  Tm  Tm13  1  0.135443  0.337078  0.376317  1
  Tm  Tm14  1  0.365037  0.837096  0.623596  1
  Tm  Tm15  1  0.867863  0.662380  0.876107  1
  Tm  Tm16  1  0.198187  0.502156  0.750598  1
  Tm  Tm17  1  0.697357  0.997734  0.754088  1
  Tm  Tm18  1  0.801998  0.497992  0.246878  1
  Tm  Tm19  1  0.302337  0.002195  0.252486  1
  Sn  Sn20  1  0.208073  0.535955  0.958048  1
  Sn  Sn21  1  0.710253  0.963677  0.958262  1
  Sn  Sn22  1  0.211213  0.535282  0.542160  1
  Sn  Sn23  1  0.289555  0.035460  0.458006  1
  Sn  Sn24  1  0.792895  0.463202  0.041286  1
  Sn  Sn25  1  0.565149  0.622488  0.747885  1
  Sn  Sn26  1  0.064647  0.879417  0.750891  1
  Sn  Sn27  1  0.436367  0.377712  0.248738  1
  Sn  Sn28  1  0.936414  0.122296  0.250811  1
  Sn  Sn29  1  0.335886  0.148338  0.751401  1
  Sn  Sn30  1  0.833954  0.350865  0.749225  1
  Sn  Sn31  1  0.663979  0.849758  0.249939  1
  Sn  Sn32  1  0.163942  0.649198  0.249115  1
  Bi  Bi33  1  0.288592  0.035726  0.042087  1
  Bi  Bi34  1  0.786342  0.465771  0.457746  1
  Bi  Bi35  1  0.713985  0.965669  0.542259  1
