# generated using pymatgen
data_Nd7(HoIn4)5
_symmetry_space_group_name_H-M   'P 1'
_cell_length_a   6.64164772
_cell_length_b   10.50881533
_cell_length_c   12.42507152
_cell_angle_alpha   90.11418977
_cell_angle_beta   89.88980088
_cell_angle_gamma   89.89486954
_symmetry_Int_Tables_number   1
_chemical_formula_structural   Nd7(HoIn4)5
_chemical_formula_sum   'Nd7 Ho5 In20'
_cell_volume   867.21362771
_cell_formula_units_Z   1
loop_
 _symmetry_equiv_pos_site_id
 _symmetry_equiv_pos_as_xyz
  1  'x, y, z'
loop_
 _atom_site_type_symbol
 _atom_site_label
 _atom_site_symmetry_multiplicity
 _atom_site_fract_x
 _atom_site_fract_y
 _atom_site_fract_z
 _atom_site_occupancy
  Nd  Nd0  1  0.611094  0.008042  0.643086  1
  Nd  Nd1  1  0.110007  0.991303  0.857375  1
  Nd  Nd2  1  0.389713  0.508632  0.356250  1
  Nd  Nd3  1  0.110220  0.508449  0.858410  1
  Nd  Nd4  1  0.389360  0.991504  0.355923  1
  Nd  Nd5  1  0.888888  0.008737  0.143546  1
  Nd  Nd6  1  0.611143  0.491421  0.643096  1
  Ho  Ho7  1  0.349090  0.750729  0.057844  1
  Ho  Ho8  1  0.148257  0.749609  0.557255  1
  Ho  Ho9  1  0.649066  0.251013  0.943210  1
  Ho  Ho10  1  0.850845  0.249581  0.442315  1
  Ho  Ho11  1  0.890564  0.491297  0.142445  1
  In  In12  1  0.617266  0.749585  0.501650  1
  In  In13  1  0.882255  0.747023  0.006254  1
  In  In14  1  0.382928  0.249920  0.497648  1
  In  In15  1  0.114723  0.250818  0.998227  1
  In  In16  1  0.654325  0.747281  0.242831  1
  In  In17  1  0.847851  0.749708  0.744958  1
  In  In18  1  0.348359  0.250078  0.755840  1
  In  In19  1  0.151627  0.252017  0.254866  1
  In  In20  1  0.115007  0.749545  0.282352  1
  In  In21  1  0.384647  0.749690  0.782449  1
  In  In22  1  0.884831  0.250031  0.717213  1
  In  In23  1  0.619739  0.253805  0.216126  1
  In  In24  1  0.876480  0.543343  0.400052  1
  In  In25  1  0.624735  0.954916  0.903226  1
  In  In26  1  0.123927  0.044826  0.596945  1
  In  In27  1  0.373372  0.456468  0.097807  1
  In  In28  1  0.123590  0.455479  0.596969  1
  In  In29  1  0.375942  0.045711  0.097149  1
  In  In30  1  0.875960  0.954960  0.402954  1
  In  In31  1  0.624193  0.544477  0.903734  1
