# generated using pymatgen
data_Ce2GaCo2Au
_symmetry_space_group_name_H-M   'P 1'
_cell_length_a   6.08626896
_cell_length_b   6.08626944
_cell_length_c   4.63830838
_cell_angle_alpha   74.56828778
_cell_angle_beta   74.56828590
_cell_angle_gamma   42.90772260
_symmetry_Int_Tables_number   1
_chemical_formula_structural   Ce2GaCo2Au
_chemical_formula_sum   'Ce2 Ga1 Co2 Au1'
_cell_volume   112.09267658
_cell_formula_units_Z   1
loop_
 _symmetry_equiv_pos_site_id
 _symmetry_equiv_pos_as_xyz
  1  'x, y, z'
loop_
 _atom_site_type_symbol
 _atom_site_label
 _atom_site_symmetry_multiplicity
 _atom_site_fract_x
 _atom_site_fract_y
 _atom_site_fract_z
 _atom_site_occupancy
  Ce  Ce0  1  0.133358  0.133358  0.666715  1
  Ce  Ce1  1  0.872637  0.872637  0.337311  1
  Ga  Ga2  1  0.580951  0.580951  0.199244  1
  Co  Co3  1  0.192615  0.192615  0.144783  1
  Co  Co4  1  0.793109  0.793109  0.844756  1
  Au  Au5  1  0.427330  0.427330  0.807190  1
