# generated using pymatgen
data_Ba10Si10O
_symmetry_space_group_name_H-M   'P 1'
_cell_length_a   11.81596390
_cell_length_b   11.81596249
_cell_length_c   11.81596308
_cell_angle_alpha   154.68914362
_cell_angle_beta   110.90814851
_cell_angle_gamma   74.87816867
_symmetry_Int_Tables_number   1
_chemical_formula_structural   Ba10Si10O
_chemical_formula_sum   'Ba10 Si10 O1'
_cell_volume   650.93726140
_cell_formula_units_Z   1
loop_
 _symmetry_equiv_pos_site_id
 _symmetry_equiv_pos_as_xyz
  1  'x, y, z'
loop_
 _atom_site_type_symbol
 _atom_site_label
 _atom_site_symmetry_multiplicity
 _atom_site_fract_x
 _atom_site_fract_y
 _atom_site_fract_z
 _atom_site_occupancy
  Ba  Ba0  1  0.845254  0.845254  0.000000  1
  Ba  Ba1  1  0.203318  0.000000  0.203318  1
  Ba  Ba2  1  0.469811  0.809587  0.660223  1
  Ba  Ba3  1  0.850637  0.190413  0.660223  1
  Ba  Ba4  1  0.796682  0.000000  0.796682  1
  Ba  Ba5  1  0.000000  0.500000  0.500000  1
  Ba  Ba6  1  0.154746  0.154746  0.000000  1
  Ba  Ba7  1  0.530189  0.190413  0.339777  1
  Ba  Ba8  1  0.500000  0.000000  0.500000  1
  Ba  Ba9  1  0.149363  0.809587  0.339777  1
  Si  Si10  1  0.411145  0.564950  0.846195  1
  Si  Si11  1  0.281245  0.435050  0.846195  1
  Si  Si12  1  0.588855  0.435050  0.153805  1
  Si  Si13  1  0.718755  0.564950  0.153805  1
  Si  Si14  1  0.677850  0.370799  0.307052  1
  Si  Si15  1  0.633570  0.633570  0.000000  1
  Si  Si16  1  0.322150  0.629201  0.692948  1
  Si  Si17  1  0.366430  0.366430  0.000000  1
  Si  Si18  1  0.063747  0.370799  0.692948  1
  Si  Si19  1  0.936253  0.629201  0.307052  1
  O  O20  1  0.000000  0.000000  0.000000  1
