# generated using pymatgen
data_Li3Ho8Sc9Si15As
_symmetry_space_group_name_H-M   'P 1'
_cell_length_a   6.95129754
_cell_length_b   7.38383711
_cell_length_c   13.99014840
_cell_angle_alpha   90.07345739
_cell_angle_beta   89.71053449
_cell_angle_gamma   90.01219999
_symmetry_Int_Tables_number   1
_chemical_formula_structural   Li3Ho8Sc9Si15As
_chemical_formula_sum   'Li3 Ho8 Sc9 Si15 As1'
_cell_volume   718.06605741
_cell_formula_units_Z   1
loop_
 _symmetry_equiv_pos_site_id
 _symmetry_equiv_pos_as_xyz
  1  'x, y, z'
loop_
 _atom_site_type_symbol
 _atom_site_label
 _atom_site_symmetry_multiplicity
 _atom_site_fract_x
 _atom_site_fract_y
 _atom_site_fract_z
 _atom_site_occupancy
  Li  Li0  1  0.160491  0.507477  0.752059  1
  Li  Li1  1  0.840938  0.494178  0.250111  1
  Li  Li2  1  0.341061  0.007488  0.250305  1
  Ho  Ho3  1  0.014664  0.181477  0.099452  1
  Ho  Ho4  1  0.989743  0.816801  0.901976  1
  Ho  Ho5  1  0.484009  0.675191  0.902546  1
  Ho  Ho6  1  0.989859  0.816010  0.596732  1
  Ho  Ho7  1  0.514512  0.317224  0.099030  1
  Ho  Ho8  1  0.012579  0.184032  0.400845  1
  Ho  Ho9  1  0.515323  0.316536  0.400660  1
  Ho  Ho10  1  0.488578  0.673892  0.597017  1
  Sc  Sc11  1  0.659784  0.997665  0.750100  1
  Sc  Sc12  1  0.327160  0.181153  0.626699  1
  Sc  Sc13  1  0.668127  0.822099  0.373010  1
  Sc  Sc14  1  0.165440  0.679140  0.373655  1
  Sc  Sc15  1  0.668096  0.822442  0.126713  1
  Sc  Sc16  1  0.835834  0.326857  0.625524  1
  Sc  Sc17  1  0.325594  0.182191  0.873696  1
  Sc  Sc18  1  0.834119  0.326596  0.873423  1
  Sc  Sc19  1  0.169552  0.679939  0.127180  1
  Si  Si20  1  0.029385  0.102378  0.749227  1
  Si  Si21  1  0.970734  0.898416  0.249868  1
  Si  Si22  1  0.468014  0.604086  0.249300  1
  Si  Si23  1  0.535416  0.387095  0.750392  1
  Si  Si24  1  0.287174  0.878660  0.749426  1
  Si  Si25  1  0.717507  0.119188  0.249924  1
  Si  Si26  1  0.220387  0.379382  0.250486  1
  Si  Si27  1  0.780899  0.627090  0.749599  1
  Si  Si28  1  0.819622  0.541143  0.465026  1
  Si  Si29  1  0.339589  0.964330  0.465301  1
  Si  Si30  1  0.840644  0.536918  0.036230  1
  Si  Si31  1  0.657600  0.033063  0.539509  1
  Si  Si32  1  0.157642  0.462720  0.966885  1
  Si  Si33  1  0.656114  0.032664  0.960423  1
  Si  Si34  1  0.341074  0.964081  0.035010  1
  As  As35  1  0.172738  0.460399  0.532661  1
