# generated using pymatgen
data_Ho6ZrSn23Ru6
_symmetry_space_group_name_H-M   'P 1'
_cell_length_a   9.81674078
_cell_length_b   9.81673924
_cell_length_c   10.03570676
_cell_angle_alpha   89.87676589
_cell_angle_beta   90.12323411
_cell_angle_gamma   119.98243001
_symmetry_Int_Tables_number   1
_chemical_formula_structural   Ho6ZrSn23Ru6
_chemical_formula_sum   'Ho6 Zr1 Sn23 Ru6'
_cell_volume   837.70034877
_cell_formula_units_Z   1
loop_
 _symmetry_equiv_pos_site_id
 _symmetry_equiv_pos_as_xyz
  1  'x, y, z'
loop_
 _atom_site_type_symbol
 _atom_site_label
 _atom_site_symmetry_multiplicity
 _atom_site_fract_x
 _atom_site_fract_y
 _atom_site_fract_z
 _atom_site_occupancy
  Ho  Ho0  1  0.000286  0.999714  0.000109  1
  Ho  Ho1  1  0.515076  0.030907  0.696280  1
  Ho  Ho2  1  0.969093  0.484924  0.696280  1
  Ho  Ho3  1  0.030874  0.515687  0.303972  1
  Ho  Ho4  1  0.484313  0.969126  0.303972  1
  Ho  Ho5  1  0.484667  0.515333  0.303173  1
  Zr  Zr6  1  0.513911  0.486089  0.696707  1
  Sn  Sn7  1  0.666820  0.333180  0.178503  1
  Sn  Sn8  1  0.662975  0.337025  0.868791  1
  Sn  Sn9  1  0.333352  0.666648  0.127919  1
  Sn  Sn10  1  0.350160  0.350042  0.998931  1
  Sn  Sn11  1  0.000231  0.650882  0.000172  1
  Sn  Sn12  1  0.650686  0.999202  0.999914  1
  Sn  Sn13  1  0.649958  0.649840  0.998931  1
  Sn  Sn14  1  0.334083  0.665917  0.820932  1
  Sn  Sn15  1  0.440499  0.221443  0.464804  1
  Sn  Sn16  1  0.219699  0.780301  0.537362  1
  Sn  Sn17  1  0.223317  0.439737  0.539276  1
  Sn  Sn18  1  0.560263  0.776683  0.539276  1
  Sn  Sn19  1  0.117877  0.882123  0.273680  1
  Sn  Sn20  1  0.778557  0.559501  0.464804  1
  Sn  Sn21  1  0.779977  0.220023  0.462254  1
  Sn  Sn22  1  0.349118  0.999769  0.000172  1
  Sn  Sn23  1  0.118775  0.236481  0.274300  1
  Sn  Sn24  1  0.763519  0.881225  0.274300  1
  Sn  Sn25  1  0.239004  0.121048  0.725343  1
  Sn  Sn26  1  0.878952  0.760996  0.725343  1
  Sn  Sn27  1  0.882145  0.117855  0.725931  1
  Sn  Sn28  1  0.000353  0.999647  0.500688  1
  Sn  Sn29  1  0.000798  0.349314  0.999914  1
  Ru  Ru30  1  0.169618  0.830382  0.797445  1
  Ru  Ru31  1  0.172727  0.341915  0.797546  1
  Ru  Ru32  1  0.658085  0.827273  0.797546  1
  Ru  Ru33  1  0.340992  0.170834  0.201893  1
  Ru  Ru34  1  0.829166  0.659008  0.201893  1
  Ru  Ru35  1  0.830073  0.169927  0.201645  1
