# generated using pymatgen
data_NaSm6PtI12
_symmetry_space_group_name_H-M   'P 1'
_cell_length_a   9.96243889
_cell_length_b   9.96243863
_cell_length_c   9.96244012
_cell_angle_alpha   107.20387444
_cell_angle_beta   107.20387813
_cell_angle_gamma   107.20387585
_symmetry_Int_Tables_number   1
_chemical_formula_structural   NaSm6PtI12
_chemical_formula_sum   'Na1 Sm6 Pt1 I12'
_cell_volume   818.83763055
_cell_formula_units_Z   1
loop_
 _symmetry_equiv_pos_site_id
 _symmetry_equiv_pos_as_xyz
  1  'x, y, z'
loop_
 _atom_site_type_symbol
 _atom_site_label
 _atom_site_symmetry_multiplicity
 _atom_site_fract_x
 _atom_site_fract_y
 _atom_site_fract_z
 _atom_site_occupancy
  Na  Na0  1  0.500000  0.500000  0.500000  1
  Sm  Sm1  1  0.100606  0.026901  0.308631  1
  Sm  Sm2  1  0.308631  0.100606  0.026901  1
  Sm  Sm3  1  0.026901  0.308631  0.100606  1
  Sm  Sm4  1  0.899394  0.973099  0.691369  1
  Sm  Sm5  1  0.691369  0.899394  0.973099  1
  Sm  Sm6  1  0.973099  0.691369  0.899394  1
  Pt  Pt7  1  0.000000  0.000000  0.000000  1
  I  I8  1  0.074458  0.679488  0.224911  1
  I  I9  1  0.224911  0.074458  0.679488  1
  I  I10  1  0.679488  0.224911  0.074458  1
  I  I11  1  0.925542  0.320512  0.775089  1
  I  I12  1  0.775089  0.925542  0.320512  1
  I  I13  1  0.320512  0.775089  0.925542  1
  I  I14  1  0.452365  0.143282  0.373311  1
  I  I15  1  0.373311  0.452365  0.143282  1
  I  I16  1  0.143282  0.373311  0.452365  1
  I  I17  1  0.547635  0.856718  0.626689  1
  I  I18  1  0.626689  0.547635  0.856718  1
  I  I19  1  0.856718  0.626689  0.547635  1
