# generated using pymatgen
data_Li3TbLu2Si2Ge
_symmetry_space_group_name_H-M   'P 1'
_cell_length_a   6.87779200
_cell_length_b   6.96278097
_cell_length_c   4.20003700
_cell_angle_alpha   90.00000000
_cell_angle_beta   90.00000000
_cell_angle_gamma   119.59704699
_symmetry_Int_Tables_number   1
_chemical_formula_structural   Li3TbLu2Si2Ge
_chemical_formula_sum   'Li3 Tb1 Lu2 Si2 Ge1'
_cell_volume   174.88987059
_cell_formula_units_Z   1
loop_
 _symmetry_equiv_pos_site_id
 _symmetry_equiv_pos_as_xyz
  1  'x, y, z'
loop_
 _atom_site_type_symbol
 _atom_site_label
 _atom_site_symmetry_multiplicity
 _atom_site_fract_x
 _atom_site_fract_y
 _atom_site_fract_z
 _atom_site_occupancy
  Li  Li0  1  0.234413  0.000000  0.500000  1
  Li  Li1  1  0.001128  0.236088  0.500000  1
  Li  Li2  1  0.765040  0.763912  0.500000  1
  Tb  Tb3  1  0.571240  0.000000  0.000000  1
  Lu  Lu4  1  0.999350  0.573598  0.000000  1
  Lu  Lu5  1  0.425752  0.426402  0.000000  1
  Si  Si6  1  0.329197  0.660545  0.500000  1
  Si  Si7  1  0.668653  0.339455  0.500000  1
  Ge  Ge8  1  0.005226  0.000000  0.000000  1
