# generated using pymatgen
data_Y3Ho(ErGa5)2
_symmetry_space_group_name_H-M   'P 1'
_cell_length_a   6.09949300
_cell_length_b   9.64064700
_cell_length_c   11.55157600
_cell_angle_alpha   90.00000000
_cell_angle_beta   90.00000000
_cell_angle_gamma   90.00107626
_symmetry_Int_Tables_number   1
_chemical_formula_structural   Y3Ho(ErGa5)2
_chemical_formula_sum   'Y6 Ho2 Er4 Ga20'
_cell_volume   679.26800376
_cell_formula_units_Z   2
loop_
 _symmetry_equiv_pos_site_id
 _symmetry_equiv_pos_as_xyz
  1  'x, y, z'
loop_
 _atom_site_type_symbol
 _atom_site_label
 _atom_site_symmetry_multiplicity
 _atom_site_fract_x
 _atom_site_fract_y
 _atom_site_fract_z
 _atom_site_occupancy
  Y  Y0  1  0.890689  0.509771  0.351563  1
  Y  Y1  1  0.609311  0.990229  0.851563  1
  Y  Y2  1  0.109223  0.009784  0.648312  1
  Y  Y3  1  0.390777  0.490216  0.148312  1
  Y  Y4  1  0.109280  0.490188  0.648517  1
  Y  Y5  1  0.390720  0.009812  0.148517  1
  Ho  Ho6  1  0.890778  0.990240  0.351551  1
  Ho  Ho7  1  0.609222  0.509760  0.851551  1
  Er  Er8  1  0.848919  0.749984  0.074527  1
  Er  Er9  1  0.651081  0.750016  0.574527  1
  Er  Er10  1  0.151181  0.250045  0.925439  1
  Er  Er11  1  0.348819  0.249955  0.425439  1
  Ga  Ga12  1  0.875235  0.053147  0.090575  1
  Ga  Ga13  1  0.624765  0.446853  0.590575  1
  Ga  Ga14  1  0.124934  0.553131  0.909565  1
  Ga  Ga15  1  0.375066  0.946869  0.409565  1
  Ga  Ga16  1  0.124781  0.946814  0.909617  1
  Ga  Ga17  1  0.375219  0.553186  0.409617  1
  Ga  Ga18  1  0.875171  0.446831  0.090286  1
  Ga  Ga19  1  0.624829  0.053169  0.590286  1
  Ga  Ga20  1  0.172789  0.750159  0.251695  1
  Ga  Ga21  1  0.327211  0.749841  0.751695  1
  Ga  Ga22  1  0.826869  0.250184  0.748459  1
  Ga  Ga23  1  0.673131  0.249816  0.248459  1
  Ga  Ga24  1  0.372992  0.749910  0.004740  1
  Ga  Ga25  1  0.127008  0.750090  0.504740  1
  Ga  Ga26  1  0.627112  0.250215  0.995040  1
  Ga  Ga27  1  0.872888  0.249785  0.495040  1
  Ga  Ga28  1  0.603079  0.750237  0.299305  1
  Ga  Ga29  1  0.896921  0.749763  0.799305  1
  Ga  Ga30  1  0.397303  0.250073  0.700809  1
  Ga  Ga31  1  0.102697  0.249927  0.200809  1
