# generated using pymatgen
data_MnFeP2O7
_symmetry_space_group_name_H-M   'P 1'
_cell_length_a   5.71965974
_cell_length_b   6.52063944
_cell_length_c   7.52699949
_cell_angle_alpha   81.77632863
_cell_angle_beta   86.58373451
_cell_angle_gamma   71.74186286
_symmetry_Int_Tables_number   1
_chemical_formula_structural   MnFeP2O7
_chemical_formula_sum   'Mn2 Fe2 P4 O14'
_cell_volume   263.81860058
_cell_formula_units_Z   2
loop_
 _symmetry_equiv_pos_site_id
 _symmetry_equiv_pos_as_xyz
  1  'x, y, z'
loop_
 _atom_site_type_symbol
 _atom_site_label
 _atom_site_symmetry_multiplicity
 _atom_site_fract_x
 _atom_site_fract_y
 _atom_site_fract_z
 _atom_site_occupancy
  Mn  Mn0  1  0.320552  0.657845  0.656589  1
  Mn  Mn1  1  0.679329  0.342060  0.343464  1
  Fe  Fe2  1  0.735967  0.845339  0.804963  1
  Fe  Fe3  1  0.264076  0.154736  0.194936  1
  P  P4  1  0.185377  0.683331  0.098590  1
  P  P5  1  0.814630  0.316720  0.901427  1
  P  P6  1  0.226912  0.197929  0.610224  1
  P  P7  1  0.773091  0.802016  0.389758  1
  O  O8  1  0.094765  0.697255  0.907494  1
  O  O9  1  0.905276  0.302786  0.092515  1
  O  O10  1  0.297937  0.860168  0.120407  1
  O  O11  1  0.702002  0.139904  0.879655  1
  O  O12  1  0.351509  0.450653  0.164727  1
  O  O13  1  0.648515  0.549398  0.835277  1
  O  O14  1  0.614593  0.649701  0.432691  1
  O  O15  1  0.385473  0.350220  0.567318  1
  O  O16  1  0.062706  0.209203  0.451762  1
  O  O17  1  0.937306  0.790794  0.548217  1
  O  O18  1  0.061501  0.287490  0.778616  1
  O  O19  1  0.938505  0.712496  0.221362  1
  O  O20  1  0.619365  0.036566  0.322763  1
  O  O21  1  0.380619  0.963385  0.677243  1
