# generated using pymatgen
data_Ti12Ga7CuO4
_symmetry_space_group_name_H-M   'P 1'
_cell_length_a   6.85771160
_cell_length_b   6.85771160
_cell_length_c   6.85771160
_cell_angle_alpha   89.83267905
_cell_angle_beta   90.16732095
_cell_angle_gamma   90.16732095
_symmetry_Int_Tables_number   1
_chemical_formula_structural   Ti12Ga7CuO4
_chemical_formula_sum   'Ti12 Ga7 Cu1 O4'
_cell_volume   322.50177259
_cell_formula_units_Z   1
loop_
 _symmetry_equiv_pos_site_id
 _symmetry_equiv_pos_as_xyz
  1  'x, y, z'
loop_
 _atom_site_type_symbol
 _atom_site_label
 _atom_site_symmetry_multiplicity
 _atom_site_fract_x
 _atom_site_fract_y
 _atom_site_fract_z
 _atom_site_occupancy
  Ti  Ti0  1  0.790819  0.959862  0.375153  1
  Ti  Ti1  1  0.707832  0.041492  0.875128  1
  Ti  Ti2  1  0.209673  0.457858  0.125964  1
  Ti  Ti3  1  0.291562  0.542912  0.623445  1
  Ti  Ti4  1  0.958508  0.375128  0.792168  1
  Ti  Ti5  1  0.040138  0.875153  0.709181  1
  Ti  Ti6  1  0.457088  0.123445  0.208438  1
  Ti  Ti7  1  0.542142  0.625964  0.290327  1
  Ti  Ti8  1  0.374036  0.790327  0.957858  1
  Ti  Ti9  1  0.876555  0.708438  0.042912  1
  Ti  Ti10  1  0.124847  0.209181  0.459862  1
  Ti  Ti11  1  0.624872  0.292168  0.541492  1
  Ga  Ga12  1  0.319563  0.178309  0.819929  1
  Ga  Ga13  1  0.821691  0.319929  0.180437  1
  Ga  Ga14  1  0.680071  0.680437  0.678309  1
  Ga  Ga15  1  0.569410  0.430590  0.930590  1
  Ga  Ga16  1  0.421960  0.926970  0.563138  1
  Ga  Ga17  1  0.936862  0.578040  0.426970  1
  Ga  Ga18  1  0.073030  0.063138  0.078040  1
  Cu  Cu19  1  0.179351  0.820649  0.320649  1
  O  O20  1  0.875502  0.124498  0.624498  1
  O  O21  1  0.624076  0.874416  0.125171  1
  O  O22  1  0.125584  0.625171  0.875924  1
  O  O23  1  0.374829  0.375924  0.374416  1
