# generated using pymatgen
data_La6ScAgAu10
_symmetry_space_group_name_H-M   'P 1'
_cell_length_a   8.20543793
_cell_length_b   8.20543831
_cell_length_c   8.20543800
_cell_angle_alpha   66.02364239
_cell_angle_beta   66.02364122
_cell_angle_gamma   66.02362285
_symmetry_Int_Tables_number   1
_chemical_formula_structural   La6ScAgAu10
_chemical_formula_sum   'La6 Sc1 Ag1 Au10'
_cell_volume   441.56430363
_cell_formula_units_Z   1
loop_
 _symmetry_equiv_pos_site_id
 _symmetry_equiv_pos_as_xyz
  1  'x, y, z'
loop_
 _atom_site_type_symbol
 _atom_site_label
 _atom_site_symmetry_multiplicity
 _atom_site_fract_x
 _atom_site_fract_y
 _atom_site_fract_z
 _atom_site_occupancy
  La  La0  1  0.900251  0.184995  0.617440  1
  La  La1  1  0.617440  0.900251  0.184995  1
  La  La2  1  0.184995  0.617440  0.900251  1
  La  La3  1  0.116116  0.800252  0.373407  1
  La  La4  1  0.373407  0.116116  0.800252  1
  La  La5  1  0.800252  0.373407  0.116116  1
  Sc  Sc6  1  0.653860  0.653860  0.653860  1
  Ag  Ag7  1  0.350757  0.350757  0.350757  1
  Au  Au8  1  0.998842  0.998842  0.998842  1
  Au  Au9  1  0.505209  0.505209  0.505209  1
  Au  Au10  1  0.801371  0.801371  0.801371  1
  Au  Au11  1  0.200124  0.200124  0.200124  1
  Au  Au12  1  0.932565  0.552742  0.324706  1
  Au  Au13  1  0.324706  0.932565  0.552742  1
  Au  Au14  1  0.552742  0.324706  0.932565  1
  Au  Au15  1  0.044374  0.455594  0.687397  1
  Au  Au16  1  0.687397  0.044374  0.455594  1
  Au  Au17  1  0.455594  0.687397  0.044374  1
