# generated using pymatgen
data_Yb3Eu(Si5N8)2
_symmetry_space_group_name_H-M   'P 1'
_cell_length_a   7.76549741
_cell_length_b   7.75157315
_cell_length_c   9.73534495
_cell_angle_alpha   69.30039633
_cell_angle_beta   69.29468046
_cell_angle_gamma   42.60162811
_symmetry_Int_Tables_number   1
_chemical_formula_structural   Yb3Eu(Si5N8)2
_chemical_formula_sum   'Yb3 Eu1 Si10 N16'
_cell_volume   367.00932030
_cell_formula_units_Z   1
loop_
 _symmetry_equiv_pos_site_id
 _symmetry_equiv_pos_as_xyz
  1  'x, y, z'
loop_
 _atom_site_type_symbol
 _atom_site_label
 _atom_site_symmetry_multiplicity
 _atom_site_fract_x
 _atom_site_fract_y
 _atom_site_fract_z
 _atom_site_occupancy
  Yb  Yb0  1  0.867974  0.353357  0.800811  1
  Yb  Yb1  1  0.768186  0.231583  0.497761  1
  Yb  Yb2  1  0.231818  0.767389  0.994788  1
  Eu  Eu3  1  0.358774  0.872906  0.287906  1
  Si  Si4  1  0.852561  0.854665  0.374560  1
  Si  Si5  1  0.852367  0.857382  0.874592  1
  Si  Si6  1  0.571709  0.156936  0.130913  1
  Si  Si7  1  0.154794  0.571038  0.632028  1
  Si  Si8  1  0.247565  0.260067  0.439449  1
  Si  Si9  1  0.257739  0.251401  0.936360  1
  Si  Si10  1  0.969741  0.542792  0.182515  1
  Si  Si11  1  0.545333  0.964086  0.683717  1
  Si  Si12  1  0.863834  0.250603  0.144815  1
  Si  Si13  1  0.251608  0.862795  0.649167  1
  N  N14  1  0.281035  0.314659  0.081639  1
  N  N15  1  0.313145  0.278425  0.585269  1
  N  N16  1  0.803433  0.457937  0.230019  1
  N  N17  1  0.473017  0.785884  0.731655  1
  N  N18  1  0.846863  0.819788  0.565536  1
  N  N19  1  0.818417  0.847418  0.066400  1
  N  N20  1  0.970634  0.985738  0.280652  1
  N  N21  1  0.983946  0.977245  0.785603  1
  N  N22  1  0.546052  0.060252  0.324509  1
  N  N23  1  0.052706  0.551279  0.824740  1
  N  N24  1  0.035658  0.554279  0.331038  1
  N  N25  1  0.553942  0.037251  0.830404  1
  N  N26  1  0.130541  0.125661  0.510013  1
  N  N27  1  0.123167  0.133903  0.002850  1
  N  N28  1  0.349174  0.624900  0.571579  1
  N  N29  1  0.627067  0.351178  0.064915  1
