# generated using pymatgen
data_Cs3VSe3S
_symmetry_space_group_name_H-M   'P 1'
_cell_length_a   10.23201900
_cell_length_b   10.16681200
_cell_length_c   11.97836200
_cell_angle_alpha   90.00000000
_cell_angle_beta   90.00000000
_cell_angle_gamma   90.00000000
_symmetry_Int_Tables_number   1
_chemical_formula_structural   Cs3VSe3S
_chemical_formula_sum   'Cs12 V4 Se12 S4'
_cell_volume   1246.07322612
_cell_formula_units_Z   4
loop_
 _symmetry_equiv_pos_site_id
 _symmetry_equiv_pos_as_xyz
  1  'x, y, z'
loop_
 _atom_site_type_symbol
 _atom_site_label
 _atom_site_symmetry_multiplicity
 _atom_site_fract_x
 _atom_site_fract_y
 _atom_site_fract_z
 _atom_site_occupancy
  Cs  Cs0  1  0.545538  0.208066  0.046454  1
  Cs  Cs1  1  0.045538  0.291934  0.453546  1
  Cs  Cs2  1  0.454462  0.791934  0.546454  1
  Cs  Cs3  1  0.954462  0.708066  0.953546  1
  Cs  Cs4  1  0.454462  0.791934  0.953546  1
  Cs  Cs5  1  0.954462  0.708066  0.546454  1
  Cs  Cs6  1  0.545538  0.208066  0.453546  1
  Cs  Cs7  1  0.045538  0.291934  0.046454  1
  Cs  Cs8  1  0.648863  0.414152  0.750000  1
  Cs  Cs9  1  0.148863  0.085848  0.750000  1
  Cs  Cs10  1  0.351137  0.585848  0.250000  1
  Cs  Cs11  1  0.851137  0.914152  0.250000  1
  V  V12  1  0.721433  0.978714  0.750000  1
  V  V13  1  0.221433  0.521286  0.750000  1
  V  V14  1  0.278567  0.021286  0.250000  1
  V  V15  1  0.778567  0.478714  0.250000  1
  Se  Se16  1  0.829675  0.046253  0.592152  1
  Se  Se17  1  0.329675  0.453747  0.907848  1
  Se  Se18  1  0.170325  0.953747  0.092152  1
  Se  Se19  1  0.670325  0.546253  0.407848  1
  Se  Se20  1  0.170325  0.953747  0.407848  1
  Se  Se21  1  0.670325  0.546253  0.092152  1
  Se  Se22  1  0.829675  0.046253  0.907848  1
  Se  Se23  1  0.329675  0.453747  0.592152  1
  Se  Se24  1  0.513211  0.066230  0.750000  1
  Se  Se25  1  0.013211  0.433770  0.750000  1
  Se  Se26  1  0.486789  0.933770  0.250000  1
  Se  Se27  1  0.986789  0.566230  0.250000  1
  S  S28  1  0.710387  0.766850  0.750000  1
  S  S29  1  0.210387  0.733150  0.750000  1
  S  S30  1  0.289613  0.233150  0.250000  1
  S  S31  1  0.789613  0.266850  0.250000  1
