# generated using pymatgen
data_Pr3Sm(Ga5Pd3)2
_symmetry_space_group_name_H-M   'P 1'
_cell_length_a   8.74645068
_cell_length_b   8.74471291
_cell_length_c   8.74471335
_cell_angle_alpha   140.64524101
_cell_angle_beta   107.86880047
_cell_angle_gamma   85.40464711
_symmetry_Int_Tables_number   1
_chemical_formula_structural   Pr3Sm(Ga5Pd3)2
_chemical_formula_sum   'Pr3 Sm1 Ga10 Pd6'
_cell_volume   389.74389519
_cell_formula_units_Z   1
loop_
 _symmetry_equiv_pos_site_id
 _symmetry_equiv_pos_as_xyz
  1  'x, y, z'
loop_
 _atom_site_type_symbol
 _atom_site_label
 _atom_site_symmetry_multiplicity
 _atom_site_fract_x
 _atom_site_fract_y
 _atom_site_fract_z
 _atom_site_occupancy
  Pr  Pr0  1  0.636844  0.862257  0.774586  1
  Pr  Pr1  1  0.363339  0.137852  0.225487  1
  Pr  Pr2  1  0.087459  0.361910  0.725549  1
  Sm  Sm3  1  0.912872  0.638050  0.274822  1
  Ga  Ga4  1  0.289668  0.039916  0.749552  1
  Ga  Ga5  1  0.710075  0.959151  0.250109  1
  Ga  Ga6  1  0.710075  0.459966  0.750924  1
  Ga  Ga7  1  0.289668  0.540116  0.249751  1
  Ga  Ga8  1  0.431626  0.596526  0.835100  1
  Ga  Ga9  1  0.568924  0.403939  0.164985  1
  Ga  Ga10  1  0.762090  0.096716  0.665373  1
  Ga  Ga11  1  0.238690  0.903281  0.335409  1
  Ga  Ga12  1  0.999740  0.749901  0.749119  1
  Ga  Ga13  1  0.999740  0.250621  0.249840  1
  Pd  Pd14  1  0.239750  0.643988  0.595763  1
  Pd  Pd15  1  0.759569  0.355859  0.403709  1
  Pd  Pd16  1  0.046823  0.143968  0.902855  1
  Pd  Pd17  1  0.952393  0.855708  0.096685  1
  Pd  Pd18  1  0.500327  0.750043  0.250098  1
  Pd  Pd19  1  0.500327  0.250229  0.750284  1
