# generated using pymatgen
data_DyY3(Sc3Pt4)2
_symmetry_space_group_name_H-M   'P 1'
_cell_length_a   7.28617100
_cell_length_b   7.29018100
_cell_length_c   14.16468001
_cell_angle_alpha   90.00370740
_cell_angle_beta   90.00000000
_cell_angle_gamma   90.00000000
_symmetry_Int_Tables_number   1
_chemical_formula_structural   DyY3(Sc3Pt4)2
_chemical_formula_sum   'Dy2 Y6 Sc12 Pt16'
_cell_volume   752.39246542
_cell_formula_units_Z   2
loop_
 _symmetry_equiv_pos_site_id
 _symmetry_equiv_pos_as_xyz
  1  'x, y, z'
loop_
 _atom_site_type_symbol
 _atom_site_label
 _atom_site_symmetry_multiplicity
 _atom_site_fract_x
 _atom_site_fract_y
 _atom_site_fract_z
 _atom_site_occupancy
  Dy  Dy0  1  0.003543  0.823299  0.406362  1
  Dy  Dy1  1  0.503543  0.676701  0.093638  1
  Y  Y2  1  0.496295  0.323641  0.593006  1
  Y  Y3  1  0.996295  0.176359  0.906994  1
  Y  Y4  1  0.995990  0.175946  0.592880  1
  Y  Y5  1  0.495990  0.324054  0.907120  1
  Y  Y6  1  0.503901  0.676559  0.406624  1
  Y  Y7  1  0.003901  0.823441  0.093376  1
  Sc  Sc8  1  0.678896  0.998184  0.249914  1
  Sc  Sc9  1  0.178896  0.501816  0.250086  1
  Sc  Sc10  1  0.821135  0.498124  0.749876  1
  Sc  Sc11  1  0.321135  0.001876  0.750124  1
  Sc  Sc12  1  0.654525  0.833374  0.624155  1
  Sc  Sc13  1  0.154525  0.666626  0.875845  1
  Sc  Sc14  1  0.845071  0.333301  0.375608  1
  Sc  Sc15  1  0.345071  0.166699  0.124392  1
  Sc  Sc16  1  0.345251  0.166666  0.375571  1
  Sc  Sc17  1  0.845251  0.333334  0.124429  1
  Sc  Sc18  1  0.154778  0.666727  0.624102  1
  Sc  Sc19  1  0.654778  0.833273  0.875898  1
  Pt  Pt20  1  0.813479  0.644083  0.250305  1
  Pt  Pt21  1  0.313479  0.855917  0.249695  1
  Pt  Pt22  1  0.686648  0.143432  0.749945  1
  Pt  Pt23  1  0.186648  0.356568  0.750055  1
  Pt  Pt24  1  0.542937  0.377520  0.249574  1
  Pt  Pt25  1  0.042937  0.122480  0.250426  1
  Pt  Pt26  1  0.957112  0.876808  0.749909  1
  Pt  Pt27  1  0.457112  0.623192  0.750091  1
  Pt  Pt28  1  0.821296  0.544134  0.540395  1
  Pt  Pt29  1  0.321296  0.955866  0.959605  1
  Pt  Pt30  1  0.680276  0.042242  0.458167  1
  Pt  Pt31  1  0.180276  0.457758  0.041833  1
  Pt  Pt32  1  0.178599  0.457503  0.458095  1
  Pt  Pt33  1  0.678599  0.042497  0.041905  1
  Pt  Pt34  1  0.320268  0.956465  0.540435  1
  Pt  Pt35  1  0.820268  0.543535  0.959565  1
