# generated using pymatgen
data_Ta2NbTcF20
_symmetry_space_group_name_H-M   'P 1'
_cell_length_a   5.74324639
_cell_length_b   7.57258200
_cell_length_c   9.92215744
_cell_angle_alpha   88.21142055
_cell_angle_beta   106.17106735
_cell_angle_gamma   99.06805912
_symmetry_Int_Tables_number   1
_chemical_formula_structural   Ta2NbTcF20
_chemical_formula_sum   'Ta2 Nb1 Tc1 F20'
_cell_volume   409.23648316
_cell_formula_units_Z   1
loop_
 _symmetry_equiv_pos_site_id
 _symmetry_equiv_pos_as_xyz
  1  'x, y, z'
loop_
 _atom_site_type_symbol
 _atom_site_label
 _atom_site_symmetry_multiplicity
 _atom_site_fract_x
 _atom_site_fract_y
 _atom_site_fract_z
 _atom_site_occupancy
  Ta  Ta0  1  0.965463  0.768624  0.314904  1
  Ta  Ta1  1  0.033689  0.229508  0.684159  1
  Nb  Nb2  1  0.660448  0.618204  0.779646  1
  Tc  Tc3  1  0.343264  0.390745  0.223671  1
  F  F4  1  0.041713  0.246510  0.168154  1
  F  F5  1  0.973797  0.751388  0.831104  1
  F  F6  1  0.484920  0.222689  0.158146  1
  F  F7  1  0.500373  0.778966  0.843016  1
  F  F8  1  0.115262  0.230750  0.882685  1
  F  F9  1  0.884354  0.768582  0.115989  1
  F  F10  1  0.960065  0.291052  0.492408  1
  F  F11  1  0.038212  0.706749  0.506599  1
  F  F12  1  0.762768  0.049835  0.662073  1
  F  F13  1  0.237007  0.947165  0.338607  1
  F  F14  1  0.255175  0.079343  0.672482  1
  F  F15  1  0.744737  0.919287  0.326204  1
  F  F16  1  0.315370  0.442955  0.712323  1
  F  F17  1  0.684881  0.554227  0.286693  1
  F  F18  1  0.822783  0.419131  0.700808  1
  F  F19  1  0.177129  0.578878  0.298731  1
  F  F20  1  0.694041  0.453636  0.928134  1
  F  F21  1  0.306046  0.547679  0.075223  1
  F  F22  1  0.571768  0.670137  0.586832  1
  F  F23  1  0.426734  0.333959  0.411408  1
