# generated using pymatgen
data_Tb4Ho3Tm3Ir4
_symmetry_space_group_name_H-M   'P 1'
_cell_length_a   6.46900398
_cell_length_b   7.18148133
_cell_length_c   8.52400920
_cell_angle_alpha   96.77325036
_cell_angle_beta   112.48795462
_cell_angle_gamma   90.07394666
_symmetry_Int_Tables_number   1
_chemical_formula_structural   Tb4Ho3Tm3Ir4
_chemical_formula_sum   'Tb4 Ho3 Tm3 Ir4'
_cell_volume   362.86970446
_cell_formula_units_Z   1
loop_
 _symmetry_equiv_pos_site_id
 _symmetry_equiv_pos_as_xyz
  1  'x, y, z'
loop_
 _atom_site_type_symbol
 _atom_site_label
 _atom_site_symmetry_multiplicity
 _atom_site_fract_x
 _atom_site_fract_y
 _atom_site_fract_z
 _atom_site_occupancy
  Tb  Tb0  1  0.971276  0.919358  0.183953  1
  Tb  Tb1  1  0.787146  0.580436  0.815411  1
  Tb  Tb2  1  0.028160  0.081165  0.815776  1
  Tb  Tb3  1  0.213345  0.418891  0.184517  1
  Ho  Ho4  1  0.650978  0.816441  0.440006  1
  Ho  Ho5  1  0.210503  0.682934  0.559779  1
  Ho  Ho6  1  0.349072  0.183866  0.559994  1
  Tm  Tm7  1  0.788689  0.316712  0.439243  1
  Tm  Tm8  1  0.428051  0.750110  0.000043  1
  Tm  Tm9  1  0.572341  0.250086  0.000699  1
  Ir  Ir10  1  0.821900  0.572466  0.220560  1
  Ir  Ir11  1  0.601629  0.927321  0.780185  1
  Ir  Ir12  1  0.177807  0.427213  0.779375  1
  Ir  Ir13  1  0.399104  0.073001  0.220459  1
