# generated using pymatgen
data_PuSc(Si7Rh3)2
_symmetry_space_group_name_H-M   'P 1'
_cell_length_a   7.93836600
_cell_length_b   7.93836577
_cell_length_c   7.93836646
_cell_angle_alpha   57.48663024
_cell_angle_beta   57.48662359
_cell_angle_gamma   57.48661374
_symmetry_Int_Tables_number   1
_chemical_formula_structural   PuSc(Si7Rh3)2
_chemical_formula_sum   'Pu1 Sc1 Si14 Rh6'
_cell_volume   333.28571686
_cell_formula_units_Z   1
loop_
 _symmetry_equiv_pos_site_id
 _symmetry_equiv_pos_as_xyz
  1  'x, y, z'
loop_
 _atom_site_type_symbol
 _atom_site_label
 _atom_site_symmetry_multiplicity
 _atom_site_fract_x
 _atom_site_fract_y
 _atom_site_fract_z
 _atom_site_occupancy
  Pu  Pu0  1  0.000000  0.000000  0.000000  1
  Sc  Sc1  1  0.500000  0.500000  0.500000  1
  Si  Si2  1  0.750260  0.750260  0.750260  1
  Si  Si3  1  0.249740  0.249740  0.249740  1
  Si  Si4  1  0.851227  0.067768  0.672226  1
  Si  Si5  1  0.672226  0.851227  0.067768  1
  Si  Si6  1  0.067768  0.672226  0.851227  1
  Si  Si7  1  0.648611  0.827866  0.432294  1
  Si  Si8  1  0.432294  0.648611  0.827866  1
  Si  Si9  1  0.827866  0.432294  0.648611  1
  Si  Si10  1  0.172134  0.567706  0.351389  1
  Si  Si11  1  0.567706  0.351389  0.172134  1
  Si  Si12  1  0.351389  0.172134  0.567706  1
  Si  Si13  1  0.932232  0.327774  0.148773  1
  Si  Si14  1  0.327774  0.148773  0.932232  1
  Si  Si15  1  0.148773  0.932232  0.327774  1
  Rh  Rh16  1  0.072201  0.433039  0.746837  1
  Rh  Rh17  1  0.253163  0.927799  0.566961  1
  Rh  Rh18  1  0.566961  0.253163  0.927799  1
  Rh  Rh19  1  0.927799  0.566961  0.253163  1
  Rh  Rh20  1  0.433039  0.746837  0.072201  1
  Rh  Rh21  1  0.746837  0.072201  0.433039  1
