# generated using pymatgen
data_YbY2Ga9Pd2
_symmetry_space_group_name_H-M   'P 1'
_cell_length_a   8.16315930
_cell_length_b   8.16315923
_cell_length_c   8.16315954
_cell_angle_alpha   149.10077094
_cell_angle_beta   109.30853738
_cell_angle_gamma   79.12150867
_symmetry_Int_Tables_number   1
_chemical_formula_structural   YbY2Ga9Pd2
_chemical_formula_sum   'Yb1 Y2 Ga9 Pd2'
_cell_volume   258.51763741
_cell_formula_units_Z   1
loop_
 _symmetry_equiv_pos_site_id
 _symmetry_equiv_pos_as_xyz
  1  'x, y, z'
loop_
 _atom_site_type_symbol
 _atom_site_label
 _atom_site_symmetry_multiplicity
 _atom_site_fract_x
 _atom_site_fract_y
 _atom_site_fract_z
 _atom_site_occupancy
  Yb  Yb0  1  0.799782  0.799782  0.000000  1
  Y  Y1  1  0.500179  0.500179  0.000000  1
  Y  Y2  1  0.201073  0.201073  0.000000  1
  Ga  Ga3  1  0.077925  0.360999  0.716926  1
  Ga  Ga4  1  0.918322  0.637008  0.281314  1
  Ga  Ga5  1  0.644074  0.360999  0.283074  1
  Ga  Ga6  1  0.355693  0.637008  0.718686  1
  Ga  Ga7  1  0.792907  0.157743  0.635163  1
  Ga  Ga8  1  0.211231  0.844797  0.366434  1
  Ga  Ga9  1  0.522579  0.157743  0.364837  1
  Ga  Ga10  1  0.478364  0.844797  0.633566  1
  Ga  Ga11  1  0.999792  0.499792  0.500000  1
  Pd  Pd12  1  0.817393  0.999040  0.818353  1
  Pd  Pd13  1  0.180686  0.999040  0.181647  1
