# generated using pymatgen
data_Dy4Ho4Sc12Si15Pb
_symmetry_space_group_name_H-M   'P 1'
_cell_length_a   7.12562213
_cell_length_b   7.41231170
_cell_length_c   14.05619734
_cell_angle_alpha   90.00736316
_cell_angle_beta   89.51978694
_cell_angle_gamma   90.05707753
_symmetry_Int_Tables_number   1
_chemical_formula_structural   Dy4Ho4Sc12Si15Pb
_chemical_formula_sum   'Dy4 Ho4 Sc12 Si15 Pb1'
_cell_volume   742.38439690
_cell_formula_units_Z   1
loop_
 _symmetry_equiv_pos_site_id
 _symmetry_equiv_pos_as_xyz
  1  'x, y, z'
loop_
 _atom_site_type_symbol
 _atom_site_label
 _atom_site_symmetry_multiplicity
 _atom_site_fract_x
 _atom_site_fract_y
 _atom_site_fract_z
 _atom_site_occupancy
  Dy  Dy0  1  0.012710  0.176024  0.096725  1
  Dy  Dy1  1  0.987546  0.824649  0.904068  1
  Dy  Dy2  1  0.488564  0.676286  0.904004  1
  Dy  Dy3  1  0.987171  0.832291  0.598484  1
  Ho  Ho4  1  0.511903  0.323456  0.097215  1
  Ho  Ho5  1  0.005822  0.168906  0.398328  1
  Ho  Ho6  1  0.514601  0.318917  0.398456  1
  Ho  Ho7  1  0.503093  0.686051  0.600371  1
  Sc  Sc8  1  0.161368  0.502521  0.756704  1
  Sc  Sc9  1  0.838044  0.497578  0.249352  1
  Sc  Sc10  1  0.338551  0.002679  0.249362  1
  Sc  Sc11  1  0.662898  0.997427  0.751563  1
  Sc  Sc12  1  0.342941  0.159898  0.631331  1
  Sc  Sc13  1  0.664584  0.825694  0.372540  1
  Sc  Sc14  1  0.164108  0.684090  0.368854  1
  Sc  Sc15  1  0.669008  0.823069  0.124223  1
  Sc  Sc16  1  0.820811  0.323313  0.626656  1
  Sc  Sc17  1  0.330227  0.175547  0.875415  1
  Sc  Sc18  1  0.830200  0.323507  0.875525  1
  Sc  Sc19  1  0.169501  0.676715  0.125124  1
  Si  Si20  1  0.033901  0.119174  0.751328  1
  Si  Si21  1  0.964488  0.884985  0.246986  1
  Si  Si22  1  0.466617  0.615536  0.248611  1
  Si  Si23  1  0.531352  0.385526  0.751630  1
  Si  Si24  1  0.285669  0.869720  0.752128  1
  Si  Si25  1  0.713275  0.126775  0.247646  1
  Si  Si26  1  0.213065  0.372665  0.249350  1
  Si  Si27  1  0.788919  0.627684  0.751214  1
  Si  Si28  1  0.826148  0.539344  0.458076  1
  Si  Si29  1  0.338692  0.964349  0.459883  1
  Si  Si30  1  0.842554  0.534382  0.039500  1
  Si  Si31  1  0.660820  0.037474  0.538025  1
  Si  Si32  1  0.156648  0.464784  0.961787  1
  Si  Si33  1  0.656417  0.035422  0.960728  1
  Si  Si34  1  0.342831  0.965455  0.039866  1
  Pb  Pb35  1  0.174950  0.458106  0.538945  1
