# generated using pymatgen
data_Tb19TmIr5Rh7
_symmetry_space_group_name_H-M   'P 1'
_cell_length_a   10.92873204
_cell_length_b   10.92839392
_cell_length_c   6.39872902
_cell_angle_alpha   89.99788363
_cell_angle_beta   89.99782245
_cell_angle_gamma   90.05909709
_symmetry_Int_Tables_number   1
_chemical_formula_structural   Tb19TmIr5Rh7
_chemical_formula_sum   'Tb19 Tm1 Ir5 Rh7'
_cell_volume   764.22212301
_cell_formula_units_Z   1
loop_
 _symmetry_equiv_pos_site_id
 _symmetry_equiv_pos_as_xyz
  1  'x, y, z'
loop_
 _atom_site_type_symbol
 _atom_site_label
 _atom_site_symmetry_multiplicity
 _atom_site_fract_x
 _atom_site_fract_y
 _atom_site_fract_z
 _atom_site_occupancy
  Tb  Tb0  1  0.290831  0.088162  0.377235  1
  Tb  Tb1  1  0.290721  0.910052  0.878759  1
  Tb  Tb2  1  0.708602  0.089580  0.878144  1
  Tb  Tb3  1  0.708455  0.910247  0.377510  1
  Tb  Tb4  1  0.587292  0.789849  0.878629  1
  Tb  Tb5  1  0.587103  0.210361  0.378681  1
  Tb  Tb6  1  0.411317  0.789889  0.378699  1
  Tb  Tb7  1  0.412652  0.210020  0.878408  1
  Tb  Tb8  1  0.210415  0.412736  0.621169  1
  Tb  Tb9  1  0.209834  0.588718  0.121512  1
  Tb  Tb10  1  0.789910  0.412873  0.121526  1
  Tb  Tb11  1  0.789698  0.587323  0.621396  1
  Tb  Tb12  1  0.911927  0.709169  0.122690  1
  Tb  Tb13  1  0.910324  0.291402  0.621927  1
  Tb  Tb14  1  0.090037  0.709283  0.621308  1
  Tb  Tb15  1  0.089653  0.291562  0.122405  1
  Tb  Tb16  1  0.000147  0.999773  0.500122  1
  Tb  Tb17  1  0.000226  0.999860  0.999874  1
  Tb  Tb18  1  0.499935  0.499821  0.000123  1
  Tm  Tm19  1  0.500162  0.500077  0.499905  1
  Ir  Ir20  1  0.153377  0.846589  0.249972  1
  Ir  Ir21  1  0.654187  0.345817  0.749175  1
  Ir  Ir22  1  0.654293  0.654081  0.250702  1
  Ir  Ir23  1  0.345915  0.345712  0.250936  1
  Ir  Ir24  1  0.346481  0.653527  0.749178  1
  Rh  Rh25  1  0.846673  0.153356  0.249983  1
  Rh  Rh26  1  0.845948  0.846677  0.749900  1
  Rh  Rh27  1  0.153334  0.154025  0.750145  1
  Rh  Rh28  1  0.500593  0.000263  0.122344  1
  Rh  Rh29  1  0.500463  0.000240  0.622909  1
  Rh  Rh30  1  0.999756  0.499544  0.877109  1
  Rh  Rh31  1  0.999741  0.499411  0.377627  1
