# generated using pymatgen
data_La10Si2Br15
_symmetry_space_group_name_H-M   'P 1'
_cell_length_a   9.74182141
_cell_length_b   10.54221654
_cell_length_c   11.49692251
_cell_angle_alpha   90.57682752
_cell_angle_beta   114.72165027
_cell_angle_gamma   111.03413850
_symmetry_Int_Tables_number   1
_chemical_formula_structural   La10Si2Br15
_chemical_formula_sum   'La10 Si2 Br15'
_cell_volume   983.03114313
_cell_formula_units_Z   1
loop_
 _symmetry_equiv_pos_site_id
 _symmetry_equiv_pos_as_xyz
  1  'x, y, z'
loop_
 _atom_site_type_symbol
 _atom_site_label
 _atom_site_symmetry_multiplicity
 _atom_site_fract_x
 _atom_site_fract_y
 _atom_site_fract_z
 _atom_site_occupancy
  La  La0  1  0.817193  0.424651  0.282524  1
  La  La1  1  0.182807  0.575349  0.717476  1
  La  La2  1  0.687770  0.742198  0.819485  1
  La  La3  1  0.312230  0.257802  0.180515  1
  La  La4  1  0.527555  0.692858  0.104277  1
  La  La5  1  0.472445  0.307142  0.895723  1
  La  La6  1  0.592356  0.037681  0.341103  1
  La  La7  1  0.407644  0.962319  0.658897  1
  La  La8  1  0.743644  0.081131  0.051919  1
  La  La9  1  0.256356  0.918869  0.948081  1
  Si  Si10  1  0.466786  0.822464  0.877715  1
  Si  Si11  1  0.533214  0.177536  0.122285  1
  Br  Br12  1  0.000000  0.000000  0.000000  1
  Br  Br13  1  0.636997  0.882964  0.585565  1
  Br  Br14  1  0.363003  0.117036  0.414435  1
  Br  Br15  1  0.883862  0.299631  0.526259  1
  Br  Br16  1  0.116138  0.700369  0.473741  1
  Br  Br17  1  0.298301  0.765276  0.181996  1
  Br  Br18  1  0.701699  0.234724  0.818004  1
  Br  Br19  1  0.059315  0.346506  0.229442  1
  Br  Br20  1  0.171095  0.059732  0.705770  1
  Br  Br21  1  0.828905  0.940268  0.294230  1
  Br  Br22  1  0.234451  0.410508  0.945228  1
  Br  Br23  1  0.765549  0.589492  0.054772  1
  Br  Br24  1  0.406530  0.467555  0.658500  1
  Br  Br25  1  0.593470  0.532445  0.341500  1
  Br  Br26  1  0.940685  0.653494  0.770558  1
