# generated using pymatgen
data_Cd2Bi3Sb3O14
_symmetry_space_group_name_H-M   'P 1'
_cell_length_a   7.48619788
_cell_length_b   7.48620011
_cell_length_c   7.48619386
_cell_angle_alpha   61.23043785
_cell_angle_beta   61.23046289
_cell_angle_gamma   61.23055569
_symmetry_Int_Tables_number   1
_chemical_formula_structural   Cd2Bi3Sb3O14
_chemical_formula_sum   'Cd2 Bi3 Sb3 O14'
_cell_volume   304.87635472
_cell_formula_units_Z   1
loop_
 _symmetry_equiv_pos_site_id
 _symmetry_equiv_pos_as_xyz
  1  'x, y, z'
loop_
 _atom_site_type_symbol
 _atom_site_label
 _atom_site_symmetry_multiplicity
 _atom_site_fract_x
 _atom_site_fract_y
 _atom_site_fract_z
 _atom_site_occupancy
  Cd  Cd0  1  0.000000  0.500002  0.999997  1
  Cd  Cd1  1  0.499997  0.999976  0.500027  1
  Bi  Bi2  1  0.000000  0.000006  0.499995  1
  Bi  Bi3  1  0.500012  0.000016  0.000001  1
  Bi  Bi4  1  0.499995  0.499997  0.499989  1
  Sb  Sb5  1  0.500000  0.500003  0.999997  1
  Sb  Sb6  1  0.000001  0.500001  0.500000  1
  Sb  Sb7  1  0.000002  0.999999  0.999999  1
  O  O8  1  0.617926  0.117925  0.617926  1
  O  O9  1  0.382073  0.882073  0.382074  1
  O  O10  1  0.082213  0.186605  0.686604  1
  O  O11  1  0.686602  0.186603  0.082209  1
  O  O12  1  0.686606  0.582216  0.686605  1
  O  O13  1  0.917785  0.813396  0.313395  1
  O  O14  1  0.313393  0.813394  0.917781  1
  O  O15  1  0.313397  0.417789  0.313396  1
  O  O16  1  0.631469  0.597894  0.097896  1
  O  O17  1  0.097896  0.597895  0.631470  1
  O  O18  1  0.097893  0.131469  0.097896  1
  O  O19  1  0.368530  0.402103  0.902107  1
  O  O20  1  0.902107  0.402106  0.368529  1
  O  O21  1  0.902102  0.868531  0.902107  1
