# generated using pymatgen
data_HfTlCrS4
_symmetry_space_group_name_H-M   'P 1'
_cell_length_a   6.13612500
_cell_length_b   7.19490900
_cell_length_c   16.03532400
_cell_angle_alpha   90.00000000
_cell_angle_beta   90.00000000
_cell_angle_gamma   90.00000000
_symmetry_Int_Tables_number   1
_chemical_formula_structural   HfTlCrS4
_chemical_formula_sum   'Hf4 Tl4 Cr4 S16'
_cell_volume   707.94129017
_cell_formula_units_Z   4
loop_
 _symmetry_equiv_pos_site_id
 _symmetry_equiv_pos_as_xyz
  1  'x, y, z'
loop_
 _atom_site_type_symbol
 _atom_site_label
 _atom_site_symmetry_multiplicity
 _atom_site_fract_x
 _atom_site_fract_y
 _atom_site_fract_z
 _atom_site_occupancy
  Hf  Hf0  1  0.500000  0.250000  0.250000  1
  Hf  Hf1  1  0.500000  0.750000  0.750000  1
  Hf  Hf2  1  0.500000  0.750000  0.250000  1
  Hf  Hf3  1  0.500000  0.250000  0.750000  1
  Tl  Tl4  1  0.344446  0.000000  0.000000  1
  Tl  Tl5  1  0.655554  0.500000  0.500000  1
  Tl  Tl6  1  0.016327  0.000000  0.500000  1
  Tl  Tl7  1  0.983673  0.500000  0.000000  1
  Cr  Cr8  1  0.000927  0.000000  0.249960  1
  Cr  Cr9  1  0.000927  0.000000  0.750040  1
  Cr  Cr10  1  0.999073  0.500000  0.250040  1
  Cr  Cr11  1  0.999073  0.500000  0.749960  1
  S  S12  1  0.847986  0.251282  0.336237  1
  S  S13  1  0.847986  0.748718  0.663763  1
  S  S14  1  0.152014  0.751282  0.163763  1
  S  S15  1  0.152014  0.248718  0.836237  1
  S  S16  1  0.152014  0.248718  0.163763  1
  S  S17  1  0.152014  0.751282  0.836237  1
  S  S18  1  0.847986  0.748718  0.336237  1
  S  S19  1  0.847986  0.251282  0.663763  1
  S  S20  1  0.677567  0.000000  0.160291  1
  S  S21  1  0.677567  0.000000  0.839709  1
  S  S22  1  0.322433  0.500000  0.339709  1
  S  S23  1  0.322433  0.500000  0.660291  1
  S  S24  1  0.325941  0.000000  0.339862  1
  S  S25  1  0.325941  0.000000  0.660138  1
  S  S26  1  0.674059  0.500000  0.160138  1
  S  S27  1  0.674059  0.500000  0.839862  1
