# generated using pymatgen
data_Ca2Hg13(P2Cl3)4
_symmetry_space_group_name_H-M   'P 1'
_cell_length_a   12.19970500
_cell_length_b   12.19951921
_cell_length_c   12.19980400
_cell_angle_alpha   89.94702279
_cell_angle_beta   90.00000000
_cell_angle_gamma   90.00000000
_symmetry_Int_Tables_number   1
_chemical_formula_structural   Ca2Hg13(P2Cl3)4
_chemical_formula_sum   'Ca4 Hg26 P16 Cl24'
_cell_volume   1815.70258694
_cell_formula_units_Z   2
loop_
 _symmetry_equiv_pos_site_id
 _symmetry_equiv_pos_as_xyz
  1  'x, y, z'
loop_
 _atom_site_type_symbol
 _atom_site_label
 _atom_site_symmetry_multiplicity
 _atom_site_fract_x
 _atom_site_fract_y
 _atom_site_fract_z
 _atom_site_occupancy
  Ca  Ca0  1  0.500000  0.500000  0.500000  1
  Ca  Ca1  1  0.000000  0.500000  0.000000  1
  Ca  Ca2  1  0.500000  0.000000  0.000000  1
  Ca  Ca3  1  0.000000  0.000000  0.500000  1
  Hg  Hg4  1  0.000000  0.500000  0.500000  1
  Hg  Hg5  1  0.500000  0.500000  0.000000  1
  Hg  Hg6  1  0.785254  0.288540  0.473158  1
  Hg  Hg7  1  0.285254  0.711460  0.026842  1
  Hg  Hg8  1  0.214618  0.210633  0.972848  1
  Hg  Hg9  1  0.714618  0.789367  0.527152  1
  Hg  Hg10  1  0.289605  0.472757  0.785948  1
  Hg  Hg11  1  0.711640  0.026764  0.284775  1
  Hg  Hg12  1  0.211640  0.973236  0.215225  1
  Hg  Hg13  1  0.789605  0.527243  0.714052  1
  Hg  Hg14  1  0.473092  0.785506  0.289109  1
  Hg  Hg15  1  0.027087  0.285125  0.711195  1
  Hg  Hg16  1  0.973092  0.214494  0.210891  1
  Hg  Hg17  1  0.527087  0.714875  0.788805  1
  Hg  Hg18  1  0.214746  0.711460  0.526842  1
  Hg  Hg19  1  0.714746  0.288540  0.973158  1
  Hg  Hg20  1  0.785382  0.789367  0.027152  1
  Hg  Hg21  1  0.285382  0.210633  0.472848  1
  Hg  Hg22  1  0.710395  0.527243  0.214052  1
  Hg  Hg23  1  0.288360  0.973236  0.715225  1
  Hg  Hg24  1  0.788360  0.026764  0.784775  1
  Hg  Hg25  1  0.210395  0.472757  0.285948  1
  Hg  Hg26  1  0.526908  0.214494  0.710891  1
  Hg  Hg27  1  0.972913  0.714875  0.288805  1
  Hg  Hg28  1  0.026908  0.785506  0.789109  1
  Hg  Hg29  1  0.472913  0.285125  0.211195  1
  P  P30  1  0.828034  0.327871  0.672081  1
  P  P31  1  0.328034  0.672129  0.827919  1
  P  P32  1  0.171871  0.171723  0.171761  1
  P  P33  1  0.671871  0.828277  0.328239  1
  P  P34  1  0.171966  0.672129  0.327919  1
  P  P35  1  0.671966  0.327871  0.172081  1
  P  P36  1  0.828129  0.828277  0.828239  1
  P  P37  1  0.328129  0.171723  0.671761  1
  P  P38  1  0.777623  0.222427  0.277489  1
  P  P39  1  0.277623  0.777573  0.222511  1
  P  P40  1  0.223048  0.276999  0.777093  1
  P  P41  1  0.723048  0.723001  0.722907  1
  P  P42  1  0.222377  0.777573  0.722511  1
  P  P43  1  0.722377  0.222427  0.777489  1
  P  P44  1  0.776952  0.723001  0.222907  1
  P  P45  1  0.276952  0.276999  0.277093  1
  Cl  Cl46  1  0.539215  0.278955  0.464598  1
  Cl  Cl47  1  0.039215  0.721045  0.035402  1
  Cl  Cl48  1  0.459770  0.216698  0.963564  1
  Cl  Cl49  1  0.959770  0.783302  0.536436  1
  Cl  Cl50  1  0.283138  0.463370  0.540604  1
  Cl  Cl51  1  0.720874  0.035223  0.038895  1
  Cl  Cl52  1  0.220874  0.964777  0.461105  1
  Cl  Cl53  1  0.783138  0.536630  0.959396  1
  Cl  Cl54  1  0.462680  0.540038  0.283021  1
  Cl  Cl55  1  0.034564  0.039423  0.720709  1
  Cl  Cl56  1  0.962680  0.459962  0.216979  1
  Cl  Cl57  1  0.534564  0.960577  0.779291  1
  Cl  Cl58  1  0.460785  0.721045  0.535402  1
  Cl  Cl59  1  0.960785  0.278955  0.964598  1
  Cl  Cl60  1  0.540230  0.783302  0.036436  1
  Cl  Cl61  1  0.040230  0.216698  0.463564  1
  Cl  Cl62  1  0.716862  0.536630  0.459396  1
  Cl  Cl63  1  0.279126  0.964777  0.961105  1
  Cl  Cl64  1  0.779126  0.035223  0.538895  1
  Cl  Cl65  1  0.216862  0.463370  0.040604  1
  Cl  Cl66  1  0.537320  0.459962  0.716979  1
  Cl  Cl67  1  0.965436  0.960577  0.279291  1
  Cl  Cl68  1  0.037320  0.540038  0.783021  1
  Cl  Cl69  1  0.465436  0.039423  0.220709  1
