# generated using pymatgen
data_CeLu3(TcB6)2
_symmetry_space_group_name_H-M   'P 1'
_cell_length_a   3.66177200
_cell_length_b   9.10104790
_cell_length_c   11.47340893
_cell_angle_alpha   89.89381616
_cell_angle_beta   90.00000000
_cell_angle_gamma   90.00000000
_symmetry_Int_Tables_number   1
_chemical_formula_structural   CeLu3(TcB6)2
_chemical_formula_sum   'Ce2 Lu6 Tc4 B24'
_cell_volume   382.36173781
_cell_formula_units_Z   2
loop_
 _symmetry_equiv_pos_site_id
 _symmetry_equiv_pos_as_xyz
  1  'x, y, z'
loop_
 _atom_site_type_symbol
 _atom_site_label
 _atom_site_symmetry_multiplicity
 _atom_site_fract_x
 _atom_site_fract_y
 _atom_site_fract_z
 _atom_site_occupancy
  Ce  Ce0  1  0.000000  0.821850  0.086300  1
  Ce  Ce1  1  0.000000  0.178150  0.913700  1
  Lu  Lu2  1  0.000000  0.323864  0.415187  1
  Lu  Lu3  1  0.000000  0.676136  0.584813  1
  Lu  Lu4  1  0.000000  0.443466  0.130842  1
  Lu  Lu5  1  0.000000  0.556534  0.869158  1
  Lu  Lu6  1  0.000000  0.942887  0.371897  1
  Lu  Lu7  1  0.000000  0.057113  0.628103  1
  Tc  Tc8  1  0.000000  0.139364  0.180527  1
  Tc  Tc9  1  0.000000  0.860636  0.819473  1
  Tc  Tc10  1  0.000000  0.639375  0.320553  1
  Tc  Tc11  1  0.000000  0.360625  0.679447  1
  B  B12  1  0.500000  0.054845  0.069191  1
  B  B13  1  0.500000  0.945155  0.930809  1
  B  B14  1  0.500000  0.553422  0.434187  1
  B  B15  1  0.500000  0.446578  0.565813  1
  B  B16  1  0.500000  0.251115  0.083582  1
  B  B17  1  0.500000  0.748885  0.916418  1
  B  B18  1  0.500000  0.749706  0.420406  1
  B  B19  1  0.500000  0.250294  0.579594  1
  B  B20  1  0.500000  0.293219  0.237189  1
  B  B21  1  0.500000  0.706781  0.762811  1
  B  B22  1  0.500000  0.791710  0.266942  1
  B  B23  1  0.500000  0.208290  0.733058  1
  B  B24  1  0.500000  0.130990  0.317077  1
  B  B25  1  0.500000  0.869010  0.682923  1
  B  B26  1  0.500000  0.629708  0.186328  1
  B  B27  1  0.500000  0.370292  0.813672  1
  B  B28  1  0.500000  0.481223  0.289421  1
  B  B29  1  0.500000  0.518777  0.710579  1
  B  B30  1  0.500000  0.983151  0.214562  1
  B  B31  1  0.500000  0.016849  0.785438  1
  B  B32  1  0.500000  0.100923  0.472167  1
  B  B33  1  0.500000  0.899077  0.527833  1
  B  B34  1  0.500000  0.599377  0.027514  1
  B  B35  1  0.500000  0.400623  0.972486  1
