# generated using pymatgen
data_NdEr2Hf(NiAs)4
_symmetry_space_group_name_H-M   'P 1'
_cell_length_a   4.02385400
_cell_length_b   4.02385419
_cell_length_c   15.30796000
_cell_angle_alpha   90.00000000
_cell_angle_beta   90.00000000
_cell_angle_gamma   119.99999847
_symmetry_Int_Tables_number   1
_chemical_formula_structural   NdEr2Hf(NiAs)4
_chemical_formula_sum   'Nd1 Er2 Hf1 Ni4 As4'
_cell_volume   214.65074805
_cell_formula_units_Z   1
loop_
 _symmetry_equiv_pos_site_id
 _symmetry_equiv_pos_as_xyz
  1  'x, y, z'
loop_
 _atom_site_type_symbol
 _atom_site_label
 _atom_site_symmetry_multiplicity
 _atom_site_fract_x
 _atom_site_fract_y
 _atom_site_fract_z
 _atom_site_occupancy
  Nd  Nd0  1  0.000000  0.000000  0.007752  1
  Er  Er1  1  0.000000  0.000000  0.744504  1
  Er  Er2  1  0.000000  0.000000  0.494048  1
  Hf  Hf3  1  0.000000  0.000000  0.255215  1
  Ni  Ni4  1  0.333333  0.666667  0.167580  1
  Ni  Ni5  1  0.666667  0.333333  0.861858  1
  Ni  Ni6  1  0.666667  0.333333  0.624097  1
  Ni  Ni7  1  0.333333  0.666667  0.344455  1
  As  As8  1  0.333333  0.666667  0.615025  1
  As  As9  1  0.666667  0.333333  0.379578  1
  As  As10  1  0.666667  0.333333  0.131850  1
  As  As11  1  0.333333  0.666667  0.874037  1
