# generated using pymatgen
data_La3BSbRh6
_symmetry_space_group_name_H-M   'P 1'
_cell_length_a   5.96754000
_cell_length_b   5.96753979
_cell_length_c   13.97217000
_cell_angle_alpha   90.00000000
_cell_angle_beta   90.00000000
_cell_angle_gamma   120.00000114
_symmetry_Int_Tables_number   1
_chemical_formula_structural   La3BSbRh6
_chemical_formula_sum   'La6 B2 Sb2 Rh12'
_cell_volume   430.90858857
_cell_formula_units_Z   2
loop_
 _symmetry_equiv_pos_site_id
 _symmetry_equiv_pos_as_xyz
  1  'x, y, z'
loop_
 _atom_site_type_symbol
 _atom_site_label
 _atom_site_symmetry_multiplicity
 _atom_site_fract_x
 _atom_site_fract_y
 _atom_site_fract_z
 _atom_site_occupancy
  La  La0  1  0.000000  0.000000  0.750000  1
  La  La1  1  0.000000  0.000000  0.250000  1
  La  La2  1  0.333333  0.666667  0.407976  1
  La  La3  1  0.666667  0.333333  0.907976  1
  La  La4  1  0.666667  0.333333  0.592024  1
  La  La5  1  0.333333  0.666667  0.092024  1
  B  B6  1  0.000000  0.000000  0.500000  1
  B  B7  1  0.000000  0.000000  0.000000  1
  Sb  Sb8  1  0.333333  0.666667  0.750000  1
  Sb  Sb9  1  0.666667  0.333333  0.250000  1
  Rh  Rh10  1  0.343186  0.171593  0.413883  1
  Rh  Rh11  1  0.828407  0.171593  0.413883  1
  Rh  Rh12  1  0.828407  0.656814  0.413883  1
  Rh  Rh13  1  0.171593  0.343186  0.913883  1
  Rh  Rh14  1  0.656814  0.828407  0.586117  1
  Rh  Rh15  1  0.656814  0.828407  0.913883  1
  Rh  Rh16  1  0.343186  0.171593  0.086117  1
  Rh  Rh17  1  0.171593  0.343186  0.586117  1
  Rh  Rh18  1  0.171593  0.828407  0.586117  1
  Rh  Rh19  1  0.828407  0.171593  0.086117  1
  Rh  Rh20  1  0.828407  0.656814  0.086117  1
  Rh  Rh21  1  0.171593  0.828407  0.913883  1
