# generated using pymatgen
data_Ho4CdPbAu4
_symmetry_space_group_name_H-M   'P 1'
_cell_length_a   8.05634000
_cell_length_b   8.05634000
_cell_length_c   7.31279800
_cell_angle_alpha   90.00000000
_cell_angle_beta   90.00000000
_cell_angle_gamma   90.00000000
_symmetry_Int_Tables_number   1
_chemical_formula_structural   Ho4CdPbAu4
_chemical_formula_sum   'Ho8 Cd2 Pb2 Au8'
_cell_volume   474.63433288
_cell_formula_units_Z   2
loop_
 _symmetry_equiv_pos_site_id
 _symmetry_equiv_pos_as_xyz
  1  'x, y, z'
loop_
 _atom_site_type_symbol
 _atom_site_label
 _atom_site_symmetry_multiplicity
 _atom_site_fract_x
 _atom_site_fract_y
 _atom_site_fract_z
 _atom_site_occupancy
  Ho  Ho0  1  0.842039  0.157961  0.500000  1
  Ho  Ho1  1  0.157961  0.842039  0.500000  1
  Ho  Ho2  1  0.342039  0.342039  0.000000  1
  Ho  Ho3  1  0.657961  0.657961  0.000000  1
  Ho  Ho4  1  0.682391  0.682391  0.500000  1
  Ho  Ho5  1  0.317609  0.317609  0.500000  1
  Ho  Ho6  1  0.182391  0.817609  0.000000  1
  Ho  Ho7  1  0.817609  0.182391  0.000000  1
  Cd  Cd8  1  0.500000  0.000000  0.250000  1
  Cd  Cd9  1  0.000000  0.500000  0.750000  1
  Pb  Pb10  1  0.500000  0.000000  0.750000  1
  Pb  Pb11  1  0.000000  0.500000  0.250000  1
  Au  Au12  1  0.622842  0.367320  0.274227  1
  Au  Au13  1  0.377158  0.632680  0.274227  1
  Au  Au14  1  0.122842  0.132680  0.774227  1
  Au  Au15  1  0.877158  0.867320  0.774227  1
  Au  Au16  1  0.367320  0.622842  0.725773  1
  Au  Au17  1  0.632680  0.377158  0.725773  1
  Au  Au18  1  0.867320  0.877158  0.225773  1
  Au  Au19  1  0.132680  0.122842  0.225773  1
