# generated using pymatgen
data_SrLaSiPt8
_symmetry_space_group_name_H-M   'P 1'
_cell_length_a   4.30595600
_cell_length_b   9.34573866
_cell_length_c   9.37329514
_cell_angle_alpha   145.87559328
_cell_angle_beta   90.00000000
_cell_angle_gamma   90.00000000
_symmetry_Int_Tables_number   1
_chemical_formula_structural   SrLaSiPt8
_chemical_formula_sum   'Sr1 La1 Si1 Pt8'
_cell_volume   211.60792654
_cell_formula_units_Z   1
loop_
 _symmetry_equiv_pos_site_id
 _symmetry_equiv_pos_as_xyz
  1  'x, y, z'
loop_
 _atom_site_type_symbol
 _atom_site_label
 _atom_site_symmetry_multiplicity
 _atom_site_fract_x
 _atom_site_fract_y
 _atom_site_fract_z
 _atom_site_occupancy
  Sr  Sr0  1  0.500000  0.614211  0.372640  1
  La  La1  1  0.500000  0.372425  0.618959  1
  Si  Si2  1  0.000000  0.223274  0.221475  1
  Pt  Pt3  1  0.000000  0.888709  0.110171  1
  Pt  Pt4  1  0.500000  0.791450  0.193048  1
  Pt  Pt5  1  0.000000  0.992986  0.490000  1
  Pt  Pt6  1  0.000000  0.635547  0.642018  1
  Pt  Pt7  1  0.500000  0.194225  0.789438  1
  Pt  Pt8  1  0.000000  0.105856  0.883752  1
  Pt  Pt9  1  0.000000  0.490742  0.986879  1
  Pt  Pt10  1  0.500000  0.004159  0.005203  1
