# generated using pymatgen
data_Ce2Lu2Al7Tc
_symmetry_space_group_name_H-M   'P 1'
_cell_length_a   5.54200900
_cell_length_b   5.54200861
_cell_length_c   9.06762700
_cell_angle_alpha   90.00000000
_cell_angle_beta   90.00000000
_cell_angle_gamma   119.99998441
_symmetry_Int_Tables_number   1
_chemical_formula_structural   Ce2Lu2Al7Tc
_chemical_formula_sum   'Ce2 Lu2 Al7 Tc1'
_cell_volume   241.18970700
_cell_formula_units_Z   1
loop_
 _symmetry_equiv_pos_site_id
 _symmetry_equiv_pos_as_xyz
  1  'x, y, z'
loop_
 _atom_site_type_symbol
 _atom_site_label
 _atom_site_symmetry_multiplicity
 _atom_site_fract_x
 _atom_site_fract_y
 _atom_site_fract_z
 _atom_site_occupancy
  Ce  Ce0  1  0.333333  0.666667  0.457849  1
  Ce  Ce1  1  0.666667  0.333333  0.542151  1
  Lu  Lu2  1  0.666667  0.333333  0.934983  1
  Lu  Lu3  1  0.333333  0.666667  0.065017  1
  Al  Al4  1  0.000000  0.000000  0.500000  1
  Al  Al5  1  0.832789  0.167211  0.236309  1
  Al  Al6  1  0.832789  0.665580  0.236309  1
  Al  Al7  1  0.334420  0.167211  0.236309  1
  Al  Al8  1  0.167211  0.832789  0.763691  1
  Al  Al9  1  0.167211  0.334420  0.763691  1
  Al  Al10  1  0.665580  0.832789  0.763691  1
  Tc  Tc11  1  0.000000  0.000000  0.000000  1
