# generated using pymatgen
data_Sr2TmSi5PPd20
_symmetry_space_group_name_H-M   'P 1'
_cell_length_a   8.77390232
_cell_length_b   8.77365877
_cell_length_c   8.77365967
_cell_angle_alpha   60.00183846
_cell_angle_beta   59.99907884
_cell_angle_gamma   59.99907290
_symmetry_Int_Tables_number   1
_chemical_formula_structural   Sr2TmSi5PPd20
_chemical_formula_sum   'Sr2 Tm1 Si5 P1 Pd20'
_cell_volume   477.57247483
_cell_formula_units_Z   1
loop_
 _symmetry_equiv_pos_site_id
 _symmetry_equiv_pos_as_xyz
  1  'x, y, z'
loop_
 _atom_site_type_symbol
 _atom_site_label
 _atom_site_symmetry_multiplicity
 _atom_site_fract_x
 _atom_site_fract_y
 _atom_site_fract_z
 _atom_site_occupancy
  Sr  Sr0  1  0.249633  0.250367  0.250367  1
  Sr  Sr1  1  0.749633  0.750367  0.750367  1
  Tm  Tm2  1  0.001872  0.998128  0.998128  1
  Si  Si3  1  0.267593  0.732407  0.732407  1
  Si  Si4  1  0.266232  0.733768  0.267720  1
  Si  Si5  1  0.732280  0.267720  0.733768  1
  Si  Si6  1  0.266232  0.267720  0.733768  1
  Si  Si7  1  0.732280  0.733768  0.267720  1
  P  P8  1  0.732994  0.267006  0.267006  1
  Pd  Pd9  1  0.343439  0.999412  0.999412  1
  Pd  Pd10  1  0.657738  0.999412  0.999412  1
  Pd  Pd11  1  0.000588  0.342262  0.656561  1
  Pd  Pd12  1  0.000588  0.656561  0.342262  1
  Pd  Pd13  1  0.998115  0.341522  0.001885  1
  Pd  Pd14  1  0.658478  0.001885  0.341522  1
  Pd  Pd15  1  0.999962  0.657430  0.000038  1
  Pd  Pd16  1  0.342570  0.000038  0.657430  1
  Pd  Pd17  1  0.998115  0.001885  0.341522  1
  Pd  Pd18  1  0.999962  0.000038  0.657430  1
  Pd  Pd19  1  0.658478  0.341522  0.001885  1
  Pd  Pd20  1  0.342570  0.657430  0.000038  1
  Pd  Pd21  1  0.388068  0.386366  0.386366  1
  Pd  Pd22  1  0.613772  0.613471  0.613471  1
  Pd  Pd23  1  0.386529  0.386228  0.840716  1
  Pd  Pd24  1  0.386529  0.840716  0.386228  1
  Pd  Pd25  1  0.613634  0.611932  0.160800  1
  Pd  Pd26  1  0.613634  0.160800  0.611932  1
  Pd  Pd27  1  0.839200  0.386366  0.386366  1
  Pd  Pd28  1  0.159284  0.613471  0.613471  1
