# generated using pymatgen
data_Nd3Tm(CuP2)4
_symmetry_space_group_name_H-M   'P 1'
_cell_length_a   3.76199100
_cell_length_b   3.84473320
_cell_length_c   19.91233641
_cell_angle_alpha   89.87733850
_cell_angle_beta   90.00000000
_cell_angle_gamma   90.00000000
_symmetry_Int_Tables_number   1
_chemical_formula_structural   Nd3Tm(CuP2)4
_chemical_formula_sum   'Nd3 Tm1 Cu4 P8'
_cell_volume   288.00842091
_cell_formula_units_Z   1
loop_
 _symmetry_equiv_pos_site_id
 _symmetry_equiv_pos_as_xyz
  1  'x, y, z'
loop_
 _atom_site_type_symbol
 _atom_site_label
 _atom_site_symmetry_multiplicity
 _atom_site_fract_x
 _atom_site_fract_y
 _atom_site_fract_z
 _atom_site_occupancy
  Nd  Nd0  1  0.250000  0.717460  0.378389  1
  Nd  Nd1  1  0.250000  0.779911  0.886074  1
  Nd  Nd2  1  0.750000  0.283314  0.618749  1
  Tm  Tm3  1  0.750000  0.217991  0.119249  1
  Cu  Cu4  1  0.250000  0.222592  0.244817  1
  Cu  Cu5  1  0.750000  0.778334  0.752413  1
  Cu  Cu6  1  0.250000  0.278718  0.751738  1
  Cu  Cu7  1  0.750000  0.722368  0.245196  1
  P  P8  1  0.750000  0.815174  0.500901  1
  P  P9  1  0.750000  0.685589  0.008769  1
  P  P10  1  0.250000  0.185074  0.496402  1
  P  P11  1  0.250000  0.312957  0.004307  1
  P  P12  1  0.250000  0.720025  0.169442  1
  P  P13  1  0.750000  0.218847  0.319195  1
  P  P14  1  0.750000  0.279755  0.826131  1
  P  P15  1  0.250000  0.781891  0.678228  1
