# generated using pymatgen
data_Pr3(LuSb4)5
_symmetry_space_group_name_H-M   'P 1'
_cell_length_a   4.28542800
_cell_length_b   13.24383812
_cell_length_c   14.61238908
_cell_angle_alpha   77.91461681
_cell_angle_beta   90.00000000
_cell_angle_gamma   90.00000000
_symmetry_Int_Tables_number   1
_chemical_formula_structural   Pr3(LuSb4)5
_chemical_formula_sum   'Pr3 Lu5 Sb20'
_cell_volume   810.95287648
_cell_formula_units_Z   1
loop_
 _symmetry_equiv_pos_site_id
 _symmetry_equiv_pos_as_xyz
  1  'x, y, z'
loop_
 _atom_site_type_symbol
 _atom_site_label
 _atom_site_symmetry_multiplicity
 _atom_site_fract_x
 _atom_site_fract_y
 _atom_site_fract_z
 _atom_site_occupancy
  Pr  Pr0  1  0.750000  0.333887  0.423529  1
  Pr  Pr1  1  0.250000  0.950527  0.357601  1
  Pr  Pr2  1  0.750000  0.046873  0.642571  1
  Lu  Lu3  1  0.250000  0.399897  0.774723  1
  Lu  Lu4  1  0.750000  0.602914  0.226742  1
  Lu  Lu5  1  0.250000  0.660132  0.856519  1
  Lu  Lu6  1  0.750000  0.339753  0.141563  1
  Lu  Lu7  1  0.250000  0.667697  0.577932  1
  Sb  Sb8  1  0.250000  0.147988  0.785707  1
  Sb  Sb9  1  0.750000  0.851446  0.213950  1
  Sb  Sb10  1  0.250000  0.142379  0.478586  1
  Sb  Sb11  1  0.750000  0.846643  0.522283  1
  Sb  Sb12  1  0.250000  0.157801  0.167035  1
  Sb  Sb13  1  0.750000  0.841760  0.831529  1
  Sb  Sb14  1  0.250000  0.421250  0.976451  1
  Sb  Sb15  1  0.750000  0.579241  0.023567  1
  Sb  Sb16  1  0.750000  0.030699  0.903904  1
  Sb  Sb17  1  0.250000  0.968741  0.096146  1
  Sb  Sb18  1  0.750000  0.142710  0.316225  1
  Sb  Sb19  1  0.250000  0.853258  0.681002  1
  Sb  Sb20  1  0.750000  0.282928  0.938842  1
  Sb  Sb21  1  0.250000  0.716905  0.061402  1
  Sb  Sb22  1  0.750000  0.295340  0.658181  1
  Sb  Sb23  1  0.250000  0.707014  0.346347  1
  Sb  Sb24  1  0.750000  0.577816  0.735917  1
  Sb  Sb25  1  0.250000  0.427977  0.256736  1
  Sb  Sb26  1  0.750000  0.577309  0.445730  1
  Sb  Sb27  1  0.250000  0.429118  0.559281  1
