# generated using pymatgen
data_Tb7Ce(MgCo)2
_symmetry_space_group_name_H-M   'P 1'
_cell_length_a   9.48868426
_cell_length_b   9.72061138
_cell_length_c   9.72061177
_cell_angle_alpha   58.42765395
_cell_angle_beta   60.78617469
_cell_angle_gamma   60.78617060
_symmetry_Int_Tables_number   1
_chemical_formula_structural   Tb7Ce(MgCo)2
_chemical_formula_sum   'Tb14 Ce2 Mg4 Co4'
_cell_volume   633.27873066
_cell_formula_units_Z   2
loop_
 _symmetry_equiv_pos_site_id
 _symmetry_equiv_pos_as_xyz
  1  'x, y, z'
loop_
 _atom_site_type_symbol
 _atom_site_label
 _atom_site_symmetry_multiplicity
 _atom_site_fract_x
 _atom_site_fract_y
 _atom_site_fract_z
 _atom_site_occupancy
  Tb  Tb0  1  0.188789  0.811211  0.188789  1
  Tb  Tb1  1  0.811211  0.188789  0.811211  1
  Tb  Tb2  1  0.188789  0.188789  0.811211  1
  Tb  Tb3  1  0.811211  0.811211  0.188789  1
  Tb  Tb4  1  0.924636  0.575364  0.575364  1
  Tb  Tb5  1  0.575364  0.924636  0.924636  1
  Tb  Tb6  1  0.558697  0.941303  0.558697  1
  Tb  Tb7  1  0.941303  0.558697  0.941303  1
  Tb  Tb8  1  0.558697  0.558697  0.941303  1
  Tb  Tb9  1  0.941303  0.941303  0.558697  1
  Tb  Tb10  1  0.332904  0.348426  0.348426  1
  Tb  Tb11  1  0.348426  0.332904  0.970244  1
  Tb  Tb12  1  0.348426  0.970244  0.332904  1
  Tb  Tb13  1  0.970244  0.348426  0.348426  1
  Ce  Ce14  1  0.817986  0.182014  0.182014  1
  Ce  Ce15  1  0.182014  0.817986  0.817986  1
  Mg  Mg16  1  0.581604  0.578269  0.578269  1
  Mg  Mg17  1  0.578269  0.581604  0.261857  1
  Mg  Mg18  1  0.578269  0.261857  0.581604  1
  Mg  Mg19  1  0.261857  0.578269  0.578269  1
  Co  Co20  1  0.091599  0.156012  0.156012  1
  Co  Co21  1  0.156012  0.091599  0.596377  1
  Co  Co22  1  0.156012  0.596377  0.091599  1
  Co  Co23  1  0.596377  0.156012  0.156012  1
