# generated using pymatgen
data_Tb3Ho13MgAg(HgRh2)2
_symmetry_space_group_name_H-M   'P 1'
_cell_length_a   9.51465730
_cell_length_b   9.53739914
_cell_length_c   9.53709200
_cell_angle_alpha   60.18596641
_cell_angle_beta   60.09634619
_cell_angle_gamma   60.15830500
_symmetry_Int_Tables_number   1
_chemical_formula_structural   Tb3Ho13MgAg(HgRh2)2
_chemical_formula_sum   'Tb3 Ho13 Mg1 Ag1 Hg2 Rh4'
_cell_volume   613.99660773
_cell_formula_units_Z   1
loop_
 _symmetry_equiv_pos_site_id
 _symmetry_equiv_pos_as_xyz
  1  'x, y, z'
loop_
 _atom_site_type_symbol
 _atom_site_label
 _atom_site_symmetry_multiplicity
 _atom_site_fract_x
 _atom_site_fract_y
 _atom_site_fract_z
 _atom_site_occupancy
  Tb  Tb0  1  0.937122  0.562913  0.936012  1
  Tb  Tb1  1  0.564691  0.567168  0.934961  1
  Tb  Tb2  1  0.934417  0.938283  0.563698  1
  Ho  Ho3  1  0.349959  0.347998  0.347545  1
  Ho  Ho4  1  0.350595  0.351165  0.954295  1
  Ho  Ho5  1  0.350935  0.950879  0.349679  1
  Ho  Ho6  1  0.939887  0.354902  0.352797  1
  Ho  Ho7  1  0.808900  0.189634  0.189174  1
  Ho  Ho8  1  0.185791  0.811780  0.813374  1
  Ho  Ho9  1  0.187279  0.811820  0.187784  1
  Ho  Ho10  1  0.809326  0.187842  0.811085  1
  Ho  Ho11  1  0.186843  0.187173  0.811403  1
  Ho  Ho12  1  0.807875  0.808582  0.191548  1
  Ho  Ho13  1  0.937171  0.563631  0.562391  1
  Ho  Ho14  1  0.561032  0.940737  0.934834  1
  Ho  Ho15  1  0.562037  0.939560  0.563415  1
  Mg  Mg16  1  0.286369  0.569142  0.571068  1
  Ag  Ag17  1  0.581238  0.245652  0.587705  1
  Hg  Hg18  1  0.583548  0.583825  0.587178  1
  Hg  Hg19  1  0.582388  0.585039  0.244937  1
  Rh  Rh20  1  0.140656  0.144106  0.142505  1
  Rh  Rh21  1  0.140350  0.144404  0.571761  1
  Rh  Rh22  1  0.138985  0.573039  0.146711  1
  Rh  Rh23  1  0.572607  0.140724  0.144135  1
