# generated using pymatgen
data_TbDy7Lu2(SiB4)4
_symmetry_space_group_name_H-M   'P 1'
_cell_length_a   7.21205400
_cell_length_b   7.21205400
_cell_length_c   8.03197200
_cell_angle_alpha   90.00030075
_cell_angle_beta   89.99969925
_cell_angle_gamma   89.99874478
_symmetry_Int_Tables_number   1
_chemical_formula_structural   TbDy7Lu2(SiB4)4
_chemical_formula_sum   'Tb1 Dy7 Lu2 Si4 B16'
_cell_volume   417.77276588
_cell_formula_units_Z   1
loop_
 _symmetry_equiv_pos_site_id
 _symmetry_equiv_pos_as_xyz
  1  'x, y, z'
loop_
 _atom_site_type_symbol
 _atom_site_label
 _atom_site_symmetry_multiplicity
 _atom_site_fract_x
 _atom_site_fract_y
 _atom_site_fract_z
 _atom_site_occupancy
  Tb  Tb0  1  0.180193  0.319807  0.226612  1
  Dy  Dy1  1  0.680183  0.180159  0.225760  1
  Dy  Dy2  1  0.319802  0.819778  0.774253  1
  Dy  Dy3  1  0.319841  0.819817  0.225760  1
  Dy  Dy4  1  0.819783  0.680217  0.225843  1
  Dy  Dy5  1  0.819797  0.680203  0.774132  1
  Dy  Dy6  1  0.680222  0.180198  0.774253  1
  Dy  Dy7  1  0.180180  0.319820  0.774075  1
  Lu  Lu8  1  0.999941  0.999898  0.500082  1
  Lu  Lu9  1  0.500102  0.500059  0.500082  1
  Si  Si10  1  0.115827  0.616127  0.500214  1
  Si  Si11  1  0.883873  0.384173  0.500214  1
  Si  Si12  1  0.384239  0.115761  0.500249  1
  Si  Si13  1  0.616014  0.883986  0.500060  1
  B  B14  1  0.172534  0.038937  0.999900  1
  B  B15  1  0.827357  0.960868  0.999939  1
  B  B16  1  0.960785  0.172476  0.999858  1
  B  B17  1  0.327524  0.539215  0.999858  1
  B  B18  1  0.039048  0.827399  0.999920  1
  B  B19  1  0.672601  0.460952  0.999920  1
  B  B20  1  0.539132  0.672643  0.999939  1
  B  B21  1  0.461063  0.327466  0.999900  1
  B  B22  1  0.089616  0.589769  0.999806  1
  B  B23  1  0.910231  0.410384  0.999806  1
  B  B24  1  0.410426  0.089574  0.999968  1
  B  B25  1  0.589601  0.910399  0.999962  1
  B  B26  1  0.999846  0.999741  0.163700  1
  B  B27  1  0.999967  0.999989  0.836118  1
  B  B28  1  0.500011  0.500033  0.836118  1
  B  B29  1  0.500259  0.500154  0.163700  1
