# generated using pymatgen
data_Tb2Y3(CoTe)2
_symmetry_space_group_name_H-M   'P 1'
_cell_length_a   7.81942054
_cell_length_b   7.81942093
_cell_length_c   15.00318013
_cell_angle_alpha   90.01461767
_cell_angle_beta   89.98538294
_cell_angle_gamma   150.44665773
_symmetry_Int_Tables_number   1
_chemical_formula_structural   Tb2Y3(CoTe)2
_chemical_formula_sum   'Tb4 Y6 Co4 Te4'
_cell_volume   452.46518322
_cell_formula_units_Z   2
loop_
 _symmetry_equiv_pos_site_id
 _symmetry_equiv_pos_as_xyz
  1  'x, y, z'
loop_
 _atom_site_type_symbol
 _atom_site_label
 _atom_site_symmetry_multiplicity
 _atom_site_fract_x
 _atom_site_fract_y
 _atom_site_fract_z
 _atom_site_occupancy
  Tb  Tb0  1  0.959960  0.040040  0.125491  1
  Tb  Tb1  1  0.039889  0.960111  0.874453  1
  Tb  Tb2  1  0.039905  0.960095  0.625503  1
  Tb  Tb3  1  0.959936  0.040064  0.374543  1
  Y  Y4  1  0.742452  0.257548  0.629703  1
  Y  Y5  1  0.257715  0.742285  0.370262  1
  Y  Y6  1  0.257637  0.742363  0.129584  1
  Y  Y7  1  0.742535  0.257465  0.870449  1
  Y  Y8  1  0.605261  0.394739  0.249939  1
  Y  Y9  1  0.394715  0.605285  0.750069  1
  Co  Co10  1  0.410224  0.589776  0.249927  1
  Co  Co11  1  0.589623  0.410377  0.750078  1
  Co  Co12  1  0.821019  0.178981  0.249874  1
  Co  Co13  1  0.179195  0.820805  0.750126  1
  Te  Te14  1  0.617653  0.382347  0.038710  1
  Te  Te15  1  0.382320  0.617680  0.961349  1
  Te  Te16  1  0.382395  0.617605  0.538577  1
  Te  Te17  1  0.617567  0.382433  0.461364  1
