# generated using pymatgen
data_Ce4Co5Si10Ru
_symmetry_space_group_name_H-M   'P 1'
_cell_length_a   7.98277770
_cell_length_b   7.98277731
_cell_length_c   7.98277684
_cell_angle_alpha   138.54892022
_cell_angle_beta   105.37919665
_cell_angle_gamma   89.15616151
_symmetry_Int_Tables_number   1
_chemical_formula_structural   Ce4Co5Si10Ru
_chemical_formula_sum   'Ce4 Co5 Si10 Ru1'
_cell_volume   310.89945538
_cell_formula_units_Z   1
loop_
 _symmetry_equiv_pos_site_id
 _symmetry_equiv_pos_as_xyz
  1  'x, y, z'
loop_
 _atom_site_type_symbol
 _atom_site_label
 _atom_site_symmetry_multiplicity
 _atom_site_fract_x
 _atom_site_fract_y
 _atom_site_fract_z
 _atom_site_occupancy
  Ce  Ce0  1  0.866290  0.636661  0.240575  1
  Ce  Ce1  1  0.133710  0.374285  0.770372  1
  Ce  Ce2  1  0.396087  0.125715  0.259425  1
  Ce  Ce3  1  0.603913  0.863339  0.729628  1
  Co  Co4  1  0.000000  0.250000  0.250000  1
  Co  Co5  1  0.250357  0.867014  0.390482  1
  Co  Co6  1  0.749643  0.140125  0.616658  1
  Co  Co7  1  0.476533  0.359875  0.109518  1
  Co  Co8  1  0.523467  0.632986  0.883342  1
  Si  Si9  1  0.500000  0.750000  0.250000  1
  Si  Si10  1  0.500000  0.250000  0.750000  1
  Si  Si11  1  0.232258  0.982258  0.750000  1
  Si  Si12  1  0.767742  0.517742  0.750000  1
  Si  Si13  1  0.765350  0.015350  0.250000  1
  Si  Si14  1  0.234650  0.484650  0.250000  1
  Si  Si15  1  0.047752  0.904269  0.164452  1
  Si  Si16  1  0.952248  0.116701  0.856518  1
  Si  Si17  1  0.739817  0.383299  0.335548  1
  Si  Si18  1  0.260183  0.595731  0.643482  1
  Ru  Ru19  1  0.000000  0.750000  0.750000  1
