# generated using pymatgen
data_Ac2Dy5Co4Sn13
_symmetry_space_group_name_H-M   'P 1'
_cell_length_a   11.29687600
_cell_length_b   11.29687600
_cell_length_c   4.56314700
_cell_angle_alpha   90.00000000
_cell_angle_beta   90.00000000
_cell_angle_gamma   90.00000000
_symmetry_Int_Tables_number   1
_chemical_formula_structural   Ac2Dy5Co4Sn13
_chemical_formula_sum   'Ac2 Dy5 Co4 Sn13'
_cell_volume   582.34611583
_cell_formula_units_Z   1
loop_
 _symmetry_equiv_pos_site_id
 _symmetry_equiv_pos_as_xyz
  1  'x, y, z'
loop_
 _atom_site_type_symbol
 _atom_site_label
 _atom_site_symmetry_multiplicity
 _atom_site_fract_x
 _atom_site_fract_y
 _atom_site_fract_z
 _atom_site_occupancy
  Ac  Ac0  1  0.500000  0.000000  0.500000  1
  Ac  Ac1  1  0.000000  0.500000  0.500000  1
  Dy  Dy2  1  0.000000  0.000000  0.000000  1
  Dy  Dy3  1  0.335289  0.673355  0.500000  1
  Dy  Dy4  1  0.664711  0.326645  0.500000  1
  Dy  Dy5  1  0.326645  0.335289  0.500000  1
  Dy  Dy6  1  0.673355  0.664711  0.500000  1
  Co  Co7  1  0.120775  0.723407  0.000000  1
  Co  Co8  1  0.879225  0.276593  0.000000  1
  Co  Co9  1  0.276593  0.120775  0.000000  1
  Co  Co10  1  0.723407  0.879225  0.000000  1
  Sn  Sn11  1  0.281644  0.888035  0.000000  1
  Sn  Sn12  1  0.718356  0.111965  0.000000  1
  Sn  Sn13  1  0.111965  0.281644  0.000000  1
  Sn  Sn14  1  0.888035  0.718356  0.000000  1
  Sn  Sn15  1  0.079576  0.809485  0.500000  1
  Sn  Sn16  1  0.920424  0.190515  0.500000  1
  Sn  Sn17  1  0.190515  0.079576  0.500000  1
  Sn  Sn18  1  0.809485  0.920424  0.500000  1
  Sn  Sn19  1  0.521143  0.775725  0.000000  1
  Sn  Sn20  1  0.478857  0.224275  0.000000  1
  Sn  Sn21  1  0.224275  0.521143  0.000000  1
  Sn  Sn22  1  0.775725  0.478857  0.000000  1
  Sn  Sn23  1  0.500000  0.500000  0.000000  1
