# generated using pymatgen
data_MgIr5Rh2
_symmetry_space_group_name_H-M   'P 1'
_cell_length_a   5.48405811
_cell_length_b   5.47696174
_cell_length_c   5.47696171
_cell_angle_alpha   60.07403946
_cell_angle_beta   59.98588404
_cell_angle_gamma   59.98587770
_symmetry_Int_Tables_number   1
_chemical_formula_structural   MgIr5Rh2
_chemical_formula_sum   'Mg1 Ir5 Rh2'
_cell_volume   116.36330924
_cell_formula_units_Z   1
loop_
 _symmetry_equiv_pos_site_id
 _symmetry_equiv_pos_as_xyz
  1  'x, y, z'
loop_
 _atom_site_type_symbol
 _atom_site_label
 _atom_site_symmetry_multiplicity
 _atom_site_fract_x
 _atom_site_fract_y
 _atom_site_fract_z
 _atom_site_occupancy
  Mg  Mg0  1  0.000000  0.000000  0.000000  1
  Ir  Ir1  1  0.500000  0.000000  0.000000  1
  Ir  Ir2  1  0.000000  0.500000  0.500000  1
  Ir  Ir3  1  0.500000  0.000000  0.500000  1
  Ir  Ir4  1  0.500000  0.500000  0.000000  1
  Ir  Ir5  1  0.500000  0.500000  0.500000  1
  Rh  Rh6  1  0.000000  0.500000  0.000000  1
  Rh  Rh7  1  0.000000  0.000000  0.500000  1
