# generated using pymatgen
data_Dy3Tm3(Si3Ru)8
_symmetry_space_group_name_H-M   'P 1'
_cell_length_a   10.10710770
_cell_length_b   10.10710800
_cell_length_c   8.12500439
_cell_angle_alpha   89.90437509
_cell_angle_beta   90.09562503
_cell_angle_gamma   132.61352163
_symmetry_Int_Tables_number   1
_chemical_formula_structural   Dy3Tm3(Si3Ru)8
_chemical_formula_sum   'Dy3 Tm3 Si24 Ru8'
_cell_volume   610.82599760
_cell_formula_units_Z   1
loop_
 _symmetry_equiv_pos_site_id
 _symmetry_equiv_pos_as_xyz
  1  'x, y, z'
loop_
 _atom_site_type_symbol
 _atom_site_label
 _atom_site_symmetry_multiplicity
 _atom_site_fract_x
 _atom_site_fract_y
 _atom_site_fract_z
 _atom_site_occupancy
  Dy  Dy0  1  0.996941  0.496941  0.250000  1
  Dy  Dy1  1  0.497807  0.997807  0.250000  1
  Dy  Dy2  1  0.002188  0.502188  0.750000  1
  Tm  Tm3  1  0.500012  0.499935  0.500039  1
  Tm  Tm4  1  0.999935  0.000012  0.999961  1
  Tm  Tm5  1  0.502431  0.002431  0.750000  1
  Si  Si6  1  0.795167  0.205736  0.500247  1
  Si  Si7  1  0.294029  0.704687  0.999639  1
  Si  Si8  1  0.204687  0.794029  0.500361  1
  Si  Si9  1  0.705736  0.295167  0.999753  1
  Si  Si10  1  0.331930  0.332382  0.833060  1
  Si  Si11  1  0.667946  0.667776  0.167167  1
  Si  Si12  1  0.167776  0.167946  0.332833  1
  Si  Si13  1  0.832382  0.831930  0.666940  1
  Si  Si14  1  0.121008  0.887256  0.728289  1
  Si  Si15  1  0.111209  0.876647  0.271528  1
  Si  Si16  1  0.614208  0.379846  0.228878  1
  Si  Si17  1  0.621719  0.387729  0.772445  1
  Si  Si18  1  0.879846  0.114208  0.271122  1
  Si  Si19  1  0.887729  0.121719  0.727555  1
  Si  Si20  1  0.387256  0.621008  0.771711  1
  Si  Si21  1  0.376647  0.611209  0.228472  1
  Si  Si22  1  0.343601  0.110998  0.504936  1
  Si  Si23  1  0.887282  0.652905  0.494936  1
  Si  Si24  1  0.389113  0.156781  0.003217  1
  Si  Si25  1  0.847088  0.612696  0.995777  1
  Si  Si26  1  0.656781  0.889113  0.496783  1
  Si  Si27  1  0.112696  0.347088  0.504223  1
  Si  Si28  1  0.610998  0.843601  0.995064  1
  Si  Si29  1  0.152905  0.387282  0.005064  1
  Ru  Ru30  1  0.665501  0.327474  0.501675  1
  Ru  Ru31  1  0.172631  0.834673  0.999342  1
  Ru  Ru32  1  0.334673  0.672631  0.500658  1
  Ru  Ru33  1  0.827474  0.165501  0.998325  1
  Ru  Ru34  1  0.126002  0.126886  0.627096  1
  Ru  Ru35  1  0.873913  0.873867  0.372491  1
  Ru  Ru36  1  0.373867  0.373913  0.127509  1
  Ru  Ru37  1  0.626886  0.626002  0.872904  1
