# generated using pymatgen
data_SrYb6Pr3Pt8
_symmetry_space_group_name_H-M   'P 1'
_cell_length_a   7.58177400
_cell_length_b   7.73603157
_cell_length_c   14.74613059
_cell_angle_alpha   89.89082554
_cell_angle_beta   90.00000000
_cell_angle_gamma   90.00000000
_symmetry_Int_Tables_number   1
_chemical_formula_structural   SrYb6Pr3Pt8
_chemical_formula_sum   'Sr2 Yb12 Pr6 Pt16'
_cell_volume   864.90091199
_cell_formula_units_Z   2
loop_
 _symmetry_equiv_pos_site_id
 _symmetry_equiv_pos_as_xyz
  1  'x, y, z'
loop_
 _atom_site_type_symbol
 _atom_site_label
 _atom_site_symmetry_multiplicity
 _atom_site_fract_x
 _atom_site_fract_y
 _atom_site_fract_z
 _atom_site_occupancy
  Sr  Sr0  1  0.502286  0.325605  0.595341  1
  Sr  Sr1  1  0.002286  0.174395  0.904659  1
  Yb  Yb2  1  0.339857  0.832170  0.876699  1
  Yb  Yb3  1  0.839857  0.667830  0.623301  1
  Yb  Yb4  1  0.659335  0.169934  0.376560  1
  Yb  Yb5  1  0.159335  0.330066  0.123440  1
  Yb  Yb6  1  0.659182  0.170955  0.123806  1
  Yb  Yb7  1  0.159182  0.329045  0.376194  1
  Yb  Yb8  1  0.341612  0.830290  0.623427  1
  Yb  Yb9  1  0.841612  0.669710  0.876573  1
  Yb  Yb10  1  0.176187  0.501404  0.749187  1
  Yb  Yb11  1  0.676187  0.998596  0.750813  1
  Yb  Yb12  1  0.824286  0.496154  0.249831  1
  Yb  Yb13  1  0.324286  0.003846  0.250169  1
  Pr  Pr14  1  0.499168  0.324441  0.901970  1
  Pr  Pr15  1  0.999168  0.175559  0.598030  1
  Pr  Pr16  1  0.500211  0.677077  0.401294  1
  Pr  Pr17  1  0.000211  0.822923  0.098706  1
  Pr  Pr18  1  0.499276  0.676422  0.097161  1
  Pr  Pr19  1  0.999276  0.823578  0.402839  1
  Pt  Pt20  1  0.327528  0.024456  0.044732  1
  Pt  Pt21  1  0.827528  0.475544  0.455268  1
  Pt  Pt22  1  0.683230  0.961322  0.535834  1
  Pt  Pt23  1  0.183230  0.538678  0.964166  1
  Pt  Pt24  1  0.667824  0.962129  0.963586  1
  Pt  Pt25  1  0.167824  0.537871  0.536414  1
  Pt  Pt26  1  0.321616  0.020944  0.457576  1
  Pt  Pt27  1  0.821616  0.479056  0.042424  1
  Pt  Pt28  1  0.545322  0.618818  0.754194  1
  Pt  Pt29  1  0.045322  0.881182  0.745806  1
  Pt  Pt30  1  0.453684  0.386375  0.250228  1
  Pt  Pt31  1  0.953684  0.113625  0.249772  1
  Pt  Pt32  1  0.303685  0.136730  0.753372  1
  Pt  Pt33  1  0.803685  0.363270  0.746628  1
  Pt  Pt34  1  0.695712  0.859174  0.250597  1
  Pt  Pt35  1  0.195712  0.640826  0.249403  1
