# generated using pymatgen
data_ThPa2(Al3Fe)4
_symmetry_space_group_name_H-M   'P 1'
_cell_length_a   8.75572493
_cell_length_b   8.75572561
_cell_length_c   9.22415200
_cell_angle_alpha   90.00000000
_cell_angle_beta   90.00000000
_cell_angle_gamma   119.89143700
_symmetry_Int_Tables_number   1
_chemical_formula_structural   ThPa2(Al3Fe)4
_chemical_formula_sum   'Th2 Pa4 Al24 Fe8'
_cell_volume   613.07752287
_cell_formula_units_Z   2
loop_
 _symmetry_equiv_pos_site_id
 _symmetry_equiv_pos_as_xyz
  1  'x, y, z'
loop_
 _atom_site_type_symbol
 _atom_site_label
 _atom_site_symmetry_multiplicity
 _atom_site_fract_x
 _atom_site_fract_y
 _atom_site_fract_z
 _atom_site_occupancy
  Th  Th0  1  0.803371  0.196629  0.750000  1
  Th  Th1  1  0.196629  0.803371  0.250000  1
  Pa  Pa2  1  0.396132  0.198244  0.750000  1
  Pa  Pa3  1  0.603868  0.801756  0.250000  1
  Pa  Pa4  1  0.801756  0.603868  0.750000  1
  Pa  Pa5  1  0.198244  0.396132  0.250000  1
  Al  Al6  1  0.666167  0.333833  0.991927  1
  Al  Al7  1  0.333833  0.666167  0.008073  1
  Al  Al8  1  0.333833  0.666167  0.491927  1
  Al  Al9  1  0.666167  0.333833  0.508073  1
  Al  Al10  1  0.840416  0.159584  0.419480  1
  Al  Al11  1  0.159584  0.840416  0.580520  1
  Al  Al12  1  0.321067  0.161930  0.422937  1
  Al  Al13  1  0.159584  0.840416  0.919480  1
  Al  Al14  1  0.678933  0.838070  0.577063  1
  Al  Al15  1  0.840416  0.159584  0.080520  1
  Al  Al16  1  0.838070  0.678933  0.422937  1
  Al  Al17  1  0.678933  0.838070  0.922937  1
  Al  Al18  1  0.161930  0.321067  0.577063  1
  Al  Al19  1  0.321067  0.161930  0.077063  1
  Al  Al20  1  0.161930  0.321067  0.922937  1
  Al  Al21  1  0.838070  0.678933  0.077063  1
  Al  Al22  1  0.439739  0.560261  0.750000  1
  Al  Al23  1  0.560261  0.439739  0.250000  1
  Al  Al24  1  0.122617  0.562175  0.750000  1
  Al  Al25  1  0.877383  0.437825  0.250000  1
  Al  Al26  1  0.437825  0.877383  0.750000  1
  Al  Al27  1  0.562175  0.122617  0.250000  1
  Al  Al28  1  0.001945  0.998055  0.750000  1
  Al  Al29  1  0.998055  0.001945  0.250000  1
  Fe  Fe30  1  0.500000  0.500000  0.000000  1
  Fe  Fe31  1  0.000000  0.500000  0.000000  1
  Fe  Fe32  1  0.500000  0.500000  0.500000  1
  Fe  Fe33  1  0.500000  0.000000  0.000000  1
  Fe  Fe34  1  0.000000  0.500000  0.500000  1
  Fe  Fe35  1  0.500000  0.000000  0.500000  1
  Fe  Fe36  1  0.000000  0.000000  0.000000  1
  Fe  Fe37  1  0.000000  0.000000  0.500000  1
