# generated using pymatgen
data_Y2UGa3NiIr2
_symmetry_space_group_name_H-M   'P 1'
_cell_length_a   7.16411968
_cell_length_b   7.27210913
_cell_length_c   3.76075500
_cell_angle_alpha   90.00000000
_cell_angle_beta   90.00000000
_cell_angle_gamma   120.49990840
_symmetry_Int_Tables_number   1
_chemical_formula_structural   Y2UGa3NiIr2
_chemical_formula_sum   'Y2 U1 Ga3 Ni1 Ir2'
_cell_volume   168.81811997
_cell_formula_units_Z   1
loop_
 _symmetry_equiv_pos_site_id
 _symmetry_equiv_pos_as_xyz
  1  'x, y, z'
loop_
 _atom_site_type_symbol
 _atom_site_label
 _atom_site_symmetry_multiplicity
 _atom_site_fract_x
 _atom_site_fract_y
 _atom_site_fract_z
 _atom_site_occupancy
  Y  Y0  1  0.593137  0.002331  0.500000  1
  Y  Y1  1  0.406863  0.409194  0.500000  1
  U  U2  1  0.000000  0.585922  0.500000  1
  Ga  Ga3  1  0.250686  0.007965  0.000000  1
  Ga  Ga4  1  0.749314  0.757279  0.000000  1
  Ga  Ga5  1  0.000000  0.228626  0.000000  1
  Ni  Ni6  1  0.000000  0.983378  0.500000  1
  Ir  Ir7  1  0.297482  0.661394  0.000000  1
  Ir  Ir8  1  0.702518  0.363911  0.000000  1
