# generated using pymatgen
data_PrNdTe2(RhO6)2
_symmetry_space_group_name_H-M   'P 1'
_cell_length_a   5.29296600
_cell_length_b   5.29298182
_cell_length_c   10.23122000
_cell_angle_alpha   90.00017242
_cell_angle_beta   90.00005638
_cell_angle_gamma   120.00032955
_symmetry_Int_Tables_number   1
_chemical_formula_structural   PrNdTe2(RhO6)2
_chemical_formula_sum   'Pr1 Nd1 Te2 Rh2 O12'
_cell_volume   248.23105884
_cell_formula_units_Z   1
loop_
 _symmetry_equiv_pos_site_id
 _symmetry_equiv_pos_as_xyz
  1  'x, y, z'
loop_
 _atom_site_type_symbol
 _atom_site_label
 _atom_site_symmetry_multiplicity
 _atom_site_fract_x
 _atom_site_fract_y
 _atom_site_fract_z
 _atom_site_occupancy
  Pr  Pr0  1  0.999998  0.999999  0.499999  1
  Nd  Nd1  1  0.000001  0.000000  0.000000  1
  Te  Te2  1  0.666669  0.333335  0.249087  1
  Te  Te3  1  0.333332  0.666665  0.750914  1
  Rh  Rh4  1  0.333340  0.666667  0.249342  1
  Rh  Rh5  1  0.666660  0.333333  0.750657  1
  O  O6  1  0.644142  0.632741  0.142164  1
  O  O7  1  0.988606  0.355862  0.142167  1
  O  O8  1  0.367261  0.011396  0.142166  1
  O  O9  1  0.370059  0.358728  0.356684  1
  O  O10  1  0.988674  0.629950  0.356682  1
  O  O11  1  0.641280  0.011334  0.356684  1
  O  O12  1  0.358719  0.988667  0.643316  1
  O  O13  1  0.011325  0.370052  0.643317  1
  O  O14  1  0.629941  0.641272  0.643316  1
  O  O15  1  0.632740  0.988604  0.857834  1
  O  O16  1  0.011394  0.644138  0.857833  1
  O  O17  1  0.355857  0.367259  0.857835  1
