# generated using pymatgen
data_Sc22CoOs5Rh2
_symmetry_space_group_name_H-M   'P 1'
_cell_length_a   9.43967455
_cell_length_b   9.43967578
_cell_length_c   9.45090600
_cell_angle_alpha   59.96063781
_cell_angle_beta   59.96063349
_cell_angle_gamma   60.07873716
_symmetry_Int_Tables_number   1
_chemical_formula_structural   Sc22CoOs5Rh2
_chemical_formula_sum   'Sc22 Co1 Os5 Rh2'
_cell_volume   595.48570735
_cell_formula_units_Z   1
loop_
 _symmetry_equiv_pos_site_id
 _symmetry_equiv_pos_as_xyz
  1  'x, y, z'
loop_
 _atom_site_type_symbol
 _atom_site_label
 _atom_site_symmetry_multiplicity
 _atom_site_fract_x
 _atom_site_fract_y
 _atom_site_fract_z
 _atom_site_occupancy
  Sc  Sc0  1  0.843057  0.843057  0.845025  1
  Sc  Sc1  1  0.531138  0.154975  0.156943  1
  Sc  Sc2  1  0.156943  0.156943  0.531138  1
  Sc  Sc3  1  0.154975  0.531138  0.156943  1
  Sc  Sc4  1  0.843057  0.843057  0.468862  1
  Sc  Sc5  1  0.845025  0.468862  0.843057  1
  Sc  Sc6  1  0.468862  0.845025  0.843057  1
  Sc  Sc7  1  0.156943  0.156943  0.154975  1
  Sc  Sc8  1  0.197646  0.802354  0.197646  1
  Sc  Sc9  1  0.197646  0.802354  0.802354  1
  Sc  Sc10  1  0.802354  0.197646  0.197646  1
  Sc  Sc11  1  0.801312  0.801312  0.198688  1
  Sc  Sc12  1  0.198688  0.198688  0.801312  1
  Sc  Sc13  1  0.802354  0.197646  0.802354  1
  Sc  Sc14  1  0.382776  0.382776  0.388036  1
  Sc  Sc15  1  0.153589  0.611964  0.617224  1
  Sc  Sc16  1  0.611964  0.153589  0.617224  1
  Sc  Sc17  1  0.617224  0.617224  0.153589  1
  Sc  Sc18  1  0.388036  0.846411  0.382776  1
  Sc  Sc19  1  0.382776  0.382776  0.846411  1
  Sc  Sc20  1  0.846411  0.388036  0.382776  1
  Sc  Sc21  1  0.617224  0.617224  0.611964  1
  Co  Co22  1  0.500000  0.500000  0.500000  1
  Os  Os23  1  0.500000  0.000000  0.500000  1
  Os  Os24  1  0.000000  0.500000  0.500000  1
  Os  Os25  1  0.500000  0.000000  0.000000  1
  Os  Os26  1  0.000000  0.500000  0.000000  1
  Os  Os27  1  0.000000  0.000000  0.000000  1
  Rh  Rh28  1  0.500000  0.500000  0.000000  1
  Rh  Rh29  1  0.000000  0.000000  0.500000  1
