# generated using pymatgen
data_Ga10NiPd
_symmetry_space_group_name_H-M   'P 1'
_cell_length_a   6.73866312
_cell_length_b   6.73866209
_cell_length_c   6.73866219
_cell_angle_alpha   123.32629200
_cell_angle_beta   123.32629005
_cell_angle_gamma   84.32920181
_symmetry_Int_Tables_number   1
_chemical_formula_structural   Ga10NiPd
_chemical_formula_sum   'Ga10 Ni1 Pd1'
_cell_volume   204.40101716
_cell_formula_units_Z   1
loop_
 _symmetry_equiv_pos_site_id
 _symmetry_equiv_pos_as_xyz
  1  'x, y, z'
loop_
 _atom_site_type_symbol
 _atom_site_label
 _atom_site_symmetry_multiplicity
 _atom_site_fract_x
 _atom_site_fract_y
 _atom_site_fract_z
 _atom_site_occupancy
  Ga  Ga0  1  0.004947  0.004947  0.000000  1
  Ga  Ga1  1  0.495053  0.495053  0.000000  1
  Ga  Ga2  1  0.011393  0.502637  0.796824  1
  Ga  Ga3  1  0.705813  0.214569  0.203176  1
  Ga  Ga4  1  0.502637  0.705813  0.491244  1
  Ga  Ga5  1  0.214569  0.011393  0.508756  1
  Ga  Ga6  1  0.997363  0.488607  0.203176  1
  Ga  Ga7  1  0.285431  0.794187  0.796824  1
  Ga  Ga8  1  0.488607  0.285431  0.491244  1
  Ga  Ga9  1  0.794187  0.997363  0.508756  1
  Ni  Ni10  1  0.250000  0.250000  0.000000  1
  Pd  Pd11  1  0.750000  0.750000  0.000000  1
