# generated using pymatgen
data_EuMnCrB6
_symmetry_space_group_name_H-M   'P 1'
_cell_length_a   5.49645699
_cell_length_b   5.49645686
_cell_length_c   5.49645800
_cell_angle_alpha   147.34884797
_cell_angle_beta   107.44897774
_cell_angle_gamma   81.84640138
_symmetry_Int_Tables_number   1
_chemical_formula_structural   EuMnCrB6
_chemical_formula_sum   'Eu1 Mn1 Cr1 B6'
_cell_volume   83.46908589
_cell_formula_units_Z   1
loop_
 _symmetry_equiv_pos_site_id
 _symmetry_equiv_pos_as_xyz
  1  'x, y, z'
loop_
 _atom_site_type_symbol
 _atom_site_label
 _atom_site_symmetry_multiplicity
 _atom_site_fract_x
 _atom_site_fract_y
 _atom_site_fract_z
 _atom_site_occupancy
  Eu  Eu0  1  0.999669  0.999669  0.000000  1
  Mn  Mn1  1  0.654490  0.154490  0.500000  1
  Cr  Cr2  1  0.344195  0.844196  0.500000  1
  B  B3  1  0.540261  0.302357  0.237904  1
  B  B4  1  0.463199  0.697249  0.765950  1
  B  B5  1  0.931298  0.697249  0.234050  1
  B  B6  1  0.363017  0.501218  0.861798  1
  B  B7  1  0.639420  0.501218  0.138202  1
  B  B8  1  0.064453  0.302357  0.762096  1
