# generated using pymatgen
data_SmEu2ThPt4
_symmetry_space_group_name_H-M   'P 1'
_cell_length_a   4.51676400
_cell_length_b   5.77079840
_cell_length_c   7.47332200
_cell_angle_alpha   90.41640792
_cell_angle_beta   90.00000000
_cell_angle_gamma   90.00000000
_symmetry_Int_Tables_number   1
_chemical_formula_structural   SmEu2ThPt4
_chemical_formula_sum   'Sm1 Eu2 Th1 Pt4'
_cell_volume   194.78949319
_cell_formula_units_Z   1
loop_
 _symmetry_equiv_pos_site_id
 _symmetry_equiv_pos_as_xyz
  1  'x, y, z'
loop_
 _atom_site_type_symbol
 _atom_site_label
 _atom_site_symmetry_multiplicity
 _atom_site_fract_x
 _atom_site_fract_y
 _atom_site_fract_z
 _atom_site_occupancy
  Sm  Sm0  1  0.750000  0.861282  0.822827  1
  Eu  Eu1  1  0.250000  0.140681  0.182369  1
  Eu  Eu2  1  0.750000  0.642923  0.314693  1
  Th  Th3  1  0.250000  0.361083  0.680872  1
  Pt  Pt4  1  0.250000  0.843423  0.563291  1
  Pt  Pt5  1  0.250000  0.648423  0.023724  1
  Pt  Pt6  1  0.750000  0.155706  0.475280  1
  Pt  Pt7  1  0.750000  0.346477  0.936942  1
