# generated using pymatgen
data_Pr2Os2O7F2
_symmetry_space_group_name_H-M   'P 1'
_cell_length_a   8.24670890
_cell_length_b   8.24670837
_cell_length_c   6.39858079
_cell_angle_alpha   114.15109260
_cell_angle_beta   114.15109121
_cell_angle_gamma   27.03184541
_symmetry_Int_Tables_number   1
_chemical_formula_structural   Pr2Os2O7F2
_chemical_formula_sum   'Pr2 Os2 O7 F2'
_cell_volume   179.40984499
_cell_formula_units_Z   1
loop_
 _symmetry_equiv_pos_site_id
 _symmetry_equiv_pos_as_xyz
  1  'x, y, z'
loop_
 _atom_site_type_symbol
 _atom_site_label
 _atom_site_symmetry_multiplicity
 _atom_site_fract_x
 _atom_site_fract_y
 _atom_site_fract_z
 _atom_site_occupancy
  Pr  Pr0  1  0.299617  0.299617  0.308108  1
  Pr  Pr1  1  0.700405  0.700405  0.691937  1
  Os  Os2  1  0.040026  0.040026  0.314739  1
  Os  Os3  1  0.959976  0.959976  0.685156  1
  O  O4  1  0.000012  0.000012  0.000110  1
  O  O5  1  0.916868  0.916868  0.336996  1
  O  O6  1  0.546631  0.546631  0.336628  1
  O  O7  1  0.176237  0.176237  0.421338  1
  O  O8  1  0.823741  0.823741  0.578653  1
  O  O9  1  0.453346  0.453346  0.663337  1
  O  O10  1  0.083141  0.083141  0.663005  1
  F  F11  1  0.710839  0.710839  0.079921  1
  F  F12  1  0.289161  0.289161  0.920073  1
