# generated using pymatgen
data_Sc6Ti7Al9Rh8
_symmetry_space_group_name_H-M   'P 1'
_cell_length_a   8.89411124
_cell_length_b   8.89411023
_cell_length_c   8.89411175
_cell_angle_alpha   59.98603944
_cell_angle_beta   59.98604152
_cell_angle_gamma   59.98605746
_symmetry_Int_Tables_number   1
_chemical_formula_structural   Sc6Ti7Al9Rh8
_chemical_formula_sum   'Sc6 Ti7 Al9 Rh8'
_cell_volume   497.34209238
_cell_formula_units_Z   1
loop_
 _symmetry_equiv_pos_site_id
 _symmetry_equiv_pos_as_xyz
  1  'x, y, z'
loop_
 _atom_site_type_symbol
 _atom_site_label
 _atom_site_symmetry_multiplicity
 _atom_site_fract_x
 _atom_site_fract_y
 _atom_site_fract_z
 _atom_site_occupancy
  Sc  Sc0  1  0.211703  0.211703  0.789711  1
  Sc  Sc1  1  0.789711  0.211703  0.211703  1
  Sc  Sc2  1  0.211703  0.789711  0.211703  1
  Sc  Sc3  1  0.796167  0.796167  0.192292  1
  Sc  Sc4  1  0.192292  0.796167  0.796167  1
  Sc  Sc5  1  0.796167  0.192292  0.796167  1
  Ti  Ti6  1  0.379135  0.379135  0.379135  1
  Ti  Ti7  1  0.381251  0.862124  0.381251  1
  Ti  Ti8  1  0.862124  0.381251  0.381251  1
  Ti  Ti9  1  0.381251  0.381251  0.862124  1
  Ti  Ti10  1  0.835643  0.491151  0.835643  1
  Ti  Ti11  1  0.491151  0.835643  0.835643  1
  Ti  Ti12  1  0.835643  0.835643  0.491151  1
  Al  Al13  1  0.166336  0.166336  0.166336  1
  Al  Al14  1  0.165599  0.506048  0.165599  1
  Al  Al15  1  0.506048  0.165599  0.165599  1
  Al  Al16  1  0.165599  0.165599  0.506048  1
  Al  Al17  1  0.618169  0.618169  0.618169  1
  Al  Al18  1  0.618457  0.144778  0.618457  1
  Al  Al19  1  0.144778  0.618457  0.618457  1
  Al  Al20  1  0.618457  0.618457  0.144778  1
  Al  Al21  1  0.826030  0.826030  0.826030  1
  Rh  Rh22  1  0.001838  0.001838  0.494908  1
  Rh  Rh23  1  0.494908  0.001838  0.001838  1
  Rh  Rh24  1  0.001838  0.494908  0.001838  1
  Rh  Rh25  1  0.501920  0.501920  0.999651  1
  Rh  Rh26  1  0.999651  0.501920  0.501920  1
  Rh  Rh27  1  0.501920  0.999651  0.501920  1
  Rh  Rh28  1  0.500099  0.500099  0.500099  1
  Rh  Rh29  1  0.004409  0.004409  0.004409  1
