# generated using pymatgen
data_Er6Hf(Ga3Co8)2
_symmetry_space_group_name_H-M   'P 1'
_cell_length_a   8.46975992
_cell_length_b   8.47004940
_cell_length_c   8.46939400
_cell_angle_alpha   60.00034134
_cell_angle_beta   59.99932010
_cell_angle_gamma   60.00183571
_symmetry_Int_Tables_number   1
_chemical_formula_structural   Er6Hf(Ga3Co8)2
_chemical_formula_sum   'Er6 Hf1 Ga6 Co16'
_cell_volume   429.63464604
_cell_formula_units_Z   1
loop_
 _symmetry_equiv_pos_site_id
 _symmetry_equiv_pos_as_xyz
  1  'x, y, z'
loop_
 _atom_site_type_symbol
 _atom_site_label
 _atom_site_symmetry_multiplicity
 _atom_site_fract_x
 _atom_site_fract_y
 _atom_site_fract_z
 _atom_site_occupancy
  Er  Er0  1  0.716315  0.716155  0.284026  1
  Er  Er1  1  0.283723  0.715932  0.283774  1
  Er  Er2  1  0.716011  0.283809  0.283698  1
  Er  Er3  1  0.283685  0.283845  0.715974  1
  Er  Er4  1  0.716277  0.284068  0.716226  1
  Er  Er5  1  0.283989  0.716191  0.716302  1
  Hf  Hf6  1  0.000000  0.000000  0.000000  1
  Ga  Ga7  1  0.000000  0.000000  0.500000  1
  Ga  Ga8  1  0.500000  0.000000  0.500000  1
  Ga  Ga9  1  0.000000  0.500000  0.500000  1
  Ga  Ga10  1  0.500000  0.500000  0.000000  1
  Ga  Ga11  1  0.000000  0.500000  0.000000  1
  Ga  Ga12  1  0.500000  0.000000  0.000000  1
  Co  Co13  1  0.873257  0.873153  0.380270  1
  Co  Co14  1  0.873305  0.380120  0.873216  1
  Co  Co15  1  0.380157  0.873221  0.873241  1
  Co  Co16  1  0.873300  0.873196  0.873227  1
  Co  Co17  1  0.126743  0.126847  0.619730  1
  Co  Co18  1  0.126695  0.619880  0.126784  1
  Co  Co19  1  0.619843  0.126779  0.126759  1
  Co  Co20  1  0.126700  0.126804  0.126773  1
  Co  Co21  1  0.678640  0.678516  0.964067  1
  Co  Co22  1  0.678528  0.964347  0.678466  1
  Co  Co23  1  0.964382  0.678429  0.678499  1
  Co  Co24  1  0.678584  0.678457  0.678532  1
  Co  Co25  1  0.321360  0.321484  0.035933  1
  Co  Co26  1  0.321472  0.035653  0.321534  1
  Co  Co27  1  0.035618  0.321571  0.321501  1
  Co  Co28  1  0.321416  0.321543  0.321468  1
