# generated using pymatgen
data_Nb3Cu2SiN
_symmetry_space_group_name_H-M   'P 1'
_cell_length_a   8.12379309
_cell_length_b   8.12081565
_cell_length_c   8.12015886
_cell_angle_alpha   59.91139555
_cell_angle_beta   59.98981707
_cell_angle_gamma   60.00568506
_symmetry_Int_Tables_number   1
_chemical_formula_structural   Nb3Cu2SiN
_chemical_formula_sum   'Nb12 Cu8 Si4 N4'
_cell_volume   378.53113993
_cell_formula_units_Z   4
loop_
 _symmetry_equiv_pos_site_id
 _symmetry_equiv_pos_as_xyz
  1  'x, y, z'
loop_
 _atom_site_type_symbol
 _atom_site_label
 _atom_site_symmetry_multiplicity
 _atom_site_fract_x
 _atom_site_fract_y
 _atom_site_fract_z
 _atom_site_occupancy
  Nb  Nb0  1  0.814499  0.814613  0.185258  1
  Nb  Nb1  1  0.185751  0.185381  0.814433  1
  Nb  Nb2  1  0.814568  0.185361  0.814539  1
  Nb  Nb3  1  0.185598  0.814612  0.185273  1
  Nb  Nb4  1  0.185330  0.814676  0.814562  1
  Nb  Nb5  1  0.814406  0.185682  0.185593  1
  Nb  Nb6  1  0.435501  0.435387  0.064742  1
  Nb  Nb7  1  0.064249  0.064619  0.435567  1
  Nb  Nb8  1  0.435432  0.064639  0.435461  1
  Nb  Nb9  1  0.064402  0.435388  0.064727  1
  Nb  Nb10  1  0.064670  0.435324  0.435438  1
  Nb  Nb11  1  0.435594  0.064318  0.064407  1
  Cu  Cu12  1  0.738662  0.420876  0.421050  1
  Cu  Cu13  1  0.420007  0.738979  0.420465  1
  Cu  Cu14  1  0.420213  0.420430  0.739913  1
  Cu  Cu15  1  0.420113  0.420898  0.419758  1
  Cu  Cu16  1  0.511338  0.829124  0.828950  1
  Cu  Cu17  1  0.829993  0.511021  0.829535  1
  Cu  Cu18  1  0.829787  0.829570  0.510087  1
  Cu  Cu19  1  0.829887  0.829102  0.830242  1
  Si  Si20  1  0.125000  0.625000  0.625000  1
  Si  Si21  1  0.625000  0.125000  0.625000  1
  Si  Si22  1  0.625000  0.625000  0.125000  1
  Si  Si23  1  0.625000  0.625000  0.625000  1
  N  N24  1  0.625000  0.125000  0.125000  1
  N  N25  1  0.125000  0.625000  0.125000  1
  N  N26  1  0.125000  0.125000  0.625000  1
  N  N27  1  0.125000  0.125000  0.125000  1
