# generated using pymatgen
data_La6Ir13PtRh4
_symmetry_space_group_name_H-M   'P 1'
_cell_length_a   5.40544901
_cell_length_b   5.40625958
_cell_length_c   17.81093500
_cell_angle_alpha   90.00071923
_cell_angle_beta   89.99991088
_cell_angle_gamma   120.00216523
_symmetry_Int_Tables_number   1
_chemical_formula_structural   La6Ir13PtRh4
_chemical_formula_sum   'La6 Ir13 Pt1 Rh4'
_cell_volume   450.75083841
_cell_formula_units_Z   1
loop_
 _symmetry_equiv_pos_site_id
 _symmetry_equiv_pos_as_xyz
  1  'x, y, z'
loop_
 _atom_site_type_symbol
 _atom_site_label
 _atom_site_symmetry_multiplicity
 _atom_site_fract_x
 _atom_site_fract_y
 _atom_site_fract_z
 _atom_site_occupancy
  La  La0  1  0.333359  0.666686  0.541314  1
  La  La1  1  0.666669  0.333336  0.043026  1
  La  La2  1  0.666641  0.333314  0.458686  1
  La  La3  1  0.333331  0.666664  0.956974  1
  La  La4  1  0.333320  0.666659  0.749241  1
  La  La5  1  0.666680  0.333341  0.250759  1
  Ir  Ir6  1  0.167292  0.334580  0.128950  1
  Ir  Ir7  1  0.833023  0.666024  0.627760  1
  Ir  Ir8  1  0.665405  0.832695  0.128938  1
  Ir  Ir9  1  0.167301  0.832707  0.128940  1
  Ir  Ir10  1  0.833027  0.167026  0.627741  1
  Ir  Ir11  1  0.334037  0.167028  0.627729  1
  Ir  Ir12  1  0.832708  0.665420  0.871050  1
  Ir  Ir13  1  0.832699  0.167293  0.871060  1
  Ir  Ir14  1  0.334595  0.167305  0.871062  1
  Ir  Ir15  1  0.665963  0.832972  0.372271  1
  Ir  Ir16  1  0.166973  0.832974  0.372259  1
  Ir  Ir17  1  0.166977  0.333976  0.372240  1
  Ir  Ir18  1  0.000000  0.000000  0.500000  1
  Pt  Pt19  1  0.000000  0.000000  0.000000  1
  Rh  Rh20  1  0.000013  0.999972  0.250516  1
  Rh  Rh21  1  0.999987  0.000028  0.749484  1
  Rh  Rh22  1  0.333356  0.666714  0.249638  1
  Rh  Rh23  1  0.666644  0.333286  0.750362  1
