# generated using pymatgen
data_Sm10Si16Sb
_symmetry_space_group_name_H-M   'P 1'
_cell_length_a   11.32297707
_cell_length_b   11.26242652
_cell_length_c   11.32295780
_cell_angle_alpha   144.60366235
_cell_angle_beta   136.08732992
_cell_angle_gamma   57.71982057
_symmetry_Int_Tables_number   1
_chemical_formula_structural   Sm10Si16Sb
_chemical_formula_sum   'Sm10 Si16 Sb1'
_cell_volume   574.97398147
_cell_formula_units_Z   1
loop_
 _symmetry_equiv_pos_site_id
 _symmetry_equiv_pos_as_xyz
  1  'x, y, z'
loop_
 _atom_site_type_symbol
 _atom_site_label
 _atom_site_symmetry_multiplicity
 _atom_site_fract_x
 _atom_site_fract_y
 _atom_site_fract_z
 _atom_site_occupancy
  Sm  Sm0  1  0.755315  0.760874  0.517098  1
  Sm  Sm1  1  0.442593  0.972011  0.016330  1
  Sm  Sm2  1  0.847939  0.367080  0.016894  1
  Sm  Sm3  1  0.955681  0.972012  0.529419  1
  Sm  Sm4  1  0.150866  0.163687  0.515468  1
  Sm  Sm5  1  0.350187  0.367083  0.519144  1
  Sm  Sm6  1  0.243777  0.760875  0.005558  1
  Sm  Sm7  1  0.545883  0.559069  0.499531  1
  Sm  Sm8  1  0.059539  0.559070  0.013187  1
  Sm  Sm9  1  0.648220  0.163690  0.012823  1
  Si  Si10  1  0.198275  0.590718  0.392444  1
  Si  Si11  1  0.999730  0.086356  0.086625  1
  Si  Si12  1  0.698793  0.279104  0.580311  1
  Si  Si13  1  0.801722  0.191420  0.389697  1
  Si  Si14  1  0.896846  0.501862  0.605013  1
  Si  Si15  1  0.413642  0.861293  0.447651  1
  Si  Si16  1  0.103097  0.709485  0.606389  1
  Si  Si17  1  0.300437  0.893751  0.593314  1
  Si  Si18  1  0.581996  0.039267  0.457269  1
  Si  Si19  1  0.999800  0.431578  0.431778  1
  Si  Si20  1  0.885885  0.836549  0.950664  1
  Si  Si21  1  0.401314  0.499804  0.098490  1
  Si  Si22  1  0.113685  0.069886  0.956201  1
  Si  Si23  1  0.291643  0.237661  0.946018  1
  Si  Si24  1  0.499260  0.394759  0.895498  1
  Si  Si25  1  0.594122  0.706408  0.112285  1
  Sb  Sb26  1  0.719750  0.686150  0.966401  1
