# generated using pymatgen
data_Rb2Cu3RuF12
_symmetry_space_group_name_H-M   'P 1'
_cell_length_a   6.94980900
_cell_length_b   7.95221732
_cell_length_c   12.15617200
_cell_angle_alpha   58.77025559
_cell_angle_beta   90.00000000
_cell_angle_gamma   90.00000000
_symmetry_Int_Tables_number   1
_chemical_formula_structural   Rb2Cu3RuF12
_chemical_formula_sum   'Rb4 Cu6 Ru2 F24'
_cell_volume   574.47670543
_cell_formula_units_Z   2
loop_
 _symmetry_equiv_pos_site_id
 _symmetry_equiv_pos_as_xyz
  1  'x, y, z'
loop_
 _atom_site_type_symbol
 _atom_site_label
 _atom_site_symmetry_multiplicity
 _atom_site_fract_x
 _atom_site_fract_y
 _atom_site_fract_z
 _atom_site_occupancy
  Rb  Rb0  1  0.501133  0.326030  0.393141  1
  Rb  Rb1  1  0.998867  0.326030  0.893141  1
  Rb  Rb2  1  0.498867  0.673970  0.606859  1
  Rb  Rb3  1  0.001133  0.673970  0.106859  1
  Cu  Cu4  1  0.500000  0.000000  0.000000  1
  Cu  Cu5  1  0.000000  0.000000  0.500000  1
  Cu  Cu6  1  0.714267  0.979120  0.261899  1
  Cu  Cu7  1  0.785733  0.979120  0.761899  1
  Cu  Cu8  1  0.285733  0.020880  0.738101  1
  Cu  Cu9  1  0.214267  0.020880  0.238101  1
  Ru  Ru10  1  0.500000  0.500000  0.000000  1
  Ru  Ru11  1  0.000000  0.500000  0.500000  1
  F  F12  1  0.665284  0.879177  0.149728  1
  F  F13  1  0.834716  0.879177  0.649728  1
  F  F14  1  0.334716  0.120823  0.850272  1
  F  F15  1  0.165284  0.120823  0.350272  1
  F  F16  1  0.229726  0.976307  0.598971  1
  F  F17  1  0.270274  0.976307  0.098971  1
  F  F18  1  0.770274  0.023693  0.401029  1
  F  F19  1  0.729726  0.023693  0.901029  1
  F  F20  1  0.453730  0.919231  0.327428  1
  F  F21  1  0.046270  0.919231  0.827428  1
  F  F22  1  0.546270  0.080769  0.672572  1
  F  F23  1  0.953730  0.080769  0.172572  1
  F  F24  1  0.873422  0.333515  0.662991  1
  F  F25  1  0.626578  0.333515  0.162991  1
  F  F26  1  0.126578  0.666485  0.337009  1
  F  F27  1  0.373422  0.666485  0.837009  1
  F  F28  1  0.253390  0.369700  0.067331  1
  F  F29  1  0.246610  0.369700  0.567331  1
  F  F30  1  0.746610  0.630300  0.932669  1
  F  F31  1  0.753390  0.630300  0.432669  1
  F  F32  1  0.574025  0.327121  0.937153  1
  F  F33  1  0.925975  0.327121  0.437153  1
  F  F34  1  0.425975  0.672879  0.062847  1
  F  F35  1  0.074025  0.672879  0.562847  1
