# generated using pymatgen
data_Nd8ZnCu3Si11Pd
_symmetry_space_group_name_H-M   'P 1'
_cell_length_a   8.19549426
_cell_length_b   8.19549468
_cell_length_c   8.50332000
_cell_angle_alpha   90.00316854
_cell_angle_beta   89.99683153
_cell_angle_gamma   119.88322578
_symmetry_Int_Tables_number   1
_chemical_formula_structural   Nd8ZnCu3Si11Pd
_chemical_formula_sum   'Nd8 Zn1 Cu3 Si11 Pd1'
_cell_volume   495.19848497
_cell_formula_units_Z   1
loop_
 _symmetry_equiv_pos_site_id
 _symmetry_equiv_pos_as_xyz
  1  'x, y, z'
loop_
 _atom_site_type_symbol
 _atom_site_label
 _atom_site_symmetry_multiplicity
 _atom_site_fract_x
 _atom_site_fract_y
 _atom_site_fract_z
 _atom_site_occupancy
  Nd  Nd0  1  0.499387  0.500613  0.751390  1
  Nd  Nd1  1  0.499427  0.500573  0.248588  1
  Nd  Nd2  1  0.001646  0.502459  0.750912  1
  Nd  Nd3  1  0.001612  0.502429  0.249081  1
  Nd  Nd4  1  0.497541  0.998354  0.750912  1
  Nd  Nd5  1  0.497571  0.998388  0.249081  1
  Nd  Nd6  1  0.002075  0.997925  0.748878  1
  Nd  Nd7  1  0.002075  0.997925  0.251133  1
  Zn  Zn8  1  0.833095  0.166905  0.000002  1
  Cu  Cu9  1  0.663412  0.336588  0.999691  1
  Cu  Cu10  1  0.334555  0.665445  0.000090  1
  Cu  Cu11  1  0.333123  0.666877  0.500187  1
  Si  Si12  1  0.169228  0.830772  0.000010  1
  Si  Si13  1  0.338787  0.169958  0.000006  1
  Si  Si14  1  0.167508  0.832492  0.500005  1
  Si  Si15  1  0.663603  0.831295  0.000004  1
  Si  Si16  1  0.834012  0.165988  0.499973  1
  Si  Si17  1  0.830042  0.661213  0.000006  1
  Si  Si18  1  0.662598  0.831847  0.499991  1
  Si  Si19  1  0.168705  0.336397  0.000004  1
  Si  Si20  1  0.332558  0.167370  0.500014  1
  Si  Si21  1  0.168153  0.337402  0.499991  1
  Si  Si22  1  0.832630  0.667442  0.500014  1
  Pd  Pd23  1  0.666658  0.333342  0.500033  1
