# generated using pymatgen
data_Tb2Lu4TcBi2
_symmetry_space_group_name_H-M   'P 1'
_cell_length_a   8.19034849
_cell_length_b   8.18270298
_cell_length_c   4.27085600
_cell_angle_alpha   90.00000000
_cell_angle_beta   90.00000000
_cell_angle_gamma   119.96913103
_symmetry_Int_Tables_number   1
_chemical_formula_structural   Tb2Lu4TcBi2
_chemical_formula_sum   'Tb2 Lu4 Tc1 Bi2'
_cell_volume   247.95891905
_cell_formula_units_Z   1
loop_
 _symmetry_equiv_pos_site_id
 _symmetry_equiv_pos_as_xyz
  1  'x, y, z'
loop_
 _atom_site_type_symbol
 _atom_site_label
 _atom_site_symmetry_multiplicity
 _atom_site_fract_x
 _atom_site_fract_y
 _atom_site_fract_z
 _atom_site_occupancy
  Tb  Tb0  1  0.389719  0.390580  0.500000  1
  Tb  Tb1  1  0.610281  0.000861  0.500000  1
  Lu  Lu2  1  0.230120  0.999043  0.000000  1
  Lu  Lu3  1  0.000000  0.615123  0.500000  1
  Lu  Lu4  1  0.769880  0.768922  0.000000  1
  Lu  Lu5  1  0.000000  0.228113  0.000000  1
  Tc  Tc6  1  0.000000  0.994892  0.500000  1
  Bi  Bi7  1  0.330404  0.666436  0.000000  1
  Bi  Bi8  1  0.669596  0.336031  0.000000  1
