# generated using pymatgen
data_Yb7Pr13Ir12
_symmetry_space_group_name_H-M   'P 1'
_cell_length_a   11.16228494
_cell_length_b   11.25280292
_cell_length_c   6.46798260
_cell_angle_alpha   89.93778055
_cell_angle_beta   90.10375560
_cell_angle_gamma   90.12162576
_symmetry_Int_Tables_number   1
_chemical_formula_structural   Yb7Pr13Ir12
_chemical_formula_sum   'Yb7 Pr13 Ir12'
_cell_volume   812.42020349
_cell_formula_units_Z   1
loop_
 _symmetry_equiv_pos_site_id
 _symmetry_equiv_pos_as_xyz
  1  'x, y, z'
loop_
 _atom_site_type_symbol
 _atom_site_label
 _atom_site_symmetry_multiplicity
 _atom_site_fract_x
 _atom_site_fract_y
 _atom_site_fract_z
 _atom_site_occupancy
  Yb  Yb0  1  0.291387  0.085216  0.380937  1
  Yb  Yb1  1  0.289792  0.915020  0.882462  1
  Yb  Yb2  1  0.708396  0.087020  0.882998  1
  Yb  Yb3  1  0.004787  0.001318  0.495333  1
  Yb  Yb4  1  0.999503  0.000614  0.995190  1
  Yb  Yb5  1  0.500468  0.499943  0.995115  1
  Yb  Yb6  1  0.498999  0.500932  0.495313  1
  Pr  Pr7  1  0.711351  0.915169  0.385547  1
  Pr  Pr8  1  0.586505  0.792331  0.881889  1
  Pr  Pr9  1  0.585820  0.209521  0.381338  1
  Pr  Pr10  1  0.406907  0.793816  0.382452  1
  Pr  Pr11  1  0.410686  0.207045  0.881163  1
  Pr  Pr12  1  0.212488  0.410282  0.619367  1
  Pr  Pr13  1  0.213850  0.588921  0.119020  1
  Pr  Pr14  1  0.788031  0.409609  0.118924  1
  Pr  Pr15  1  0.786980  0.588908  0.617616  1
  Pr  Pr16  1  0.911230  0.712326  0.120442  1
  Pr  Pr17  1  0.908516  0.285064  0.622860  1
  Pr  Pr18  1  0.090859  0.714061  0.620894  1
  Pr  Pr19  1  0.092156  0.284467  0.123342  1
  Ir  Ir20  1  0.847633  0.155853  0.249743  1
  Ir  Ir21  1  0.850749  0.841690  0.746455  1
  Ir  Ir22  1  0.151934  0.159241  0.747159  1
  Ir  Ir23  1  0.150310  0.840644  0.244241  1
  Ir  Ir24  1  0.653461  0.347698  0.746749  1
  Ir  Ir25  1  0.653050  0.657501  0.248669  1
  Ir  Ir26  1  0.347026  0.345653  0.246481  1
  Ir  Ir27  1  0.345481  0.652971  0.746831  1
  Ir  Ir28  1  0.500259  0.999700  0.122418  1
  Ir  Ir29  1  0.500525  0.999566  0.623974  1
  Ir  Ir30  1  0.000796  0.499060  0.888577  1
  Ir  Ir31  1  0.000064  0.498840  0.386499  1
