# generated using pymatgen
data_Cs2Li6Tb3DyS10
_symmetry_space_group_name_H-M   'P 1'
_cell_length_a   4.04397300
_cell_length_b   7.65199091
_cell_length_c   16.96897009
_cell_angle_alpha   90.01151974
_cell_angle_beta   90.00000000
_cell_angle_gamma   74.67800814
_symmetry_Int_Tables_number   1
_chemical_formula_structural   Cs2Li6Tb3DyS10
_chemical_formula_sum   'Cs2 Li6 Tb3 Dy1 S10'
_cell_volume   506.43138920
_cell_formula_units_Z   1
loop_
 _symmetry_equiv_pos_site_id
 _symmetry_equiv_pos_as_xyz
  1  'x, y, z'
loop_
 _atom_site_type_symbol
 _atom_site_label
 _atom_site_symmetry_multiplicity
 _atom_site_fract_x
 _atom_site_fract_y
 _atom_site_fract_z
 _atom_site_occupancy
  Cs  Cs0  1  0.931345  0.137309  0.249978  1
  Cs  Cs1  1  0.068655  0.862691  0.750030  1
  Li  Li2  1  0.420125  0.159750  0.042053  1
  Li  Li3  1  0.644322  0.711356  0.249996  1
  Li  Li4  1  0.420165  0.159670  0.457903  1
  Li  Li5  1  0.579832  0.840334  0.542102  1
  Li  Li6  1  0.355650  0.288700  0.750088  1
  Li  Li7  1  0.579857  0.840282  0.957864  1
  Tb  Tb8  1  0.194829  0.610343  0.094163  1
  Tb  Tb9  1  0.194789  0.610422  0.405758  1
  Tb  Tb10  1  0.805202  0.389597  0.594348  1
  Dy  Dy11  1  0.805252  0.389497  0.905768  1
  S  S12  1  0.824491  0.351019  0.067262  1
  S  S13  1  0.570217  0.859564  0.109125  1
  S  S14  1  0.230944  0.538111  0.249991  1
  S  S15  1  0.570210  0.859577  0.390865  1
  S  S16  1  0.824523  0.350955  0.432356  1
  S  S17  1  0.175483  0.649034  0.567684  1
  S  S18  1  0.429782  0.140436  0.609119  1
  S  S19  1  0.769182  0.461636  0.750392  1
  S  S20  1  0.429201  0.141597  0.890953  1
  S  S21  1  0.175942  0.648116  0.932200  1
