# generated using pymatgen
data_La8Tb5Sm7Sn16
_symmetry_space_group_name_H-M   'P 1'
_cell_length_a   8.06402873
_cell_length_b   8.47384320
_cell_length_c   16.01236900
_cell_angle_alpha   89.99530753
_cell_angle_beta   89.87985967
_cell_angle_gamma   90.05686767
_symmetry_Int_Tables_number   1
_chemical_formula_structural   La8Tb5Sm7Sn16
_chemical_formula_sum   'La8 Tb5 Sm7 Sn16'
_cell_volume   1094.17530703
_cell_formula_units_Z   1
loop_
 _symmetry_equiv_pos_site_id
 _symmetry_equiv_pos_as_xyz
  1  'x, y, z'
loop_
 _atom_site_type_symbol
 _atom_site_label
 _atom_site_symmetry_multiplicity
 _atom_site_fract_x
 _atom_site_fract_y
 _atom_site_fract_z
 _atom_site_occupancy
  La  La0  1  0.496263  0.320447  0.903331  1
  La  La1  1  0.996420  0.179404  0.596945  1
  La  La2  1  0.503318  0.679433  0.403260  1
  La  La3  1  0.003415  0.821016  0.096127  1
  La  La4  1  0.503483  0.679755  0.096457  1
  La  La5  1  0.003353  0.820488  0.403501  1
  La  La6  1  0.496813  0.320810  0.596693  1
  La  La7  1  0.996226  0.179610  0.903356  1
  Tb  Tb8  1  0.833283  0.668557  0.875102  1
  Tb  Tb9  1  0.165324  0.498548  0.750310  1
  Tb  Tb10  1  0.665427  0.000702  0.750163  1
  Tb  Tb11  1  0.834620  0.501581  0.250168  1
  Tb  Tb12  1  0.334490  0.998462  0.250118  1
  Sm  Sm13  1  0.334241  0.831191  0.875444  1
  Sm  Sm14  1  0.835358  0.669183  0.624712  1
  Sm  Sm15  1  0.665747  0.169299  0.375510  1
  Sm  Sm16  1  0.166411  0.331066  0.124256  1
  Sm  Sm17  1  0.665959  0.169002  0.123795  1
  Sm  Sm18  1  0.165182  0.330915  0.375603  1
  Sm  Sm19  1  0.334256  0.830734  0.624985  1
  Sn  Sn20  1  0.324660  0.037234  0.040948  1
  Sn  Sn21  1  0.823402  0.463042  0.458991  1
  Sn  Sn22  1  0.676073  0.962349  0.540867  1
  Sn  Sn23  1  0.172847  0.537915  0.958446  1
  Sn  Sn24  1  0.676894  0.960822  0.958153  1
  Sn  Sn25  1  0.176648  0.537053  0.541191  1
  Sn  Sn26  1  0.323976  0.037382  0.459288  1
  Sn  Sn27  1  0.824866  0.464323  0.040247  1
  Sn  Sn28  1  0.530847  0.617738  0.750817  1
  Sn  Sn29  1  0.028828  0.880620  0.751348  1
  Sn  Sn30  1  0.470317  0.382468  0.249655  1
  Sn  Sn31  1  0.970070  0.117409  0.249850  1
  Sn  Sn32  1  0.298106  0.144376  0.750114  1
  Sn  Sn33  1  0.798498  0.356626  0.750682  1
  Sn  Sn34  1  0.702140  0.856102  0.249730  1
  Sn  Sn35  1  0.202242  0.644341  0.249840  1
