# generated using pymatgen
data_Tb2Al6(GaIr)3
_symmetry_space_group_name_H-M   'P 1'
_cell_length_a   7.53937917
_cell_length_b   7.53937814
_cell_length_c   9.57796000
_cell_angle_alpha   90.00000000
_cell_angle_beta   90.00000000
_cell_angle_gamma   119.61072987
_symmetry_Int_Tables_number   1
_chemical_formula_structural   Tb2Al6(GaIr)3
_chemical_formula_sum   'Tb4 Al12 Ga6 Ir6'
_cell_volume   473.33102489
_cell_formula_units_Z   2
loop_
 _symmetry_equiv_pos_site_id
 _symmetry_equiv_pos_as_xyz
  1  'x, y, z'
loop_
 _atom_site_type_symbol
 _atom_site_label
 _atom_site_symmetry_multiplicity
 _atom_site_fract_x
 _atom_site_fract_y
 _atom_site_fract_z
 _atom_site_occupancy
  Tb  Tb0  1  0.995882  0.669589  0.250000  1
  Tb  Tb1  1  0.004118  0.330411  0.750000  1
  Tb  Tb2  1  0.669589  0.995882  0.250000  1
  Tb  Tb3  1  0.330411  0.004118  0.750000  1
  Al  Al4  1  0.001696  0.334602  0.072968  1
  Al  Al5  1  0.998304  0.665398  0.927032  1
  Al  Al6  1  0.998304  0.665398  0.572968  1
  Al  Al7  1  0.334602  0.001696  0.427032  1
  Al  Al8  1  0.001696  0.334602  0.427032  1
  Al  Al9  1  0.665398  0.998304  0.572968  1
  Al  Al10  1  0.665398  0.998304  0.927032  1
  Al  Al11  1  0.334602  0.001696  0.072968  1
  Al  Al12  1  0.333982  0.333982  0.553791  1
  Al  Al13  1  0.666018  0.666018  0.446209  1
  Al  Al14  1  0.666018  0.666018  0.053791  1
  Al  Al15  1  0.333982  0.333982  0.946209  1
  Ga  Ga16  1  0.128025  0.128025  0.250000  1
  Ga  Ga17  1  0.871975  0.871975  0.750000  1
  Ga  Ga18  1  0.338405  0.546399  0.250000  1
  Ga  Ga19  1  0.661595  0.453601  0.750000  1
  Ga  Ga20  1  0.546399  0.338405  0.250000  1
  Ga  Ga21  1  0.453601  0.661595  0.750000  1
  Ir  Ir22  1  0.671839  0.328161  0.000000  1
  Ir  Ir23  1  0.328161  0.671839  0.000000  1
  Ir  Ir24  1  0.328161  0.671839  0.500000  1
  Ir  Ir25  1  0.671839  0.328161  0.500000  1
  Ir  Ir26  1  0.000000  0.000000  0.000000  1
  Ir  Ir27  1  0.000000  0.000000  0.500000  1
