# generated using pymatgen
data_Ta2ZnRu3
_symmetry_space_group_name_H-M   'P 1'
_cell_length_a   13.13220700
_cell_length_b   3.20473200
_cell_length_c   4.36767300
_cell_angle_alpha   90.00000000
_cell_angle_beta   90.00000000
_cell_angle_gamma   90.00000000
_symmetry_Int_Tables_number   1
_chemical_formula_structural   Ta2ZnRu3
_chemical_formula_sum   'Ta4 Zn2 Ru6'
_cell_volume   183.81440923
_cell_formula_units_Z   2
loop_
 _symmetry_equiv_pos_site_id
 _symmetry_equiv_pos_as_xyz
  1  'x, y, z'
loop_
 _atom_site_type_symbol
 _atom_site_label
 _atom_site_symmetry_multiplicity
 _atom_site_fract_x
 _atom_site_fract_y
 _atom_site_fract_z
 _atom_site_occupancy
  Ta  Ta0  1  0.089762  0.000000  0.249558  1
  Ta  Ta1  1  0.410239  0.000000  0.249558  1
  Ta  Ta2  1  0.589761  0.000000  0.750443  1
  Ta  Ta3  1  0.910238  0.000000  0.750443  1
  Zn  Zn4  1  0.750000  0.000000  0.251478  1
  Zn  Zn5  1  0.250000  0.000000  0.748523  1
  Ru  Ru6  1  0.579823  0.500001  0.250455  1
  Ru  Ru7  1  0.920178  0.500001  0.250455  1
  Ru  Ru8  1  0.250000  0.500001  0.248722  1
  Ru  Ru9  1  0.750000  0.500001  0.751278  1
  Ru  Ru10  1  0.079822  0.500001  0.749545  1
  Ru  Ru11  1  0.420177  0.500001  0.749545  1
