# generated using pymatgen
data_Sm7Tm(Lu3Pb4)4
_symmetry_space_group_name_H-M   'P 1'
_cell_length_a   8.16766322
_cell_length_b   8.24976512
_cell_length_c   15.53004491
_cell_angle_alpha   90.04951144
_cell_angle_beta   90.09614927
_cell_angle_gamma   89.96646190
_symmetry_Int_Tables_number   1
_chemical_formula_structural   Sm7Tm(Lu3Pb4)4
_chemical_formula_sum   'Sm7 Tm1 Lu12 Pb16'
_cell_volume   1046.43262256
_cell_formula_units_Z   1
loop_
 _symmetry_equiv_pos_site_id
 _symmetry_equiv_pos_as_xyz
  1  'x, y, z'
loop_
 _atom_site_type_symbol
 _atom_site_label
 _atom_site_symmetry_multiplicity
 _atom_site_fract_x
 _atom_site_fract_y
 _atom_site_fract_z
 _atom_site_occupancy
  Sm  Sm0  1  0.967346  0.822180  0.901239  1
  Sm  Sm1  1  0.532712  0.322287  0.098654  1
  Sm  Sm2  1  0.032822  0.177597  0.401338  1
  Sm  Sm3  1  0.532786  0.322469  0.401523  1
  Sm  Sm4  1  0.032690  0.177735  0.098656  1
  Sm  Sm5  1  0.467284  0.677574  0.901497  1
  Sm  Sm6  1  0.967268  0.822117  0.598650  1
  Tm  Tm7  1  0.466782  0.677623  0.598895  1
  Lu  Lu8  1  0.627112  0.158331  0.622146  1
  Lu  Lu9  1  0.127295  0.341573  0.877870  1
  Lu  Lu10  1  0.372741  0.841522  0.122134  1
  Lu  Lu11  1  0.872942  0.658651  0.377875  1
  Lu  Lu12  1  0.372916  0.841261  0.378170  1
  Lu  Lu13  1  0.872782  0.658500  0.122141  1
  Lu  Lu14  1  0.627184  0.158455  0.877787  1
  Lu  Lu15  1  0.127387  0.341900  0.622135  1
  Lu  Lu16  1  0.794505  0.494082  0.749758  1
  Lu  Lu17  1  0.295182  0.006071  0.749817  1
  Lu  Lu18  1  0.205098  0.506286  0.249997  1
  Lu  Lu19  1  0.705046  0.993665  0.250052  1
  Pb  Pb20  1  0.712087  0.962436  0.456830  1
  Pb  Pb21  1  0.212104  0.537547  0.043151  1
  Pb  Pb22  1  0.287950  0.037579  0.956815  1
  Pb  Pb23  1  0.786685  0.463326  0.543369  1
  Pb  Pb24  1  0.288449  0.036725  0.543240  1
  Pb  Pb25  1  0.787988  0.462422  0.956827  1
  Pb  Pb26  1  0.712081  0.962456  0.043104  1
  Pb  Pb27  1  0.213021  0.538163  0.457440  1
  Pb  Pb28  1  0.432374  0.371171  0.749924  1
  Pb  Pb29  1  0.932259  0.129338  0.749996  1
  Pb  Pb30  1  0.567671  0.629303  0.250027  1
  Pb  Pb31  1  0.067739  0.870671  0.249978  1
  Pb  Pb32  1  0.656137  0.847048  0.749200  1
  Pb  Pb33  1  0.157599  0.651885  0.749752  1
  Pb  Pb34  1  0.342977  0.151920  0.250014  1
  Pb  Pb35  1  0.843003  0.348133  0.249997  1
