# generated using pymatgen
data_Tm2Co5Si6Rh5
_symmetry_space_group_name_H-M   'P 1'
_cell_length_a   3.76181800
_cell_length_b   10.78879800
_cell_length_c   12.24645600
_cell_angle_alpha   90.00000000
_cell_angle_beta   90.00000000
_cell_angle_gamma   90.00000000
_symmetry_Int_Tables_number   1
_chemical_formula_structural   Tm2Co5Si6Rh5
_chemical_formula_sum   'Tm4 Co10 Si12 Rh10'
_cell_volume   497.02847281
_cell_formula_units_Z   2
loop_
 _symmetry_equiv_pos_site_id
 _symmetry_equiv_pos_as_xyz
  1  'x, y, z'
loop_
 _atom_site_type_symbol
 _atom_site_label
 _atom_site_symmetry_multiplicity
 _atom_site_fract_x
 _atom_site_fract_y
 _atom_site_fract_z
 _atom_site_occupancy
  Tm  Tm0  1  0.250000  0.587070  0.709692  1
  Tm  Tm1  1  0.250000  0.912930  0.209692  1
  Tm  Tm2  1  0.750000  0.419632  0.292550  1
  Tm  Tm3  1  0.750000  0.080368  0.792550  1
  Co  Co4  1  0.750000  0.779215  0.821119  1
  Co  Co5  1  0.750000  0.720785  0.321119  1
  Co  Co6  1  0.250000  0.883614  0.698079  1
  Co  Co7  1  0.250000  0.616386  0.198079  1
  Co  Co8  1  0.750000  0.110212  0.302912  1
  Co  Co9  1  0.750000  0.389788  0.802912  1
  Co  Co10  1  0.250000  0.468744  0.930651  1
  Co  Co11  1  0.250000  0.031256  0.430651  1
  Co  Co12  1  0.750000  0.533378  0.068567  1
  Co  Co13  1  0.750000  0.966622  0.568567  1
  Si  Si14  1  0.250000  0.425565  0.108973  1
  Si  Si15  1  0.250000  0.074435  0.608973  1
  Si  Si16  1  0.750000  0.581487  0.890026  1
  Si  Si17  1  0.750000  0.918513  0.390026  1
  Si  Si18  1  0.250000  0.275475  0.872610  1
  Si  Si19  1  0.250000  0.224525  0.372610  1
  Si  Si20  1  0.750000  0.723918  0.134115  1
  Si  Si21  1  0.750000  0.776082  0.634115  1
  Si  Si22  1  0.250000  0.607679  0.383536  1
  Si  Si23  1  0.250000  0.892321  0.883536  1
  Si  Si24  1  0.750000  0.400125  0.613111  1
  Si  Si25  1  0.750000  0.099875  0.113111  1
  Rh  Rh26  1  0.250000  0.704473  0.987153  1
  Rh  Rh27  1  0.250000  0.795527  0.487153  1
  Rh  Rh28  1  0.750000  0.293572  0.008979  1
  Rh  Rh29  1  0.750000  0.206428  0.508979  1
  Rh  Rh30  1  0.250000  0.409300  0.484490  1
  Rh  Rh31  1  0.250000  0.090700  0.984490  1
  Rh  Rh32  1  0.750000  0.597820  0.512968  1
  Rh  Rh33  1  0.750000  0.902180  0.012968  1
  Rh  Rh34  1  0.250000  0.222693  0.180472  1
  Rh  Rh35  1  0.250000  0.277307  0.680472  1
