# generated using pymatgen
data_Tb3Y5(LuBi)12
_symmetry_space_group_name_H-M   'P 1'
_cell_length_a   8.19692800
_cell_length_b   9.41633600
_cell_length_c   12.00030001
_cell_angle_alpha   90.00011206
_cell_angle_beta   89.99647674
_cell_angle_gamma   90.00007845
_symmetry_Int_Tables_number   1
_chemical_formula_structural   Tb3Y5(LuBi)12
_chemical_formula_sum   'Tb3 Y5 Lu12 Bi12'
_cell_volume   926.24349322
_cell_formula_units_Z   1
loop_
 _symmetry_equiv_pos_site_id
 _symmetry_equiv_pos_as_xyz
  1  'x, y, z'
loop_
 _atom_site_type_symbol
 _atom_site_label
 _atom_site_symmetry_multiplicity
 _atom_site_fract_x
 _atom_site_fract_y
 _atom_site_fract_z
 _atom_site_occupancy
  Tb  Tb0  1  0.186242  0.749999  0.718771  1
  Tb  Tb1  1  0.686252  0.750001  0.781237  1
  Tb  Tb2  1  0.813745  0.250001  0.281236  1
  Y  Y3  1  0.313748  0.250001  0.218742  1
  Y  Y4  1  0.353183  0.750003  0.216517  1
  Y  Y5  1  0.853171  0.749999  0.283481  1
  Y  Y6  1  0.646825  0.250000  0.783475  1
  Y  Y7  1  0.146820  0.250000  0.716522  1
  Lu  Lu8  1  0.023856  0.749998  0.989584  1
  Lu  Lu9  1  0.523841  0.749998  0.510412  1
  Lu  Lu10  1  0.976139  0.250000  0.010412  1
  Lu  Lu11  1  0.476182  0.250001  0.489616  1
  Lu  Lu12  1  0.307205  0.433642  0.940874  1
  Lu  Lu13  1  0.807211  0.066367  0.559125  1
  Lu  Lu14  1  0.692795  0.933624  0.059127  1
  Lu  Lu15  1  0.192794  0.566362  0.440859  1
  Lu  Lu16  1  0.692795  0.566374  0.059128  1
  Lu  Lu17  1  0.192793  0.933637  0.440861  1
  Lu  Lu18  1  0.307201  0.066358  0.940870  1
  Lu  Lu19  1  0.807213  0.433635  0.559126  1
  Bi  Bi20  1  0.433851  0.003924  0.671690  1
  Bi  Bi21  1  0.933845  0.496071  0.828317  1
  Bi  Bi22  1  0.566130  0.503896  0.328310  1
  Bi  Bi23  1  0.066191  0.996116  0.171688  1
  Bi  Bi24  1  0.566130  0.996104  0.328310  1
  Bi  Bi25  1  0.066192  0.503885  0.171688  1
  Bi  Bi26  1  0.433851  0.496076  0.671690  1
  Bi  Bi27  1  0.933845  0.003929  0.828317  1
  Bi  Bi28  1  0.404686  0.750000  0.957532  1
  Bi  Bi29  1  0.904686  0.750000  0.542472  1
  Bi  Bi30  1  0.595234  0.250000  0.042508  1
  Bi  Bi31  1  0.095345  0.250000  0.457504  1
