# generated using pymatgen
data_Ce4CoNi3(SnH2)4
_symmetry_space_group_name_H-M   'P 1'
_cell_length_a   8.37614601
_cell_length_b   4.35753200
_cell_length_c   7.54164001
_cell_angle_alpha   90.00000000
_cell_angle_beta   90.00493710
_cell_angle_gamma   90.00000000
_symmetry_Int_Tables_number   1
_chemical_formula_structural   Ce4CoNi3(SnH2)4
_chemical_formula_sum   'Ce4 Co1 Ni3 Sn4 H8'
_cell_volume   275.26476310
_cell_formula_units_Z   1
loop_
 _symmetry_equiv_pos_site_id
 _symmetry_equiv_pos_as_xyz
  1  'x, y, z'
loop_
 _atom_site_type_symbol
 _atom_site_label
 _atom_site_symmetry_multiplicity
 _atom_site_fract_x
 _atom_site_fract_y
 _atom_site_fract_z
 _atom_site_occupancy
  Ce  Ce0  1  0.503052  0.750002  0.247852  1
  Ce  Ce1  1  0.996875  0.750002  0.247849  1
  Ce  Ce2  1  0.998101  0.250002  0.751952  1
  Ce  Ce3  1  0.501873  0.250002  0.751964  1
  Co  Co4  1  0.750122  0.250002  0.083185  1
  Ni  Ni5  1  0.249873  0.250002  0.416415  1
  Ni  Ni6  1  0.750188  0.750002  0.583438  1
  Ni  Ni7  1  0.249908  0.750002  0.916990  1
  Sn  Sn8  1  0.249923  0.250002  0.083260  1
  Sn  Sn9  1  0.749939  0.250002  0.415591  1
  Sn  Sn10  1  0.250067  0.750002  0.583188  1
  Sn  Sn11  1  0.749921  0.750002  0.917787  1
  H  H12  1  0.558650  0.250002  0.082820  1
  H  H13  1  0.941524  0.250002  0.082816  1
  H  H14  1  0.441206  0.250002  0.418024  1
  H  H15  1  0.058663  0.250002  0.418089  1
  H  H16  1  0.941471  0.750002  0.584282  1
  H  H17  1  0.558681  0.750002  0.584208  1
  H  H18  1  0.058362  0.750002  0.915090  1
  H  H19  1  0.441601  0.750002  0.915199  1
