# generated using pymatgen
data_NpGeRh2F24
_symmetry_space_group_name_H-M   'P 1'
_cell_length_a   5.15251703
_cell_length_b   8.86444200
_cell_length_c   9.73527300
_cell_angle_alpha   90.00000000
_cell_angle_beta   90.05084046
_cell_angle_gamma   90.00000000
_symmetry_Int_Tables_number   1
_chemical_formula_structural   NpGeRh2F24
_chemical_formula_sum   'Np1 Ge1 Rh2 F24'
_cell_volume   444.65051762
_cell_formula_units_Z   1
loop_
 _symmetry_equiv_pos_site_id
 _symmetry_equiv_pos_as_xyz
  1  'x, y, z'
loop_
 _atom_site_type_symbol
 _atom_site_label
 _atom_site_symmetry_multiplicity
 _atom_site_fract_x
 _atom_site_fract_y
 _atom_site_fract_z
 _atom_site_occupancy
  Np  Np0  1  0.583788  0.750000  0.128613  1
  Ge  Ge1  1  0.917160  0.750000  0.629735  1
  Rh  Rh2  1  0.080575  0.250000  0.372114  1
  Rh  Rh3  1  0.417037  0.250000  0.868844  1
  F  F4  1  0.205003  0.750000  0.519675  1
  F  F5  1  0.786362  0.250000  0.484182  1
  F  F6  1  0.710196  0.250000  0.983106  1
  F  F7  1  0.270530  0.750000  0.009630  1
  F  F8  1  0.631410  0.750000  0.741632  1
  F  F9  1  0.373917  0.250000  0.258116  1
  F  F10  1  0.121790  0.250000  0.757119  1
  F  F11  1  0.897536  0.750000  0.247321  1
  F  F12  1  0.771538  0.604608  0.521433  1
  F  F13  1  0.232921  0.398939  0.480985  1
  F  F14  1  0.266911  0.399312  0.980274  1
  F  F15  1  0.232921  0.101061  0.480985  1
  F  F16  1  0.746173  0.591694  0.013828  1
  F  F17  1  0.771538  0.895392  0.521433  1
  F  F18  1  0.746173  0.908306  0.013828  1
  F  F19  1  0.266911  0.100688  0.980274  1
  F  F20  1  0.063664  0.604326  0.738058  1
  F  F21  1  0.930040  0.399210  0.260772  1
  F  F22  1  0.567997  0.399041  0.759789  1
  F  F23  1  0.930040  0.100790  0.260772  1
  F  F24  1  0.423104  0.592229  0.244819  1
  F  F25  1  0.063664  0.895674  0.738058  1
  F  F26  1  0.423104  0.907771  0.244819  1
  F  F27  1  0.567997  0.100959  0.759789  1
