# generated using pymatgen
data_Ba5Tm8Ni4O21
_symmetry_space_group_name_H-M   'P 1'
_cell_length_a   10.09012815
_cell_length_b   10.09012700
_cell_length_c   10.09012663
_cell_angle_alpha   94.54768089
_cell_angle_beta   94.54767545
_cell_angle_gamma   147.29065418
_symmetry_Int_Tables_number   1
_chemical_formula_structural   Ba5Tm8Ni4O21
_chemical_formula_sum   'Ba5 Tm8 Ni4 O21'
_cell_volume   532.65867906
_cell_formula_units_Z   1
loop_
 _symmetry_equiv_pos_site_id
 _symmetry_equiv_pos_as_xyz
  1  'x, y, z'
loop_
 _atom_site_type_symbol
 _atom_site_label
 _atom_site_symmetry_multiplicity
 _atom_site_fract_x
 _atom_site_fract_y
 _atom_site_fract_z
 _atom_site_occupancy
  Ba  Ba0  1  0.000000  0.000000  0.000000  1
  Ba  Ba1  1  0.139483  0.536721  0.676203  1
  Ba  Ba2  1  0.860517  0.463279  0.323797  1
  Ba  Ba3  1  0.463279  0.139483  0.602762  1
  Ba  Ba4  1  0.536721  0.860517  0.397238  1
  Tm  Tm5  1  0.167438  0.249842  0.417280  1
  Tm  Tm6  1  0.832562  0.750158  0.582720  1
  Tm  Tm7  1  0.750158  0.167438  0.917595  1
  Tm  Tm8  1  0.249842  0.832562  0.082405  1
  Tm  Tm9  1  0.358073  0.410855  0.768928  1
  Tm  Tm10  1  0.641927  0.589145  0.231072  1
  Tm  Tm11  1  0.589145  0.358073  0.947219  1
  Tm  Tm12  1  0.410855  0.641927  0.052781  1
  Ni  Ni13  1  0.244465  0.040971  0.285437  1
  Ni  Ni14  1  0.755535  0.959029  0.714563  1
  Ni  Ni15  1  0.959029  0.244465  0.203493  1
  Ni  Ni16  1  0.040971  0.755535  0.796507  1
  O  O17  1  0.500000  0.500000  0.000000  1
  O  O18  1  0.960513  0.632172  0.592685  1
  O  O19  1  0.039487  0.367828  0.407315  1
  O  O20  1  0.367828  0.960513  0.328343  1
  O  O21  1  0.632172  0.039487  0.671657  1
  O  O22  1  0.298411  0.428351  0.226034  1
  O  O23  1  0.202317  0.072375  0.773966  1
  O  O24  1  0.072375  0.298411  0.870060  1
  O  O25  1  0.428351  0.202317  0.129940  1
  O  O26  1  0.701589  0.571649  0.773966  1
  O  O27  1  0.797683  0.927625  0.226034  1
  O  O28  1  0.927625  0.701589  0.129940  1
  O  O29  1  0.571649  0.797683  0.870060  1
  O  O30  1  0.495570  0.604337  0.595252  1
  O  O31  1  0.009085  0.900318  0.404748  1
  O  O32  1  0.900318  0.495570  0.891233  1
  O  O33  1  0.604337  0.009085  0.108767  1
  O  O34  1  0.504430  0.395663  0.404748  1
  O  O35  1  0.990915  0.099682  0.595252  1
  O  O36  1  0.099682  0.504430  0.108767  1
  O  O37  1  0.395663  0.990915  0.891233  1
