# generated using pymatgen
data_KNa4
_symmetry_space_group_name_H-M   'P 1'
_cell_length_a   6.85829501
_cell_length_b   6.85829434
_cell_length_c   6.85829500
_cell_angle_alpha   60.00000165
_cell_angle_beta   60.00000488
_cell_angle_gamma   60.00000280
_symmetry_Int_Tables_number   1
_chemical_formula_structural   KNa4
_chemical_formula_sum   'K1 Na4'
_cell_volume   228.10430257
_cell_formula_units_Z   1
loop_
 _symmetry_equiv_pos_site_id
 _symmetry_equiv_pos_as_xyz
  1  'x, y, z'
loop_
 _atom_site_type_symbol
 _atom_site_label
 _atom_site_symmetry_multiplicity
 _atom_site_fract_x
 _atom_site_fract_y
 _atom_site_fract_z
 _atom_site_occupancy
  K  K0  1  0.000000  0.000000  0.000000  1
  Na  Na1  1  0.250000  0.250000  0.250000  1
  Na  Na2  1  0.250000  0.250000  0.250000  1
  Na  Na3  1  0.749999  0.749999  0.749999  1
  Na  Na4  1  0.749999  0.749999  0.749999  1
