# generated using pymatgen
data_Tb11TmTc3Pt
_symmetry_space_group_name_H-M   'P 1'
_cell_length_a   6.32044195
_cell_length_b   7.41974519
_cell_length_c   9.24630659
_cell_angle_alpha   89.96370386
_cell_angle_beta   90.16080731
_cell_angle_gamma   90.11067522
_symmetry_Int_Tables_number   1
_chemical_formula_structural   Tb11TmTc3Pt
_chemical_formula_sum   'Tb11 Tm1 Tc3 Pt1'
_cell_volume   433.61282732
_cell_formula_units_Z   1
loop_
 _symmetry_equiv_pos_site_id
 _symmetry_equiv_pos_as_xyz
  1  'x, y, z'
loop_
 _atom_site_type_symbol
 _atom_site_label
 _atom_site_symmetry_multiplicity
 _atom_site_fract_x
 _atom_site_fract_y
 _atom_site_fract_z
 _atom_site_occupancy
  Tb  Tb0  1  0.629477  0.045370  0.249006  1
  Tb  Tb1  1  0.369831  0.957068  0.750704  1
  Tb  Tb2  1  0.125595  0.460699  0.750804  1
  Tb  Tb3  1  0.869547  0.534966  0.249389  1
  Tb  Tb4  1  0.829794  0.825496  0.933283  1
  Tb  Tb5  1  0.664699  0.321978  0.936001  1
  Tb  Tb6  1  0.828892  0.823958  0.567776  1
  Tb  Tb7  1  0.336448  0.672710  0.060619  1
  Tb  Tb8  1  0.168259  0.181508  0.439817  1
  Tb  Tb9  1  0.336740  0.672576  0.439007  1
  Tb  Tb10  1  0.665270  0.322279  0.564143  1
  Tm  Tm11  1  0.168109  0.179861  0.060515  1
  Tc  Tc12  1  0.454468  0.385510  0.249552  1
  Tc  Tc13  1  0.539939  0.614114  0.749882  1
  Tc  Tc14  1  0.963953  0.113245  0.751498  1
  Pt  Pt15  1  0.048980  0.888660  0.248002  1
