# generated using pymatgen
data_Er2Ta2ReTcB12
_symmetry_space_group_name_H-M   'P 1'
_cell_length_a   3.53267000
_cell_length_b   8.92582812
_cell_length_c   11.26326059
_cell_angle_alpha   89.97915217
_cell_angle_beta   90.00000000
_cell_angle_gamma   90.00000000
_symmetry_Int_Tables_number   1
_chemical_formula_structural   Er2Ta2ReTcB12
_chemical_formula_sum   'Er4 Ta4 Re2 Tc2 B24'
_cell_volume   355.15316838
_cell_formula_units_Z   2
loop_
 _symmetry_equiv_pos_site_id
 _symmetry_equiv_pos_as_xyz
  1  'x, y, z'
loop_
 _atom_site_type_symbol
 _atom_site_label
 _atom_site_symmetry_multiplicity
 _atom_site_fract_x
 _atom_site_fract_y
 _atom_site_fract_z
 _atom_site_occupancy
  Er  Er0  1  0.000000  0.323041  0.413803  1
  Er  Er1  1  0.000000  0.676959  0.586197  1
  Er  Er2  1  0.000000  0.822584  0.086792  1
  Er  Er3  1  0.000000  0.177416  0.913208  1
  Ta  Ta4  1  0.000000  0.945562  0.374762  1
  Ta  Ta5  1  0.000000  0.054438  0.625238  1
  Ta  Ta6  1  0.000000  0.445841  0.125359  1
  Ta  Ta7  1  0.000000  0.554159  0.874641  1
  Re  Re8  1  0.000000  0.143569  0.182312  1
  Re  Re9  1  0.000000  0.856431  0.817688  1
  Tc  Tc10  1  0.000000  0.643546  0.317445  1
  Tc  Tc11  1  0.000000  0.356454  0.682555  1
  B  B12  1  0.500000  0.554477  0.434122  1
  B  B13  1  0.500000  0.445523  0.565878  1
  B  B14  1  0.500000  0.054415  0.065857  1
  B  B15  1  0.500000  0.945585  0.934143  1
  B  B16  1  0.500000  0.754524  0.418520  1
  B  B17  1  0.500000  0.245476  0.581480  1
  B  B18  1  0.500000  0.254869  0.081415  1
  B  B19  1  0.500000  0.745131  0.918585  1
  B  B20  1  0.500000  0.797300  0.263103  1
  B  B21  1  0.500000  0.202700  0.736897  1
  B  B22  1  0.500000  0.297655  0.237435  1
  B  B23  1  0.500000  0.702345  0.762565  1
  B  B24  1  0.500000  0.629438  0.181299  1
  B  B25  1  0.500000  0.370562  0.818701  1
  B  B26  1  0.500000  0.129775  0.319017  1
  B  B27  1  0.500000  0.870225  0.680983  1
  B  B28  1  0.500000  0.981066  0.213749  1
  B  B29  1  0.500000  0.018934  0.786251  1
  B  B30  1  0.500000  0.481651  0.286565  1
  B  B31  1  0.500000  0.518349  0.713435  1
  B  B32  1  0.500000  0.599373  0.026613  1
  B  B33  1  0.500000  0.400627  0.973387  1
  B  B34  1  0.500000  0.099432  0.473618  1
  B  B35  1  0.500000  0.900568  0.526382  1
