# generated using pymatgen
data_DyHfTlPtF14
_symmetry_space_group_name_H-M   'P 1'
_cell_length_a   5.60162400
_cell_length_b   8.88625064
_cell_length_c   12.05275300
_cell_angle_alpha   62.82430259
_cell_angle_beta   90.00000000
_cell_angle_gamma   90.00000000
_symmetry_Int_Tables_number   1
_chemical_formula_structural   DyHfTlPtF14
_chemical_formula_sum   'Dy2 Hf2 Tl2 Pt2 F28'
_cell_volume   533.72618665
_cell_formula_units_Z   2
loop_
 _symmetry_equiv_pos_site_id
 _symmetry_equiv_pos_as_xyz
  1  'x, y, z'
loop_
 _atom_site_type_symbol
 _atom_site_label
 _atom_site_symmetry_multiplicity
 _atom_site_fract_x
 _atom_site_fract_y
 _atom_site_fract_z
 _atom_site_occupancy
  Dy  Dy0  1  0.240837  0.187535  0.236876  1
  Dy  Dy1  1  0.740837  0.812465  0.263124  1
  Hf  Hf2  1  0.756493  0.273590  0.956578  1
  Hf  Hf3  1  0.256493  0.726410  0.543422  1
  Tl  Tl4  1  0.758557  0.815059  0.767687  1
  Tl  Tl5  1  0.258557  0.184941  0.732313  1
  Pt  Pt6  1  0.239936  0.726982  0.044640  1
  Pt  Pt7  1  0.739936  0.273018  0.455360  1
  F  F8  1  0.426691  0.697750  0.917939  1
  F  F9  1  0.926691  0.302250  0.582061  1
  F  F10  1  0.542052  0.290372  0.081952  1
  F  F11  1  0.042052  0.709628  0.418048  1
  F  F12  1  0.436243  0.279853  0.536542  1
  F  F13  1  0.936243  0.720147  0.963458  1
  F  F14  1  0.553892  0.721960  0.451700  1
  F  F15  1  0.053892  0.278040  0.048300  1
  F  F16  1  0.774163  0.527336  0.861384  1
  F  F17  1  0.274163  0.472664  0.638616  1
  F  F18  1  0.222851  0.479143  0.144042  1
  F  F19  1  0.722851  0.520857  0.355958  1
  F  F20  1  0.759390  0.022693  0.055425  1
  F  F21  1  0.259390  0.977307  0.444575  1
  F  F22  1  0.247876  0.974349  0.953578  1
  F  F23  1  0.747876  0.025651  0.546422  1
  F  F24  1  0.975617  0.727632  0.646269  1
  F  F25  1  0.475617  0.272368  0.853731  1
  F  F26  1  0.031556  0.276723  0.363487  1
  F  F27  1  0.531556  0.723277  0.136513  1
  F  F28  1  0.056864  0.744656  0.177962  1
  F  F29  1  0.556864  0.255344  0.322038  1
  F  F30  1  0.963377  0.255595  0.825320  1
  F  F31  1  0.463377  0.744405  0.674680  1
  F  F32  1  0.418984  0.970520  0.233129  1
  F  F33  1  0.918984  0.029480  0.266871  1
  F  F34  1  0.594619  0.034235  0.770478  1
  F  F35  1  0.094619  0.965765  0.729522  1
