# generated using pymatgen
data_Lu12TcRuRh2
_symmetry_space_group_name_H-M   'P 1'
_cell_length_a   6.18726006
_cell_length_b   7.21689532
_cell_length_c   8.92963200
_cell_angle_alpha   90.00000000
_cell_angle_beta   90.00000000
_cell_angle_gamma   90.04243554
_symmetry_Int_Tables_number   1
_chemical_formula_structural   Lu12TcRuRh2
_chemical_formula_sum   'Lu12 Tc1 Ru1 Rh2'
_cell_volume   398.73303531
_cell_formula_units_Z   1
loop_
 _symmetry_equiv_pos_site_id
 _symmetry_equiv_pos_as_xyz
  1  'x, y, z'
loop_
 _atom_site_type_symbol
 _atom_site_label
 _atom_site_symmetry_multiplicity
 _atom_site_fract_x
 _atom_site_fract_y
 _atom_site_fract_z
 _atom_site_occupancy
  Lu  Lu0  1  0.332097  0.679100  0.062193  1
  Lu  Lu1  1  0.168182  0.175910  0.436293  1
  Lu  Lu2  1  0.668119  0.323593  0.564184  1
  Lu  Lu3  1  0.834380  0.822273  0.939296  1
  Lu  Lu4  1  0.668119  0.323593  0.935816  1
  Lu  Lu5  1  0.834380  0.822273  0.560704  1
  Lu  Lu6  1  0.332097  0.679100  0.437807  1
  Lu  Lu7  1  0.168182  0.175910  0.063707  1
  Lu  Lu8  1  0.871181  0.538515  0.250000  1
  Lu  Lu9  1  0.626113  0.038667  0.250000  1
  Lu  Lu10  1  0.130598  0.461807  0.750000  1
  Lu  Lu11  1  0.371273  0.958422  0.750000  1
  Tc  Tc12  1  0.036724  0.886524  0.250000  1
  Ru  Ru13  1  0.538313  0.612921  0.750000  1
  Rh  Rh14  1  0.461001  0.385735  0.250000  1
  Rh  Rh15  1  0.959243  0.115658  0.750000  1
