# generated using pymatgen
data_La6Yb(PrPt3)2
_symmetry_space_group_name_H-M   'P 1'
_cell_length_a   7.80825600
_cell_length_b   7.80825518
_cell_length_c   7.80825514
_cell_angle_alpha   71.64984127
_cell_angle_beta   71.64983975
_cell_angle_gamma   71.64983855
_symmetry_Int_Tables_number   1
_chemical_formula_structural   La6Yb(PrPt3)2
_chemical_formula_sum   'La6 Yb1 Pr2 Pt6'
_cell_volume   416.40051706
_cell_formula_units_Z   1
loop_
 _symmetry_equiv_pos_site_id
 _symmetry_equiv_pos_as_xyz
  1  'x, y, z'
loop_
 _atom_site_type_symbol
 _atom_site_label
 _atom_site_symmetry_multiplicity
 _atom_site_fract_x
 _atom_site_fract_y
 _atom_site_fract_z
 _atom_site_occupancy
  La  La0  1  0.325462  0.609209  0.845058  1
  La  La1  1  0.845058  0.325462  0.609209  1
  La  La2  1  0.609209  0.845058  0.325462  1
  La  La3  1  0.674538  0.390791  0.154942  1
  La  La4  1  0.154942  0.674538  0.390791  1
  La  La5  1  0.390791  0.154942  0.674538  1
  Yb  Yb6  1  0.000000  0.000000  0.000000  1
  Pr  Pr7  1  0.802158  0.802158  0.802158  1
  Pr  Pr8  1  0.197842  0.197842  0.197842  1
  Pt  Pt9  1  0.166300  0.957416  0.589632  1
  Pt  Pt10  1  0.589632  0.166300  0.957416  1
  Pt  Pt11  1  0.957416  0.589632  0.166300  1
  Pt  Pt12  1  0.833700  0.042584  0.410368  1
  Pt  Pt13  1  0.410368  0.833700  0.042584  1
  Pt  Pt14  1  0.042584  0.410368  0.833700  1
