# generated using pymatgen
data_Tb9Lu11Pd16
_symmetry_space_group_name_H-M   'P 1'
_cell_length_a   7.40418836
_cell_length_b   7.49706106
_cell_length_c   14.63483800
_cell_angle_alpha   89.99922811
_cell_angle_beta   90.15574882
_cell_angle_gamma   90.00742287
_symmetry_Int_Tables_number   1
_chemical_formula_structural   Tb9Lu11Pd16
_chemical_formula_sum   'Tb9 Lu11 Pd16'
_cell_volume   812.37175950
_cell_formula_units_Z   1
loop_
 _symmetry_equiv_pos_site_id
 _symmetry_equiv_pos_as_xyz
  1  'x, y, z'
loop_
 _atom_site_type_symbol
 _atom_site_label
 _atom_site_symmetry_multiplicity
 _atom_site_fract_x
 _atom_site_fract_y
 _atom_site_fract_z
 _atom_site_occupancy
  Tb  Tb0  1  0.142799  0.331414  0.620566  1
  Tb  Tb1  1  0.484145  0.675857  0.594592  1
  Tb  Tb2  1  0.984120  0.826202  0.906279  1
  Tb  Tb3  1  0.516172  0.326530  0.094488  1
  Tb  Tb4  1  0.017936  0.171270  0.402492  1
  Tb  Tb5  1  0.516570  0.325857  0.405166  1
  Tb  Tb6  1  0.015539  0.173925  0.094697  1
  Tb  Tb7  1  0.484029  0.672973  0.906202  1
  Tb  Tb8  1  0.982273  0.826612  0.595113  1
  Lu  Lu9  1  0.642453  0.167799  0.622825  1
  Lu  Lu10  1  0.143680  0.331716  0.878349  1
  Lu  Lu11  1  0.356770  0.831909  0.121914  1
  Lu  Lu12  1  0.856683  0.668989  0.377345  1
  Lu  Lu13  1  0.359418  0.831937  0.376735  1
  Lu  Lu14  1  0.856175  0.668404  0.122004  1
  Lu  Lu15  1  0.643587  0.167995  0.878712  1
  Lu  Lu16  1  0.803212  0.510376  0.751155  1
  Lu  Lu17  1  0.304614  0.989413  0.751304  1
  Lu  Lu18  1  0.195935  0.490569  0.249718  1
  Lu  Lu19  1  0.696028  0.009837  0.249230  1
  Pd  Pd20  1  0.688156  0.967983  0.459166  1
  Pd  Pd21  1  0.185097  0.533769  0.041044  1
  Pd  Pd22  1  0.314592  0.033672  0.959635  1
  Pd  Pd23  1  0.808265  0.469841  0.540128  1
  Pd  Pd24  1  0.316228  0.027755  0.539906  1
  Pd  Pd25  1  0.815172  0.466193  0.959608  1
  Pd  Pd26  1  0.685194  0.966937  0.041353  1
  Pd  Pd27  1  0.185625  0.535719  0.455954  1
  Pd  Pd28  1  0.439018  0.381225  0.751721  1
  Pd  Pd29  1  0.936275  0.117194  0.752074  1
  Pd  Pd30  1  0.562498  0.619645  0.249376  1
  Pd  Pd31  1  0.062904  0.879764  0.249202  1
  Pd  Pd32  1  0.665553  0.857632  0.751293  1
  Pd  Pd33  1  0.167366  0.642512  0.751886  1
  Pd  Pd34  1  0.333481  0.141555  0.249323  1
  Pd  Pd35  1  0.832436  0.359022  0.249444  1
