# generated using pymatgen
data_Yb9DyRh4
_symmetry_space_group_name_H-M   'P 1'
_cell_length_a   6.43049467
_cell_length_b   7.44340901
_cell_length_c   8.43316900
_cell_angle_alpha   97.03966732
_cell_angle_beta   112.41188290
_cell_angle_gamma   89.99999484
_symmetry_Int_Tables_number   1
_chemical_formula_structural   Yb9DyRh4
_chemical_formula_sum   'Yb9 Dy1 Rh4'
_cell_volume   369.86925273
_cell_formula_units_Z   1
loop_
 _symmetry_equiv_pos_site_id
 _symmetry_equiv_pos_as_xyz
  1  'x, y, z'
loop_
 _atom_site_type_symbol
 _atom_site_label
 _atom_site_symmetry_multiplicity
 _atom_site_fract_x
 _atom_site_fract_y
 _atom_site_fract_z
 _atom_site_occupancy
  Yb  Yb0  1  0.795513  0.080831  0.825820  1
  Yb  Yb1  1  0.969693  0.419169  0.174180  1
  Yb  Yb2  1  0.200753  0.919642  0.175222  1
  Yb  Yb3  1  0.025530  0.580358  0.824778  1
  Yb  Yb4  1  0.202091  0.178100  0.566232  1
  Yb  Yb5  1  0.635859  0.321900  0.433768  1
  Yb  Yb6  1  0.798498  0.821363  0.437418  1
  Yb  Yb7  1  0.361078  0.678637  0.562582  1
  Yb  Yb8  1  0.429091  0.250000  0.000000  1
  Dy  Dy9  1  0.568376  0.750000  0.000000  1
  Rh  Rh10  1  0.606727  0.425174  0.782892  1
  Rh  Rh11  1  0.823834  0.074826  0.217108  1
  Rh  Rh12  1  0.399686  0.583303  0.216414  1
  Rh  Rh13  1  0.183272  0.916697  0.783586  1
