# generated using pymatgen
data_LiLa5TbOsIBr11
_symmetry_space_group_name_H-M   'P 1'
_cell_length_a   9.82242957
_cell_length_b   9.57203282
_cell_length_c   9.70181300
_cell_angle_alpha   108.36547246
_cell_angle_beta   108.52410975
_cell_angle_gamma   107.38505974
_symmetry_Int_Tables_number   1
_chemical_formula_structural   LiLa5TbOsIBr11
_chemical_formula_sum   'Li1 La5 Tb1 Os1 I1 Br11'
_cell_volume   735.80854198
_cell_formula_units_Z   1
loop_
 _symmetry_equiv_pos_site_id
 _symmetry_equiv_pos_as_xyz
  1  'x, y, z'
loop_
 _atom_site_type_symbol
 _atom_site_label
 _atom_site_symmetry_multiplicity
 _atom_site_fract_x
 _atom_site_fract_y
 _atom_site_fract_z
 _atom_site_occupancy
  Li  Li0  1  0.502094  0.498891  0.497744  1
  La  La1  1  0.038971  0.311242  0.115602  1
  La  La2  1  0.126974  0.037278  0.328379  1
  La  La3  1  0.878324  0.964203  0.675665  1
  La  La4  1  0.966394  0.689756  0.886563  1
  La  La5  1  0.657334  0.864908  0.961035  1
  Tb  Tb6  1  0.320344  0.120355  0.036291  1
  Os  Os7  1  0.997829  0.999113  0.001877  1
  I  I8  1  0.678000  0.232970  0.072317  1
  Br  Br9  1  0.385518  0.457239  0.172750  1
  Br  Br10  1  0.072464  0.684553  0.216863  1
  Br  Br11  1  0.793123  0.932508  0.317601  1
  Br  Br12  1  0.466522  0.178135  0.371396  1
  Br  Br13  1  0.187344  0.387897  0.471010  1
  Br  Br14  1  0.817760  0.613679  0.531815  1
  Br  Br15  1  0.532496  0.815560  0.613688  1
  Br  Br16  1  0.216679  0.071804  0.697652  1
  Br  Br17  1  0.933284  0.317578  0.785432  1
  Br  Br18  1  0.616030  0.524518  0.813268  1
  Br  Br19  1  0.312518  0.797818  0.933057  1
