# generated using pymatgen
data_Pr5Nd11Cd4Ir3Au
_symmetry_space_group_name_H-M   'P 1'
_cell_length_a   10.01245558
_cell_length_b   10.01283363
_cell_length_c   10.01283430
_cell_angle_alpha   60.26566755
_cell_angle_beta   60.25900713
_cell_angle_gamma   60.25899840
_symmetry_Int_Tables_number   1
_chemical_formula_structural   Pr5Nd11Cd4Ir3Au
_chemical_formula_sum   'Pr5 Nd11 Cd4 Ir3 Au1'
_cell_volume   714.00286552
_cell_formula_units_Z   1
loop_
 _symmetry_equiv_pos_site_id
 _symmetry_equiv_pos_as_xyz
  1  'x, y, z'
loop_
 _atom_site_type_symbol
 _atom_site_label
 _atom_site_symmetry_multiplicity
 _atom_site_fract_x
 _atom_site_fract_y
 _atom_site_fract_z
 _atom_site_occupancy
  Pr  Pr0  1  0.562011  0.939588  0.939588  1
  Pr  Pr1  1  0.562462  0.940663  0.562335  1
  Pr  Pr2  1  0.939524  0.562021  0.939412  1
  Pr  Pr3  1  0.562462  0.562335  0.940663  1
  Pr  Pr4  1  0.939524  0.939412  0.562021  1
  Nd  Nd5  1  0.346167  0.346277  0.346277  1
  Nd  Nd6  1  0.356231  0.356167  0.945870  1
  Nd  Nd7  1  0.356231  0.945870  0.356167  1
  Nd  Nd8  1  0.945849  0.356266  0.356266  1
  Nd  Nd9  1  0.799850  0.191130  0.191130  1
  Nd  Nd10  1  0.188442  0.809953  0.809953  1
  Nd  Nd11  1  0.191038  0.799853  0.191208  1
  Nd  Nd12  1  0.809983  0.188569  0.809901  1
  Nd  Nd13  1  0.191038  0.191208  0.799853  1
  Nd  Nd14  1  0.809983  0.809901  0.188569  1
  Nd  Nd15  1  0.940897  0.562190  0.562190  1
  Cd  Cd16  1  0.580629  0.580468  0.580468  1
  Cd  Cd17  1  0.579854  0.579862  0.259745  1
  Cd  Cd18  1  0.579854  0.259745  0.579862  1
  Cd  Cd19  1  0.259539  0.579867  0.579867  1
  Ir  Ir20  1  0.140913  0.141113  0.572794  1
  Ir  Ir21  1  0.140913  0.572794  0.141113  1
  Ir  Ir22  1  0.572848  0.140955  0.140955  1
  Au  Au23  1  0.143759  0.143792  0.143792  1
