# generated using pymatgen
data_DySi3PRh6
_symmetry_space_group_name_H-M   'P 1'
_cell_length_a   7.05757231
_cell_length_b   7.05757172
_cell_length_c   3.76319500
_cell_angle_alpha   90.00000000
_cell_angle_beta   90.00000000
_cell_angle_gamma   120.50332807
_symmetry_Int_Tables_number   1
_chemical_formula_structural   DySi3PRh6
_chemical_formula_sum   'Dy1 Si3 P1 Rh6'
_cell_volume   161.50013424
_cell_formula_units_Z   1
loop_
 _symmetry_equiv_pos_site_id
 _symmetry_equiv_pos_as_xyz
  1  'x, y, z'
loop_
 _atom_site_type_symbol
 _atom_site_label
 _atom_site_symmetry_multiplicity
 _atom_site_fract_x
 _atom_site_fract_y
 _atom_site_fract_z
 _atom_site_occupancy
  Dy  Dy0  1  0.332864  0.667136  0.000000  1
  Si  Si1  1  0.666383  0.333617  0.000000  1
  Si  Si2  1  0.729656  0.866395  0.500000  1
  Si  Si3  1  0.133605  0.270344  0.500000  1
  P  P4  1  0.140227  0.859773  0.500000  1
  Rh  Rh5  1  0.266043  0.132910  0.000000  1
  Rh  Rh6  1  0.867090  0.733957  0.000000  1
  Rh  Rh7  1  0.866232  0.133768  0.000000  1
  Rh  Rh8  1  0.938212  0.470989  0.500000  1
  Rh  Rh9  1  0.529011  0.061788  0.500000  1
  Rh  Rh10  1  0.530676  0.469324  0.500000  1
