# generated using pymatgen
data_Ba4ScMnCo2O9
_symmetry_space_group_name_H-M   'P 1'
_cell_length_a   9.33369736
_cell_length_b   9.17778046
_cell_length_c   5.80298766
_cell_angle_alpha   71.02307017
_cell_angle_beta   70.27499418
_cell_angle_gamma   36.52590900
_symmetry_Int_Tables_number   1
_chemical_formula_structural   Ba4ScMnCo2O9
_chemical_formula_sum   'Ba4 Sc1 Mn1 Co2 O9'
_cell_volume   277.21082952
_cell_formula_units_Z   1
loop_
 _symmetry_equiv_pos_site_id
 _symmetry_equiv_pos_as_xyz
  1  'x, y, z'
loop_
 _atom_site_type_symbol
 _atom_site_label
 _atom_site_symmetry_multiplicity
 _atom_site_fract_x
 _atom_site_fract_y
 _atom_site_fract_z
 _atom_site_occupancy
  Ba  Ba0  1  0.886269  0.375399  0.128324  1
  Ba  Ba1  1  0.389992  0.871676  0.624601  1
  Ba  Ba2  1  0.610008  0.128324  0.375399  1
  Ba  Ba3  1  0.113731  0.624601  0.871676  1
  Sc  Sc4  1  0.500000  0.000000  0.000000  1
  Mn  Mn5  1  0.000000  0.500000  0.500000  1
  Co  Co6  1  0.723392  0.263573  0.736427  1
  Co  Co7  1  0.276608  0.736427  0.263573  1
  O  O8  1  0.896989  0.292990  0.707010  1
  O  O9  1  0.352831  0.884313  0.115687  1
  O  O10  1  0.647169  0.115687  0.884313  1
  O  O11  1  0.103011  0.707010  0.292990  1
  O  O12  1  0.753581  0.730911  0.269089  1
  O  O13  1  0.246419  0.269089  0.730911  1
  O  O14  1  0.240335  0.259665  0.259665  1
  O  O15  1  0.759665  0.740335  0.740335  1
  O  O16  1  0.500000  0.500000  0.500000  1
