# generated using pymatgen
data_K3TaS3O
_symmetry_space_group_name_H-M   'P 1'
_cell_length_a   6.70695000
_cell_length_b   10.84081000
_cell_length_c   13.28069600
_cell_angle_alpha   90.00000000
_cell_angle_beta   90.00000000
_cell_angle_gamma   90.00000000
_symmetry_Int_Tables_number   1
_chemical_formula_structural   K3TaS3O
_chemical_formula_sum   'K12 Ta4 S12 O4'
_cell_volume   965.62307926
_cell_formula_units_Z   4
loop_
 _symmetry_equiv_pos_site_id
 _symmetry_equiv_pos_as_xyz
  1  'x, y, z'
loop_
 _atom_site_type_symbol
 _atom_site_label
 _atom_site_symmetry_multiplicity
 _atom_site_fract_x
 _atom_site_fract_y
 _atom_site_fract_z
 _atom_site_occupancy
  K  K0  1  0.253234  0.045333  0.131406  1
  K  K1  1  0.253234  0.454666  0.131406  1
  K  K2  1  0.736628  0.750000  0.134089  1
  K  K3  1  0.236628  0.750000  0.365910  1
  K  K4  1  0.753234  0.045333  0.368594  1
  K  K5  1  0.753234  0.454666  0.368594  1
  K  K6  1  0.246766  0.545333  0.631406  1
  K  K7  1  0.246766  0.954667  0.631406  1
  K  K8  1  0.763373  0.250000  0.634090  1
  K  K9  1  0.263373  0.250000  0.865911  1
  K  K10  1  0.746766  0.545333  0.868595  1
  K  K11  1  0.746766  0.954667  0.868595  1
  Ta  Ta12  1  0.836363  0.250000  0.046488  1
  Ta  Ta13  1  0.336364  0.250000  0.453512  1
  Ta  Ta14  1  0.663637  0.750000  0.546488  1
  Ta  Ta15  1  0.163636  0.750000  0.953512  1
  S  S16  1  0.735871  0.068044  0.122029  1
  S  S17  1  0.735871  0.431955  0.122029  1
  S  S18  1  0.247099  0.750000  0.123462  1
  S  S19  1  0.747098  0.750000  0.376539  1
  S  S20  1  0.235871  0.068044  0.377971  1
  S  S21  1  0.235871  0.431955  0.377971  1
  S  S22  1  0.764130  0.568044  0.622029  1
  S  S23  1  0.764130  0.931955  0.622029  1
  S  S24  1  0.252901  0.250000  0.623461  1
  S  S25  1  0.752901  0.250000  0.876538  1
  S  S26  1  0.264130  0.568044  0.877971  1
  S  S27  1  0.264130  0.931955  0.877971  1
  O  O28  1  0.106269  0.250000  0.050231  1
  O  O29  1  0.606269  0.250000  0.449770  1
  O  O30  1  0.393731  0.750000  0.550230  1
  O  O31  1  0.893731  0.750000  0.949769  1
