# generated using pymatgen
data_Tb20Bi8OsRh3
_symmetry_space_group_name_H-M   'P 1'
_cell_length_a   8.04792272
_cell_length_b   9.03475100
_cell_length_c   12.51709270
_cell_angle_alpha   90.00000000
_cell_angle_beta   90.13223571
_cell_angle_gamma   90.00000000
_symmetry_Int_Tables_number   1
_chemical_formula_structural   Tb20Bi8OsRh3
_chemical_formula_sum   'Tb20 Bi8 Os1 Rh3'
_cell_volume   910.12762626
_cell_formula_units_Z   1
loop_
 _symmetry_equiv_pos_site_id
 _symmetry_equiv_pos_as_xyz
  1  'x, y, z'
loop_
 _atom_site_type_symbol
 _atom_site_label
 _atom_site_symmetry_multiplicity
 _atom_site_fract_x
 _atom_site_fract_y
 _atom_site_fract_z
 _atom_site_occupancy
  Tb  Tb0  1  0.840864  0.750000  0.791843  1
  Tb  Tb1  1  0.157210  0.250000  0.206559  1
  Tb  Tb2  1  0.343326  0.250000  0.706395  1
  Tb  Tb3  1  0.655979  0.750000  0.294182  1
  Tb  Tb4  1  0.378159  0.750000  0.695538  1
  Tb  Tb5  1  0.624280  0.250000  0.304206  1
  Tb  Tb6  1  0.875147  0.250000  0.805104  1
  Tb  Tb7  1  0.124433  0.750000  0.194198  1
  Tb  Tb8  1  0.946834  0.750000  0.502183  1
  Tb  Tb9  1  0.051477  0.250000  0.497063  1
  Tb  Tb10  1  0.454217  0.250000  0.999161  1
  Tb  Tb11  1  0.545690  0.750000  0.001596  1
  Tb  Tb12  1  0.676935  0.038504  0.564853  1
  Tb  Tb13  1  0.322238  0.953568  0.436022  1
  Tb  Tb14  1  0.178446  0.959438  0.933922  1
  Tb  Tb15  1  0.322238  0.546432  0.436022  1
  Tb  Tb16  1  0.821530  0.040741  0.065932  1
  Tb  Tb17  1  0.676935  0.461496  0.564853  1
  Tb  Tb18  1  0.821530  0.459259  0.065932  1
  Tb  Tb19  1  0.178446  0.540562  0.933922  1
  Bi  Bi20  1  0.570924  0.491189  0.827559  1
  Bi  Bi21  1  0.428791  0.508144  0.173438  1
  Bi  Bi22  1  0.071427  0.508147  0.672798  1
  Bi  Bi23  1  0.428791  0.991856  0.173438  1
  Bi  Bi24  1  0.929734  0.491689  0.326676  1
  Bi  Bi25  1  0.570924  0.008811  0.827559  1
  Bi  Bi26  1  0.929734  0.008311  0.326676  1
  Bi  Bi27  1  0.071427  0.991853  0.672798  1
  Os  Os28  1  0.576103  0.750000  0.512119  1
  Rh  Rh29  1  0.426476  0.250000  0.488591  1
  Rh  Rh30  1  0.069837  0.250000  0.989288  1
  Rh  Rh31  1  0.929919  0.750000  0.009573  1
