# generated using pymatgen
data_Mn4CdPd8Au3
_symmetry_space_group_name_H-M   'P 1'
_cell_length_a   6.93828080
_cell_length_b   6.93828059
_cell_length_c   6.93828113
_cell_angle_alpha   107.83300856
_cell_angle_beta   107.83300328
_cell_angle_gamma   112.79980590
_symmetry_Int_Tables_number   1
_chemical_formula_structural   Mn4CdPd8Au3
_chemical_formula_sum   'Mn4 Cd1 Pd8 Au3'
_cell_volume   256.46385444
_cell_formula_units_Z   1
loop_
 _symmetry_equiv_pos_site_id
 _symmetry_equiv_pos_as_xyz
  1  'x, y, z'
loop_
 _atom_site_type_symbol
 _atom_site_label
 _atom_site_symmetry_multiplicity
 _atom_site_fract_x
 _atom_site_fract_y
 _atom_site_fract_z
 _atom_site_occupancy
  Mn  Mn0  1  0.256237  0.256237  0.512474  1
  Mn  Mn1  1  0.743763  0.743763  0.487526  1
  Mn  Mn2  1  0.256237  0.743763  0.000000  1
  Mn  Mn3  1  0.743763  0.256237  0.000000  1
  Cd  Cd4  1  0.000000  0.000000  0.000000  1
  Pd  Pd5  1  0.497536  0.247014  0.250521  1
  Pd  Pd6  1  0.502464  0.752986  0.749479  1
  Pd  Pd7  1  0.996493  0.247014  0.749479  1
  Pd  Pd8  1  0.247014  0.996493  0.749479  1
  Pd  Pd9  1  0.003507  0.752986  0.250521  1
  Pd  Pd10  1  0.752986  0.003507  0.250521  1
  Pd  Pd11  1  0.247014  0.497536  0.250521  1
  Pd  Pd12  1  0.752986  0.502464  0.749479  1
  Au  Au13  1  0.500000  0.000000  0.500000  1
  Au  Au14  1  0.000000  0.500000  0.500000  1
  Au  Au15  1  0.500000  0.500000  0.000000  1
