# generated using pymatgen
data_Ce2VC2
_symmetry_space_group_name_H-M   'P 1'
_cell_length_a   5.54100800
_cell_length_b   5.54100800
_cell_length_c   10.28417800
_cell_angle_alpha   90.00000000
_cell_angle_beta   90.00000000
_cell_angle_gamma   90.00000000
_symmetry_Int_Tables_number   1
_chemical_formula_structural   Ce2VC2
_chemical_formula_sum   'Ce8 V4 C8'
_cell_volume   315.75274824
_cell_formula_units_Z   4
loop_
 _symmetry_equiv_pos_site_id
 _symmetry_equiv_pos_as_xyz
  1  'x, y, z'
loop_
 _atom_site_type_symbol
 _atom_site_label
 _atom_site_symmetry_multiplicity
 _atom_site_fract_x
 _atom_site_fract_y
 _atom_site_fract_z
 _atom_site_occupancy
  Ce  Ce0  1  0.183764  0.183764  0.345084  1
  Ce  Ce1  1  0.316236  0.683764  0.845084  1
  Ce  Ce2  1  0.683764  0.316236  0.845084  1
  Ce  Ce3  1  0.683764  0.316236  0.154916  1
  Ce  Ce4  1  0.316236  0.683764  0.154916  1
  Ce  Ce5  1  0.183764  0.183764  0.654916  1
  Ce  Ce6  1  0.816236  0.816236  0.345084  1
  Ce  Ce7  1  0.816236  0.816236  0.654916  1
  V  V8  1  0.324010  0.675990  0.500000  1
  V  V9  1  0.824010  0.824010  0.000000  1
  V  V10  1  0.175990  0.175990  0.000000  1
  V  V11  1  0.675990  0.324010  0.500000  1
  C  C12  1  0.000000  0.000000  0.141639  1
  C  C13  1  0.500000  0.500000  0.641639  1
  C  C14  1  0.500000  0.000000  0.500000  1
  C  C15  1  0.500000  0.500000  0.358361  1
  C  C16  1  0.000000  0.000000  0.858361  1
  C  C17  1  0.500000  0.000000  0.000000  1
  C  C18  1  0.000000  0.500000  0.000000  1
  C  C19  1  0.000000  0.500000  0.500000  1
