# generated using pymatgen
data_Ta3Zn3(IrRh2)2
_symmetry_space_group_name_H-M   'P 1'
_cell_length_a   4.12310500
_cell_length_b   7.12056100
_cell_length_c   12.31308400
_cell_angle_alpha   90.00000000
_cell_angle_beta   89.99996749
_cell_angle_gamma   90.00000000
_symmetry_Int_Tables_number   1
_chemical_formula_structural   Ta3Zn3(IrRh2)2
_chemical_formula_sum   'Ta6 Zn6 Ir4 Rh8'
_cell_volume   361.49762495
_cell_formula_units_Z   2
loop_
 _symmetry_equiv_pos_site_id
 _symmetry_equiv_pos_as_xyz
  1  'x, y, z'
loop_
 _atom_site_type_symbol
 _atom_site_label
 _atom_site_symmetry_multiplicity
 _atom_site_fract_x
 _atom_site_fract_y
 _atom_site_fract_z
 _atom_site_occupancy
  Ta  Ta0  1  0.000001  0.500000  0.999984  1
  Ta  Ta1  1  0.500008  0.000000  0.166736  1
  Ta  Ta2  1  0.000002  0.500000  0.332998  1
  Ta  Ta3  1  0.500001  0.000000  0.499971  1
  Ta  Ta4  1  0.999999  0.500000  0.666690  1
  Ta  Ta5  1  0.499992  0.000000  0.833667  1
  Zn  Zn6  1  0.000000  0.000000  0.998550  1
  Zn  Zn7  1  0.500007  0.500000  0.168083  1
  Zn  Zn8  1  0.000001  0.000000  0.334318  1
  Zn  Zn9  1  0.500001  0.500000  0.499808  1
  Zn  Zn10  1  0.999999  0.000000  0.666898  1
  Zn  Zn11  1  0.499994  0.500000  0.832381  1
  Ir  Ir12  1  0.500000  0.249241  0.999514  1
  Ir  Ir13  1  0.500000  0.750760  0.999514  1
  Ir  Ir14  1  0.000001  0.250698  0.167240  1
  Ir  Ir15  1  0.000001  0.749301  0.167240  1
  Rh  Rh16  1  0.500007  0.250620  0.334334  1
  Rh  Rh17  1  0.500007  0.749380  0.334334  1
  Rh  Rh18  1  0.000000  0.249038  0.500463  1
  Rh  Rh19  1  0.000000  0.750962  0.500463  1
  Rh  Rh20  1  0.499992  0.250993  0.666072  1
  Rh  Rh21  1  0.499992  0.749007  0.666072  1
  Rh  Rh22  1  0.999999  0.249423  0.832332  1
  Rh  Rh23  1  0.999999  0.750576  0.832332  1
