# generated using pymatgen
data_Lu8Ta10NbSi16Mo
_symmetry_space_group_name_H-M   'P 1'
_cell_length_a   6.78564365
_cell_length_b   6.98567081
_cell_length_c   13.24278207
_cell_angle_alpha   90.03062455
_cell_angle_beta   89.96694232
_cell_angle_gamma   89.93396761
_symmetry_Int_Tables_number   1
_chemical_formula_structural   Lu8Ta10NbSi16Mo
_chemical_formula_sum   'Lu8 Ta10 Nb1 Si16 Mo1'
_cell_volume   627.73735660
_cell_formula_units_Z   1
loop_
 _symmetry_equiv_pos_site_id
 _symmetry_equiv_pos_as_xyz
  1  'x, y, z'
loop_
 _atom_site_type_symbol
 _atom_site_label
 _atom_site_symmetry_multiplicity
 _atom_site_fract_x
 _atom_site_fract_y
 _atom_site_fract_z
 _atom_site_occupancy
  Lu  Lu0  1  0.502299  0.328269  0.095339  1
  Lu  Lu1  1  0.000714  0.172584  0.404677  1
  Lu  Lu2  1  0.497657  0.673033  0.594951  1
  Lu  Lu3  1  0.998656  0.828495  0.904675  1
  Lu  Lu4  1  0.498248  0.671784  0.904292  1
  Lu  Lu5  1  0.999032  0.827746  0.595231  1
  Lu  Lu6  1  0.501708  0.328076  0.405863  1
  Lu  Lu7  1  0.002022  0.172462  0.095481  1
  Ta  Ta8  1  0.337288  0.174209  0.873784  1
  Ta  Ta9  1  0.163857  0.673753  0.125258  1
  Ta  Ta10  1  0.662203  0.826936  0.375410  1
  Ta  Ta11  1  0.166207  0.674128  0.376283  1
  Ta  Ta12  1  0.663990  0.826113  0.125254  1
  Ta  Ta13  1  0.836009  0.325876  0.873522  1
  Ta  Ta14  1  0.660714  0.007790  0.749175  1
  Ta  Ta15  1  0.160610  0.492148  0.749689  1
  Ta  Ta16  1  0.338884  0.993620  0.250334  1
  Ta  Ta17  1  0.838754  0.507394  0.250201  1
  Nb  Nb18  1  0.837589  0.326355  0.624278  1
  Si  Si19  1  0.662200  0.036007  0.541949  1
  Si  Si20  1  0.165266  0.464795  0.958718  1
  Si  Si21  1  0.334506  0.965423  0.040993  1
  Si  Si22  1  0.834941  0.535636  0.458791  1
  Si  Si23  1  0.332931  0.966328  0.461005  1
  Si  Si24  1  0.834276  0.535079  0.040650  1
  Si  Si25  1  0.665342  0.035106  0.959256  1
  Si  Si26  1  0.167306  0.460309  0.542208  1
  Si  Si27  1  0.537338  0.379147  0.747621  1
  Si  Si28  1  0.041528  0.119661  0.748840  1
  Si  Si29  1  0.461482  0.618791  0.250197  1
  Si  Si30  1  0.961106  0.880156  0.250548  1
  Si  Si31  1  0.793441  0.633009  0.749892  1
  Si  Si32  1  0.295775  0.867819  0.749758  1
  Si  Si33  1  0.205655  0.367192  0.250456  1
  Si  Si34  1  0.704737  0.133609  0.249980  1
  Mo  Mo35  1  0.335728  0.171160  0.625439  1
