# generated using pymatgen
data_K8Ga2O7
_symmetry_space_group_name_H-M   'P 1'
_cell_length_a   17.04865000
_cell_length_b   6.72246016
_cell_length_c   6.70442746
_cell_angle_alpha   61.00560771
_cell_angle_beta   90.00000000
_cell_angle_gamma   90.00000000
_symmetry_Int_Tables_number   1
_chemical_formula_structural   K8Ga2O7
_chemical_formula_sum   'K16 Ga4 O14'
_cell_volume   672.08274484
_cell_formula_units_Z   2
loop_
 _symmetry_equiv_pos_site_id
 _symmetry_equiv_pos_as_xyz
  1  'x, y, z'
loop_
 _atom_site_type_symbol
 _atom_site_label
 _atom_site_symmetry_multiplicity
 _atom_site_fract_x
 _atom_site_fract_y
 _atom_site_fract_z
 _atom_site_occupancy
  K  K0  1  0.709258  0.554180  0.227429  1
  K  K1  1  0.581904  0.003349  0.639127  1
  K  K2  1  0.790742  0.054180  0.227429  1
  K  K3  1  0.290742  0.445820  0.772571  1
  K  K4  1  0.689829  0.452357  0.783697  1
  K  K5  1  0.418096  0.996651  0.360873  1
  K  K6  1  0.310171  0.547643  0.216303  1
  K  K7  1  0.505172  0.543120  0.228731  1
  K  K8  1  0.810171  0.952357  0.783697  1
  K  K9  1  0.994828  0.043120  0.228731  1
  K  K10  1  0.081904  0.496651  0.360873  1
  K  K11  1  0.005172  0.956880  0.771269  1
  K  K12  1  0.494828  0.456880  0.771269  1
  K  K13  1  0.918096  0.503349  0.639127  1
  K  K14  1  0.189829  0.047643  0.216303  1
  K  K15  1  0.209258  0.945820  0.772571  1
  Ga  Ga16  1  0.098989  0.500530  0.854911  1
  Ga  Ga17  1  0.401011  0.000530  0.854911  1
  Ga  Ga18  1  0.598989  0.999470  0.145089  1
  Ga  Ga19  1  0.901011  0.499470  0.145089  1
  O  O20  1  0.320737  0.001168  0.049777  1
  O  O21  1  0.398619  0.267641  0.569430  1
  O  O22  1  0.898619  0.232359  0.430570  1
  O  O23  1  0.101381  0.767641  0.569430  1
  O  O24  1  0.179263  0.501168  0.049777  1
  O  O25  1  0.396440  0.732070  0.831275  1
  O  O26  1  0.896440  0.767930  0.168725  1
  O  O27  1  0.601381  0.732359  0.430570  1
  O  O28  1  0.000000  0.500000  0.000000  1
  O  O29  1  0.603560  0.267930  0.168725  1
  O  O30  1  0.679263  0.998832  0.950223  1
  O  O31  1  0.820737  0.498832  0.950223  1
  O  O32  1  0.500000  0.000000  0.000000  1
  O  O33  1  0.103560  0.232070  0.831275  1
