# generated using pymatgen
data_Er5Tm5Si5Sn
_symmetry_space_group_name_H-M   'P 1'
_cell_length_a   8.43566203
_cell_length_b   8.43735477
_cell_length_c   6.28640400
_cell_angle_alpha   90.00000000
_cell_angle_beta   90.00000000
_cell_angle_gamma   120.18496773
_symmetry_Int_Tables_number   1
_chemical_formula_structural   Er5Tm5Si5Sn
_chemical_formula_sum   'Er5 Tm5 Si5 Sn1'
_cell_volume   386.76388804
_cell_formula_units_Z   1
loop_
 _symmetry_equiv_pos_site_id
 _symmetry_equiv_pos_as_xyz
  1  'x, y, z'
loop_
 _atom_site_type_symbol
 _atom_site_label
 _atom_site_symmetry_multiplicity
 _atom_site_fract_x
 _atom_site_fract_y
 _atom_site_fract_z
 _atom_site_occupancy
  Er  Er0  1  0.765605  0.765631  0.250000  1
  Er  Er1  1  0.240073  0.989375  0.250000  1
  Er  Er2  1  0.240653  0.240680  0.750000  1
  Er  Er3  1  0.756591  0.998851  0.750000  1
  Er  Er4  1  0.998815  0.756534  0.750000  1
  Tm  Tm5  1  0.673661  0.331620  0.502988  1
  Tm  Tm6  1  0.331606  0.673609  0.503002  1
  Tm  Tm7  1  0.331606  0.673609  0.996998  1
  Tm  Tm8  1  0.673661  0.331620  0.997012  1
  Tm  Tm9  1  0.989371  0.240070  0.250000  1
  Si  Si10  1  0.604244  0.998730  0.250000  1
  Si  Si11  1  0.998633  0.604045  0.250000  1
  Si  Si12  1  0.605586  0.605594  0.750000  1
  Si  Si13  1  0.393866  0.001355  0.750000  1
  Si  Si14  1  0.001337  0.393885  0.750000  1
  Sn  Sn15  1  0.394694  0.394793  0.250000  1
