# generated using pymatgen
data_La8Si11GePt4
_symmetry_space_group_name_H-M   'P 1'
_cell_length_a   8.33309033
_cell_length_b   8.33326014
_cell_length_c   8.81341901
_cell_angle_alpha   89.99572682
_cell_angle_beta   90.00600796
_cell_angle_gamma   120.03120460
_symmetry_Int_Tables_number   1
_chemical_formula_structural   La8Si11GePt4
_chemical_formula_sum   'La8 Si11 Ge1 Pt4'
_cell_volume   529.85792168
_cell_formula_units_Z   1
loop_
 _symmetry_equiv_pos_site_id
 _symmetry_equiv_pos_as_xyz
  1  'x, y, z'
loop_
 _atom_site_type_symbol
 _atom_site_label
 _atom_site_symmetry_multiplicity
 _atom_site_fract_x
 _atom_site_fract_y
 _atom_site_fract_z
 _atom_site_occupancy
  La  La0  1  0.999395  0.000587  0.248750  1
  La  La1  1  0.999334  0.000695  0.751295  1
  La  La2  1  0.500410  0.499636  0.248653  1
  La  La3  1  0.501201  0.001676  0.249812  1
  La  La4  1  0.998282  0.498769  0.249801  1
  La  La5  1  0.499022  0.500997  0.751219  1
  La  La6  1  0.499858  0.998789  0.750264  1
  La  La7  1  0.001214  0.500163  0.750261  1
  Si  Si8  1  0.164619  0.330465  0.501143  1
  Si  Si9  1  0.669518  0.835369  0.501141  1
  Si  Si10  1  0.834333  0.165673  0.498836  1
  Si  Si11  1  0.827805  0.664949  0.498665  1
  Si  Si12  1  0.335063  0.172214  0.498672  1
  Si  Si13  1  0.834046  0.165944  0.000996  1
  Si  Si14  1  0.834604  0.668845  0.000901  1
  Si  Si15  1  0.331175  0.165406  0.000898  1
  Si  Si16  1  0.165776  0.834230  0.999167  1
  Si  Si17  1  0.165722  0.331691  0.999046  1
  Si  Si18  1  0.668309  0.834287  0.999057  1
  Ge  Ge19  1  0.164983  0.835028  0.501577  1
  Pt  Pt20  1  0.338315  0.661572  0.496854  1
  Pt  Pt21  1  0.667478  0.332555  0.503153  1
  Pt  Pt22  1  0.666568  0.333441  0.997028  1
  Pt  Pt23  1  0.332971  0.667020  0.002814  1
