# generated using pymatgen
data_Tb2Tm3Os2
_symmetry_space_group_name_H-M   'P 1'
_cell_length_a   6.30379407
_cell_length_b   7.33266534
_cell_length_c   8.38733953
_cell_angle_alpha   97.14415623
_cell_angle_beta   112.07328543
_cell_angle_gamma   90.00000068
_symmetry_Int_Tables_number   1
_chemical_formula_structural   Tb2Tm3Os2
_chemical_formula_sum   'Tb4 Tm6 Os4'
_cell_volume   356.02670000
_cell_formula_units_Z   2
loop_
 _symmetry_equiv_pos_site_id
 _symmetry_equiv_pos_as_xyz
  1  'x, y, z'
loop_
 _atom_site_type_symbol
 _atom_site_label
 _atom_site_symmetry_multiplicity
 _atom_site_fract_x
 _atom_site_fract_y
 _atom_site_fract_z
 _atom_site_occupancy
  Tb  Tb0  1  0.789398  0.081940  0.813481  1
  Tb  Tb1  1  0.975917  0.418060  0.186519  1
  Tb  Tb2  1  0.210602  0.918060  0.186519  1
  Tb  Tb3  1  0.024083  0.581940  0.813481  1
  Tm  Tm4  1  0.201316  0.182238  0.565115  1
  Tm  Tm5  1  0.636202  0.317762  0.434885  1
  Tm  Tm6  1  0.798684  0.817762  0.434885  1
  Tm  Tm7  1  0.363798  0.682238  0.565115  1
  Tm  Tm8  1  0.422385  0.250000  0.000000  1
  Tm  Tm9  1  0.577615  0.750000  0.000000  1
  Os  Os10  1  0.596975  0.422721  0.779230  1
  Os  Os11  1  0.817745  0.077279  0.220770  1
  Os  Os12  1  0.403025  0.577279  0.220770  1
  Os  Os13  1  0.182255  0.922721  0.779230  1
