# generated using pymatgen
data_Tb6Er4AlSb5
_symmetry_space_group_name_H-M   'P 1'
_cell_length_a   8.93355400
_cell_length_b   8.94532735
_cell_length_c   6.38039500
_cell_angle_alpha   90.00000000
_cell_angle_beta   90.00000000
_cell_angle_gamma   119.95646441
_symmetry_Int_Tables_number   1
_chemical_formula_structural   Tb6Er4AlSb5
_chemical_formula_sum   'Tb6 Er4 Al1 Sb5'
_cell_volume   441.76271426
_cell_formula_units_Z   1
loop_
 _symmetry_equiv_pos_site_id
 _symmetry_equiv_pos_as_xyz
  1  'x, y, z'
loop_
 _atom_site_type_symbol
 _atom_site_label
 _atom_site_symmetry_multiplicity
 _atom_site_fract_x
 _atom_site_fract_y
 _atom_site_fract_z
 _atom_site_occupancy
  Tb  Tb0  1  0.008455  0.761264  0.750000  1
  Tb  Tb1  1  0.998927  0.244903  0.250000  1
  Tb  Tb2  1  0.754024  0.755097  0.250000  1
  Tb  Tb3  1  0.751337  0.000000  0.750000  1
  Tb  Tb4  1  0.247191  0.238736  0.750000  1
  Tb  Tb5  1  0.244343  0.000000  0.250000  1
  Er  Er6  1  0.334383  0.672070  0.501051  1
  Er  Er7  1  0.662313  0.327930  0.998949  1
  Er  Er8  1  0.662313  0.327930  0.501051  1
  Er  Er9  1  0.334383  0.672070  0.998949  1
  Al  Al10  1  0.396247  0.000000  0.750000  1
  Sb  Sb11  1  0.390058  0.392237  0.250000  1
  Sb  Sb12  1  0.997821  0.607763  0.250000  1
  Sb  Sb13  1  0.001504  0.390890  0.750000  1
  Sb  Sb14  1  0.610614  0.609110  0.750000  1
  Sb  Sb15  1  0.606087  0.000000  0.250000  1
