# generated using pymatgen
data_Ac2TeC2
_symmetry_space_group_name_H-M   'P 1'
_cell_length_a   8.11930140
_cell_length_b   8.11930106
_cell_length_c   7.69794588
_cell_angle_alpha   101.27585822
_cell_angle_beta   101.27585885
_cell_angle_gamma   32.05339117
_symmetry_Int_Tables_number   1
_chemical_formula_structural   Ac2TeC2
_chemical_formula_sum   'Ac4 Te2 C4'
_cell_volume   263.68797059
_cell_formula_units_Z   2
loop_
 _symmetry_equiv_pos_site_id
 _symmetry_equiv_pos_as_xyz
  1  'x, y, z'
loop_
 _atom_site_type_symbol
 _atom_site_label
 _atom_site_symmetry_multiplicity
 _atom_site_fract_x
 _atom_site_fract_y
 _atom_site_fract_z
 _atom_site_occupancy
  Ac  Ac0  1  0.847079  0.445223  0.142308  1
  Ac  Ac1  1  0.554777  0.152921  0.357691  1
  Ac  Ac2  1  0.445223  0.847079  0.642309  1
  Ac  Ac3  1  0.152921  0.554777  0.857691  1
  Te  Te4  1  0.206930  0.793070  0.250000  1
  Te  Te5  1  0.793070  0.206930  0.750001  1
  C  C6  1  0.365683  0.095494  0.028898  1
  C  C7  1  0.904505  0.634317  0.471101  1
  C  C8  1  0.095494  0.365683  0.528899  1
  C  C9  1  0.634317  0.904506  0.971102  1
