# generated using pymatgen
data_Nd4Tm12Cd4RuPt3
_symmetry_space_group_name_H-M   'P 1'
_cell_length_a   9.67857342
_cell_length_b   9.64215183
_cell_length_c   9.64215193
_cell_angle_alpha   59.89809074
_cell_angle_beta   59.73596436
_cell_angle_gamma   59.73596990
_symmetry_Int_Tables_number   1
_chemical_formula_structural   Nd4Tm12Cd4RuPt3
_chemical_formula_sum   'Nd4 Tm12 Cd4 Ru1 Pt3'
_cell_volume   633.23745406
_cell_formula_units_Z   1
loop_
 _symmetry_equiv_pos_site_id
 _symmetry_equiv_pos_as_xyz
  1  'x, y, z'
loop_
 _atom_site_type_symbol
 _atom_site_label
 _atom_site_symmetry_multiplicity
 _atom_site_fract_x
 _atom_site_fract_y
 _atom_site_fract_z
 _atom_site_occupancy
  Nd  Nd0  1  0.566274  0.934076  0.566501  1
  Nd  Nd1  1  0.936887  0.561268  0.935046  1
  Nd  Nd2  1  0.566274  0.566501  0.934076  1
  Nd  Nd3  1  0.936887  0.935046  0.561268  1
  Tm  Tm4  1  0.352268  0.350777  0.350777  1
  Tm  Tm5  1  0.346948  0.350118  0.953970  1
  Tm  Tm6  1  0.346948  0.953970  0.350118  1
  Tm  Tm7  1  0.949929  0.348463  0.348463  1
  Tm  Tm8  1  0.818108  0.185231  0.185231  1
  Tm  Tm9  1  0.187670  0.811596  0.811596  1
  Tm  Tm10  1  0.188100  0.816642  0.186912  1
  Tm  Tm11  1  0.811638  0.184624  0.811105  1
  Tm  Tm12  1  0.188100  0.186912  0.816642  1
  Tm  Tm13  1  0.811638  0.811105  0.184624  1
  Tm  Tm14  1  0.943029  0.556035  0.556035  1
  Tm  Tm15  1  0.552065  0.944753  0.944753  1
  Cd  Cd16  1  0.583369  0.577467  0.577467  1
  Cd  Cd17  1  0.577851  0.583318  0.258942  1
  Cd  Cd18  1  0.577851  0.258942  0.583318  1
  Cd  Cd19  1  0.257792  0.578975  0.578975  1
  Ru  Ru20  1  0.145525  0.141137  0.141137  1
  Pt  Pt21  1  0.140953  0.147559  0.573689  1
  Pt  Pt22  1  0.140953  0.573689  0.147559  1
  Pt  Pt23  1  0.572941  0.141794  0.141794  1
