# generated using pymatgen
data_Zr5Sc(InPt)6
_symmetry_space_group_name_H-M   'P 1'
_cell_length_a   7.55388032
_cell_length_b   7.56113257
_cell_length_c   7.24121300
_cell_angle_alpha   90.00000000
_cell_angle_beta   90.00000000
_cell_angle_gamma   120.03361060
_symmetry_Int_Tables_number   1
_chemical_formula_structural   Zr5Sc(InPt)6
_chemical_formula_sum   'Zr5 Sc1 In6 Pt6'
_cell_volume   358.05662912
_cell_formula_units_Z   1
loop_
 _symmetry_equiv_pos_site_id
 _symmetry_equiv_pos_as_xyz
  1  'x, y, z'
loop_
 _atom_site_type_symbol
 _atom_site_label
 _atom_site_symmetry_multiplicity
 _atom_site_fract_x
 _atom_site_fract_y
 _atom_site_fract_z
 _atom_site_occupancy
  Zr  Zr0  1  0.017920  0.609867  0.750000  1
  Zr  Zr1  1  0.592043  0.982810  0.750000  1
  Zr  Zr2  1  0.611753  0.014737  0.250000  1
  Zr  Zr3  1  0.984980  0.596084  0.250000  1
  Zr  Zr4  1  0.402998  0.389117  0.250000  1
  Sc  Sc5  1  0.392542  0.405319  0.750000  1
  In  In6  1  0.270575  0.002390  0.998195  1
  In  In7  1  0.726635  0.727167  0.001068  1
  In  In8  1  0.003800  0.271822  0.997692  1
  In  In9  1  0.726635  0.727167  0.498932  1
  In  In10  1  0.270575  0.002390  0.501805  1
  In  In11  1  0.003800  0.271822  0.502308  1
  Pt  Pt12  1  0.668096  0.332788  0.974448  1
  Pt  Pt13  1  0.994112  0.994008  0.750000  1
  Pt  Pt14  1  0.668096  0.332788  0.525552  1
  Pt  Pt15  1  0.332882  0.669618  0.465119  1
  Pt  Pt16  1  0.332882  0.669618  0.034881  1
  Pt  Pt17  1  0.999672  0.000490  0.250000  1
