# generated using pymatgen
data_PrCo(PRu)2
_symmetry_space_group_name_H-M   'P 1'
_cell_length_a   3.94709500
_cell_length_b   10.93679500
_cell_length_c   12.74594100
_cell_angle_alpha   90.00000000
_cell_angle_beta   90.00000000
_cell_angle_gamma   90.00000000
_symmetry_Int_Tables_number   1
_chemical_formula_structural   PrCo(PRu)2
_chemical_formula_sum   'Pr6 Co6 P12 Ru12'
_cell_volume   550.22403175
_cell_formula_units_Z   6
loop_
 _symmetry_equiv_pos_site_id
 _symmetry_equiv_pos_as_xyz
  1  'x, y, z'
loop_
 _atom_site_type_symbol
 _atom_site_label
 _atom_site_symmetry_multiplicity
 _atom_site_fract_x
 _atom_site_fract_y
 _atom_site_fract_z
 _atom_site_occupancy
  Pr  Pr0  1  0.000000  0.500000  0.527322  1
  Pr  Pr1  1  0.500000  0.000000  0.471879  1
  Pr  Pr2  1  0.500000  0.821646  0.203398  1
  Pr  Pr3  1  0.500000  0.178354  0.203398  1
  Pr  Pr4  1  0.000000  0.681484  0.797546  1
  Pr  Pr5  1  0.000000  0.318516  0.797546  1
  Co  Co6  1  0.000000  0.500000  0.987980  1
  Co  Co7  1  0.500000  0.000000  0.013420  1
  Co  Co8  1  0.000000  0.161649  0.010240  1
  Co  Co9  1  0.000000  0.838351  0.010240  1
  Co  Co10  1  0.500000  0.500000  0.700378  1
  Co  Co11  1  0.000000  0.000000  0.299450  1
  P  P12  1  0.500000  0.307363  0.616028  1
  P  P13  1  0.500000  0.692637  0.616028  1
  P  P14  1  0.000000  0.193339  0.384121  1
  P  P15  1  0.000000  0.806661  0.384121  1
  P  P16  1  0.500000  0.500000  0.884581  1
  P  P17  1  0.000000  0.000000  0.114962  1
  P  P18  1  0.500000  0.853437  0.897796  1
  P  P19  1  0.500000  0.146563  0.897796  1
  P  P20  1  0.000000  0.654218  0.099203  1
  P  P21  1  0.000000  0.345782  0.099203  1
  P  P22  1  0.500000  0.500000  0.335234  1
  P  P23  1  0.000000  0.000000  0.664398  1
  Ru  Ru24  1  0.500000  0.299256  0.427980  1
  Ru  Ru25  1  0.500000  0.700744  0.427980  1
  Ru  Ru26  1  0.000000  0.201073  0.571852  1
  Ru  Ru27  1  0.000000  0.798927  0.571852  1
  Ru  Ru28  1  0.500000  0.878841  0.715488  1
  Ru  Ru29  1  0.500000  0.121159  0.715488  1
  Ru  Ru30  1  0.000000  0.622576  0.282313  1
  Ru  Ru31  1  0.000000  0.377424  0.282313  1
  Ru  Ru32  1  0.500000  0.327848  0.992490  1
  Ru  Ru33  1  0.500000  0.672152  0.992490  1
  Ru  Ru34  1  0.500000  0.500000  0.152351  1
  Ru  Ru35  1  0.000000  0.000000  0.851135  1
