# generated using pymatgen
data_Er3Zr(Co5P3)4
_symmetry_space_group_name_H-M   'P 1'
_cell_length_a   3.63416000
_cell_length_b   10.23329008
_cell_length_c   11.69590811
_cell_angle_alpha   89.98148306
_cell_angle_beta   90.00000000
_cell_angle_gamma   90.00000000
_symmetry_Int_Tables_number   1
_chemical_formula_structural   Er3Zr(Co5P3)4
_chemical_formula_sum   'Er3 Zr1 Co20 P12'
_cell_volume   434.96393974
_cell_formula_units_Z   1
loop_
 _symmetry_equiv_pos_site_id
 _symmetry_equiv_pos_as_xyz
  1  'x, y, z'
loop_
 _atom_site_type_symbol
 _atom_site_label
 _atom_site_symmetry_multiplicity
 _atom_site_fract_x
 _atom_site_fract_y
 _atom_site_fract_z
 _atom_site_occupancy
  Er  Er0  1  0.250000  0.917208  0.202567  1
  Er  Er1  1  0.750000  0.417539  0.297268  1
  Er  Er2  1  0.750000  0.082751  0.797401  1
  Zr  Zr3  1  0.250000  0.581847  0.700972  1
  Co  Co4  1  0.250000  0.717520  0.992787  1
  Co  Co5  1  0.250000  0.781582  0.493073  1
  Co  Co6  1  0.750000  0.283105  0.006792  1
  Co  Co7  1  0.750000  0.217806  0.509574  1
  Co  Co8  1  0.250000  0.409442  0.489739  1
  Co  Co9  1  0.250000  0.093035  0.987786  1
  Co  Co10  1  0.750000  0.593234  0.515480  1
  Co  Co11  1  0.750000  0.907153  0.012106  1
  Co  Co12  1  0.250000  0.222149  0.177163  1
  Co  Co13  1  0.250000  0.278667  0.677373  1
  Co  Co14  1  0.750000  0.775987  0.822301  1
  Co  Co15  1  0.750000  0.720803  0.323663  1
  Co  Co16  1  0.250000  0.880876  0.699650  1
  Co  Co17  1  0.250000  0.616636  0.198569  1
  Co  Co18  1  0.750000  0.117502  0.301716  1
  Co  Co19  1  0.750000  0.385719  0.798810  1
  Co  Co20  1  0.250000  0.469552  0.928392  1
  Co  Co21  1  0.250000  0.031933  0.432112  1
  Co  Co22  1  0.750000  0.532677  0.066203  1
  Co  Co23  1  0.750000  0.965950  0.569072  1
  P  P24  1  0.250000  0.418796  0.110839  1
  P  P25  1  0.250000  0.080720  0.613012  1
  P  P26  1  0.750000  0.581155  0.884285  1
  P  P27  1  0.750000  0.918362  0.387718  1
  P  P28  1  0.250000  0.270027  0.870208  1
  P  P29  1  0.250000  0.230662  0.371329  1
  P  P30  1  0.750000  0.729859  0.129801  1
  P  P31  1  0.750000  0.767510  0.631400  1
  P  P32  1  0.250000  0.601233  0.390655  1
  P  P33  1  0.250000  0.898721  0.891158  1
  P  P34  1  0.750000  0.400484  0.609730  1
  P  P35  1  0.750000  0.101800  0.109297  1
