# generated using pymatgen
data_NaLaNiPt3
_symmetry_space_group_name_H-M   'P 1'
_cell_length_a   5.28367675
_cell_length_b   5.28367628
_cell_length_c   5.28367731
_cell_angle_alpha   62.57131701
_cell_angle_beta   62.57131004
_cell_angle_gamma   62.57131437
_symmetry_Int_Tables_number   1
_chemical_formula_structural   NaLaNiPt3
_chemical_formula_sum   'Na1 La1 Ni1 Pt3'
_cell_volume   110.27583255
_cell_formula_units_Z   1
loop_
 _symmetry_equiv_pos_site_id
 _symmetry_equiv_pos_as_xyz
  1  'x, y, z'
loop_
 _atom_site_type_symbol
 _atom_site_label
 _atom_site_symmetry_multiplicity
 _atom_site_fract_x
 _atom_site_fract_y
 _atom_site_fract_z
 _atom_site_occupancy
  Na  Na0  1  0.997393  0.997393  0.997393  1
  La  La1  1  0.249751  0.249751  0.249751  1
  Ni  Ni2  1  0.625879  0.625879  0.625879  1
  Pt  Pt3  1  0.626439  0.626439  0.124099  1
  Pt  Pt4  1  0.626439  0.124099  0.626439  1
  Pt  Pt5  1  0.124099  0.626439  0.626439  1
