# generated using pymatgen
data_YHo7(WC2)4
_symmetry_space_group_name_H-M   'P 1'
_cell_length_a   5.72683783
_cell_length_b   5.72683733
_cell_length_c   9.84916135
_cell_angle_alpha   89.94610746
_cell_angle_beta   89.94610388
_cell_angle_gamma   89.98087517
_symmetry_Int_Tables_number   1
_chemical_formula_structural   YHo7(WC2)4
_chemical_formula_sum   'Y1 Ho7 W4 C8'
_cell_volume   323.01937763
_cell_formula_units_Z   1
loop_
 _symmetry_equiv_pos_site_id
 _symmetry_equiv_pos_as_xyz
  1  'x, y, z'
loop_
 _atom_site_type_symbol
 _atom_site_label
 _atom_site_symmetry_multiplicity
 _atom_site_fract_x
 _atom_site_fract_y
 _atom_site_fract_z
 _atom_site_occupancy
  Y  Y0  1  0.800003  0.800003  0.658060  1
  Ho  Ho1  1  0.199935  0.199935  0.341772  1
  Ho  Ho2  1  0.300433  0.700390  0.842481  1
  Ho  Ho3  1  0.700390  0.300433  0.842481  1
  Ho  Ho4  1  0.700479  0.300350  0.158146  1
  Ho  Ho5  1  0.300350  0.700479  0.158146  1
  Ho  Ho6  1  0.199755  0.199755  0.657795  1
  Ho  Ho7  1  0.799515  0.799515  0.341719  1
  W  W8  1  0.321226  0.677625  0.499519  1
  W  W9  1  0.822377  0.822377  0.000673  1
  W  W10  1  0.178970  0.178970  0.000486  1
  W  W11  1  0.677625  0.321226  0.499519  1
  C  C12  1  0.000316  0.000316  0.154738  1
  C  C13  1  0.498450  0.498450  0.654178  1
  C  C14  1  0.498243  0.999759  0.498524  1
  C  C15  1  0.499733  0.499733  0.345279  1
  C  C16  1  0.001085  0.001085  0.846535  1
  C  C17  1  0.500682  0.000677  0.000712  1
  C  C18  1  0.000677  0.500682  0.000712  1
  C  C19  1  0.999759  0.498243  0.498524  1
