# generated using pymatgen
data_VP6PdO18
_symmetry_space_group_name_H-M   'P 1'
_cell_length_a   5.20219501
_cell_length_b   7.05889418
_cell_length_c   10.54950171
_cell_angle_alpha   99.19679190
_cell_angle_beta   93.33750180
_cell_angle_gamma   91.40911533
_symmetry_Int_Tables_number   1
_chemical_formula_structural   VP6PdO18
_chemical_formula_sum   'V1 P6 Pd1 O18'
_cell_volume   381.54170904
_cell_formula_units_Z   1
loop_
 _symmetry_equiv_pos_site_id
 _symmetry_equiv_pos_as_xyz
  1  'x, y, z'
loop_
 _atom_site_type_symbol
 _atom_site_label
 _atom_site_symmetry_multiplicity
 _atom_site_fract_x
 _atom_site_fract_y
 _atom_site_fract_z
 _atom_site_occupancy
  V  V0  1  0.000000  0.000000  0.000000  1
  P  P1  1  0.487521  0.327027  0.637674  1
  P  P2  1  0.512479  0.672973  0.362326  1
  P  P3  1  0.472849  0.038434  0.818268  1
  P  P4  1  0.527151  0.961566  0.181732  1
  P  P5  1  0.245700  0.315453  0.234057  1
  P  P6  1  0.754300  0.684547  0.765943  1
  Pd  Pd7  1  0.000000  0.500000  0.500000  1
  O  O8  1  0.319339  0.889883  0.078896  1
  O  O9  1  0.680661  0.110117  0.921104  1
  O  O10  1  0.479165  0.870092  0.308331  1
  O  O11  1  0.520835  0.129908  0.691669  1
  O  O12  1  0.621314  0.476724  0.758643  1
  O  O13  1  0.378686  0.523276  0.241357  1
  O  O14  1  0.902822  0.701058  0.648243  1
  O  O15  1  0.097178  0.298942  0.351757  1
  O  O16  1  0.636185  0.322030  0.520129  1
  O  O17  1  0.363815  0.677970  0.479871  1
  O  O18  1  0.494644  0.184163  0.237687  1
  O  O19  1  0.505356  0.815837  0.762313  1
  O  O20  1  0.900557  0.736396  0.894599  1
  O  O21  1  0.099443  0.263604  0.105401  1
  O  O22  1  0.802744  0.935812  0.149072  1
  O  O23  1  0.197256  0.064188  0.850928  1
  O  O24  1  0.801380  0.640404  0.371032  1
  O  O25  1  0.198620  0.359596  0.628968  1
