# generated using pymatgen
data_Sm2Co17Si8Os
_symmetry_space_group_name_H-M   'P 1'
_cell_length_a   7.94185321
_cell_length_b   7.99591434
_cell_length_c   7.96247933
_cell_angle_alpha   121.88758852
_cell_angle_beta   121.67077130
_cell_angle_gamma   86.99371472
_symmetry_Int_Tables_number   1
_chemical_formula_structural   Sm2Co17Si8Os
_chemical_formula_sum   'Sm2 Co17 Si8 Os1'
_cell_volume   347.24527251
_cell_formula_units_Z   1
loop_
 _symmetry_equiv_pos_site_id
 _symmetry_equiv_pos_as_xyz
  1  'x, y, z'
loop_
 _atom_site_type_symbol
 _atom_site_label
 _atom_site_symmetry_multiplicity
 _atom_site_fract_x
 _atom_site_fract_y
 _atom_site_fract_z
 _atom_site_occupancy
  Sm  Sm0  1  0.749812  0.750606  0.000667  1
  Sm  Sm1  1  0.249145  0.249938  0.999333  1
  Co  Co2  1  0.448066  0.950056  0.759278  1
  Co  Co3  1  0.188788  0.690777  0.240722  1
  Co  Co4  1  0.547222  0.043079  0.235166  1
  Co  Co5  1  0.947980  0.190730  0.500000  1
  Co  Co6  1  0.197820  0.928372  0.128324  1
  Co  Co7  1  0.800695  0.069529  0.870575  1
  Co  Co8  1  0.430120  0.698953  0.129425  1
  Co  Co9  1  0.569496  0.300047  0.871676  1
  Co  Co10  1  0.700604  0.573151  0.263861  1
  Co  Co11  1  0.300558  0.430021  0.732378  1
  Co  Co12  1  0.936742  0.809289  0.736139  1
  Co  Co13  1  0.312608  0.549040  0.500000  1
  Co  Co14  1  0.812057  0.307913  0.764834  1
  Co  Co15  1  0.002887  0.502565  0.500000  1
  Co  Co16  1  0.499988  0.000706  0.500000  1
  Co  Co17  1  0.068181  0.197644  0.267622  1
  Co  Co18  1  0.051354  0.812178  0.500000  1
  Si  Si19  1  0.291139  0.789388  0.834698  1
  Si  Si20  1  0.053159  0.545643  0.842560  1
  Si  Si21  1  0.540812  0.716575  0.500000  1
  Si  Si22  1  0.790993  0.954282  0.500000  1
  Si  Si23  1  0.444776  0.284725  0.500000  1
  Si  Si24  1  0.956439  0.454689  0.165302  1
  Si  Si25  1  0.710599  0.203083  0.157440  1
  Si  Si26  1  0.209162  0.046831  0.500000  1
  Os  Os27  1  0.688795  0.450190  0.500000  1
