# generated using pymatgen
data_Tb2Y3P12Ru19
_symmetry_space_group_name_H-M   'P 1'
_cell_length_a   12.55040700
_cell_length_b   12.55040737
_cell_length_c   3.98400800
_cell_angle_alpha   90.00000000
_cell_angle_beta   90.00000000
_cell_angle_gamma   119.99999640
_symmetry_Int_Tables_number   1
_chemical_formula_structural   Tb2Y3P12Ru19
_chemical_formula_sum   'Tb2 Y3 P12 Ru19'
_cell_volume   543.45862001
_cell_formula_units_Z   1
loop_
 _symmetry_equiv_pos_site_id
 _symmetry_equiv_pos_as_xyz
  1  'x, y, z'
loop_
 _atom_site_type_symbol
 _atom_site_label
 _atom_site_symmetry_multiplicity
 _atom_site_fract_x
 _atom_site_fract_y
 _atom_site_fract_z
 _atom_site_occupancy
  Tb  Tb0  1  0.666667  0.333333  0.000000  1
  Tb  Tb1  1  0.333333  0.666667  0.000000  1
  Y  Y2  1  0.816309  0.000000  0.500000  1
  Y  Y3  1  0.183691  0.183691  0.500000  1
  Y  Y4  1  0.000000  0.816309  0.500000  1
  P  P5  1  0.626799  0.000000  0.000000  1
  P  P6  1  0.373201  0.373201  0.000000  1
  P  P7  1  0.000000  0.626799  0.000000  1
  P  P8  1  0.694152  0.522704  0.500000  1
  P  P9  1  0.828553  0.305848  0.500000  1
  P  P10  1  0.305848  0.828553  0.500000  1
  P  P11  1  0.522704  0.694152  0.500000  1
  P  P12  1  0.184309  0.000000  0.000000  1
  P  P13  1  0.815691  0.815691  0.000000  1
  P  P14  1  0.000000  0.184309  0.000000  1
  P  P15  1  0.477296  0.171447  0.500000  1
  P  P16  1  0.171447  0.477296  0.500000  1
  Ru  Ru17  1  0.623190  0.808108  0.000000  1
  Ru  Ru18  1  0.184917  0.376810  0.000000  1
  Ru  Ru19  1  0.376810  0.184917  0.000000  1
  Ru  Ru20  1  0.191892  0.815083  0.000000  1
  Ru  Ru21  1  0.808108  0.623190  0.000000  1
  Ru  Ru22  1  0.874313  0.507940  0.500000  1
  Ru  Ru23  1  0.492060  0.366373  0.500000  1
  Ru  Ru24  1  0.633627  0.125687  0.500000  1
  Ru  Ru25  1  0.125687  0.633627  0.500000  1
  Ru  Ru26  1  0.366373  0.492060  0.500000  1
  Ru  Ru27  1  0.507940  0.874313  0.500000  1
  Ru  Ru28  1  0.000000  0.000000  0.000000  1
  Ru  Ru29  1  0.717147  0.717147  0.500000  1
  Ru  Ru30  1  0.000000  0.282853  0.500000  1
  Ru  Ru31  1  0.444987  0.000000  0.000000  1
  Ru  Ru32  1  0.555013  0.555013  0.000000  1
  Ru  Ru33  1  0.000000  0.444987  0.000000  1
  Ru  Ru34  1  0.815083  0.191892  0.000000  1
  Ru  Ru35  1  0.282853  0.000000  0.500000  1
