# generated using pymatgen
data_NdYReB6
_symmetry_space_group_name_H-M   'P 1'
_cell_length_a   3.73683500
_cell_length_b   9.28132900
_cell_length_c   11.73301100
_cell_angle_alpha   90.00000000
_cell_angle_beta   90.00000000
_cell_angle_gamma   90.00000000
_symmetry_Int_Tables_number   1
_chemical_formula_structural   NdYReB6
_chemical_formula_sum   'Nd4 Y4 Re4 B24'
_cell_volume   406.93361588
_cell_formula_units_Z   4
loop_
 _symmetry_equiv_pos_site_id
 _symmetry_equiv_pos_as_xyz
  1  'x, y, z'
loop_
 _atom_site_type_symbol
 _atom_site_label
 _atom_site_symmetry_multiplicity
 _atom_site_fract_x
 _atom_site_fract_y
 _atom_site_fract_z
 _atom_site_occupancy
  Nd  Nd0  1  0.000000  0.822937  0.085989  1
  Nd  Nd1  1  0.000000  0.177063  0.914011  1
  Nd  Nd2  1  0.000000  0.322937  0.414011  1
  Nd  Nd3  1  0.000000  0.677063  0.585989  1
  Y  Y4  1  0.000000  0.442738  0.130399  1
  Y  Y5  1  0.000000  0.557262  0.869601  1
  Y  Y6  1  0.000000  0.942738  0.369601  1
  Y  Y7  1  0.000000  0.057262  0.630399  1
  Re  Re8  1  0.000000  0.138805  0.180234  1
  Re  Re9  1  0.000000  0.861195  0.819766  1
  Re  Re10  1  0.000000  0.638805  0.319766  1
  Re  Re11  1  0.000000  0.361195  0.680234  1
  B  B12  1  0.500000  0.054650  0.069275  1
  B  B13  1  0.500000  0.945350  0.930726  1
  B  B14  1  0.500000  0.554650  0.430725  1
  B  B15  1  0.500000  0.445350  0.569274  1
  B  B16  1  0.500000  0.248945  0.083795  1
  B  B17  1  0.500000  0.751055  0.916205  1
  B  B18  1  0.500000  0.748945  0.416205  1
  B  B19  1  0.500000  0.251055  0.583795  1
  B  B20  1  0.500000  0.290717  0.233611  1
  B  B21  1  0.500000  0.709283  0.766389  1
  B  B22  1  0.500000  0.790717  0.266389  1
  B  B23  1  0.500000  0.209283  0.733611  1
  B  B24  1  0.500000  0.129744  0.313109  1
  B  B25  1  0.500000  0.870256  0.686891  1
  B  B26  1  0.500000  0.629744  0.186891  1
  B  B27  1  0.500000  0.370256  0.813109  1
  B  B28  1  0.500000  0.483751  0.287176  1
  B  B29  1  0.500000  0.516249  0.712824  1
  B  B30  1  0.500000  0.983751  0.212824  1
  B  B31  1  0.500000  0.016249  0.787176  1
  B  B32  1  0.500000  0.097106  0.472898  1
  B  B33  1  0.500000  0.902894  0.527102  1
  B  B34  1  0.500000  0.597106  0.027102  1
  B  B35  1  0.500000  0.402894  0.972898  1
