# generated using pymatgen
data_MgSc2U3Co16Si7
_symmetry_space_group_name_H-M   'P 1'
_cell_length_a   8.11473982
_cell_length_b   8.11473896
_cell_length_c   8.10844625
_cell_angle_alpha   59.99935444
_cell_angle_beta   59.99936054
_cell_angle_gamma   59.85889272
_symmetry_Int_Tables_number   1
_chemical_formula_structural   MgSc2U3Co16Si7
_chemical_formula_sum   'Mg1 Sc2 U3 Co16 Si7'
_cell_volume   377.13974944
_cell_formula_units_Z   1
loop_
 _symmetry_equiv_pos_site_id
 _symmetry_equiv_pos_as_xyz
  1  'x, y, z'
loop_
 _atom_site_type_symbol
 _atom_site_label
 _atom_site_symmetry_multiplicity
 _atom_site_fract_x
 _atom_site_fract_y
 _atom_site_fract_z
 _atom_site_occupancy
  Mg  Mg0  1  0.296457  0.296457  0.709240  1
  Sc  Sc1  1  0.701723  0.291635  0.714491  1
  Sc  Sc2  1  0.291635  0.701723  0.714491  1
  U  U3  1  0.714454  0.714454  0.290118  1
  U  U4  1  0.280572  0.713208  0.292734  1
  U  U5  1  0.713208  0.280572  0.292734  1
  Co  Co6  1  0.880255  0.880255  0.355167  1
  Co  Co7  1  0.879511  0.361418  0.881276  1
  Co  Co8  1  0.361418  0.879511  0.881276  1
  Co  Co9  1  0.877559  0.877559  0.882946  1
  Co  Co10  1  0.121445  0.121445  0.637904  1
  Co  Co11  1  0.117175  0.639772  0.123621  1
  Co  Co12  1  0.639772  0.117175  0.123621  1
  Co  Co13  1  0.118918  0.118918  0.122707  1
  Co  Co14  1  0.660032  0.660032  0.019175  1
  Co  Co15  1  0.677830  0.992212  0.655048  1
  Co  Co16  1  0.992212  0.677830  0.655048  1
  Co  Co17  1  0.674439  0.674439  0.655859  1
  Co  Co18  1  0.324381  0.324381  0.029623  1
  Co  Co19  1  0.341252  0.991012  0.327157  1
  Co  Co20  1  0.991012  0.341252  0.327157  1
  Co  Co21  1  0.339840  0.339840  0.325616  1
  Si  Si22  1  0.002102  0.002102  0.993190  1
  Si  Si23  1  0.005386  0.005386  0.515074  1
  Si  Si24  1  0.475193  0.004612  0.517206  1
  Si  Si25  1  0.004612  0.475193  0.517206  1
  Si  Si26  1  0.505254  0.505254  0.980709  1
  Si  Si27  1  0.011226  0.501126  0.979805  1
  Si  Si28  1  0.501126  0.011226  0.979805  1
