# generated using pymatgen
data_Pr4Dy6SnBi7
_symmetry_space_group_name_H-M   'P 1'
_cell_length_a   8.42641100
_cell_length_b   8.35896100
_cell_length_c   15.68339800
_cell_angle_alpha   90.00000000
_cell_angle_beta   90.00000000
_cell_angle_gamma   90.00000000
_symmetry_Int_Tables_number   1
_chemical_formula_structural   Pr4Dy6SnBi7
_chemical_formula_sum   'Pr8 Dy12 Sn2 Bi14'
_cell_volume   1104.67646328
_cell_formula_units_Z   2
loop_
 _symmetry_equiv_pos_site_id
 _symmetry_equiv_pos_as_xyz
  1  'x, y, z'
loop_
 _atom_site_type_symbol
 _atom_site_label
 _atom_site_symmetry_multiplicity
 _atom_site_fract_x
 _atom_site_fract_y
 _atom_site_fract_z
 _atom_site_occupancy
  Pr  Pr0  1  0.521329  0.322780  0.907082  1
  Pr  Pr1  1  0.021329  0.177220  0.592918  1
  Pr  Pr2  1  0.479254  0.681287  0.403332  1
  Pr  Pr3  1  0.979254  0.818713  0.096668  1
  Pr  Pr4  1  0.479254  0.681287  0.096668  1
  Pr  Pr5  1  0.979254  0.818713  0.403332  1
  Pr  Pr6  1  0.521329  0.322780  0.592918  1
  Pr  Pr7  1  0.021329  0.177220  0.907082  1
  Dy  Dy8  1  0.352934  0.849732  0.876594  1
  Dy  Dy9  1  0.852934  0.650268  0.623406  1
  Dy  Dy10  1  0.644525  0.149831  0.375041  1
  Dy  Dy11  1  0.144525  0.350169  0.124959  1
  Dy  Dy12  1  0.644525  0.149831  0.124959  1
  Dy  Dy13  1  0.144525  0.350169  0.375041  1
  Dy  Dy14  1  0.352934  0.849732  0.623406  1
  Dy  Dy15  1  0.852934  0.650268  0.876594  1
  Dy  Dy16  1  0.189472  0.498324  0.750000  1
  Dy  Dy17  1  0.689472  0.001676  0.750000  1
  Dy  Dy18  1  0.813898  0.507533  0.250000  1
  Dy  Dy19  1  0.313898  0.992467  0.250000  1
  Sn  Sn20  1  0.664369  0.847934  0.250000  1
  Sn  Sn21  1  0.164369  0.652066  0.250000  1
  Bi  Bi22  1  0.296060  0.042865  0.046227  1
  Bi  Bi23  1  0.796060  0.457135  0.453773  1
  Bi  Bi24  1  0.703499  0.957957  0.545832  1
  Bi  Bi25  1  0.203499  0.542043  0.954168  1
  Bi  Bi26  1  0.703499  0.957957  0.954168  1
  Bi  Bi27  1  0.203499  0.542043  0.545832  1
  Bi  Bi28  1  0.296060  0.042865  0.453773  1
  Bi  Bi29  1  0.796060  0.457135  0.046227  1
  Bi  Bi30  1  0.549681  0.633453  0.750000  1
  Bi  Bi31  1  0.049681  0.866547  0.750000  1
  Bi  Bi32  1  0.447920  0.372035  0.250000  1
  Bi  Bi33  1  0.947920  0.127965  0.250000  1
  Bi  Bi34  1  0.339456  0.154066  0.750000  1
  Bi  Bi35  1  0.839456  0.345934  0.750000  1
