# generated using pymatgen
data_PaIrS4
_symmetry_space_group_name_H-M   'P 1'
_cell_length_a   7.17849437
_cell_length_b   7.17849449
_cell_length_c   5.80437787
_cell_angle_alpha   69.47763010
_cell_angle_beta   69.47763131
_cell_angle_gamma   30.84513795
_symmetry_Int_Tables_number   1
_chemical_formula_structural   PaIrS4
_chemical_formula_sum   'Pa1 Ir1 S4'
_cell_volume   142.85593256
_cell_formula_units_Z   1
loop_
 _symmetry_equiv_pos_site_id
 _symmetry_equiv_pos_as_xyz
  1  'x, y, z'
loop_
 _atom_site_type_symbol
 _atom_site_label
 _atom_site_symmetry_multiplicity
 _atom_site_fract_x
 _atom_site_fract_y
 _atom_site_fract_z
 _atom_site_occupancy
  Pa  Pa0  1  0.000000  0.000000  0.000000  1
  Ir  Ir1  1  0.500000  0.500000  0.500000  1
  S  S2  1  0.891437  0.891437  0.475127  1
  S  S3  1  0.619243  0.619243  0.072704  1
  S  S4  1  0.108563  0.108563  0.524873  1
  S  S5  1  0.380757  0.380757  0.927296  1
