# generated using pymatgen
data_Li4SmPa3Pt4
_symmetry_space_group_name_H-M   'P 1'
_cell_length_a   3.89980500
_cell_length_b   7.23731834
_cell_length_c   8.47828065
_cell_angle_alpha   90.55036018
_cell_angle_beta   90.00000000
_cell_angle_gamma   90.00000000
_symmetry_Int_Tables_number   1
_chemical_formula_structural   Li4SmPa3Pt4
_chemical_formula_sum   'Li4 Sm1 Pa3 Pt4'
_cell_volume   239.28105797
_cell_formula_units_Z   1
loop_
 _symmetry_equiv_pos_site_id
 _symmetry_equiv_pos_as_xyz
  1  'x, y, z'
loop_
 _atom_site_type_symbol
 _atom_site_label
 _atom_site_symmetry_multiplicity
 _atom_site_fract_x
 _atom_site_fract_y
 _atom_site_fract_z
 _atom_site_occupancy
  Li  Li0  1  0.250000  0.126009  0.056614  1
  Li  Li1  1  0.250000  0.619012  0.441299  1
  Li  Li2  1  0.750000  0.882364  0.943365  1
  Li  Li3  1  0.750000  0.377001  0.556879  1
  Sm  Sm4  1  0.750000  0.445553  0.185610  1
  Pa  Pa5  1  0.250000  0.050047  0.689709  1
  Pa  Pa6  1  0.250000  0.553623  0.812426  1
  Pa  Pa7  1  0.750000  0.944613  0.312105  1
  Pt  Pt8  1  0.250000  0.215085  0.384776  1
  Pt  Pt9  1  0.250000  0.751227  0.125517  1
  Pt  Pt10  1  0.750000  0.766817  0.631162  1
  Pt  Pt11  1  0.750000  0.268647  0.860540  1
