# generated using pymatgen
data_Dy2BeSi13Ir6
_symmetry_space_group_name_H-M   'P 1'
_cell_length_a   7.97012350
_cell_length_b   7.97012434
_cell_length_c   7.97012424
_cell_angle_alpha   57.30781905
_cell_angle_beta   57.30780372
_cell_angle_gamma   57.30781349
_symmetry_Int_Tables_number   1
_chemical_formula_structural   Dy2BeSi13Ir6
_chemical_formula_sum   'Dy2 Be1 Si13 Ir6'
_cell_volume   335.80903716
_cell_formula_units_Z   1
loop_
 _symmetry_equiv_pos_site_id
 _symmetry_equiv_pos_as_xyz
  1  'x, y, z'
loop_
 _atom_site_type_symbol
 _atom_site_label
 _atom_site_symmetry_multiplicity
 _atom_site_fract_x
 _atom_site_fract_y
 _atom_site_fract_z
 _atom_site_occupancy
  Dy  Dy0  1  0.998589  0.998589  0.998589  1
  Dy  Dy1  1  0.501411  0.501411  0.501411  1
  Be  Be2  1  0.750000  0.750000  0.750000  1
  Si  Si3  1  0.250000  0.250000  0.250000  1
  Si  Si4  1  0.846605  0.055815  0.674667  1
  Si  Si5  1  0.674667  0.846605  0.055815  1
  Si  Si6  1  0.055815  0.674667  0.846605  1
  Si  Si7  1  0.653395  0.825333  0.444185  1
  Si  Si8  1  0.444185  0.653395  0.825333  1
  Si  Si9  1  0.825333  0.444185  0.653395  1
  Si  Si10  1  0.169470  0.563456  0.356251  1
  Si  Si11  1  0.563456  0.356251  0.169470  1
  Si  Si12  1  0.356251  0.169470  0.563456  1
  Si  Si13  1  0.936544  0.330530  0.143749  1
  Si  Si14  1  0.330530  0.143749  0.936544  1
  Si  Si15  1  0.143749  0.936544  0.330530  1
  Ir  Ir16  1  0.079040  0.420960  0.750000  1
  Ir  Ir17  1  0.250000  0.926264  0.573736  1
  Ir  Ir18  1  0.573736  0.250000  0.926264  1
  Ir  Ir19  1  0.926264  0.573736  0.250000  1
  Ir  Ir20  1  0.420960  0.750000  0.079040  1
  Ir  Ir21  1  0.750000  0.079040  0.420960  1
