# generated using pymatgen
data_Dy2As2IrRuO2
_symmetry_space_group_name_H-M   'P 1'
_cell_length_a   4.05697800
_cell_length_b   4.05697800
_cell_length_c   8.04196000
_cell_angle_alpha   90.00000000
_cell_angle_beta   90.00000000
_cell_angle_gamma   90.00000000
_symmetry_Int_Tables_number   1
_chemical_formula_structural   Dy2As2IrRuO2
_chemical_formula_sum   'Dy2 As2 Ir1 Ru1 O2'
_cell_volume   132.36318654
_cell_formula_units_Z   1
loop_
 _symmetry_equiv_pos_site_id
 _symmetry_equiv_pos_as_xyz
  1  'x, y, z'
loop_
 _atom_site_type_symbol
 _atom_site_label
 _atom_site_symmetry_multiplicity
 _atom_site_fract_x
 _atom_site_fract_y
 _atom_site_fract_z
 _atom_site_occupancy
  Dy  Dy0  1  0.250001  0.250001  0.130039  1
  Dy  Dy1  1  0.749999  0.749999  0.869962  1
  As  As2  1  0.749999  0.749999  0.329966  1
  As  As3  1  0.250001  0.250001  0.670033  1
  Ir  Ir4  1  0.749999  0.250001  0.499999  1
  Ru  Ru5  1  0.250001  0.749999  0.499999  1
  O  O6  1  0.749999  0.250001  0.000000  1
  O  O7  1  0.250001  0.749999  0.000000  1
