# generated using pymatgen
data_Tm4Lu4B24RuW3
_symmetry_space_group_name_H-M   'P 1'
_cell_length_a   3.56135500
_cell_length_b   9.18518254
_cell_length_c   11.57248446
_cell_angle_alpha   89.89937694
_cell_angle_beta   90.00000000
_cell_angle_gamma   90.00000000
_symmetry_Int_Tables_number   1
_chemical_formula_structural   Tm4Lu4B24RuW3
_chemical_formula_sum   'Tm4 Lu4 B24 Ru1 W3'
_cell_volume   378.55500722
_cell_formula_units_Z   1
loop_
 _symmetry_equiv_pos_site_id
 _symmetry_equiv_pos_as_xyz
  1  'x, y, z'
loop_
 _atom_site_type_symbol
 _atom_site_label
 _atom_site_symmetry_multiplicity
 _atom_site_fract_x
 _atom_site_fract_y
 _atom_site_fract_z
 _atom_site_occupancy
  Tm  Tm0  1  0.000000  0.320775  0.413374  1
  Tm  Tm1  1  0.000000  0.678720  0.585742  1
  Tm  Tm2  1  0.000000  0.820755  0.085512  1
  Tm  Tm3  1  0.000000  0.178320  0.913510  1
  Lu  Lu4  1  0.000000  0.944156  0.373266  1
  Lu  Lu5  1  0.000000  0.054299  0.629792  1
  Lu  Lu6  1  0.000000  0.445316  0.126541  1
  Lu  Lu7  1  0.000000  0.559069  0.871386  1
  B  B8  1  0.500000  0.551045  0.435220  1
  B  B9  1  0.500000  0.448386  0.565338  1
  B  B10  1  0.500000  0.049997  0.063133  1
  B  B11  1  0.500000  0.945026  0.931967  1
  B  B12  1  0.500000  0.752455  0.422610  1
  B  B13  1  0.500000  0.246945  0.578541  1
  B  B14  1  0.500000  0.253485  0.077180  1
  B  B15  1  0.500000  0.751144  0.918533  1
  B  B16  1  0.500000  0.795740  0.264331  1
  B  B17  1  0.500000  0.203349  0.737618  1
  B  B18  1  0.500000  0.295239  0.235914  1
  B  B19  1  0.500000  0.709136  0.765283  1
  B  B20  1  0.500000  0.631572  0.181932  1
  B  B21  1  0.500000  0.369644  0.818630  1
  B  B22  1  0.500000  0.130279  0.317417  1
  B  B23  1  0.500000  0.869039  0.685537  1
  B  B24  1  0.500000  0.977468  0.212855  1
  B  B25  1  0.500000  0.016328  0.787925  1
  B  B26  1  0.500000  0.477854  0.286549  1
  B  B27  1  0.500000  0.523557  0.713122  1
  B  B28  1  0.500000  0.602673  0.026802  1
  B  B29  1  0.500000  0.401159  0.971723  1
  B  B30  1  0.500000  0.099975  0.472957  1
  B  B31  1  0.500000  0.898412  0.529792  1
  Ru  Ru32  1  0.000000  0.860887  0.820250  1
  W  W33  1  0.000000  0.639068  0.320197  1
  W  W34  1  0.000000  0.360263  0.681046  1
  W  W35  1  0.000000  0.138465  0.178474  1
