# generated using pymatgen
data_Y3Ho(ZnSi)4
_symmetry_space_group_name_H-M   'P 1'
_cell_length_a   4.15354300
_cell_length_b   4.15354260
_cell_length_c   15.78502100
_cell_angle_alpha   90.00000000
_cell_angle_beta   90.00000000
_cell_angle_gamma   120.00001117
_symmetry_Int_Tables_number   1
_chemical_formula_structural   Y3Ho(ZnSi)4
_chemical_formula_sum   'Y3 Ho1 Zn4 Si4'
_cell_volume   235.83764339
_cell_formula_units_Z   1
loop_
 _symmetry_equiv_pos_site_id
 _symmetry_equiv_pos_as_xyz
  1  'x, y, z'
loop_
 _atom_site_type_symbol
 _atom_site_label
 _atom_site_symmetry_multiplicity
 _atom_site_fract_x
 _atom_site_fract_y
 _atom_site_fract_z
 _atom_site_occupancy
  Y  Y0  1  0.000000  0.000000  0.250000  1
  Y  Y1  1  0.000000  0.000000  0.999135  1
  Y  Y2  1  0.000000  0.000000  0.500865  1
  Ho  Ho3  1  0.000000  0.000000  0.750000  1
  Zn  Zn4  1  0.333333  0.666667  0.135021  1
  Zn  Zn5  1  0.666667  0.333333  0.862219  1
  Zn  Zn6  1  0.666667  0.333333  0.637781  1
  Zn  Zn7  1  0.333333  0.666667  0.364979  1
  Si  Si8  1  0.333333  0.666667  0.620228  1
  Si  Si9  1  0.666667  0.333333  0.381002  1
  Si  Si10  1  0.666667  0.333333  0.118998  1
  Si  Si11  1  0.333333  0.666667  0.879772  1
