# generated using pymatgen
data_MnAgBr18
_symmetry_space_group_name_H-M   'P 1'
_cell_length_a   9.28975618
_cell_length_b   9.28975447
_cell_length_c   9.28975509
_cell_angle_alpha   94.49166241
_cell_angle_beta   94.49166258
_cell_angle_gamma   94.49166206
_symmetry_Int_Tables_number   1
_chemical_formula_structural   MnAgBr18
_chemical_formula_sum   'Mn1 Ag1 Br18'
_cell_volume   793.90337109
_cell_formula_units_Z   1
loop_
 _symmetry_equiv_pos_site_id
 _symmetry_equiv_pos_as_xyz
  1  'x, y, z'
loop_
 _atom_site_type_symbol
 _atom_site_label
 _atom_site_symmetry_multiplicity
 _atom_site_fract_x
 _atom_site_fract_y
 _atom_site_fract_z
 _atom_site_occupancy
  Mn  Mn0  1  0.000000  0.000000  0.000000  1
  Ag  Ag1  1  0.500000  0.500000  0.500000  1
  Br  Br2  1  0.266802  0.009694  0.023549  1
  Br  Br3  1  0.023549  0.266802  0.009694  1
  Br  Br4  1  0.009694  0.023549  0.266802  1
  Br  Br5  1  0.733198  0.990306  0.976451  1
  Br  Br6  1  0.976451  0.733198  0.990306  1
  Br  Br7  1  0.990306  0.976451  0.733198  1
  Br  Br8  1  0.634916  0.227343  0.107096  1
  Br  Br9  1  0.107096  0.634916  0.227343  1
  Br  Br10  1  0.227343  0.107096  0.634916  1
  Br  Br11  1  0.365084  0.772657  0.892904  1
  Br  Br12  1  0.892904  0.365084  0.772657  1
  Br  Br13  1  0.772657  0.892904  0.365084  1
  Br  Br14  1  0.448727  0.205667  0.535881  1
  Br  Br15  1  0.535881  0.448727  0.205667  1
  Br  Br16  1  0.205667  0.535881  0.448727  1
  Br  Br17  1  0.551273  0.794333  0.464119  1
  Br  Br18  1  0.464119  0.551273  0.794333  1
  Br  Br19  1  0.794333  0.464119  0.551273  1
