# generated using pymatgen
data_YbPr9Se10
_symmetry_space_group_name_H-M   'P 1'
_cell_length_a   7.32749911
_cell_length_b   8.51605007
_cell_length_c   9.59448835
_cell_angle_alpha   103.42732268
_cell_angle_beta   96.89172185
_cell_angle_gamma   106.76837614
_symmetry_Int_Tables_number   1
_chemical_formula_structural   YbPr9Se10
_chemical_formula_sum   'Yb1 Pr9 Se10'
_cell_volume   546.22722412
_cell_formula_units_Z   1
loop_
 _symmetry_equiv_pos_site_id
 _symmetry_equiv_pos_as_xyz
  1  'x, y, z'
loop_
 _atom_site_type_symbol
 _atom_site_label
 _atom_site_symmetry_multiplicity
 _atom_site_fract_x
 _atom_site_fract_y
 _atom_site_fract_z
 _atom_site_occupancy
  Yb  Yb0  1  0.000000  0.500000  0.000000  1
  Pr  Pr1  1  0.800690  0.601143  0.597836  1
  Pr  Pr2  1  0.595578  0.196698  0.200835  1
  Pr  Pr3  1  0.404422  0.803302  0.799165  1
  Pr  Pr4  1  0.600432  0.703986  0.203530  1
  Pr  Pr5  1  0.199310  0.398857  0.402164  1
  Pr  Pr6  1  0.399568  0.296014  0.796470  1
  Pr  Pr7  1  0.000000  0.000000  0.000000  1
  Pr  Pr8  1  0.201353  0.902075  0.402846  1
  Pr  Pr9  1  0.798647  0.097925  0.597154  1
  Se  Se10  1  0.706300  0.646040  0.902516  1
  Se  Se11  1  0.500529  0.251335  0.500030  1
  Se  Se12  1  0.706341  0.158544  0.903146  1
  Se  Se13  1  0.293659  0.841456  0.096854  1
  Se  Se14  1  0.499471  0.748665  0.499970  1
  Se  Se15  1  0.098409  0.452260  0.707426  1
  Se  Se16  1  0.293700  0.353960  0.097484  1
  Se  Se17  1  0.900888  0.050599  0.299330  1
  Se  Se18  1  0.099112  0.949401  0.700670  1
  Se  Se19  1  0.901591  0.547740  0.292574  1
