# generated using pymatgen
data_Ta12Fe8Os4C3N
_symmetry_space_group_name_H-M   'P 1'
_cell_length_a   8.11976282
_cell_length_b   8.10902321
_cell_length_c   8.11975200
_cell_angle_alpha   59.95622358
_cell_angle_beta   60.00004409
_cell_angle_gamma   59.95636413
_symmetry_Int_Tables_number   1
_chemical_formula_structural   Ta12Fe8Os4C3N
_chemical_formula_sum   'Ta12 Fe8 Os4 C3 N1'
_cell_volume   377.79184545
_cell_formula_units_Z   1
loop_
 _symmetry_equiv_pos_site_id
 _symmetry_equiv_pos_as_xyz
  1  'x, y, z'
loop_
 _atom_site_type_symbol
 _atom_site_label
 _atom_site_symmetry_multiplicity
 _atom_site_fract_x
 _atom_site_fract_y
 _atom_site_fract_z
 _atom_site_occupancy
  Ta  Ta0  1  0.806131  0.806107  0.193881  1
  Ta  Ta1  1  0.194389  0.195365  0.805122  1
  Ta  Ta2  1  0.805110  0.195388  0.805117  1
  Ta  Ta3  1  0.193884  0.806116  0.193858  1
  Ta  Ta4  1  0.193884  0.806116  0.806143  1
  Ta  Ta5  1  0.805110  0.195388  0.194383  1
  Ta  Ta6  1  0.443869  0.443893  0.056119  1
  Ta  Ta7  1  0.055611  0.054635  0.444878  1
  Ta  Ta8  1  0.444890  0.054612  0.444883  1
  Ta  Ta9  1  0.056116  0.443884  0.056142  1
  Ta  Ta10  1  0.056116  0.443884  0.443857  1
  Ta  Ta11  1  0.444890  0.054612  0.055617  1
  Fe  Fe12  1  0.730175  0.423828  0.422999  1
  Fe  Fe13  1  0.423114  0.730713  0.423087  1
  Fe  Fe14  1  0.423020  0.423828  0.730158  1
  Fe  Fe15  1  0.423020  0.423828  0.422993  1
  Fe  Fe16  1  0.519825  0.826172  0.827001  1
  Fe  Fe17  1  0.826886  0.519287  0.826913  1
  Fe  Fe18  1  0.826980  0.826172  0.519842  1
  Fe  Fe19  1  0.826980  0.826172  0.827007  1
  Os  Os20  1  0.125000  0.625000  0.625000  1
  Os  Os21  1  0.625000  0.125000  0.625000  1
  Os  Os22  1  0.625000  0.625000  0.125000  1
  Os  Os23  1  0.625000  0.625000  0.625000  1
  C  C24  1  0.625000  0.125000  0.125000  1
  C  C25  1  0.125000  0.125000  0.625000  1
  C  C26  1  0.125000  0.125000  0.125000  1
  N  N27  1  0.125000  0.625000  0.125000  1
