# generated using pymatgen
data_Li3Ge2Rh6W
_symmetry_space_group_name_H-M   'P 1'
_cell_length_a   4.25333509
_cell_length_b   5.96717125
_cell_length_c   12.68156029
_cell_angle_alpha   90.02421789
_cell_angle_beta   90.00052909
_cell_angle_gamma   90.02319344
_symmetry_Int_Tables_number   1
_chemical_formula_structural   Li3Ge2Rh6W
_chemical_formula_sum   'Li6 Ge4 Rh12 W2'
_cell_volume   321.86274954
_cell_formula_units_Z   2
loop_
 _symmetry_equiv_pos_site_id
 _symmetry_equiv_pos_as_xyz
  1  'x, y, z'
loop_
 _atom_site_type_symbol
 _atom_site_label
 _atom_site_symmetry_multiplicity
 _atom_site_fract_x
 _atom_site_fract_y
 _atom_site_fract_z
 _atom_site_occupancy
  Li  Li0  1  0.999992  0.000140  0.001650  1
  Li  Li1  1  0.499689  0.499869  0.164986  1
  Li  Li2  1  0.999629  0.000083  0.335716  1
  Li  Li3  1  0.500009  0.499970  0.503003  1
  Li  Li4  1  0.000375  0.000016  0.663658  1
  Li  Li5  1  0.500284  0.499912  0.830973  1
  Ge  Ge6  1  0.999644  0.500054  0.338810  1
  Ge  Ge7  1  0.500004  0.999970  0.503057  1
  Ge  Ge8  1  0.000317  0.500021  0.663608  1
  Ge  Ge9  1  0.500319  0.999944  0.827856  1
  Rh  Rh10  1  0.499967  0.244504  0.998366  1
  Rh  Rh11  1  0.500099  0.755437  0.998441  1
  Rh  Rh12  1  0.999792  0.255511  0.168307  1
  Rh  Rh13  1  0.999671  0.744580  0.168234  1
  Rh  Rh14  1  0.499776  0.250046  0.333490  1
  Rh  Rh15  1  0.499600  0.749974  0.333446  1
  Rh  Rh16  1  0.999981  0.248896  0.499494  1
  Rh  Rh17  1  0.000011  0.751069  0.499476  1
  Rh  Rh18  1  0.500296  0.251106  0.667174  1
  Rh  Rh19  1  0.500270  0.748916  0.667192  1
  Rh  Rh20  1  0.000183  0.249971  0.833172  1
  Rh  Rh21  1  0.000363  0.750005  0.833217  1
  W  W22  1  0.000049  0.499966  0.995530  1
  W  W23  1  0.499681  0.000039  0.171144  1
