# generated using pymatgen
data_Hf11Zr5(Si4Mo)4
_symmetry_space_group_name_H-M   'P 1'
_cell_length_a   6.97410970
_cell_length_b   6.97443701
_cell_length_c   12.75024126
_cell_angle_alpha   89.99905270
_cell_angle_beta   89.94900262
_cell_angle_gamma   90.00458393
_symmetry_Int_Tables_number   1
_chemical_formula_structural   Hf11Zr5(Si4Mo)4
_chemical_formula_sum   'Hf11 Zr5 Si16 Mo4'
_cell_volume   620.17771896
_cell_formula_units_Z   1
loop_
 _symmetry_equiv_pos_site_id
 _symmetry_equiv_pos_as_xyz
  1  'x, y, z'
loop_
 _atom_site_type_symbol
 _atom_site_label
 _atom_site_symmetry_multiplicity
 _atom_site_fract_x
 _atom_site_fract_y
 _atom_site_fract_z
 _atom_site_occupancy
  Hf  Hf0  1  0.154012  0.496772  0.469157  1
  Hf  Hf1  1  0.003602  0.653728  0.719110  1
  Hf  Hf2  1  0.997158  0.345651  0.219567  1
  Hf  Hf3  1  0.497429  0.355627  0.124735  1
  Hf  Hf4  1  0.502291  0.644051  0.624267  1
  Hf  Hf5  1  0.855957  0.003034  0.874401  1
  Hf  Hf6  1  0.144211  0.997606  0.374507  1
  Hf  Hf7  1  0.644240  0.502564  0.375396  1
  Hf  Hf8  1  0.355134  0.497362  0.875313  1
  Hf  Hf9  1  0.003292  0.855936  0.125723  1
  Hf  Hf10  1  0.997395  0.144494  0.625153  1
  Zr  Zr11  1  0.495542  0.154462  0.530895  1
  Zr  Zr12  1  0.503514  0.846097  0.031041  1
  Zr  Zr13  1  0.654206  0.004474  0.280855  1
  Zr  Zr14  1  0.345048  0.996202  0.780748  1
  Zr  Zr15  1  0.846743  0.504106  0.969189  1
  Si  Si16  1  0.797100  0.145936  0.071740  1
  Si  Si17  1  0.202351  0.853132  0.571396  1
  Si  Si18  1  0.646016  0.703117  0.820941  1
  Si  Si19  1  0.353229  0.297415  0.321568  1
  Si  Si20  1  0.855776  0.204851  0.428283  1
  Si  Si21  1  0.144510  0.795702  0.928423  1
  Si  Si22  1  0.704548  0.644453  0.178679  1
  Si  Si23  1  0.295108  0.355871  0.678385  1
  Si  Si24  1  0.547944  0.199237  0.933097  1
  Si  Si25  1  0.451641  0.800299  0.433226  1
  Si  Si26  1  0.699511  0.951631  0.683117  1
  Si  Si27  1  0.300352  0.048713  0.183355  1
  Si  Si28  1  0.802746  0.453512  0.566931  1
  Si  Si29  1  0.198416  0.546940  0.067180  1
  Si  Si30  1  0.953374  0.697262  0.317040  1
  Si  Si31  1  0.047613  0.301762  0.816345  1
  Mo  Mo32  1  0.672843  0.328215  0.749429  1
  Mo  Mo33  1  0.326528  0.671005  0.250440  1
  Mo  Mo34  1  0.828900  0.826447  0.500182  1
  Mo  Mo35  1  0.171718  0.172332  0.000187  1
