# generated using pymatgen
data_Tm2V3Ni9P7
_symmetry_space_group_name_H-M   'P 1'
_cell_length_a   3.63122300
_cell_length_b   9.11627894
_cell_length_c   9.11627900
_cell_angle_alpha   119.99998933
_cell_angle_beta   90.00000000
_cell_angle_gamma   90.00000000
_symmetry_Int_Tables_number   1
_chemical_formula_structural   Tm2V3Ni9P7
_chemical_formula_sum   'Tm2 V3 Ni9 P7'
_cell_volume   261.34777820
_cell_formula_units_Z   1
loop_
 _symmetry_equiv_pos_site_id
 _symmetry_equiv_pos_as_xyz
  1  'x, y, z'
loop_
 _atom_site_type_symbol
 _atom_site_label
 _atom_site_symmetry_multiplicity
 _atom_site_fract_x
 _atom_site_fract_y
 _atom_site_fract_z
 _atom_site_occupancy
  Tm  Tm0  1  0.000000  0.666667  0.333333  1
  Tm  Tm1  1  0.500000  0.333333  0.666667  1
  V  V2  1  0.500000  0.780495  0.898773  1
  V  V3  1  0.500000  0.118279  0.219505  1
  V  V4  1  0.500000  0.101227  0.881721  1
  Ni  Ni5  1  0.000000  0.565621  0.937221  1
  Ni  Ni6  1  0.000000  0.371598  0.434379  1
  Ni  Ni7  1  0.000000  0.062779  0.628402  1
  Ni  Ni8  1  0.000000  0.873998  0.154898  1
  Ni  Ni9  1  0.000000  0.280900  0.126002  1
  Ni  Ni10  1  0.000000  0.845102  0.719100  1
  Ni  Ni11  1  0.500000  0.944959  0.384395  1
  Ni  Ni12  1  0.500000  0.439435  0.055041  1
  Ni  Ni13  1  0.500000  0.615605  0.560565  1
  P  P14  1  0.000000  0.000000  0.000000  1
  P  P15  1  0.500000  0.709354  0.114896  1
  P  P16  1  0.500000  0.405542  0.290646  1
  P  P17  1  0.500000  0.885104  0.594458  1
  P  P18  1  0.000000  0.590906  0.705722  1
  P  P19  1  0.000000  0.114818  0.409094  1
  P  P20  1  0.000000  0.294278  0.885182  1
