# generated using pymatgen
data_Gd4MgCo2Hg
_symmetry_space_group_name_H-M   'P 1'
_cell_length_a   8.69914110
_cell_length_b   8.69914128
_cell_length_c   8.69914000
_cell_angle_alpha   128.46796960
_cell_angle_beta   128.46797055
_cell_angle_gamma   75.86815520
_symmetry_Int_Tables_number   1
_chemical_formula_structural   Gd4MgCo2Hg
_chemical_formula_sum   'Gd8 Mg2 Co4 Hg2'
_cell_volume   392.45008693
_cell_formula_units_Z   2
loop_
 _symmetry_equiv_pos_site_id
 _symmetry_equiv_pos_as_xyz
  1  'x, y, z'
loop_
 _atom_site_type_symbol
 _atom_site_label
 _atom_site_symmetry_multiplicity
 _atom_site_fract_x
 _atom_site_fract_y
 _atom_site_fract_z
 _atom_site_occupancy
  Gd  Gd0  1  0.796976  0.296976  0.841967  1
  Gd  Gd1  1  0.203024  0.703024  0.158033  1
  Gd  Gd2  1  0.455251  0.955251  0.158425  1
  Gd  Gd3  1  0.296739  0.455780  0.500031  1
  Gd  Gd4  1  0.044220  0.203261  0.499969  1
  Gd  Gd5  1  0.544749  0.044749  0.841575  1
  Gd  Gd6  1  0.703261  0.544220  0.499969  1
  Gd  Gd7  1  0.955780  0.796739  0.500031  1
  Mg  Mg8  1  0.000000  0.000000  0.000000  1
  Mg  Mg9  1  0.500000  0.500000  0.000000  1
  Co  Co10  1  0.123559  0.623559  0.746423  1
  Co  Co11  1  0.876441  0.376441  0.253577  1
  Co  Co12  1  0.623193  0.876807  0.500000  1
  Co  Co13  1  0.376807  0.123193  0.500000  1
  Hg  Hg14  1  0.250497  0.249503  0.000000  1
  Hg  Hg15  1  0.749503  0.750497  0.000000  1
