# generated using pymatgen
data_Ni2Mo2WN
_symmetry_space_group_name_H-M   'P 1'
_cell_length_a   6.67108948
_cell_length_b   6.66212148
_cell_length_c   6.66099600
_cell_angle_alpha   90.00000000
_cell_angle_beta   90.00000000
_cell_angle_gamma   89.95660662
_symmetry_Int_Tables_number   1
_chemical_formula_structural   Ni2Mo2WN
_chemical_formula_sum   'Ni8 Mo8 W4 N4'
_cell_volume   296.03861349
_cell_formula_units_Z   4
loop_
 _symmetry_equiv_pos_site_id
 _symmetry_equiv_pos_as_xyz
  1  'x, y, z'
loop_
 _atom_site_type_symbol
 _atom_site_label
 _atom_site_symmetry_multiplicity
 _atom_site_fract_x
 _atom_site_fract_y
 _atom_site_fract_z
 _atom_site_occupancy
  Ni  Ni0  1  0.935445  0.566360  0.434307  1
  Ni  Ni1  1  0.184310  0.815505  0.316382  1
  Ni  Ni2  1  0.432541  0.933137  0.566422  1
  Ni  Ni3  1  0.683704  0.683391  0.683348  1
  Ni  Ni4  1  0.816296  0.316609  0.183348  1
  Ni  Ni5  1  0.315690  0.184495  0.816382  1
  Ni  Ni6  1  0.564555  0.433640  0.934307  1
  Ni  Ni7  1  0.067459  0.066863  0.066422  1
  Mo  Mo8  1  0.949401  0.374959  0.799106  1
  Mo  Mo9  1  0.550599  0.625041  0.299106  1
  Mo  Mo10  1  0.700306  0.049104  0.874792  1
  Mo  Mo11  1  0.626033  0.298568  0.548828  1
  Mo  Mo12  1  0.873967  0.701432  0.048828  1
  Mo  Mo13  1  0.376028  0.799236  0.951003  1
  Mo  Mo14  1  0.123972  0.200764  0.451003  1
  Mo  Mo15  1  0.799694  0.950896  0.374792  1
  W  W16  1  0.199207  0.451161  0.124811  1
  W  W17  1  0.049627  0.875236  0.700937  1
  W  W18  1  0.450373  0.124764  0.200937  1
  W  W19  1  0.300793  0.548839  0.624811  1
  N  N20  1  0.875103  0.123784  0.625462  1
  N  N21  1  0.624897  0.876216  0.125462  1
  N  N22  1  0.125031  0.625306  0.874602  1
  N  N23  1  0.374969  0.374694  0.374602  1
