# generated using pymatgen
data_Np3U(SiPt)4
_symmetry_space_group_name_H-M   'P 1'
_cell_length_a   3.68696000
_cell_length_b   7.54762142
_cell_length_c   7.37403131
_cell_angle_alpha   90.57824841
_cell_angle_beta   90.00000000
_cell_angle_gamma   90.00000000
_symmetry_Int_Tables_number   1
_chemical_formula_structural   Np3U(SiPt)4
_chemical_formula_sum   'Np3 U1 Si4 Pt4'
_cell_volume   205.19245787
_cell_formula_units_Z   1
loop_
 _symmetry_equiv_pos_site_id
 _symmetry_equiv_pos_as_xyz
  1  'x, y, z'
loop_
 _atom_site_type_symbol
 _atom_site_label
 _atom_site_symmetry_multiplicity
 _atom_site_fract_x
 _atom_site_fract_y
 _atom_site_fract_z
 _atom_site_occupancy
  Np  Np0  1  0.250000  0.505486  0.610761  1
  Np  Np1  1  0.750000  0.491395  0.390608  1
  Np  Np2  1  0.250000  0.008273  0.881199  1
  U  U3  1  0.750000  0.993627  0.117885  1
  Si  Si4  1  0.250000  0.300708  0.137808  1
  Si  Si5  1  0.750000  0.701488  0.860183  1
  Si  Si6  1  0.250000  0.792792  0.365070  1
  Si  Si7  1  0.750000  0.204079  0.637951  1
  Pt  Pt8  1  0.750000  0.869714  0.572200  1
  Pt  Pt9  1  0.250000  0.129525  0.425163  1
  Pt  Pt10  1  0.750000  0.367279  0.930422  1
  Pt  Pt11  1  0.250000  0.635635  0.070749  1
