# generated using pymatgen
data_Zr7Pa(Si4W3)4
_symmetry_space_group_name_H-M   'P 1'
_cell_length_a   6.65973403
_cell_length_b   6.80495665
_cell_length_c   12.75813900
_cell_angle_alpha   89.83095718
_cell_angle_beta   90.03189248
_cell_angle_gamma   90.00587844
_symmetry_Int_Tables_number   1
_chemical_formula_structural   Zr7Pa(Si4W3)4
_chemical_formula_sum   'Zr7 Pa1 Si16 W12'
_cell_volume   578.18606185
_cell_formula_units_Z   1
loop_
 _symmetry_equiv_pos_site_id
 _symmetry_equiv_pos_as_xyz
  1  'x, y, z'
loop_
 _atom_site_type_symbol
 _atom_site_label
 _atom_site_symmetry_multiplicity
 _atom_site_fract_x
 _atom_site_fract_y
 _atom_site_fract_z
 _atom_site_occupancy
  Zr  Zr0  1  0.494629  0.670129  0.590728  1
  Zr  Zr1  1  0.992192  0.828530  0.907881  1
  Zr  Zr2  1  0.506161  0.327533  0.093157  1
  Zr  Zr3  1  0.008562  0.173053  0.404856  1
  Zr  Zr4  1  0.507248  0.328098  0.404473  1
  Zr  Zr5  1  0.007170  0.171239  0.092181  1
  Zr  Zr6  1  0.494084  0.671883  0.910558  1
  Pa  Pa7  1  0.992228  0.830350  0.595089  1
  Si  Si8  1  0.664579  0.960186  0.454120  1
  Si  Si9  1  0.166922  0.540554  0.043642  1
  Si  Si10  1  0.330793  0.040866  0.957675  1
  Si  Si11  1  0.832763  0.452341  0.542358  1
  Si  Si12  1  0.338402  0.045231  0.540946  1
  Si  Si13  1  0.833479  0.458777  0.957766  1
  Si  Si14  1  0.665961  0.959285  0.043494  1
  Si  Si15  1  0.169560  0.537725  0.455245  1
  Si  Si16  1  0.467958  0.380646  0.749248  1
  Si  Si17  1  0.962846  0.126304  0.753122  1
  Si  Si18  1  0.533625  0.619161  0.248824  1
  Si  Si19  1  0.033934  0.878750  0.249806  1
  Si  Si20  1  0.692927  0.859681  0.753569  1
  Si  Si21  1  0.204724  0.638095  0.753404  1
  Si  Si22  1  0.301007  0.139285  0.249179  1
  Si  Si23  1  0.799579  0.359329  0.248802  1
  W  W24  1  0.669047  0.161191  0.625951  1
  W  W25  1  0.170126  0.337223  0.876884  1
  W  W26  1  0.328754  0.835666  0.124244  1
  W  W27  1  0.833346  0.664142  0.375599  1
  W  W28  1  0.333666  0.835261  0.374391  1
  W  W29  1  0.832231  0.664768  0.124312  1
  W  W30  1  0.662552  0.167267  0.877789  1
  W  W31  1  0.172832  0.338227  0.624667  1
  W  W32  1  0.835877  0.507765  0.749403  1
  W  W33  1  0.329174  0.995261  0.748946  1
  W  W34  1  0.164863  0.489217  0.249241  1
  W  W35  1  0.666199  0.006978  0.248447  1
