# generated using pymatgen
data_Y10In2CuRu
_symmetry_space_group_name_H-M   'P 1'
_cell_length_a   9.79155907
_cell_length_b   9.65759869
_cell_length_c   9.52042100
_cell_angle_alpha   90.00000000
_cell_angle_beta   90.00000000
_cell_angle_gamma   119.54845241
_symmetry_Int_Tables_number   1
_chemical_formula_structural   Y10In2CuRu
_chemical_formula_sum   'Y20 In4 Cu2 Ru2'
_cell_volume   783.18784764
_cell_formula_units_Z   2
loop_
 _symmetry_equiv_pos_site_id
 _symmetry_equiv_pos_as_xyz
  1  'x, y, z'
loop_
 _atom_site_type_symbol
 _atom_site_label
 _atom_site_symmetry_multiplicity
 _atom_site_fract_x
 _atom_site_fract_y
 _atom_site_fract_z
 _atom_site_occupancy
  Y  Y0  1  0.975671  0.987836  0.458973  1
  Y  Y1  1  0.975671  0.987836  0.041027  1
  Y  Y2  1  0.209388  0.795187  0.438032  1
  Y  Y3  1  0.209388  0.414203  0.438032  1
  Y  Y4  1  0.572693  0.786347  0.441352  1
  Y  Y5  1  0.794827  0.210455  0.559362  1
  Y  Y6  1  0.794827  0.584371  0.559362  1
  Y  Y7  1  0.419866  0.209933  0.557772  1
  Y  Y8  1  0.794827  0.210455  0.940638  1
  Y  Y9  1  0.794827  0.584371  0.940638  1
  Y  Y10  1  0.419866  0.209933  0.942228  1
  Y  Y11  1  0.209388  0.795187  0.061968  1
  Y  Y12  1  0.209388  0.414203  0.061968  1
  Y  Y13  1  0.572693  0.786347  0.058648  1
  Y  Y14  1  0.558907  0.472803  0.250000  1
  Y  Y15  1  0.558907  0.086106  0.250000  1
  Y  Y16  1  0.927377  0.463689  0.250000  1
  Y  Y17  1  0.461035  0.538548  0.750000  1
  Y  Y18  1  0.461035  0.922485  0.750000  1
  Y  Y19  1  0.085664  0.542832  0.750000  1
  In  In20  1  0.253486  0.126743  0.250000  1
  In  In21  1  0.112469  0.893927  0.750000  1
  In  In22  1  0.112469  0.218541  0.750000  1
  In  In23  1  0.773530  0.886764  0.750000  1
  Cu  Cu24  1  0.873907  0.137853  0.250000  1
  Cu  Cu25  1  0.873907  0.736055  0.250000  1
  Ru  Ru26  1  0.328716  0.664359  0.250000  1
  Ru  Ru27  1  0.665269  0.332634  0.750000  1
