# generated using pymatgen
data_NdSmTe2(RhO6)2
_symmetry_space_group_name_H-M   'P 1'
_cell_length_a   5.29548700
_cell_length_b   5.29545623
_cell_length_c   10.10506600
_cell_angle_alpha   89.99995076
_cell_angle_beta   89.99953818
_cell_angle_gamma   119.99991611
_symmetry_Int_Tables_number   1
_chemical_formula_structural   NdSmTe2(RhO6)2
_chemical_formula_sum   'Nd1 Sm1 Te2 Rh2 O12'
_cell_volume   245.40275978
_cell_formula_units_Z   1
loop_
 _symmetry_equiv_pos_site_id
 _symmetry_equiv_pos_as_xyz
  1  'x, y, z'
loop_
 _atom_site_type_symbol
 _atom_site_label
 _atom_site_symmetry_multiplicity
 _atom_site_fract_x
 _atom_site_fract_y
 _atom_site_fract_z
 _atom_site_occupancy
  Nd  Nd0  1  0.000013  0.000002  0.000000  1
  Sm  Sm1  1  0.999995  0.000002  0.500000  1
  Te  Te2  1  0.666679  0.333364  0.251673  1
  Te  Te3  1  0.333369  0.666692  0.748292  1
  Rh  Rh4  1  0.333314  0.666626  0.251425  1
  Rh  Rh5  1  0.666670  0.333304  0.748531  1
  O  O6  1  0.641558  0.630518  0.142747  1
  O  O7  1  0.988956  0.358418  0.142747  1
  O  O8  1  0.369481  0.011071  0.142735  1
  O  O9  1  0.988339  0.635396  0.359260  1
  O  O10  1  0.364577  0.352967  0.359246  1
  O  O11  1  0.647053  0.011628  0.359248  1
  O  O12  1  0.352978  0.988405  0.640764  1
  O  O13  1  0.011601  0.364561  0.640768  1
  O  O14  1  0.635427  0.647045  0.640754  1
  O  O15  1  0.630513  0.988938  0.857265  1
  O  O16  1  0.011086  0.641582  0.857279  1
  O  O17  1  0.358399  0.369487  0.857269  1
