# generated using pymatgen
data_LaY6MnI12
_symmetry_space_group_name_H-M   'P 1'
_cell_length_a   9.89854414
_cell_length_b   9.71616138
_cell_length_c   9.89731011
_cell_angle_alpha   106.62813302
_cell_angle_beta   106.99753262
_cell_angle_gamma   107.45178984
_symmetry_Int_Tables_number   1
_chemical_formula_structural   LaY6MnI12
_chemical_formula_sum   'La1 Y6 Mn1 I12'
_cell_volume   792.14586779
_cell_formula_units_Z   1
loop_
 _symmetry_equiv_pos_site_id
 _symmetry_equiv_pos_as_xyz
  1  'x, y, z'
loop_
 _atom_site_type_symbol
 _atom_site_label
 _atom_site_symmetry_multiplicity
 _atom_site_fract_x
 _atom_site_fract_y
 _atom_site_fract_z
 _atom_site_occupancy
  La  La0  1  0.911565  0.726573  0.978079  1
  Y  Y1  1  0.976620  0.905514  0.704193  1
  Y  Y2  1  0.703171  0.975633  0.904044  1
  Y  Y3  1  0.089751  0.275288  0.022784  1
  Y  Y4  1  0.023563  0.096466  0.296799  1
  Y  Y5  1  0.297798  0.022128  0.095609  1
  Y  Y6  1  0.500448  0.501598  0.499563  1
  Mn  Mn7  1  0.992637  0.976605  0.999067  1
  I  I8  1  0.782213  0.317892  0.929171  1
  I  I9  1  0.929858  0.782753  0.332586  1
  I  I10  1  0.320192  0.930159  0.777581  1
  I  I11  1  0.238039  0.685212  0.077881  1
  I  I12  1  0.075680  0.230480  0.689101  1
  I  I13  1  0.681533  0.074681  0.222931  1
  I  I14  1  0.524645  0.612039  0.829099  1
  I  I15  1  0.833734  0.534369  0.601810  1
  I  I16  1  0.615777  0.843487  0.538773  1
  I  I17  1  0.457084  0.386386  0.160244  1
  I  I18  1  0.161836  0.462579  0.379359  1
  I  I19  1  0.383857  0.160158  0.461327  1
