# generated using pymatgen
data_Nd12FeOsI17
_symmetry_space_group_name_H-M   'P 1'
_cell_length_a   10.03714728
_cell_length_b   12.03822650
_cell_length_c   12.08434120
_cell_angle_alpha   93.61998990
_cell_angle_beta   104.66318523
_cell_angle_gamma   114.35371393
_symmetry_Int_Tables_number   1
_chemical_formula_structural   Nd12FeOsI17
_chemical_formula_sum   'Nd12 Fe1 Os1 I17'
_cell_volume   1263.43081380
_cell_formula_units_Z   1
loop_
 _symmetry_equiv_pos_site_id
 _symmetry_equiv_pos_as_xyz
  1  'x, y, z'
loop_
 _atom_site_type_symbol
 _atom_site_label
 _atom_site_symmetry_multiplicity
 _atom_site_fract_x
 _atom_site_fract_y
 _atom_site_fract_z
 _atom_site_occupancy
  Nd  Nd0  1  0.054480  0.505971  0.320777  1
  Nd  Nd1  1  0.988804  0.812145  0.579928  1
  Nd  Nd2  1  0.651393  0.240970  0.281923  1
  Nd  Nd3  1  0.009495  0.190752  0.414010  1
  Nd  Nd4  1  0.224776  0.668874  0.992149  1
  Nd  Nd5  1  0.262088  0.989929  0.893402  1
  Nd  Nd6  1  0.354718  0.759956  0.715979  1
  Nd  Nd7  1  0.939490  0.486233  0.675970  1
  Nd  Nd8  1  0.743325  0.018691  0.109701  1
  Nd  Nd9  1  0.144644  0.286787  0.152861  1
  Nd  Nd10  1  0.778402  0.328703  0.014444  1
  Nd  Nd11  1  0.848797  0.711830  0.848790  1
  Fe  Fe12  1  0.896047  0.261723  0.214333  1
  Os  Os13  1  0.104260  0.738319  0.785782  1
  I  I14  1  0.785106  0.528311  0.417539  1
  I  I15  1  0.641713  0.418548  0.759718  1
  I  I16  1  0.842600  0.895617  0.323795  1
  I  I17  1  0.324814  0.212777  0.368685  1
  I  I18  1  0.156770  0.105404  0.675009  1
  I  I19  1  0.588215  0.052896  0.843998  1
  I  I20  1  0.754471  0.182556  0.536034  1
  I  I21  1  0.548945  0.708418  0.953372  1
  I  I22  1  0.358019  0.580279  0.241882  1
  I  I23  1  0.214485  0.471095  0.581590  1
  I  I24  1  0.055061  0.367363  0.897700  1
  I  I25  1  0.452138  0.292917  0.047883  1
  I  I26  1  0.999691  0.999915  0.000159  1
  I  I27  1  0.244809  0.815856  0.462323  1
  I  I28  1  0.413423  0.947958  0.156685  1
  I  I29  1  0.674455  0.787466  0.630360  1
  I  I30  1  0.944568  0.631741  0.103218  1
