# generated using pymatgen
data_Sm11Dy(C2I11)2
_symmetry_space_group_name_H-M   'P 1'
_cell_length_a   9.69337858
_cell_length_b   10.86737591
_cell_length_c   15.17790574
_cell_angle_alpha   88.15363208
_cell_angle_beta   104.35412582
_cell_angle_gamma   110.09151723
_symmetry_Int_Tables_number   1
_chemical_formula_structural   Sm11Dy(C2I11)2
_chemical_formula_sum   'Sm11 Dy1 C4 I22'
_cell_volume   1452.22500103
_cell_formula_units_Z   1
loop_
 _symmetry_equiv_pos_site_id
 _symmetry_equiv_pos_as_xyz
  1  'x, y, z'
loop_
 _atom_site_type_symbol
 _atom_site_label
 _atom_site_symmetry_multiplicity
 _atom_site_fract_x
 _atom_site_fract_y
 _atom_site_fract_z
 _atom_site_occupancy
  Sm  Sm0  1  0.615351  0.522399  0.877910  1
  Sm  Sm1  1  0.421729  0.781485  0.266279  1
  Sm  Sm2  1  0.578116  0.217961  0.733445  1
  Sm  Sm3  1  0.626594  0.575381  0.367495  1
  Sm  Sm4  1  0.373050  0.424527  0.632087  1
  Sm  Sm5  1  0.833568  0.646529  0.200111  1
  Sm  Sm6  1  0.165605  0.353054  0.799904  1
  Sm  Sm7  1  0.628106  0.848850  0.096992  1
  Sm  Sm8  1  0.371378  0.150777  0.903077  1
  Sm  Sm9  1  0.859692  0.946070  0.345590  1
  Sm  Sm10  1  0.139120  0.052781  0.653753  1
  Dy  Dy11  1  0.387935  0.480564  0.123345  1
  C  C12  1  0.430005  0.342768  0.795265  1
  C  C13  1  0.568829  0.655980  0.203987  1
  C  C14  1  0.317319  0.233023  0.741441  1
  C  C15  1  0.681582  0.765997  0.258025  1
  I  I16  1  0.383917  0.307243  0.277597  1
  I  I17  1  0.614702  0.695151  0.718873  1
  I  I18  1  0.125572  0.556912  0.150050  1
  I  I19  1  0.878407  0.440864  0.848982  1
  I  I20  1  0.624371  0.375356  0.067402  1
  I  I21  1  0.371681  0.623212  0.936462  1
  I  I22  1  0.119362  0.212581  0.477792  1
  I  I23  1  0.880322  0.787037  0.521905  1
  I  I24  1  0.614100  0.033922  0.388850  1
  I  I25  1  0.385685  0.965850  0.610990  1
  I  I26  1  0.128657  0.868139  0.304849  1
  I  I27  1  0.871078  0.131322  0.695012  1
  I  I28  1  0.129669  0.536361  0.647752  1
  I  I29  1  0.870522  0.463708  0.352375  1
  I  I30  1  0.622668  0.373878  0.559927  1
  I  I31  1  0.377193  0.625997  0.439844  1
  I  I32  1  0.142698  0.222342  0.986221  1
  I  I33  1  0.861796  0.782005  0.016269  1
  I  I34  1  0.628412  0.046075  0.901728  1
  I  I35  1  0.371516  0.954108  0.098354  1
  I  I36  1  0.126403  0.886582  0.822290  1
  I  I37  1  0.873290  0.113210  0.177770  1
