# generated using pymatgen
data_La6YRh3
_symmetry_space_group_name_H-M   'P 1'
_cell_length_a   10.24453400
_cell_length_b   10.24453563
_cell_length_c   6.43501700
_cell_angle_alpha   90.00000000
_cell_angle_beta   90.00000000
_cell_angle_gamma   120.00000119
_symmetry_Int_Tables_number   1
_chemical_formula_structural   La6YRh3
_chemical_formula_sum   'La12 Y2 Rh6'
_cell_volume   584.87735983
_cell_formula_units_Z   2
loop_
 _symmetry_equiv_pos_site_id
 _symmetry_equiv_pos_as_xyz
  1  'x, y, z'
loop_
 _atom_site_type_symbol
 _atom_site_label
 _atom_site_symmetry_multiplicity
 _atom_site_fract_x
 _atom_site_fract_y
 _atom_site_fract_z
 _atom_site_occupancy
  La  La0  1  0.873294  0.746587  0.767544  1
  La  La1  1  0.253413  0.126706  0.767544  1
  La  La2  1  0.873294  0.126706  0.767544  1
  La  La3  1  0.126706  0.253413  0.267544  1
  La  La4  1  0.746587  0.873294  0.267544  1
  La  La5  1  0.126706  0.873294  0.267544  1
  La  La6  1  0.457686  0.915374  0.593882  1
  La  La7  1  0.084626  0.542314  0.593882  1
  La  La8  1  0.457686  0.542314  0.593882  1
  La  La9  1  0.542314  0.084626  0.093882  1
  La  La10  1  0.915374  0.457686  0.093882  1
  La  La11  1  0.542314  0.457686  0.093882  1
  Y  Y12  1  0.666667  0.333333  0.571351  1
  Y  Y13  1  0.333333  0.666667  0.071351  1
  Rh  Rh14  1  0.189784  0.379567  0.850631  1
  Rh  Rh15  1  0.620433  0.810216  0.850631  1
  Rh  Rh16  1  0.189784  0.810216  0.850631  1
  Rh  Rh17  1  0.810216  0.620433  0.350631  1
  Rh  Rh18  1  0.379567  0.189784  0.350631  1
  Rh  Rh19  1  0.810216  0.189784  0.350631  1
