# generated using pymatgen
data_Tm3Sn3HgIr2
_symmetry_space_group_name_H-M   'P 1'
_cell_length_a   7.60485200
_cell_length_b   7.60485198
_cell_length_c   3.95941900
_cell_angle_alpha   90.00000000
_cell_angle_beta   90.00000000
_cell_angle_gamma   120.00000009
_symmetry_Int_Tables_number   1
_chemical_formula_structural   Tm3Sn3HgIr2
_chemical_formula_sum   'Tm3 Sn3 Hg1 Ir2'
_cell_volume   198.30954862
_cell_formula_units_Z   1
loop_
 _symmetry_equiv_pos_site_id
 _symmetry_equiv_pos_as_xyz
  1  'x, y, z'
loop_
 _atom_site_type_symbol
 _atom_site_label
 _atom_site_symmetry_multiplicity
 _atom_site_fract_x
 _atom_site_fract_y
 _atom_site_fract_z
 _atom_site_occupancy
  Tm  Tm0  1  0.976716  0.387020  0.500000  1
  Tm  Tm1  1  0.612980  0.589696  0.500000  1
  Tm  Tm2  1  0.410304  0.023284  0.500000  1
  Sn  Sn3  1  0.993035  0.743183  0.000000  1
  Sn  Sn4  1  0.256817  0.249852  0.000000  1
  Sn  Sn5  1  0.750148  0.006965  0.000000  1
  Hg  Hg6  1  0.333333  0.666667  0.000000  1
  Ir  Ir7  1  0.666667  0.333333  0.000000  1
  Ir  Ir8  1  0.000000  0.000000  0.500000  1
