# generated using pymatgen
data_Nd8Be3Si13
_symmetry_space_group_name_H-M   'P 1'
_cell_length_a   8.00148800
_cell_length_b   8.00148847
_cell_length_c   8.49806500
_cell_angle_alpha   90.00000000
_cell_angle_beta   90.00000000
_cell_angle_gamma   119.99998977
_symmetry_Int_Tables_number   1
_chemical_formula_structural   Nd8Be3Si13
_chemical_formula_sum   'Nd8 Be3 Si13'
_cell_volume   471.18587972
_cell_formula_units_Z   1
loop_
 _symmetry_equiv_pos_site_id
 _symmetry_equiv_pos_as_xyz
  1  'x, y, z'
loop_
 _atom_site_type_symbol
 _atom_site_label
 _atom_site_symmetry_multiplicity
 _atom_site_fract_x
 _atom_site_fract_y
 _atom_site_fract_z
 _atom_site_occupancy
  Nd  Nd0  1  0.500157  0.499843  0.748697  1
  Nd  Nd1  1  0.500323  0.499677  0.251328  1
  Nd  Nd2  1  0.999685  0.499843  0.748697  1
  Nd  Nd3  1  0.999354  0.499677  0.251328  1
  Nd  Nd4  1  0.500157  0.000315  0.748697  1
  Nd  Nd5  1  0.500323  0.000646  0.251328  1
  Nd  Nd6  1  0.000000  0.000000  0.750958  1
  Nd  Nd7  1  0.000000  0.000000  0.249115  1
  Be  Be8  1  0.666667  0.333333  0.999167  1
  Be  Be9  1  0.333333  0.666667  0.000776  1
  Be  Be10  1  0.333333  0.666667  0.499428  1
  Si  Si11  1  0.827414  0.172586  0.000022  1
  Si  Si12  1  0.172293  0.827707  0.000053  1
  Si  Si13  1  0.345173  0.172586  0.000022  1
  Si  Si14  1  0.174599  0.825401  0.499853  1
  Si  Si15  1  0.655415  0.827707  0.000053  1
  Si  Si16  1  0.836414  0.163586  0.500170  1
  Si  Si17  1  0.827414  0.654827  0.000022  1
  Si  Si18  1  0.650804  0.825401  0.499853  1
  Si  Si19  1  0.172293  0.344585  0.000053  1
  Si  Si20  1  0.327170  0.163586  0.500170  1
  Si  Si21  1  0.174599  0.349196  0.499853  1
  Si  Si22  1  0.836414  0.672830  0.500170  1
  Si  Si23  1  0.666667  0.333333  0.500188  1
