# generated using pymatgen
data_Ca7HfAs6
_symmetry_space_group_name_H-M   'P 1'
_cell_length_a   7.54877336
_cell_length_b   7.68760281
_cell_length_c   7.68760290
_cell_angle_alpha   109.83414866
_cell_angle_beta   109.10581484
_cell_angle_gamma   109.10580528
_symmetry_Int_Tables_number   1
_chemical_formula_structural   Ca7HfAs6
_chemical_formula_sum   'Ca7 Hf1 As6'
_cell_volume   344.96500360
_cell_formula_units_Z   1
loop_
 _symmetry_equiv_pos_site_id
 _symmetry_equiv_pos_as_xyz
  1  'x, y, z'
loop_
 _atom_site_type_symbol
 _atom_site_label
 _atom_site_symmetry_multiplicity
 _atom_site_fract_x
 _atom_site_fract_y
 _atom_site_fract_z
 _atom_site_occupancy
  Ca  Ca0  1  0.501810  0.002189  0.644017  1
  Ca  Ca1  1  0.367935  0.363895  0.365622  1
  Ca  Ca2  1  0.002313  0.134378  0.498273  1
  Ca  Ca3  1  0.857793  0.855983  0.858172  1
  Ca  Ca4  1  0.999621  0.641828  0.497811  1
  Ca  Ca5  1  0.632650  0.500000  0.000000  1
  Ca  Ca6  1  0.504039  0.001727  0.136105  1
  Hf  Hf7  1  0.124869  0.500000  0.000000  1
  As  As8  1  0.893713  0.264364  0.118965  1
  As  As9  1  0.129349  0.854601  0.235636  1
  As  As10  1  0.363254  0.620085  0.758517  1
  As  As11  1  0.243169  0.138432  0.879915  1
  As  As12  1  0.774748  0.381035  0.645399  1
  As  As13  1  0.604737  0.741483  0.361568  1
