# generated using pymatgen
data_Ta3NbZn2(B2Ru5)2
_symmetry_space_group_name_H-M   'P 1'
_cell_length_a   9.30054600
_cell_length_b   9.30054600
_cell_length_c   3.01348100
_cell_angle_alpha   90.00000000
_cell_angle_beta   90.00000000
_cell_angle_gamma   90.00085015
_symmetry_Int_Tables_number   1
_chemical_formula_structural   Ta3NbZn2(B2Ru5)2
_chemical_formula_sum   'Ta3 Nb1 Zn2 B4 Ru10'
_cell_volume   260.66657628
_cell_formula_units_Z   1
loop_
 _symmetry_equiv_pos_site_id
 _symmetry_equiv_pos_as_xyz
  1  'x, y, z'
loop_
 _atom_site_type_symbol
 _atom_site_label
 _atom_site_symmetry_multiplicity
 _atom_site_fract_x
 _atom_site_fract_y
 _atom_site_fract_z
 _atom_site_occupancy
  Ta  Ta0  1  0.176554  0.323446  0.000000  1
  Ta  Ta1  1  0.323495  0.823212  0.000000  1
  Ta  Ta2  1  0.676788  0.176505  0.000000  1
  Nb  Nb3  1  0.823778  0.676222  0.000000  1
  Zn  Zn4  1  0.500394  0.500238  0.000000  1
  Zn  Zn5  1  0.999762  0.999606  0.000000  1
  B  B6  1  0.626094  0.873906  0.000000  1
  B  B7  1  0.374142  0.125858  0.000000  1
  B  B8  1  0.125548  0.625610  0.000000  1
  B  B9  1  0.874390  0.374452  0.000000  1
  Ru  Ru10  1  0.569195  0.716347  0.500000  1
  Ru  Ru11  1  0.428543  0.284825  0.500000  1
  Ru  Ru12  1  0.072681  0.784763  0.500000  1
  Ru  Ru13  1  0.928857  0.215109  0.500000  1
  Ru  Ru14  1  0.284891  0.571143  0.500000  1
  Ru  Ru15  1  0.715237  0.427319  0.500000  1
  Ru  Ru16  1  0.215175  0.071457  0.500000  1
  Ru  Ru17  1  0.783653  0.930805  0.500000  1
  Ru  Ru18  1  0.499533  0.000467  0.500000  1
  Ru  Ru19  1  0.001290  0.498710  0.500000  1
