# generated using pymatgen
data_YLuNi12As7
_symmetry_space_group_name_H-M   'P 1'
_cell_length_a   9.35561300
_cell_length_b   9.35561279
_cell_length_c   3.81891200
_cell_angle_alpha   90.00000000
_cell_angle_beta   90.00000000
_cell_angle_gamma   120.00000426
_symmetry_Int_Tables_number   1
_chemical_formula_structural   YLuNi12As7
_chemical_formula_sum   'Y1 Lu1 Ni12 As7'
_cell_volume   289.47745902
_cell_formula_units_Z   1
loop_
 _symmetry_equiv_pos_site_id
 _symmetry_equiv_pos_as_xyz
  1  'x, y, z'
loop_
 _atom_site_type_symbol
 _atom_site_label
 _atom_site_symmetry_multiplicity
 _atom_site_fract_x
 _atom_site_fract_y
 _atom_site_fract_z
 _atom_site_occupancy
  Y  Y0  1  0.666667  0.333333  0.000000  1
  Lu  Lu1  1  0.333333  0.666667  0.500000  1
  Ni  Ni2  1  0.057454  0.619490  0.000000  1
  Ni  Ni3  1  0.562035  0.942546  0.000000  1
  Ni  Ni4  1  0.380510  0.437965  0.000000  1
  Ni  Ni5  1  0.279192  0.127118  0.000000  1
  Ni  Ni6  1  0.847926  0.720808  0.000000  1
  Ni  Ni7  1  0.872882  0.152074  0.000000  1
  Ni  Ni8  1  0.425864  0.046656  0.500000  1
  Ni  Ni9  1  0.620792  0.574136  0.500000  1
  Ni  Ni10  1  0.953344  0.379208  0.500000  1
  Ni  Ni11  1  0.095575  0.885026  0.500000  1
  Ni  Ni12  1  0.789451  0.904425  0.500000  1
  Ni  Ni13  1  0.114974  0.210549  0.500000  1
  As  As14  1  0.287484  0.881555  0.000000  1
  As  As15  1  0.594071  0.712516  0.000000  1
  As  As16  1  0.118445  0.405929  0.000000  1
  As  As17  1  0.406386  0.296215  0.500000  1
  As  As18  1  0.889831  0.593614  0.500000  1
  As  As19  1  0.703785  0.110169  0.500000  1
  As  As20  1  0.000000  0.000000  0.000000  1
