# generated using pymatgen
data_Np(TlBr3)2
_symmetry_space_group_name_H-M   'P 1'
_cell_length_a   7.93791700
_cell_length_b   7.64030950
_cell_length_c   13.28199100
_cell_angle_alpha   55.05887595
_cell_angle_beta   90.00000000
_cell_angle_gamma   90.00000000
_symmetry_Int_Tables_number   1
_chemical_formula_structural   Np(TlBr3)2
_chemical_formula_sum   'Np2 Tl4 Br12'
_cell_volume   660.32440325
_cell_formula_units_Z   2
loop_
 _symmetry_equiv_pos_site_id
 _symmetry_equiv_pos_as_xyz
  1  'x, y, z'
loop_
 _atom_site_type_symbol
 _atom_site_label
 _atom_site_symmetry_multiplicity
 _atom_site_fract_x
 _atom_site_fract_y
 _atom_site_fract_z
 _atom_site_occupancy
  Np  Np0  1  0.000000  0.000000  0.000000  1
  Np  Np1  1  0.500000  0.000000  0.500000  1
  Tl  Tl2  1  0.576966  0.726170  0.252572  1
  Tl  Tl3  1  0.076966  0.273830  0.247428  1
  Tl  Tl4  1  0.423034  0.273830  0.747428  1
  Tl  Tl5  1  0.923034  0.726170  0.752572  1
  Br  Br6  1  0.992566  0.837127  0.247039  1
  Br  Br7  1  0.492566  0.162873  0.252961  1
  Br  Br8  1  0.007434  0.162873  0.752961  1
  Br  Br9  1  0.507434  0.837127  0.747039  1
  Br  Br10  1  0.692304  0.657077  0.547000  1
  Br  Br11  1  0.192304  0.342923  0.953000  1
  Br  Br12  1  0.307696  0.342923  0.453000  1
  Br  Br13  1  0.807696  0.657077  0.047000  1
  Br  Br14  1  0.707953  0.227920  0.963587  1
  Br  Br15  1  0.207953  0.772080  0.536413  1
  Br  Br16  1  0.292047  0.772080  0.036413  1
  Br  Br17  1  0.792047  0.227920  0.463587  1
