# generated using pymatgen
data_Tb9Dy(InSb)4
_symmetry_space_group_name_H-M   'P 1'
_cell_length_a   8.86059635
_cell_length_b   8.86059701
_cell_length_c   8.14813203
_cell_angle_alpha   89.99512121
_cell_angle_beta   89.99512085
_cell_angle_gamma   125.14223459
_symmetry_Int_Tables_number   1
_chemical_formula_structural   Tb9Dy(InSb)4
_chemical_formula_sum   'Tb9 Dy1 In4 Sb4'
_cell_volume   523.10829079
_cell_formula_units_Z   1
loop_
 _symmetry_equiv_pos_site_id
 _symmetry_equiv_pos_as_xyz
  1  'x, y, z'
loop_
 _atom_site_type_symbol
 _atom_site_label
 _atom_site_symmetry_multiplicity
 _atom_site_fract_x
 _atom_site_fract_y
 _atom_site_fract_z
 _atom_site_occupancy
  Tb  Tb0  1  0.031759  0.308491  0.334125  1
  Tb  Tb1  1  0.968241  0.691509  0.665875  1
  Tb  Tb2  1  0.468318  0.191623  0.834040  1
  Tb  Tb3  1  0.808377  0.531682  0.165960  1
  Tb  Tb4  1  0.531682  0.808377  0.165960  1
  Tb  Tb5  1  0.191623  0.468318  0.834040  1
  Tb  Tb6  1  0.691509  0.968241  0.665875  1
  Tb  Tb7  1  0.308491  0.031759  0.334125  1
  Tb  Tb8  1  0.000000  0.000000  0.000000  1
  Dy  Dy9  1  0.500000  0.500000  0.500000  1
  In  In10  1  0.371534  0.371534  0.127771  1
  In  In11  1  0.628466  0.628466  0.872229  1
  In  In12  1  0.128721  0.128721  0.627517  1
  In  In13  1  0.871279  0.871279  0.372483  1
  Sb  Sb14  1  0.797490  0.202510  0.000000  1
  Sb  Sb15  1  0.202510  0.797490  0.000000  1
  Sb  Sb16  1  0.702380  0.297620  0.500000  1
  Sb  Sb17  1  0.297620  0.702380  0.500000  1
