# generated using pymatgen
data_Y8Sb(PdPt11)2
_symmetry_space_group_name_H-M   'P 1'
_cell_length_a   8.42598015
_cell_length_b   8.42598015
_cell_length_c   8.40934100
_cell_angle_alpha   90.00000000
_cell_angle_beta   90.00000000
_cell_angle_gamma   90.02159647
_symmetry_Int_Tables_number   1
_chemical_formula_structural   Y8Sb(PdPt11)2
_chemical_formula_sum   'Y8 Sb1 Pd2 Pt22'
_cell_volume   597.03913034
_cell_formula_units_Z   1
loop_
 _symmetry_equiv_pos_site_id
 _symmetry_equiv_pos_as_xyz
  1  'x, y, z'
loop_
 _atom_site_type_symbol
 _atom_site_label
 _atom_site_symmetry_multiplicity
 _atom_site_fract_x
 _atom_site_fract_y
 _atom_site_fract_z
 _atom_site_occupancy
  Y  Y0  1  0.746023  0.746023  0.253872  1
  Y  Y1  1  0.746819  0.253594  0.746961  1
  Y  Y2  1  0.253594  0.746819  0.746961  1
  Y  Y3  1  0.746023  0.746023  0.746128  1
  Y  Y4  1  0.746819  0.253594  0.253039  1
  Y  Y5  1  0.252719  0.252719  0.747780  1
  Y  Y6  1  0.253594  0.746819  0.253039  1
  Y  Y7  1  0.252719  0.252719  0.252220  1
  Sb  Sb8  1  0.004087  0.004087  0.000000  1
  Pd  Pd9  1  0.999007  0.695739  0.000000  1
  Pd  Pd10  1  0.695739  0.999007  0.000000  1
  Pt  Pt11  1  0.998711  0.998711  0.308078  1
  Pt  Pt12  1  0.733551  0.000182  0.500000  1
  Pt  Pt13  1  0.734454  0.500311  0.000000  1
  Pt  Pt14  1  0.500126  0.000128  0.735142  1
  Pt  Pt15  1  0.000182  0.733551  0.500000  1
  Pt  Pt16  1  0.500126  0.000128  0.264858  1
  Pt  Pt17  1  0.000077  0.264536  0.500000  1
  Pt  Pt18  1  0.500311  0.734454  0.000000  1
  Pt  Pt19  1  0.254562  0.499594  0.500000  1
  Pt  Pt20  1  0.499627  0.499627  0.745834  1
  Pt  Pt21  1  0.499627  0.499627  0.254166  1
  Pt  Pt22  1  0.499594  0.254562  0.500000  1
  Pt  Pt23  1  0.499651  0.745523  0.500000  1
  Pt  Pt24  1  0.745523  0.499651  0.500000  1
  Pt  Pt25  1  0.310518  0.998758  0.000000  1
  Pt  Pt26  1  0.998711  0.998711  0.691922  1
  Pt  Pt27  1  0.000128  0.500126  0.264858  1
  Pt  Pt28  1  0.998758  0.310518  0.000000  1
  Pt  Pt29  1  0.263805  0.500150  0.000000  1
  Pt  Pt30  1  0.264536  0.000077  0.500000  1
  Pt  Pt31  1  0.000128  0.500126  0.735142  1
  Pt  Pt32  1  0.500150  0.263805  0.000000  1
