# generated using pymatgen
data_Nd3MnGaS7
_symmetry_space_group_name_H-M   'P 1'
_cell_length_a   10.01965700
_cell_length_b   10.01965718
_cell_length_c   6.22384200
_cell_angle_alpha   90.00000000
_cell_angle_beta   90.00000000
_cell_angle_gamma   119.99999609
_symmetry_Int_Tables_number   1
_chemical_formula_structural   Nd3MnGaS7
_chemical_formula_sum   'Nd6 Mn2 Ga2 S14'
_cell_volume   541.12166871
_cell_formula_units_Z   2
loop_
 _symmetry_equiv_pos_site_id
 _symmetry_equiv_pos_as_xyz
  1  'x, y, z'
loop_
 _atom_site_type_symbol
 _atom_site_label
 _atom_site_symmetry_multiplicity
 _atom_site_fract_x
 _atom_site_fract_y
 _atom_site_fract_z
 _atom_site_occupancy
  Nd  Nd0  1  0.769627  0.146373  0.736316  1
  Nd  Nd1  1  0.376746  0.230373  0.736316  1
  Nd  Nd2  1  0.853627  0.623254  0.736316  1
  Nd  Nd3  1  0.230373  0.853627  0.236316  1
  Nd  Nd4  1  0.623254  0.769627  0.236316  1
  Nd  Nd5  1  0.146373  0.376746  0.236316  1
  Mn  Mn6  1  0.000000  0.000000  0.528230  1
  Mn  Mn7  1  0.000000  0.000000  0.028230  1
  Ga  Ga8  1  0.666667  0.333333  0.158143  1
  Ga  Ga9  1  0.333333  0.666667  0.658143  1
  S  S10  1  0.857943  0.096188  0.310530  1
  S  S11  1  0.238244  0.142057  0.310530  1
  S  S12  1  0.903812  0.761756  0.310530  1
  S  S13  1  0.142057  0.903812  0.810530  1
  S  S14  1  0.761756  0.857943  0.810530  1
  S  S15  1  0.096188  0.238244  0.810530  1
  S  S16  1  0.904795  0.422731  0.005006  1
  S  S17  1  0.517936  0.095205  0.005006  1
  S  S18  1  0.577269  0.482064  0.005006  1
  S  S19  1  0.095205  0.577269  0.505006  1
  S  S20  1  0.482064  0.904795  0.505006  1
  S  S21  1  0.422731  0.517936  0.505006  1
  S  S22  1  0.666667  0.333333  0.522121  1
  S  S23  1  0.333333  0.666667  0.022121  1
