# generated using pymatgen
data_Tm2Pu2Zn2P5
_symmetry_space_group_name_H-M   'P 1'
_cell_length_a   4.00457100
_cell_length_b   4.00457006
_cell_length_c   16.33559100
_cell_angle_alpha   90.00000000
_cell_angle_beta   90.00000000
_cell_angle_gamma   119.99998297
_symmetry_Int_Tables_number   1
_chemical_formula_structural   Tm2Pu2Zn2P5
_chemical_formula_sum   'Tm2 Pu2 Zn2 P5'
_cell_volume   226.87019889
_cell_formula_units_Z   1
loop_
 _symmetry_equiv_pos_site_id
 _symmetry_equiv_pos_as_xyz
  1  'x, y, z'
loop_
 _atom_site_type_symbol
 _atom_site_label
 _atom_site_symmetry_multiplicity
 _atom_site_fract_x
 _atom_site_fract_y
 _atom_site_fract_z
 _atom_site_occupancy
  Tm  Tm0  1  0.666667  0.333333  0.904366  1
  Tm  Tm1  1  0.333333  0.666667  0.095634  1
  Pu  Pu2  1  0.000000  0.000000  0.707800  1
  Pu  Pu3  1  0.000000  0.000000  0.292200  1
  Zn  Zn4  1  0.666667  0.333333  0.444392  1
  Zn  Zn5  1  0.333333  0.666667  0.555608  1
  P  P6  1  0.666667  0.333333  0.600300  1
  P  P7  1  0.333333  0.666667  0.399700  1
  P  P8  1  0.666667  0.333333  0.196544  1
  P  P9  1  0.333333  0.666667  0.803456  1
  P  P10  1  0.000000  0.000000  0.000000  1
