# generated using pymatgen
data_LuScTa(Ni10B3)2
_symmetry_space_group_name_H-M   'P 1'
_cell_length_a   7.53355747
_cell_length_b   7.53355694
_cell_length_c   7.53355600
_cell_angle_alpha   59.99999533
_cell_angle_beta   59.99999768
_cell_angle_gamma   59.99999356
_symmetry_Int_Tables_number   1
_chemical_formula_structural   LuScTa(Ni10B3)2
_chemical_formula_sum   'Lu1 Sc1 Ta1 Ni20 B6'
_cell_volume   302.33272584
_cell_formula_units_Z   1
loop_
 _symmetry_equiv_pos_site_id
 _symmetry_equiv_pos_as_xyz
  1  'x, y, z'
loop_
 _atom_site_type_symbol
 _atom_site_label
 _atom_site_symmetry_multiplicity
 _atom_site_fract_x
 _atom_site_fract_y
 _atom_site_fract_z
 _atom_site_occupancy
  Lu  Lu0  1  0.750000  0.750000  0.750000  1
  Sc  Sc1  1  0.250000  0.250000  0.250000  1
  Ta  Ta2  1  0.000000  0.000000  0.000000  1
  Ni  Ni3  1  0.612313  0.612313  0.163061  1
  Ni  Ni4  1  0.612313  0.163061  0.612313  1
  Ni  Ni5  1  0.163061  0.612313  0.612313  1
  Ni  Ni6  1  0.612313  0.612313  0.612313  1
  Ni  Ni7  1  0.385376  0.385376  0.843873  1
  Ni  Ni8  1  0.385376  0.843873  0.385376  1
  Ni  Ni9  1  0.843873  0.385376  0.385376  1
  Ni  Ni10  1  0.385376  0.385376  0.385376  1
  Ni  Ni11  1  0.000683  0.000683  0.340632  1
  Ni  Ni12  1  0.658002  0.000683  0.340632  1
  Ni  Ni13  1  0.000683  0.658002  0.340632  1
  Ni  Ni14  1  0.658002  0.340632  0.000683  1
  Ni  Ni15  1  0.000683  0.340632  0.000683  1
  Ni  Ni16  1  0.000683  0.340632  0.658002  1
  Ni  Ni17  1  0.340632  0.658002  0.000683  1
  Ni  Ni18  1  0.340632  0.000683  0.658002  1
  Ni  Ni19  1  0.340632  0.000683  0.000683  1
  Ni  Ni20  1  0.000683  0.000683  0.658002  1
  Ni  Ni21  1  0.000683  0.658002  0.000683  1
  Ni  Ni22  1  0.658002  0.000683  0.000683  1
  B  B23  1  0.731646  0.731646  0.268354  1
  B  B24  1  0.268354  0.731646  0.268354  1
  B  B25  1  0.731646  0.268354  0.268354  1
  B  B26  1  0.268354  0.268354  0.731646  1
  B  B27  1  0.731646  0.268354  0.731646  1
  B  B28  1  0.268354  0.731646  0.731646  1
