# generated using pymatgen
data_KCe(CO3)2
_symmetry_space_group_name_H-M   'P 1'
_cell_length_a   6.65565700
_cell_length_b   6.65565714
_cell_length_c   7.24584359
_cell_angle_alpha   75.72849193
_cell_angle_beta   75.72849468
_cell_angle_gamma   96.16275784
_symmetry_Int_Tables_number   1
_chemical_formula_structural   KCe(CO3)2
_chemical_formula_sum   'K2 Ce2 C4 O12'
_cell_volume   296.59976510
_cell_formula_units_Z   2
loop_
 _symmetry_equiv_pos_site_id
 _symmetry_equiv_pos_as_xyz
  1  'x, y, z'
loop_
 _atom_site_type_symbol
 _atom_site_label
 _atom_site_symmetry_multiplicity
 _atom_site_fract_x
 _atom_site_fract_y
 _atom_site_fract_z
 _atom_site_occupancy
  K  K0  1  0.620380  0.379620  0.750000  1
  K  K1  1  0.379620  0.620380  0.250000  1
  Ce  Ce2  1  0.100502  0.899498  0.750000  1
  Ce  Ce3  1  0.899498  0.100502  0.250000  1
  C  C4  1  0.645382  0.888977  0.758766  1
  C  C5  1  0.354618  0.111023  0.241234  1
  C  C6  1  0.111023  0.354618  0.741234  1
  C  C7  1  0.888977  0.645382  0.258766  1
  O  O8  1  0.449656  0.896566  0.780325  1
  O  O9  1  0.550344  0.103434  0.219675  1
  O  O10  1  0.103434  0.550344  0.719675  1
  O  O11  1  0.896566  0.449656  0.280325  1
  O  O12  1  0.708832  0.750435  0.880689  1
  O  O13  1  0.291168  0.249565  0.119311  1
  O  O14  1  0.249565  0.291168  0.619311  1
  O  O15  1  0.750435  0.708832  0.380689  1
  O  O16  1  0.791432  0.027984  0.612369  1
  O  O17  1  0.208568  0.972016  0.387631  1
  O  O18  1  0.972016  0.208568  0.887631  1
  O  O19  1  0.027984  0.791432  0.112369  1
