# generated using pymatgen
data_NaSm7(Si4Mo3)4
_symmetry_space_group_name_H-M   'P 1'
_cell_length_a   6.82197360
_cell_length_b   7.02438578
_cell_length_c   13.03951363
_cell_angle_alpha   90.10207742
_cell_angle_beta   89.87064661
_cell_angle_gamma   90.15175434
_symmetry_Int_Tables_number   1
_chemical_formula_structural   NaSm7(Si4Mo3)4
_chemical_formula_sum   'Na1 Sm7 Si16 Mo12'
_cell_volume   624.85099731
_cell_formula_units_Z   1
loop_
 _symmetry_equiv_pos_site_id
 _symmetry_equiv_pos_as_xyz
  1  'x, y, z'
loop_
 _atom_site_type_symbol
 _atom_site_label
 _atom_site_symmetry_multiplicity
 _atom_site_fract_x
 _atom_site_fract_y
 _atom_site_fract_z
 _atom_site_occupancy
  Na  Na0  1  0.992471  0.164798  0.090764  1
  Sm  Sm1  1  0.499455  0.332692  0.094507  1
  Sm  Sm2  1  0.000005  0.166857  0.405759  1
  Sm  Sm3  1  0.503039  0.665702  0.594488  1
  Sm  Sm4  1  0.001959  0.837538  0.910304  1
  Sm  Sm5  1  0.501314  0.665359  0.907866  1
  Sm  Sm6  1  0.003424  0.835101  0.594633  1
  Sm  Sm7  1  0.499414  0.332977  0.403295  1
  Si  Si8  1  0.657523  0.045206  0.547779  1
  Si  Si9  1  0.154447  0.450853  0.953412  1
  Si  Si10  1  0.337592  0.960570  0.048926  1
  Si  Si11  1  0.843138  0.546582  0.452913  1
  Si  Si12  1  0.343171  0.954403  0.451863  1
  Si  Si13  1  0.846757  0.538217  0.049149  1
  Si  Si14  1  0.655348  0.045048  0.953479  1
  Si  Si15  1  0.157594  0.454421  0.547341  1
  Si  Si16  1  0.535142  0.361399  0.750307  1
  Si  Si17  1  0.034968  0.139167  0.751239  1
  Si  Si18  1  0.464793  0.637539  0.250149  1
  Si  Si19  1  0.965531  0.866053  0.247757  1
  Si  Si20  1  0.807519  0.624902  0.751649  1
  Si  Si21  1  0.304884  0.876151  0.751062  1
  Si  Si22  1  0.188839  0.372285  0.245343  1
  Si  Si23  1  0.701211  0.122155  0.245747  1
  Mo  Mo24  1  0.830024  0.336775  0.626145  1
  Mo  Mo25  1  0.332871  0.165049  0.873593  1
  Mo  Mo26  1  0.171382  0.669099  0.128177  1
  Mo  Mo27  1  0.668718  0.834229  0.372081  1
  Mo  Mo28  1  0.169934  0.664279  0.373826  1
  Mo  Mo29  1  0.666216  0.830791  0.125638  1
  Mo  Mo30  1  0.828034  0.335759  0.873435  1
  Mo  Mo31  1  0.331959  0.164329  0.626351  1
  Mo  Mo32  1  0.665691  0.002626  0.750014  1
  Mo  Mo33  1  0.165397  0.496664  0.750308  1
  Mo  Mo34  1  0.334347  0.996754  0.249946  1
  Mo  Mo35  1  0.835889  0.507672  0.250760  1
