# generated using pymatgen
data_Y10Ho10CoBi8Os3
_symmetry_space_group_name_H-M   'P 1'
_cell_length_a   7.95947454
_cell_length_b   8.98371200
_cell_length_c   12.47803136
_cell_angle_alpha   90.00000000
_cell_angle_beta   89.73005549
_cell_angle_gamma   90.00000000
_symmetry_Int_Tables_number   1
_chemical_formula_structural   Y10Ho10CoBi8Os3
_chemical_formula_sum   'Y10 Ho10 Co1 Bi8 Os3'
_cell_volume   892.23955221
_cell_formula_units_Z   1
loop_
 _symmetry_equiv_pos_site_id
 _symmetry_equiv_pos_as_xyz
  1  'x, y, z'
loop_
 _atom_site_type_symbol
 _atom_site_label
 _atom_site_symmetry_multiplicity
 _atom_site_fract_x
 _atom_site_fract_y
 _atom_site_fract_z
 _atom_site_occupancy
  Y  Y0  1  0.344628  0.750000  0.702879  1
  Y  Y1  1  0.658079  0.250000  0.291389  1
  Y  Y2  1  0.842116  0.250000  0.790748  1
  Y  Y3  1  0.156374  0.750000  0.207107  1
  Y  Y4  1  0.877879  0.750000  0.805261  1
  Y  Y5  1  0.121369  0.250000  0.194350  1
  Y  Y6  1  0.377195  0.250000  0.693791  1
  Y  Y7  1  0.618200  0.750000  0.311524  1
  Y  Y8  1  0.055052  0.750000  0.496803  1
  Y  Y9  1  0.946160  0.250000  0.502969  1
  Ho  Ho10  1  0.674687  0.541823  0.563685  1
  Ho  Ho11  1  0.326158  0.460507  0.437001  1
  Ho  Ho12  1  0.174367  0.457768  0.936419  1
  Ho  Ho13  1  0.326158  0.039493  0.437001  1
  Ho  Ho14  1  0.824751  0.543148  0.063962  1
  Ho  Ho15  1  0.674687  0.958177  0.563685  1
  Ho  Ho16  1  0.824751  0.956852  0.063962  1
  Ho  Ho17  1  0.174367  0.042232  0.936419  1
  Ho  Ho18  1  0.558408  0.250000  0.003553  1
  Ho  Ho19  1  0.441782  0.750000  0.995787  1
  Co  Co20  1  0.430349  0.750000  0.491302  1
  Bi  Bi21  1  0.569507  0.508504  0.827843  1
  Bi  Bi22  1  0.430178  0.492413  0.172434  1
  Bi  Bi23  1  0.071232  0.492137  0.671862  1
  Bi  Bi24  1  0.430178  0.007587  0.172434  1
  Bi  Bi25  1  0.929545  0.508907  0.328427  1
  Bi  Bi26  1  0.569507  0.991496  0.827843  1
  Bi  Bi27  1  0.929545  0.991093  0.328427  1
  Bi  Bi28  1  0.071232  0.007863  0.671862  1
  Os  Os29  1  0.075892  0.750000  0.988808  1
  Os  Os30  1  0.923079  0.250000  0.010486  1
  Os  Os31  1  0.572594  0.250000  0.509980  1
