# generated using pymatgen
data_DyPa3Ir4
_symmetry_space_group_name_H-M   'P 1'
_cell_length_a   4.04159000
_cell_length_b   5.71547518
_cell_length_c   7.53194509
_cell_angle_alpha   89.93600502
_cell_angle_beta   90.00000000
_cell_angle_gamma   90.00000000
_symmetry_Int_Tables_number   1
_chemical_formula_structural   DyPa3Ir4
_chemical_formula_sum   'Dy1 Pa3 Ir4'
_cell_volume   173.98486564
_cell_formula_units_Z   1
loop_
 _symmetry_equiv_pos_site_id
 _symmetry_equiv_pos_as_xyz
  1  'x, y, z'
loop_
 _atom_site_type_symbol
 _atom_site_label
 _atom_site_symmetry_multiplicity
 _atom_site_fract_x
 _atom_site_fract_y
 _atom_site_fract_z
 _atom_site_occupancy
  Dy  Dy0  1  0.750000  0.834939  0.828107  1
  Pa  Pa1  1  0.250000  0.333073  0.674621  1
  Pa  Pa2  1  0.250000  0.168661  0.166432  1
  Pa  Pa3  1  0.750000  0.673191  0.330641  1
  Ir  Ir4  1  0.250000  0.820164  0.555528  1
  Ir  Ir5  1  0.250000  0.664773  0.078409  1
  Ir  Ir6  1  0.750000  0.181248  0.431615  1
  Ir  Ir7  1  0.750000  0.323949  0.934647  1
