# generated using pymatgen
data_Ba19SrSi11Au
_symmetry_space_group_name_H-M   'P 1'
_cell_length_a   8.46558000
_cell_length_b   8.46558000
_cell_length_c   16.82218200
_cell_angle_alpha   90.00000000
_cell_angle_beta   90.00000000
_cell_angle_gamma   90.00000000
_symmetry_Int_Tables_number   1
_chemical_formula_structural   Ba19SrSi11Au
_chemical_formula_sum   'Ba19 Sr1 Si11 Au1'
_cell_volume   1205.57924778
_cell_formula_units_Z   1
loop_
 _symmetry_equiv_pos_site_id
 _symmetry_equiv_pos_as_xyz
  1  'x, y, z'
loop_
 _atom_site_type_symbol
 _atom_site_label
 _atom_site_symmetry_multiplicity
 _atom_site_fract_x
 _atom_site_fract_y
 _atom_site_fract_z
 _atom_site_occupancy
  Ba  Ba0  1  0.311168  0.671412  0.107501  1
  Ba  Ba1  1  0.171412  0.188832  0.107501  1
  Ba  Ba2  1  0.330479  0.693303  0.394040  1
  Ba  Ba3  1  0.663916  0.695295  0.890905  1
  Ba  Ba4  1  0.193303  0.169521  0.394040  1
  Ba  Ba5  1  0.669521  0.306697  0.394040  1
  Ba  Ba6  1  0.173336  0.808159  0.607195  1
  Ba  Ba7  1  0.336084  0.304705  0.890905  1
  Ba  Ba8  1  0.195295  0.836084  0.890905  1
  Ba  Ba9  1  0.500000  0.000000  0.227254  1
  Ba  Ba10  1  0.826664  0.191841  0.607195  1
  Ba  Ba11  1  0.308159  0.326664  0.607195  1
  Ba  Ba12  1  0.806697  0.830479  0.394040  1
  Ba  Ba13  1  0.804705  0.163916  0.890905  1
  Ba  Ba14  1  0.828588  0.811168  0.107501  1
  Ba  Ba15  1  0.000000  0.500000  0.275714  1
  Ba  Ba16  1  0.000000  0.500000  0.770922  1
  Ba  Ba17  1  0.688832  0.328588  0.107501  1
  Ba  Ba18  1  0.691841  0.673336  0.607195  1
  Sr  Sr19  1  0.500000  0.000000  0.725205  1
  Si  Si20  1  0.104783  0.100841  0.749475  1
  Si  Si21  1  0.399159  0.604783  0.749475  1
  Si  Si22  1  0.600419  0.602258  0.250381  1
  Si  Si23  1  0.500000  0.000000  0.014904  1
  Si  Si24  1  0.102258  0.899581  0.250381  1
  Si  Si25  1  0.600841  0.395217  0.749475  1
  Si  Si26  1  0.895217  0.899159  0.749475  1
  Si  Si27  1  0.399581  0.397742  0.250381  1
  Si  Si28  1  0.897742  0.100419  0.250381  1
  Si  Si29  1  0.500000  0.000000  0.514779  1
  Si  Si30  1  0.000000  0.500000  0.486150  1
  Au  Au31  1  0.000000  0.500000  0.987089  1
