# generated using pymatgen
data_TbGdEr2(WO6)2
_symmetry_space_group_name_H-M   'P 1'
_cell_length_a   5.41547200
_cell_length_b   7.71536352
_cell_length_c   11.45301822
_cell_angle_alpha   75.57731048
_cell_angle_beta   90.00000000
_cell_angle_gamma   90.00000000
_symmetry_Int_Tables_number   1
_chemical_formula_structural   TbGdEr2(WO6)2
_chemical_formula_sum   'Tb2 Gd2 Er4 W4 O24'
_cell_volume   463.45266093
_cell_formula_units_Z   2
loop_
 _symmetry_equiv_pos_site_id
 _symmetry_equiv_pos_as_xyz
  1  'x, y, z'
loop_
 _atom_site_type_symbol
 _atom_site_label
 _atom_site_symmetry_multiplicity
 _atom_site_fract_x
 _atom_site_fract_y
 _atom_site_fract_z
 _atom_site_occupancy
  Tb  Tb0  1  0.741842  0.000000  0.250000  1
  Tb  Tb1  1  0.258158  0.000000  0.750000  1
  Gd  Gd2  1  0.684130  0.500000  0.250000  1
  Gd  Gd3  1  0.315870  0.500000  0.750000  1
  Er  Er4  1  0.183244  0.206186  0.421825  1
  Er  Er5  1  0.183244  0.793814  0.078175  1
  Er  Er6  1  0.816756  0.793814  0.578175  1
  Er  Er7  1  0.816756  0.206186  0.921825  1
  W  W8  1  0.255778  0.275490  0.114622  1
  W  W9  1  0.255778  0.724510  0.385378  1
  W  W10  1  0.744222  0.724510  0.885378  1
  W  W11  1  0.744222  0.275490  0.614622  1
  O  O12  1  0.454966  0.208124  0.273479  1
  O  O13  1  0.454966  0.791876  0.226521  1
  O  O14  1  0.545034  0.791876  0.726521  1
  O  O15  1  0.545034  0.208124  0.773479  1
  O  O16  1  0.047252  0.059659  0.103043  1
  O  O17  1  0.047252  0.940341  0.396957  1
  O  O18  1  0.952748  0.940341  0.896957  1
  O  O19  1  0.952748  0.059659  0.603043  1
  O  O20  1  0.983547  0.286675  0.229178  1
  O  O21  1  0.983547  0.713325  0.270822  1
  O  O22  1  0.016453  0.713325  0.770822  1
  O  O23  1  0.016453  0.286675  0.729178  1
  O  O24  1  0.852361  0.363931  0.452110  1
  O  O25  1  0.852361  0.636069  0.047890  1
  O  O26  1  0.147639  0.636069  0.547890  1
  O  O27  1  0.147639  0.363931  0.952110  1
  O  O28  1  0.643914  0.510019  0.613245  1
  O  O29  1  0.643914  0.489981  0.886755  1
  O  O30  1  0.356086  0.489981  0.386755  1
  O  O31  1  0.356086  0.510019  0.113245  1
  O  O32  1  0.463476  0.156282  0.567987  1
  O  O33  1  0.463476  0.843718  0.932013  1
  O  O34  1  0.536524  0.843718  0.432013  1
  O  O35  1  0.536524  0.156282  0.067987  1
