# generated using pymatgen
data_TbDy(SeO3)3
_symmetry_space_group_name_H-M   'P 1'
_cell_length_a   7.12527561
_cell_length_b   8.17802598
_cell_length_c   9.12144114
_cell_angle_alpha   71.39317199
_cell_angle_beta   69.99060948
_cell_angle_gamma   66.07764628
_symmetry_Int_Tables_number   1
_chemical_formula_structural   TbDy(SeO3)3
_chemical_formula_sum   'Tb2 Dy2 Se6 O18'
_cell_volume   446.35169855
_cell_formula_units_Z   2
loop_
 _symmetry_equiv_pos_site_id
 _symmetry_equiv_pos_as_xyz
  1  'x, y, z'
loop_
 _atom_site_type_symbol
 _atom_site_label
 _atom_site_symmetry_multiplicity
 _atom_site_fract_x
 _atom_site_fract_y
 _atom_site_fract_z
 _atom_site_occupancy
  Tb  Tb0  1  0.334648  0.726985  0.590208  1
  Tb  Tb1  1  0.665352  0.273015  0.409792  1
  Dy  Dy2  1  0.741697  0.735818  0.797815  1
  Dy  Dy3  1  0.258303  0.264182  0.202185  1
  Se  Se4  1  0.427823  0.775324  0.198392  1
  Se  Se5  1  0.572177  0.224676  0.801608  1
  Se  Se6  1  0.148164  0.749436  0.964723  1
  Se  Se7  1  0.851836  0.250564  0.035277  1
  Se  Se8  1  0.886351  0.760477  0.414895  1
  Se  Se9  1  0.113649  0.239523  0.585105  1
  O  O10  1  0.648886  0.791454  0.051232  1
  O  O11  1  0.351114  0.208546  0.948768  1
  O  O12  1  0.360845  0.943349  0.304195  1
  O  O13  1  0.639155  0.056651  0.695805  1
  O  O14  1  0.517449  0.594915  0.351012  1
  O  O15  1  0.482551  0.405085  0.648988  1
  O  O16  1  0.166847  0.566686  0.120036  1
  O  O17  1  0.833153  0.433314  0.879964  1
  O  O18  1  0.407732  0.710613  0.849224  1
  O  O19  1  0.592268  0.289387  0.150776  1
  O  O20  1  0.343106  0.252759  0.436518  1
  O  O21  1  0.656894  0.747241  0.563482  1
  O  O22  1  0.967865  0.292570  0.445479  1
  O  O23  1  0.032135  0.707430  0.554521  1
  O  O24  1  0.159306  0.012813  0.653413  1
  O  O25  1  0.840694  0.987187  0.346587  1
  O  O26  1  0.932951  0.306096  0.167543  1
  O  O27  1  0.067049  0.693904  0.832457  1
