# generated using pymatgen
data_Rb7NbTlGa2As5
_symmetry_space_group_name_H-M   'P 1'
_cell_length_a   8.68547125
_cell_length_b   9.51368022
_cell_length_c   14.44363773
_cell_angle_alpha   85.54491626
_cell_angle_beta   82.24055183
_cell_angle_gamma   86.50817138
_symmetry_Int_Tables_number   1
_chemical_formula_structural   Rb7NbTlGa2As5
_chemical_formula_sum   'Rb14 Nb2 Tl2 Ga4 As10'
_cell_volume   1177.45160021
_cell_formula_units_Z   2
loop_
 _symmetry_equiv_pos_site_id
 _symmetry_equiv_pos_as_xyz
  1  'x, y, z'
loop_
 _atom_site_type_symbol
 _atom_site_label
 _atom_site_symmetry_multiplicity
 _atom_site_fract_x
 _atom_site_fract_y
 _atom_site_fract_z
 _atom_site_occupancy
  Rb  Rb0  1  0.848475  0.357118  0.641591  1
  Rb  Rb1  1  0.812488  0.814336  0.138099  1
  Rb  Rb2  1  0.244962  0.002942  0.472000  1
  Rb  Rb3  1  0.269592  0.256222  0.262215  1
  Rb  Rb4  1  0.739909  0.498461  0.972355  1
  Rb  Rb5  1  0.260091  0.501539  0.027645  1
  Rb  Rb6  1  0.677346  0.079289  0.881495  1
  Rb  Rb7  1  0.755038  0.997058  0.528000  1
  Rb  Rb8  1  0.730408  0.743778  0.737785  1
  Rb  Rb9  1  0.336061  0.334905  0.605772  1
  Rb  Rb10  1  0.151525  0.642882  0.358409  1
  Rb  Rb11  1  0.187512  0.185664  0.861901  1
  Rb  Rb12  1  0.322654  0.920711  0.118505  1
  Rb  Rb13  1  0.663939  0.665095  0.394228  1
  Nb  Nb14  1  0.351657  0.606987  0.774325  1
  Nb  Nb15  1  0.648343  0.393013  0.225675  1
  Tl  Tl16  1  0.039766  0.819901  0.878810  1
  Tl  Tl17  1  0.960234  0.180099  0.121190  1
  Ga  Ga18  1  0.354897  0.945332  0.702159  1
  Ga  Ga19  1  0.100819  0.726223  0.629798  1
  Ga  Ga20  1  0.899181  0.273777  0.370202  1
  Ga  Ga21  1  0.645103  0.054668  0.297841  1
  As  As22  1  0.928123  0.453328  0.214976  1
  As  As23  1  0.622625  0.185799  0.127847  1
  As  As24  1  0.071877  0.546672  0.785024  1
  As  As25  1  0.590398  0.287019  0.392463  1
  As  As26  1  0.409602  0.712981  0.607537  1
  As  As27  1  0.032185  0.998638  0.696026  1
  As  As28  1  0.518655  0.399780  0.807930  1
  As  As29  1  0.481345  0.600220  0.192070  1
  As  As30  1  0.377375  0.814201  0.872153  1
  As  As31  1  0.967815  0.001362  0.303974  1
