# generated using pymatgen
data_Ho15Th(InPt)4
_symmetry_space_group_name_H-M   'P 1'
_cell_length_a   9.68984758
_cell_length_b   9.68984947
_cell_length_c   9.68984841
_cell_angle_alpha   60.16335193
_cell_angle_beta   60.16334513
_cell_angle_gamma   60.16334649
_symmetry_Int_Tables_number   1
_chemical_formula_structural   Ho15Th(InPt)4
_chemical_formula_sum   'Ho15 Th1 In4 Pt4'
_cell_volume   645.71331742
_cell_formula_units_Z   1
loop_
 _symmetry_equiv_pos_site_id
 _symmetry_equiv_pos_as_xyz
  1  'x, y, z'
loop_
 _atom_site_type_symbol
 _atom_site_label
 _atom_site_symmetry_multiplicity
 _atom_site_fract_x
 _atom_site_fract_y
 _atom_site_fract_z
 _atom_site_occupancy
  Ho  Ho0  1  0.601643  0.601643  0.192825  1
  Ho  Ho1  1  0.601643  0.192825  0.601643  1
  Ho  Ho2  1  0.192825  0.601643  0.601643  1
  Ho  Ho3  1  0.061817  0.439704  0.439704  1
  Ho  Ho4  1  0.444048  0.059141  0.059141  1
  Ho  Ho5  1  0.439704  0.061817  0.439704  1
  Ho  Ho6  1  0.059141  0.444048  0.059141  1
  Ho  Ho7  1  0.439704  0.439704  0.061817  1
  Ho  Ho8  1  0.059141  0.059141  0.444048  1
  Ho  Ho9  1  0.185369  0.813802  0.813802  1
  Ho  Ho10  1  0.812180  0.188641  0.188641  1
  Ho  Ho11  1  0.813802  0.185369  0.813802  1
  Ho  Ho12  1  0.188641  0.812180  0.188641  1
  Ho  Ho13  1  0.813802  0.813802  0.185369  1
  Ho  Ho14  1  0.188641  0.188641  0.812180  1
  Th  Th15  1  0.598901  0.598901  0.598901  1
  In  In16  1  0.835725  0.835725  0.835725  1
  In  In17  1  0.834083  0.834083  0.499785  1
  In  In18  1  0.834083  0.499785  0.834083  1
  In  In19  1  0.499785  0.834083  0.834083  1
  Pt  Pt20  1  0.393480  0.393480  0.393480  1
  Pt  Pt21  1  0.389906  0.389906  0.822030  1
  Pt  Pt22  1  0.389906  0.822030  0.389906  1
  Pt  Pt23  1  0.822030  0.389906  0.389906  1
