# generated using pymatgen
data_Tb10Y2Ir3Pd
_symmetry_space_group_name_H-M   'P 1'
_cell_length_a   6.40948862
_cell_length_b   7.21856687
_cell_length_c   9.48388300
_cell_angle_alpha   90.00000000
_cell_angle_beta   90.00000000
_cell_angle_gamma   90.05542898
_symmetry_Int_Tables_number   1
_chemical_formula_structural   Tb10Y2Ir3Pd
_chemical_formula_sum   'Tb10 Y2 Ir3 Pd1'
_cell_volume   438.79366517
_cell_formula_units_Z   1
loop_
 _symmetry_equiv_pos_site_id
 _symmetry_equiv_pos_as_xyz
  1  'x, y, z'
loop_
 _atom_site_type_symbol
 _atom_site_label
 _atom_site_symmetry_multiplicity
 _atom_site_fract_x
 _atom_site_fract_y
 _atom_site_fract_z
 _atom_site_occupancy
  Tb  Tb0  1  0.333537  0.674703  0.060082  1
  Tb  Tb1  1  0.173248  0.183206  0.439840  1
  Tb  Tb2  1  0.674274  0.321164  0.563647  1
  Tb  Tb3  1  0.825372  0.822553  0.934193  1
  Tb  Tb4  1  0.674274  0.321164  0.936353  1
  Tb  Tb5  1  0.825372  0.822553  0.565807  1
  Tb  Tb6  1  0.333537  0.674703  0.439918  1
  Tb  Tb7  1  0.173248  0.183206  0.060160  1
  Tb  Tb8  1  0.131891  0.467537  0.750000  1
  Tb  Tb9  1  0.366742  0.965788  0.750000  1
  Y  Y10  1  0.864004  0.524172  0.250000  1
  Y  Y11  1  0.625623  0.035770  0.250000  1
  Ir  Ir12  1  0.443257  0.384454  0.250000  1
  Ir  Ir13  1  0.949830  0.117299  0.750000  1
  Ir  Ir14  1  0.549674  0.615938  0.750000  1
  Pd  Pd15  1  0.056120  0.885790  0.250000  1
