# generated using pymatgen
data_Gd6Al7Pd16
_symmetry_space_group_name_H-M   'P 1'
_cell_length_a   9.00263249
_cell_length_b   9.00263311
_cell_length_c   9.00263200
_cell_angle_alpha   59.99999674
_cell_angle_beta   59.99999445
_cell_angle_gamma   59.99999859
_symmetry_Int_Tables_number   1
_chemical_formula_structural   Gd6Al7Pd16
_chemical_formula_sum   'Gd6 Al7 Pd16'
_cell_volume   515.93327625
_cell_formula_units_Z   1
loop_
 _symmetry_equiv_pos_site_id
 _symmetry_equiv_pos_as_xyz
  1  'x, y, z'
loop_
 _atom_site_type_symbol
 _atom_site_label
 _atom_site_symmetry_multiplicity
 _atom_site_fract_x
 _atom_site_fract_y
 _atom_site_fract_z
 _atom_site_occupancy
  Gd  Gd0  1  0.712338  0.287662  0.287662  1
  Gd  Gd1  1  0.287662  0.712338  0.712338  1
  Gd  Gd2  1  0.287662  0.712338  0.287662  1
  Gd  Gd3  1  0.287662  0.287662  0.712338  1
  Gd  Gd4  1  0.712338  0.287662  0.712338  1
  Gd  Gd5  1  0.712338  0.712338  0.287662  1
  Al  Al6  1  0.500000  0.000000  0.000000  1
  Al  Al7  1  0.000000  0.500000  0.500000  1
  Al  Al8  1  0.000000  0.500000  0.000000  1
  Al  Al9  1  0.000000  0.000000  0.500000  1
  Al  Al10  1  0.500000  0.000000  0.500000  1
  Al  Al11  1  0.500000  0.500000  0.000000  1
  Al  Al12  1  0.000000  0.000000  0.000000  1
  Pd  Pd13  1  0.334591  0.334591  0.334591  1
  Pd  Pd14  1  0.334591  0.334591  0.996230  1
  Pd  Pd15  1  0.996230  0.334591  0.334591  1
  Pd  Pd16  1  0.334591  0.996230  0.334591  1
  Pd  Pd17  1  0.665409  0.665409  0.665409  1
  Pd  Pd18  1  0.665409  0.665409  0.003770  1
  Pd  Pd19  1  0.665409  0.003770  0.665409  1
  Pd  Pd20  1  0.003770  0.665409  0.665409  1
  Pd  Pd21  1  0.119116  0.119116  0.119116  1
  Pd  Pd22  1  0.119116  0.119116  0.642654  1
  Pd  Pd23  1  0.642654  0.119116  0.119116  1
  Pd  Pd24  1  0.119116  0.642654  0.119116  1
  Pd  Pd25  1  0.880884  0.880884  0.880884  1
  Pd  Pd26  1  0.880884  0.880884  0.357346  1
  Pd  Pd27  1  0.880884  0.357346  0.880884  1
  Pd  Pd28  1  0.357346  0.880884  0.880884  1
