# generated using pymatgen
data_Ho3Lu(ScSb5)4
_symmetry_space_group_name_H-M   'P 1'
_cell_length_a   4.19587600
_cell_length_b   13.00837232
_cell_length_c   14.18271211
_cell_angle_alpha   78.86897835
_cell_angle_beta   90.00000000
_cell_angle_gamma   90.00000000
_symmetry_Int_Tables_number   1
_chemical_formula_structural   Ho3Lu(ScSb5)4
_chemical_formula_sum   'Ho3 Lu1 Sc4 Sb20'
_cell_volume   759.55153247
_cell_formula_units_Z   1
loop_
 _symmetry_equiv_pos_site_id
 _symmetry_equiv_pos_as_xyz
  1  'x, y, z'
loop_
 _atom_site_type_symbol
 _atom_site_label
 _atom_site_symmetry_multiplicity
 _atom_site_fract_x
 _atom_site_fract_y
 _atom_site_fract_z
 _atom_site_occupancy
  Ho  Ho0  1  0.750000  0.330884  0.423839  1
  Ho  Ho1  1  0.250000  0.953597  0.354994  1
  Ho  Ho2  1  0.750000  0.046099  0.644931  1
  Lu  Lu3  1  0.250000  0.669467  0.576479  1
  Sc  Sc4  1  0.250000  0.396687  0.772541  1
  Sc  Sc5  1  0.750000  0.603369  0.227625  1
  Sc  Sc6  1  0.250000  0.657479  0.858604  1
  Sc  Sc7  1  0.750000  0.342524  0.141338  1
  Sb  Sb8  1  0.250000  0.147636  0.779820  1
  Sb  Sb9  1  0.750000  0.852360  0.219959  1
  Sb  Sb10  1  0.250000  0.142913  0.483381  1
  Sb  Sb11  1  0.750000  0.855197  0.516920  1
  Sb  Sb12  1  0.250000  0.162929  0.160936  1
  Sb  Sb13  1  0.750000  0.837070  0.839032  1
  Sb  Sb14  1  0.250000  0.422140  0.974985  1
  Sb  Sb15  1  0.750000  0.577786  0.025024  1
  Sb  Sb16  1  0.750000  0.028723  0.913922  1
  Sb  Sb17  1  0.250000  0.971355  0.086154  1
  Sb  Sb18  1  0.750000  0.142585  0.315957  1
  Sb  Sb19  1  0.250000  0.856427  0.683597  1
  Sb  Sb20  1  0.750000  0.279743  0.936343  1
  Sb  Sb21  1  0.250000  0.720241  0.063710  1
  Sb  Sb22  1  0.750000  0.289325  0.658749  1
  Sb  Sb23  1  0.250000  0.710944  0.341655  1
  Sb  Sb24  1  0.750000  0.574474  0.739419  1
  Sb  Sb25  1  0.250000  0.426459  0.259051  1
  Sb  Sb26  1  0.750000  0.570969  0.444875  1
  Sb  Sb27  1  0.250000  0.430621  0.556161  1
