# generated using pymatgen
data_NaPrSm5RuBr12
_symmetry_space_group_name_H-M   'P 1'
_cell_length_a   9.46770877
_cell_length_b   9.50409525
_cell_length_c   9.47028887
_cell_angle_alpha   107.04488496
_cell_angle_beta   106.98240220
_cell_angle_gamma   107.42242740
_symmetry_Int_Tables_number   1
_chemical_formula_structural   NaPrSm5RuBr12
_chemical_formula_sum   'Na1 Pr1 Sm5 Ru1 Br12'
_cell_volume   706.75175465
_cell_formula_units_Z   1
loop_
 _symmetry_equiv_pos_site_id
 _symmetry_equiv_pos_as_xyz
  1  'x, y, z'
loop_
 _atom_site_type_symbol
 _atom_site_label
 _atom_site_symmetry_multiplicity
 _atom_site_fract_x
 _atom_site_fract_y
 _atom_site_fract_z
 _atom_site_occupancy
  Na  Na0  1  0.500008  0.500184  0.499861  1
  Pr  Pr1  1  0.886737  0.679361  0.969686  1
  Sm  Sm2  1  0.112124  0.316455  0.030533  1
  Sm  Sm3  1  0.317671  0.031449  0.111637  1
  Sm  Sm4  1  0.030743  0.112445  0.317489  1
  Sm  Sm5  1  0.969968  0.889824  0.683388  1
  Sm  Sm6  1  0.682368  0.968389  0.888224  1
  Ru  Ru7  1  0.000248  0.999925  0.000740  1
  Br  Br8  1  0.223498  0.686136  0.074963  1
  Br  Br9  1  0.453838  0.370375  0.153229  1
  Br  Br10  1  0.684661  0.073364  0.215639  1
  Br  Br11  1  0.928264  0.787649  0.321924  1
  Br  Br12  1  0.152974  0.452661  0.369420  1
  Br  Br13  1  0.369976  0.153009  0.452526  1
  Br  Br14  1  0.630107  0.847249  0.547627  1
  Br  Br15  1  0.846664  0.547360  0.624039  1
  Br  Br16  1  0.073296  0.216553  0.684977  1
  Br  Br17  1  0.315446  0.926965  0.784626  1
  Br  Br18  1  0.539117  0.630191  0.843234  1
  Br  Br19  1  0.782295  0.310457  0.926242  1
