# generated using pymatgen
data_Pr8Tm12Ga11Si5
_symmetry_space_group_name_H-M   'P 1'
_cell_length_a   7.53215963
_cell_length_b   7.92302971
_cell_length_c   15.04141620
_cell_angle_alpha   89.95895682
_cell_angle_beta   90.13200642
_cell_angle_gamma   90.20062598
_symmetry_Int_Tables_number   1
_chemical_formula_structural   Pr8Tm12Ga11Si5
_chemical_formula_sum   'Pr8 Tm12 Ga11 Si5'
_cell_volume   897.62637384
_cell_formula_units_Z   1
loop_
 _symmetry_equiv_pos_site_id
 _symmetry_equiv_pos_as_xyz
  1  'x, y, z'
loop_
 _atom_site_type_symbol
 _atom_site_label
 _atom_site_symmetry_multiplicity
 _atom_site_fract_x
 _atom_site_fract_y
 _atom_site_fract_z
 _atom_site_occupancy
  Pr  Pr0  1  0.016977  0.178333  0.404943  1
  Pr  Pr1  1  0.515328  0.323056  0.405858  1
  Pr  Pr2  1  0.486758  0.678614  0.904821  1
  Pr  Pr3  1  0.486391  0.681439  0.593953  1
  Pr  Pr4  1  0.985621  0.817235  0.594240  1
  Pr  Pr5  1  0.983553  0.822916  0.904552  1
  Pr  Pr6  1  0.513073  0.320848  0.095680  1
  Pr  Pr7  1  0.013553  0.180665  0.095850  1
  Tm  Tm8  1  0.327030  0.173025  0.620841  1
  Tm  Tm9  1  0.672870  0.822776  0.378842  1
  Tm  Tm10  1  0.665821  0.986817  0.751509  1
  Tm  Tm11  1  0.174780  0.675640  0.378143  1
  Tm  Tm12  1  0.823356  0.325328  0.877918  1
  Tm  Tm13  1  0.824633  0.328263  0.621451  1
  Tm  Tm14  1  0.838563  0.490538  0.251360  1
  Tm  Tm15  1  0.335751  0.012261  0.251588  1
  Tm  Tm16  1  0.329398  0.175210  0.876974  1
  Tm  Tm17  1  0.173384  0.671788  0.123290  1
  Tm  Tm18  1  0.672387  0.826112  0.121829  1
  Tm  Tm19  1  0.160383  0.508965  0.750681  1
  Ga  Ga20  1  0.278995  0.878255  0.749285  1
  Ga  Ga21  1  0.466717  0.611361  0.251268  1
  Ga  Ga22  1  0.032962  0.117197  0.748605  1
  Ga  Ga23  1  0.532634  0.389756  0.748883  1
  Ga  Ga24  1  0.153984  0.466721  0.540149  1
  Ga  Ga25  1  0.966528  0.883695  0.250476  1
  Ga  Ga26  1  0.720380  0.121940  0.251189  1
  Ga  Ga27  1  0.844451  0.533176  0.041131  1
  Ga  Ga28  1  0.343697  0.964949  0.040106  1
  Ga  Ga29  1  0.154641  0.466355  0.958280  1
  Ga  Ga30  1  0.655894  0.034796  0.539844  1
  Si  Si31  1  0.347004  0.966586  0.458537  1
  Si  Si32  1  0.849419  0.531630  0.457789  1
  Si  Si33  1  0.778877  0.618373  0.749081  1
  Si  Si34  1  0.221544  0.381518  0.251505  1
  Si  Si35  1  0.652665  0.033866  0.959550  1
