# generated using pymatgen
data_TbV3P3Rh2
_symmetry_space_group_name_H-M   'P 1'
_cell_length_a   3.89744800
_cell_length_b   6.85205527
_cell_length_c   9.92797230
_cell_angle_alpha   79.97058562
_cell_angle_beta   90.00000000
_cell_angle_gamma   90.00000000
_symmetry_Int_Tables_number   1
_chemical_formula_structural   TbV3P3Rh2
_chemical_formula_sum   'Tb2 V6 P6 Rh4'
_cell_volume   261.08013592
_cell_formula_units_Z   2
loop_
 _symmetry_equiv_pos_site_id
 _symmetry_equiv_pos_as_xyz
  1  'x, y, z'
loop_
 _atom_site_type_symbol
 _atom_site_label
 _atom_site_symmetry_multiplicity
 _atom_site_fract_x
 _atom_site_fract_y
 _atom_site_fract_z
 _atom_site_occupancy
  Tb  Tb0  1  0.250000  0.804404  0.791016  1
  Tb  Tb1  1  0.750000  0.195596  0.208984  1
  V  V2  1  0.250000  0.611301  0.514013  1
  V  V3  1  0.750000  0.388699  0.485987  1
  V  V4  1  0.250000  0.129109  0.500666  1
  V  V5  1  0.750000  0.870891  0.499334  1
  V  V6  1  0.250000  0.320962  0.725642  1
  V  V7  1  0.750000  0.679038  0.274358  1
  P  P8  1  0.250000  0.255667  0.976026  1
  P  P9  1  0.750000  0.744333  0.023974  1
  P  P10  1  0.250000  0.428735  0.329935  1
  P  P11  1  0.750000  0.571265  0.670065  1
  P  P12  1  0.250000  0.901539  0.338389  1
  P  P13  1  0.750000  0.098461  0.661611  1
  Rh  Rh14  1  0.250000  0.528189  0.095531  1
  Rh  Rh15  1  0.750000  0.471811  0.904469  1
  Rh  Rh16  1  0.250000  0.926518  0.098763  1
  Rh  Rh17  1  0.750000  0.073482  0.901237  1
