# generated using pymatgen
data_Ce(SeBr6)2
_symmetry_space_group_name_H-M   'P 1'
_cell_length_a   9.82373900
_cell_length_b   9.82373881
_cell_length_c   7.37387433
_cell_angle_alpha   71.77923925
_cell_angle_beta   71.77923367
_cell_angle_gamma   78.03557516
_symmetry_Int_Tables_number   1
_chemical_formula_structural   Ce(SeBr6)2
_chemical_formula_sum   'Ce1 Se2 Br12'
_cell_volume   637.29869402
_cell_formula_units_Z   1
loop_
 _symmetry_equiv_pos_site_id
 _symmetry_equiv_pos_as_xyz
  1  'x, y, z'
loop_
 _atom_site_type_symbol
 _atom_site_label
 _atom_site_symmetry_multiplicity
 _atom_site_fract_x
 _atom_site_fract_y
 _atom_site_fract_z
 _atom_site_occupancy
  Ce  Ce0  1  0.000000  0.000000  0.000000  1
  Se  Se1  1  0.274843  0.274843  0.735001  1
  Se  Se2  1  0.725157  0.725157  0.264999  1
  Br  Br3  1  0.966912  0.273223  0.736334  1
  Br  Br4  1  0.273223  0.966912  0.736334  1
  Br  Br5  1  0.033088  0.726777  0.263666  1
  Br  Br6  1  0.726777  0.033088  0.263666  1
  Br  Br7  1  0.215596  0.508731  0.793122  1
  Br  Br8  1  0.508731  0.215596  0.793122  1
  Br  Br9  1  0.784404  0.491269  0.206878  1
  Br  Br10  1  0.491269  0.784404  0.206878  1
  Br  Br11  1  0.137631  0.137631  0.162710  1
  Br  Br12  1  0.862369  0.862369  0.837290  1
  Br  Br13  1  0.652804  0.652804  0.618952  1
  Br  Br14  1  0.347196  0.347196  0.381048  1
