# generated using pymatgen
data_Tm16Mg2TlHgIr3Pt
_symmetry_space_group_name_H-M   'P 1'
_cell_length_a   9.55715662
_cell_length_b   9.55715752
_cell_length_c   9.50186300
_cell_angle_alpha   59.92396007
_cell_angle_beta   59.92395697
_cell_angle_gamma   60.36274729
_symmetry_Int_Tables_number   1
_chemical_formula_structural   Tm16Mg2TlHgIr3Pt
_chemical_formula_sum   'Tm16 Mg2 Tl1 Hg1 Ir3 Pt1'
_cell_volume   614.64563350
_cell_formula_units_Z   1
loop_
 _symmetry_equiv_pos_site_id
 _symmetry_equiv_pos_as_xyz
  1  'x, y, z'
loop_
 _atom_site_type_symbol
 _atom_site_label
 _atom_site_symmetry_multiplicity
 _atom_site_fract_x
 _atom_site_fract_y
 _atom_site_fract_z
 _atom_site_occupancy
  Tm  Tm0  1  0.344559  0.344559  0.345351  1
  Tm  Tm1  1  0.352497  0.352497  0.953702  1
  Tm  Tm2  1  0.354812  0.946888  0.352657  1
  Tm  Tm3  1  0.946888  0.354812  0.352657  1
  Tm  Tm4  1  0.806717  0.189053  0.188763  1
  Tm  Tm5  1  0.186550  0.810919  0.811647  1
  Tm  Tm6  1  0.189053  0.806717  0.188763  1
  Tm  Tm7  1  0.810919  0.186550  0.811647  1
  Tm  Tm8  1  0.188054  0.188054  0.807441  1
  Tm  Tm9  1  0.806865  0.806865  0.192107  1
  Tm  Tm10  1  0.936734  0.564448  0.566050  1
  Tm  Tm11  1  0.564677  0.936401  0.940548  1
  Tm  Tm12  1  0.564448  0.936734  0.566050  1
  Tm  Tm13  1  0.936401  0.564677  0.940548  1
  Tm  Tm14  1  0.564787  0.564787  0.941967  1
  Tm  Tm15  1  0.937837  0.937837  0.565410  1
  Mg  Mg16  1  0.579214  0.269893  0.571785  1
  Mg  Mg17  1  0.269893  0.579214  0.571785  1
  Tl  Tl18  1  0.583348  0.583348  0.585204  1
  Hg  Hg19  1  0.582651  0.582651  0.242654  1
  Ir  Ir20  1  0.138606  0.138606  0.574448  1
  Ir  Ir21  1  0.137127  0.575635  0.141963  1
  Ir  Ir22  1  0.575635  0.137127  0.141963  1
  Pt  Pt23  1  0.141731  0.141731  0.144893  1
