# generated using pymatgen
data_KBa(LiTe2)2
_symmetry_space_group_name_H-M   'P 1'
_cell_length_a   12.48761061
_cell_length_b   12.48761071
_cell_length_c   12.48761192
_cell_angle_alpha   158.88537350
_cell_angle_beta   158.88537539
_cell_angle_gamma   30.03461174
_symmetry_Int_Tables_number   1
_chemical_formula_structural   KBa(LiTe2)2
_chemical_formula_sum   'K1 Ba1 Li2 Te4'
_cell_volume   252.55014280
_cell_formula_units_Z   1
loop_
 _symmetry_equiv_pos_site_id
 _symmetry_equiv_pos_as_xyz
  1  'x, y, z'
loop_
 _atom_site_type_symbol
 _atom_site_label
 _atom_site_symmetry_multiplicity
 _atom_site_fract_x
 _atom_site_fract_y
 _atom_site_fract_z
 _atom_site_occupancy
  K  K0  1  0.879022  0.879022  0.000000  1
  Ba  Ba1  1  0.120343  0.120343  0.000000  1
  Li  Li2  1  0.251668  0.751668  0.500000  1
  Li  Li3  1  0.751668  0.251668  0.500000  1
  Te  Te4  1  0.504108  0.004108  0.500000  1
  Te  Te5  1  0.004108  0.504108  0.500000  1
  Te  Te6  1  0.310994  0.310994  0.000000  1
  Te  Te7  1  0.678088  0.678088  0.000000  1
