# generated using pymatgen
data_Dy8Hf11Si16Pt
_symmetry_space_group_name_H-M   'P 1'
_cell_length_a   7.27334216
_cell_length_b   7.27334311
_cell_length_c   13.21378792
_cell_angle_alpha   89.73706140
_cell_angle_beta   90.26293888
_cell_angle_gamma   89.83418947
_symmetry_Int_Tables_number   1
_chemical_formula_structural   Dy8Hf11Si16Pt
_chemical_formula_sum   'Dy8 Hf11 Si16 Pt1'
_cell_volume   699.01168298
_cell_formula_units_Z   1
loop_
 _symmetry_equiv_pos_site_id
 _symmetry_equiv_pos_as_xyz
  1  'x, y, z'
loop_
 _atom_site_type_symbol
 _atom_site_label
 _atom_site_symmetry_multiplicity
 _atom_site_fract_x
 _atom_site_fract_y
 _atom_site_fract_z
 _atom_site_occupancy
  Dy  Dy0  1  0.994770  0.655846  0.035224  1
  Dy  Dy1  1  0.000328  0.349030  0.532595  1
  Dy  Dy2  1  0.655846  0.994770  0.964776  1
  Dy  Dy3  1  0.153495  0.505374  0.782595  1
  Dy  Dy4  1  0.845992  0.497977  0.289566  1
  Dy  Dy5  1  0.505374  0.153495  0.217405  1
  Dy  Dy6  1  0.497977  0.845992  0.710434  1
  Dy  Dy7  1  0.349030  0.000328  0.467405  1
  Hf  Hf8  1  0.355974  0.502909  0.379092  1
  Hf  Hf9  1  0.855311  0.993460  0.378139  1
  Hf  Hf10  1  0.003250  0.146531  0.126492  1
  Hf  Hf11  1  0.993460  0.855311  0.621861  1
  Hf  Hf12  1  0.502909  0.355974  0.620908  1
  Hf  Hf13  1  0.146531  0.003250  0.873508  1
  Hf  Hf14  1  0.822302  0.177285  0.748331  1
  Hf  Hf15  1  0.177285  0.822302  0.251669  1
  Hf  Hf16  1  0.324923  0.324923  0.000000  1
  Hf  Hf17  1  0.497016  0.645308  0.127523  1
  Hf  Hf18  1  0.645308  0.497016  0.872477  1
  Si  Si19  1  0.061713  0.709146  0.436362  1
  Si  Si20  1  0.950164  0.296463  0.934967  1
  Si  Si21  1  0.709146  0.061713  0.563638  1
  Si  Si22  1  0.204206  0.449842  0.186846  1
  Si  Si23  1  0.792037  0.556884  0.683297  1
  Si  Si24  1  0.449842  0.204206  0.813154  1
  Si  Si25  1  0.556884  0.792037  0.316703  1
  Si  Si26  1  0.296463  0.950164  0.065033  1
  Si  Si27  1  0.796018  0.858948  0.184669  1
  Si  Si28  1  0.281138  0.634464  0.571176  1
  Si  Si29  1  0.707317  0.361124  0.068394  1
  Si  Si30  1  0.634464  0.281138  0.428824  1
  Si  Si31  1  0.361124  0.707317  0.931606  1
  Si  Si32  1  0.140297  0.204913  0.319872  1
  Si  Si33  1  0.204913  0.140297  0.680128  1
  Si  Si34  1  0.858948  0.796018  0.815331  1
  Pt  Pt35  1  0.668239  0.668239  0.500000  1
