# generated using pymatgen
data_Tb4Pr15NdIr12
_symmetry_space_group_name_H-M   'P 1'
_cell_length_a   11.27530012
_cell_length_b   11.27381304
_cell_length_c   6.56764709
_cell_angle_alpha   90.00991533
_cell_angle_beta   89.98353114
_cell_angle_gamma   89.99863877
_symmetry_Int_Tables_number   1
_chemical_formula_structural   Tb4Pr15NdIr12
_chemical_formula_sum   'Tb4 Pr15 Nd1 Ir12'
_cell_volume   834.85052116
_cell_formula_units_Z   1
loop_
 _symmetry_equiv_pos_site_id
 _symmetry_equiv_pos_as_xyz
  1  'x, y, z'
loop_
 _atom_site_type_symbol
 _atom_site_label
 _atom_site_symmetry_multiplicity
 _atom_site_fract_x
 _atom_site_fract_y
 _atom_site_fract_z
 _atom_site_occupancy
  Tb  Tb0  1  0.000002  0.000044  0.499946  1
  Tb  Tb1  1  0.000112  0.000268  0.000159  1
  Tb  Tb2  1  0.499991  0.499963  0.000054  1
  Tb  Tb3  1  0.500001  0.499998  0.500001  1
  Pr  Pr4  1  0.289257  0.088459  0.380719  1
  Pr  Pr5  1  0.289354  0.911734  0.880921  1
  Pr  Pr6  1  0.710644  0.088310  0.880954  1
  Pr  Pr7  1  0.710629  0.911691  0.380915  1
  Pr  Pr8  1  0.588318  0.789364  0.880898  1
  Pr  Pr9  1  0.588303  0.210612  0.380937  1
  Pr  Pr10  1  0.411697  0.789359  0.380915  1
  Pr  Pr11  1  0.411586  0.210641  0.881018  1
  Pr  Pr12  1  0.210473  0.411536  0.619075  1
  Pr  Pr13  1  0.210516  0.588047  0.119064  1
  Pr  Pr14  1  0.789616  0.411633  0.119110  1
  Pr  Pr15  1  0.789370  0.588286  0.619076  1
  Pr  Pr16  1  0.911727  0.710593  0.119090  1
  Pr  Pr17  1  0.911896  0.289372  0.619024  1
  Pr  Pr18  1  0.088286  0.710649  0.619084  1
  Nd  Nd19  1  0.088110  0.289853  0.118518  1
  Ir  Ir20  1  0.851207  0.149274  0.249778  1
  Ir  Ir21  1  0.850875  0.850865  0.749983  1
  Ir  Ir22  1  0.148990  0.149386  0.750806  1
  Ir  Ir23  1  0.149127  0.850893  0.250030  1
  Ir  Ir24  1  0.649102  0.350896  0.749980  1
  Ir  Ir25  1  0.649100  0.649119  0.250005  1
  Ir  Ir26  1  0.350512  0.350770  0.249843  1
  Ir  Ir27  1  0.350886  0.649113  0.750022  1
  Ir  Ir28  1  0.499976  0.000012  0.119205  1
  Ir  Ir29  1  0.500024  0.999985  0.619227  1
  Ir  Ir30  1  0.000184  0.499560  0.881195  1
  Ir  Ir31  1  0.000131  0.499713  0.380450  1
