# generated using pymatgen
data_Tb3Dy(LuTe3)4
_symmetry_space_group_name_H-M   'P 1'
_cell_length_a   14.30483929
_cell_length_b   13.63790252
_cell_length_c   7.53950288
_cell_angle_alpha   79.29249189
_cell_angle_beta   69.51718590
_cell_angle_gamma   31.15789595
_symmetry_Int_Tables_number   1
_chemical_formula_structural   Tb3Dy(LuTe3)4
_chemical_formula_sum   'Tb3 Dy1 Lu4 Te12'
_cell_volume   693.03351488
_cell_formula_units_Z   1
loop_
 _symmetry_equiv_pos_site_id
 _symmetry_equiv_pos_as_xyz
  1  'x, y, z'
loop_
 _atom_site_type_symbol
 _atom_site_label
 _atom_site_symmetry_multiplicity
 _atom_site_fract_x
 _atom_site_fract_y
 _atom_site_fract_z
 _atom_site_occupancy
  Tb  Tb0  1  0.999313  0.999313  0.500687  1
  Tb  Tb1  1  0.500713  0.500713  0.999287  1
  Tb  Tb2  1  0.250673  0.250673  0.749327  1
  Dy  Dy3  1  0.749365  0.749365  0.250635  1
  Lu  Lu4  1  0.332515  0.332515  0.167485  1
  Lu  Lu5  1  0.167508  0.167508  0.332492  1
  Lu  Lu6  1  0.917430  0.917430  0.082570  1
  Lu  Lu7  1  0.082673  0.082673  0.917327  1
  Te  Te8  1  0.001346  0.498624  0.498052  1
  Te  Te9  1  0.498624  0.001346  0.001978  1
  Te  Te10  1  0.248097  0.751966  0.751673  1
  Te  Te11  1  0.751966  0.248097  0.248264  1
  Te  Te12  1  0.665911  0.164935  0.839201  1
  Te  Te13  1  0.839229  0.329948  0.666078  1
  Te  Te14  1  0.329948  0.839229  0.164745  1
  Te  Te15  1  0.164935  0.665911  0.329953  1
  Te  Te16  1  0.584558  0.084004  0.410444  1
  Te  Te17  1  0.411516  0.919678  0.583293  1
  Te  Te18  1  0.919678  0.411516  0.085513  1
  Te  Te19  1  0.084004  0.584558  0.920996  1
