# generated using pymatgen
data_Li2CeHoPt2
_symmetry_space_group_name_H-M   'P 1'
_cell_length_a   4.02779900
_cell_length_b   7.08214000
_cell_length_c   8.50140400
_cell_angle_alpha   90.00000000
_cell_angle_beta   90.00000000
_cell_angle_gamma   90.00000000
_symmetry_Int_Tables_number   1
_chemical_formula_structural   Li2CeHoPt2
_chemical_formula_sum   'Li4 Ce2 Ho2 Pt4'
_cell_volume   242.50625920
_cell_formula_units_Z   2
loop_
 _symmetry_equiv_pos_site_id
 _symmetry_equiv_pos_as_xyz
  1  'x, y, z'
loop_
 _atom_site_type_symbol
 _atom_site_label
 _atom_site_symmetry_multiplicity
 _atom_site_fract_x
 _atom_site_fract_y
 _atom_site_fract_z
 _atom_site_occupancy
  Li  Li0  1  0.250000  0.374206  0.549721  1
  Li  Li1  1  0.250000  0.874206  0.950279  1
  Li  Li2  1  0.750000  0.625807  0.440285  1
  Li  Li3  1  0.750000  0.125807  0.059715  1
  Ce  Ce4  1  0.750000  0.048823  0.683552  1
  Ce  Ce5  1  0.750000  0.548823  0.816448  1
  Ho  Ho6  1  0.250000  0.949057  0.313937  1
  Ho  Ho7  1  0.250000  0.449057  0.186063  1
  Pt  Pt8  1  0.250000  0.260067  0.873279  1
  Pt  Pt9  1  0.250000  0.760067  0.626721  1
  Pt  Pt10  1  0.750000  0.742039  0.126957  1
  Pt  Pt11  1  0.750000  0.242039  0.373043  1
