# generated using pymatgen
data_K3Ta(SO)2
_symmetry_space_group_name_H-M   'P 1'
_cell_length_a   7.49576600
_cell_length_b   10.90846849
_cell_length_c   12.16108814
_cell_angle_alpha   57.86949358
_cell_angle_beta   90.00000000
_cell_angle_gamma   90.00000000
_symmetry_Int_Tables_number   1
_chemical_formula_structural   K3Ta(SO)2
_chemical_formula_sum   'K12 Ta4 S8 O8'
_cell_volume   842.07935340
_cell_formula_units_Z   4
loop_
 _symmetry_equiv_pos_site_id
 _symmetry_equiv_pos_as_xyz
  1  'x, y, z'
loop_
 _atom_site_type_symbol
 _atom_site_label
 _atom_site_symmetry_multiplicity
 _atom_site_fract_x
 _atom_site_fract_y
 _atom_site_fract_z
 _atom_site_occupancy
  K  K0  1  0.740606  0.063225  0.883553  1
  K  K1  1  0.861356  0.515035  0.162740  1
  K  K2  1  0.259394  0.936775  0.116447  1
  K  K3  1  0.759394  0.063225  0.383553  1
  K  K4  1  0.138644  0.484965  0.837260  1
  K  K5  1  0.726649  0.765715  0.793412  1
  K  K6  1  0.361356  0.484965  0.337260  1
  K  K7  1  0.226649  0.234285  0.706588  1
  K  K8  1  0.273351  0.234285  0.206588  1
  K  K9  1  0.773351  0.765715  0.293412  1
  K  K10  1  0.240606  0.936775  0.616447  1
  K  K11  1  0.638644  0.515035  0.662740  1
  Ta  Ta12  1  0.700601  0.302199  0.028700  1
  Ta  Ta13  1  0.799399  0.302199  0.528700  1
  Ta  Ta14  1  0.299399  0.697801  0.971300  1
  Ta  Ta15  1  0.200601  0.697801  0.471300  1
  S  S16  1  0.456924  0.246946  0.940668  1
  S  S17  1  0.573761  0.127793  0.597492  1
  S  S18  1  0.956924  0.753054  0.559332  1
  S  S19  1  0.543076  0.753054  0.059332  1
  S  S20  1  0.043076  0.246946  0.440668  1
  S  S21  1  0.073761  0.872207  0.902508  1
  S  S22  1  0.426239  0.872207  0.402508  1
  S  S23  1  0.926239  0.127793  0.097492  1
  O  O24  1  0.293176  0.519882  0.589781  1
  O  O25  1  0.629080  0.305062  0.170834  1
  O  O26  1  0.793176  0.480118  0.910219  1
  O  O27  1  0.206824  0.519882  0.089781  1
  O  O28  1  0.870920  0.305062  0.670834  1
  O  O29  1  0.706824  0.480118  0.410219  1
  O  O30  1  0.129080  0.694938  0.329166  1
  O  O31  1  0.370920  0.694938  0.829166  1
