# generated using pymatgen
data_Nd8MgCdPdRu
_symmetry_space_group_name_H-M   'P 1'
_cell_length_a   9.99808437
_cell_length_b   9.99808411
_cell_length_c   10.05727400
_cell_angle_alpha   59.80396992
_cell_angle_beta   59.80397078
_cell_angle_gamma   59.77848065
_symmetry_Int_Tables_number   1
_chemical_formula_structural   Nd8MgCdPdRu
_chemical_formula_sum   'Nd16 Mg2 Cd2 Pd2 Ru2'
_cell_volume   707.58344448
_cell_formula_units_Z   2
loop_
 _symmetry_equiv_pos_site_id
 _symmetry_equiv_pos_as_xyz
  1  'x, y, z'
loop_
 _atom_site_type_symbol
 _atom_site_label
 _atom_site_symmetry_multiplicity
 _atom_site_fract_x
 _atom_site_fract_y
 _atom_site_fract_z
 _atom_site_occupancy
  Nd  Nd0  1  0.346951  0.346951  0.357101  1
  Nd  Nd1  1  0.346951  0.346951  0.948997  1
  Nd  Nd2  1  0.342470  0.958294  0.349618  1
  Nd  Nd3  1  0.958294  0.342470  0.349618  1
  Nd  Nd4  1  0.817008  0.188716  0.189783  1
  Nd  Nd5  1  0.188716  0.817008  0.804492  1
  Nd  Nd6  1  0.188716  0.817008  0.189783  1
  Nd  Nd7  1  0.817008  0.188716  0.804492  1
  Nd  Nd8  1  0.189590  0.189590  0.810410  1
  Nd  Nd9  1  0.809676  0.809676  0.190324  1
  Nd  Nd10  1  0.937298  0.559322  0.566327  1
  Nd  Nd11  1  0.559322  0.937298  0.937052  1
  Nd  Nd12  1  0.559322  0.937298  0.566327  1
  Nd  Nd13  1  0.937298  0.559322  0.937052  1
  Nd  Nd14  1  0.563257  0.563257  0.936743  1
  Nd  Nd15  1  0.937749  0.937749  0.562251  1
  Mg  Mg16  1  0.576424  0.576424  0.578851  1
  Mg  Mg17  1  0.576424  0.576424  0.268301  1
  Cd  Cd18  1  0.582034  0.257469  0.580249  1
  Cd  Cd19  1  0.257469  0.582034  0.580249  1
  Pd  Pd20  1  0.147232  0.572592  0.140088  1
  Pd  Pd21  1  0.572592  0.147232  0.140088  1
  Ru  Ru22  1  0.144099  0.144099  0.137048  1
  Ru  Ru23  1  0.144099  0.144099  0.574753  1
