# generated using pymatgen
data_Yb5V3ClO12
_symmetry_space_group_name_H-M   'P 1'
_cell_length_a   6.75937100
_cell_length_b   10.20350478
_cell_length_c   10.20350600
_cell_angle_alpha   59.99999606
_cell_angle_beta   90.00000000
_cell_angle_gamma   90.00000000
_symmetry_Int_Tables_number   1
_chemical_formula_structural   Yb5V3ClO12
_chemical_formula_sum   'Yb10 V6 Cl2 O24'
_cell_volume   609.44665148
_cell_formula_units_Z   2
loop_
 _symmetry_equiv_pos_site_id
 _symmetry_equiv_pos_as_xyz
  1  'x, y, z'
loop_
 _atom_site_type_symbol
 _atom_site_label
 _atom_site_symmetry_multiplicity
 _atom_site_fract_x
 _atom_site_fract_y
 _atom_site_fract_z
 _atom_site_occupancy
  Yb  Yb0  1  0.250000  0.720287  0.030970  1
  Yb  Yb1  1  0.250000  0.030970  0.248742  1
  Yb  Yb2  1  0.750000  0.751258  0.279713  1
  Yb  Yb3  1  0.505424  0.333333  0.333334  1
  Yb  Yb4  1  0.994577  0.333333  0.333334  1
  Yb  Yb5  1  0.005423  0.666667  0.666667  1
  Yb  Yb6  1  0.494576  0.666667  0.666667  1
  Yb  Yb7  1  0.250000  0.248743  0.720287  1
  Yb  Yb8  1  0.750000  0.969030  0.751258  1
  Yb  Yb9  1  0.750000  0.279713  0.969030  1
  V  V10  1  0.250000  0.378761  0.033687  1
  V  V11  1  0.250000  0.587552  0.378761  1
  V  V12  1  0.750000  0.966313  0.412448  1
  V  V13  1  0.250000  0.033687  0.587552  1
  V  V14  1  0.750000  0.412448  0.621239  1
  V  V15  1  0.750000  0.621239  0.966313  1
  Cl  Cl16  1  0.250000  0.000000  0.000000  1
  Cl  Cl17  1  0.750000  0.000000  0.000000  1
  O  O18  1  0.047269  0.257937  0.092034  1
  O  O19  1  0.452731  0.257937  0.092034  1
  O  O20  1  0.250000  0.462614  0.148429  1
  O  O21  1  0.750000  0.483057  0.155629  1
  O  O22  1  0.047269  0.650030  0.257938  1
  O  O23  1  0.452731  0.650030  0.257938  1
  O  O24  1  0.547269  0.907967  0.349970  1
  O  O25  1  0.952731  0.907967  0.349970  1
  O  O26  1  0.750000  0.155629  0.361313  1
  O  O27  1  0.250000  0.148429  0.388956  1
  O  O28  1  0.250000  0.388957  0.462615  1
  O  O29  1  0.750000  0.361314  0.483057  1
  O  O30  1  0.250000  0.638687  0.516942  1
  O  O31  1  0.750000  0.611044  0.537386  1
  O  O32  1  0.750000  0.851571  0.611043  1
  O  O33  1  0.250000  0.844372  0.638686  1
  O  O34  1  0.047269  0.092033  0.650029  1
  O  O35  1  0.452731  0.092033  0.650029  1
  O  O36  1  0.547269  0.349971  0.742063  1
  O  O37  1  0.952731  0.349971  0.742063  1
  O  O38  1  0.250000  0.516943  0.844371  1
  O  O39  1  0.750000  0.537386  0.851571  1
  O  O40  1  0.547269  0.742063  0.907967  1
  O  O41  1  0.952731  0.742063  0.907967  1
