# generated using pymatgen
data_Mn2AlV16Si12Tc
_symmetry_space_group_name_H-M   'P 1'
_cell_length_a   7.02383844
_cell_length_b   7.02607419
_cell_length_c   13.24626521
_cell_angle_alpha   90.01783056
_cell_angle_beta   89.98587980
_cell_angle_gamma   140.75341651
_symmetry_Int_Tables_number   1
_chemical_formula_structural   Mn2AlV16Si12Tc
_chemical_formula_sum   'Mn2 Al1 V16 Si12 Tc1'
_cell_volume   413.57136775
_cell_formula_units_Z   1
loop_
 _symmetry_equiv_pos_site_id
 _symmetry_equiv_pos_as_xyz
  1  'x, y, z'
loop_
 _atom_site_type_symbol
 _atom_site_label
 _atom_site_symmetry_multiplicity
 _atom_site_fract_x
 _atom_site_fract_y
 _atom_site_fract_z
 _atom_site_occupancy
  Mn  Mn0  1  0.502205  0.499421  0.501401  1
  Mn  Mn1  1  0.000652  0.000897  0.999522  1
  Al  Al2  1  0.500653  0.501512  0.999281  1
  V  V3  1  0.569143  0.925226  0.900123  1
  V  V4  1  0.421799  0.070189  0.600125  1
  V  V5  1  0.924939  0.568908  0.101117  1
  V  V6  1  0.852815  0.653613  0.675620  1
  V  V7  1  0.353629  0.154981  0.178087  1
  V  V8  1  0.652916  0.846890  0.322522  1
  V  V9  1  0.154375  0.354636  0.822533  1
  V  V10  1  0.654471  0.853955  0.675371  1
  V  V11  1  0.155625  0.355191  0.175725  1
  V  V12  1  0.850805  0.657218  0.323589  1
  V  V13  1  0.354293  0.154648  0.822567  1
  V  V14  1  0.421886  0.071304  0.400888  1
  V  V15  1  0.924861  0.570245  0.899721  1
  V  V16  1  0.070370  0.420612  0.600606  1
  V  V17  1  0.567164  0.922810  0.100007  1
  V  V18  1  0.998678  0.995964  0.501110  1
  Si  Si19  1  0.249895  0.750017  0.750040  1
  Si  Si20  1  0.749428  0.249448  0.250164  1
  Si  Si21  1  0.750260  0.250334  0.750118  1
  Si  Si22  1  0.249655  0.751636  0.250025  1
  Si  Si23  1  0.256693  0.256396  0.663378  1
  Si  Si24  1  0.765879  0.766164  0.161827  1
  Si  Si25  1  0.258276  0.256143  0.338069  1
  Si  Si26  1  0.765654  0.766512  0.836406  1
  Si  Si27  1  0.575069  0.903366  0.500043  1
  Si  Si28  1  0.071802  0.398175  0.999624  1
  Si  Si29  1  0.905391  0.576304  0.499871  1
  Si  Si30  1  0.397748  0.072931  0.000244  1
  Tc  Tc31  1  0.072970  0.424353  0.400277  1
