# generated using pymatgen
data_Ho3Mg3GaAgGe
_symmetry_space_group_name_H-M   'P 1'
_cell_length_a   7.29403500
_cell_length_b   7.29403559
_cell_length_c   4.35981300
_cell_angle_alpha   90.00000000
_cell_angle_beta   90.00000000
_cell_angle_gamma   120.00000185
_symmetry_Int_Tables_number   1
_chemical_formula_structural   Ho3Mg3GaAgGe
_chemical_formula_sum   'Ho3 Mg3 Ga1 Ag1 Ge1'
_cell_volume   200.87884685
_cell_formula_units_Z   1
loop_
 _symmetry_equiv_pos_site_id
 _symmetry_equiv_pos_as_xyz
  1  'x, y, z'
loop_
 _atom_site_type_symbol
 _atom_site_label
 _atom_site_symmetry_multiplicity
 _atom_site_fract_x
 _atom_site_fract_y
 _atom_site_fract_z
 _atom_site_occupancy
  Ho  Ho0  1  0.577984  0.001047  0.000000  1
  Ho  Ho1  1  0.998953  0.576937  0.000000  1
  Ho  Ho2  1  0.423063  0.422016  0.000000  1
  Mg  Mg3  1  0.247301  0.001250  0.500000  1
  Mg  Mg4  1  0.998750  0.246051  0.500000  1
  Mg  Mg5  1  0.753949  0.752699  0.500000  1
  Ga  Ga6  1  0.666667  0.333333  0.500000  1
  Ag  Ag7  1  0.000000  0.000000  0.000000  1
  Ge  Ge8  1  0.333333  0.666667  0.500000  1
