# generated using pymatgen
data_Ho8Er2(IrPd)3
_symmetry_space_group_name_H-M   'P 1'
_cell_length_a   11.05226177
_cell_length_b   11.03576300
_cell_length_c   6.31711245
_cell_angle_alpha   90.00000000
_cell_angle_beta   90.04296038
_cell_angle_gamma   90.00000000
_symmetry_Int_Tables_number   1
_chemical_formula_structural   Ho8Er2(IrPd)3
_chemical_formula_sum   'Ho16 Er4 Ir6 Pd6'
_cell_volume   770.49888259
_cell_formula_units_Z   2
loop_
 _symmetry_equiv_pos_site_id
 _symmetry_equiv_pos_as_xyz
  1  'x, y, z'
loop_
 _atom_site_type_symbol
 _atom_site_label
 _atom_site_symmetry_multiplicity
 _atom_site_fract_x
 _atom_site_fract_y
 _atom_site_fract_z
 _atom_site_occupancy
  Ho  Ho0  1  0.296974  0.091753  0.372949  1
  Ho  Ho1  1  0.296974  0.908247  0.872949  1
  Ho  Ho2  1  0.702433  0.086290  0.871226  1
  Ho  Ho3  1  0.702433  0.913710  0.371226  1
  Ho  Ho4  1  0.580945  0.792622  0.872515  1
  Ho  Ho5  1  0.580945  0.207378  0.372515  1
  Ho  Ho6  1  0.410753  0.793720  0.380514  1
  Ho  Ho7  1  0.410753  0.206280  0.880514  1
  Ho  Ho8  1  0.209856  0.416213  0.620786  1
  Ho  Ho9  1  0.209856  0.583787  0.120786  1
  Ho  Ho10  1  0.796818  0.412862  0.126032  1
  Ho  Ho11  1  0.796818  0.587138  0.626032  1
  Ho  Ho12  1  0.915053  0.702824  0.128073  1
  Ho  Ho13  1  0.915053  0.297176  0.628073  1
  Ho  Ho14  1  0.093387  0.702429  0.628089  1
  Ho  Ho15  1  0.093387  0.297571  0.128089  1
  Er  Er16  1  0.999842  0.999966  0.499841  1
  Er  Er17  1  0.999842  0.000034  0.999841  1
  Er  Er18  1  0.495611  0.498963  0.999894  1
  Er  Er19  1  0.495611  0.501037  0.499894  1
  Ir  Ir20  1  0.346953  0.345806  0.249969  1
  Ir  Ir21  1  0.346953  0.654194  0.749969  1
  Ir  Ir22  1  0.500740  0.999421  0.122243  1
  Ir  Ir23  1  0.500740  0.000579  0.622243  1
  Ir  Ir24  1  0.998080  0.500226  0.877794  1
  Ir  Ir25  1  0.998080  0.499774  0.377794  1
  Pd  Pd26  1  0.845738  0.153397  0.250507  1
  Pd  Pd27  1  0.845738  0.846603  0.750507  1
  Pd  Pd28  1  0.152555  0.153241  0.749535  1
  Pd  Pd29  1  0.152555  0.846759  0.249535  1
  Pd  Pd30  1  0.654262  0.346597  0.750033  1
  Pd  Pd31  1  0.654262  0.653403  0.250033  1
