# generated using pymatgen
data_LiTm9Cd3Ru
_symmetry_space_group_name_H-M   'P 1'
_cell_length_a   9.31018500
_cell_length_b   9.31018549
_cell_length_c   9.63043900
_cell_angle_alpha   90.00000000
_cell_angle_beta   90.00000000
_cell_angle_gamma   120.00000182
_symmetry_Int_Tables_number   1
_chemical_formula_structural   LiTm9Cd3Ru
_chemical_formula_sum   'Li2 Tm18 Cd6 Ru2'
_cell_volume   722.92518185
_cell_formula_units_Z   2
loop_
 _symmetry_equiv_pos_site_id
 _symmetry_equiv_pos_as_xyz
  1  'x, y, z'
loop_
 _atom_site_type_symbol
 _atom_site_label
 _atom_site_symmetry_multiplicity
 _atom_site_fract_x
 _atom_site_fract_y
 _atom_site_fract_z
 _atom_site_occupancy
  Li  Li0  1  0.000000  0.000000  0.500000  1
  Li  Li1  1  0.000000  0.000000  0.000000  1
  Tm  Tm2  1  0.208384  0.791616  0.442675  1
  Tm  Tm3  1  0.208384  0.416769  0.442675  1
  Tm  Tm4  1  0.583231  0.791616  0.442675  1
  Tm  Tm5  1  0.791616  0.208384  0.557325  1
  Tm  Tm6  1  0.791616  0.583231  0.557325  1
  Tm  Tm7  1  0.416769  0.208384  0.557325  1
  Tm  Tm8  1  0.791616  0.208384  0.942675  1
  Tm  Tm9  1  0.791616  0.583231  0.942675  1
  Tm  Tm10  1  0.416769  0.208384  0.942675  1
  Tm  Tm11  1  0.208384  0.791616  0.057325  1
  Tm  Tm12  1  0.208384  0.416769  0.057325  1
  Tm  Tm13  1  0.583231  0.791616  0.057325  1
  Tm  Tm14  1  0.542037  0.457963  0.250000  1
  Tm  Tm15  1  0.542037  0.084072  0.250000  1
  Tm  Tm16  1  0.915928  0.457963  0.250000  1
  Tm  Tm17  1  0.457963  0.542037  0.750000  1
  Tm  Tm18  1  0.457963  0.915928  0.750000  1
  Tm  Tm19  1  0.084072  0.542037  0.750000  1
  Cd  Cd20  1  0.891000  0.109000  0.250000  1
  Cd  Cd21  1  0.891000  0.782002  0.250000  1
  Cd  Cd22  1  0.217998  0.109000  0.250000  1
  Cd  Cd23  1  0.109000  0.891000  0.750000  1
  Cd  Cd24  1  0.109000  0.217998  0.750000  1
  Cd  Cd25  1  0.782002  0.891000  0.750000  1
  Ru  Ru26  1  0.333333  0.666667  0.250000  1
  Ru  Ru27  1  0.666667  0.333333  0.750000  1
