# generated using pymatgen
data_Be7Fe2Si
_symmetry_space_group_name_H-M   'P 1'
_cell_length_a   4.45965364
_cell_length_b   4.21969846
_cell_length_c   5.64223147
_cell_angle_alpha   104.97545507
_cell_angle_beta   90.10654728
_cell_angle_gamma   121.85359731
_symmetry_Int_Tables_number   1
_chemical_formula_structural   Be7Fe2Si
_chemical_formula_sum   'Be7 Fe2 Si1'
_cell_volume   85.87904087
_cell_formula_units_Z   1
loop_
 _symmetry_equiv_pos_site_id
 _symmetry_equiv_pos_as_xyz
  1  'x, y, z'
loop_
 _atom_site_type_symbol
 _atom_site_label
 _atom_site_symmetry_multiplicity
 _atom_site_fract_x
 _atom_site_fract_y
 _atom_site_fract_z
 _atom_site_occupancy
  Be  Be0  1  0.375115  0.890082  0.581443  1
  Be  Be1  1  0.734999  0.066364  0.937203  1
  Be  Be2  1  0.807293  0.260791  0.342175  1
  Be  Be3  1  0.392369  0.469859  0.767822  1
  Be  Be4  1  0.221512  0.046060  0.928688  1
  Be  Be5  1  0.746450  0.625424  0.108120  1
  Be  Be6  1  0.891573  0.457674  0.747073  1
  Fe  Fe7  1  0.269751  0.675147  0.158390  1
  Fe  Fe8  1  0.851449  0.848347  0.533437  1
  Si  Si9  1  0.305536  0.260971  0.347910  1
