# generated using pymatgen
data_YEr19(Bi2Os)4
_symmetry_space_group_name_H-M   'P 1'
_cell_length_a   7.91210917
_cell_length_b   9.00212300
_cell_length_c   12.46708826
_cell_angle_alpha   90.00000000
_cell_angle_beta   90.02343530
_cell_angle_gamma   90.00000000
_symmetry_Int_Tables_number   1
_chemical_formula_structural   YEr19(Bi2Os)4
_chemical_formula_sum   'Y1 Er19 Bi8 Os4'
_cell_volume   887.97801013
_cell_formula_units_Z   1
loop_
 _symmetry_equiv_pos_site_id
 _symmetry_equiv_pos_as_xyz
  1  'x, y, z'
loop_
 _atom_site_type_symbol
 _atom_site_label
 _atom_site_symmetry_multiplicity
 _atom_site_fract_x
 _atom_site_fract_y
 _atom_site_fract_z
 _atom_site_occupancy
  Y  Y0  1  0.663715  0.750000  0.710245  1
  Er  Er1  1  0.337113  0.250000  0.291418  1
  Er  Er2  1  0.162739  0.250000  0.791422  1
  Er  Er3  1  0.837032  0.750000  0.208656  1
  Er  Er4  1  0.128000  0.750000  0.811924  1
  Er  Er5  1  0.872489  0.250000  0.188199  1
  Er  Er6  1  0.627588  0.250000  0.688195  1
  Er  Er7  1  0.372069  0.750000  0.311505  1
  Er  Er8  1  0.558109  0.750000  0.995647  1
  Er  Er9  1  0.441427  0.250000  0.004914  1
  Er  Er10  1  0.058455  0.250000  0.504566  1
  Er  Er11  1  0.942072  0.750000  0.494847  1
  Er  Er12  1  0.828497  0.458412  0.934059  1
  Er  Er13  1  0.171595  0.541440  0.066085  1
  Er  Er14  1  0.328135  0.541210  0.565488  1
  Er  Er15  1  0.171595  0.958560  0.066085  1
  Er  Er16  1  0.671534  0.458475  0.433868  1
  Er  Er17  1  0.828497  0.041588  0.934059  1
  Er  Er18  1  0.671534  0.041525  0.433868  1
  Er  Er19  1  0.328135  0.958790  0.565488  1
  Bi  Bi20  1  0.937956  0.006083  0.672172  1
  Bi  Bi21  1  0.062741  0.994475  0.327582  1
  Bi  Bi22  1  0.436384  0.995066  0.828039  1
  Bi  Bi23  1  0.062741  0.505525  0.327582  1
  Bi  Bi24  1  0.562949  0.005674  0.172451  1
  Bi  Bi25  1  0.937956  0.493917  0.672172  1
  Bi  Bi26  1  0.562949  0.494326  0.172451  1
  Bi  Bi27  1  0.436384  0.504934  0.828039  1
  Os  Os28  1  0.925256  0.750000  0.991424  1
  Os  Os29  1  0.074621  0.250000  0.008537  1
  Os  Os30  1  0.425303  0.250000  0.508484  1
  Os  Os31  1  0.574428  0.750000  0.490528  1
