# generated using pymatgen
data_Dy4WI4
_symmetry_space_group_name_H-M   'P 1'
_cell_length_a   11.38136751
_cell_length_b   11.38136756
_cell_length_c   5.95368093
_cell_angle_alpha   90.41839207
_cell_angle_beta   90.41838812
_cell_angle_gamma   90.00590488
_symmetry_Int_Tables_number   1
_chemical_formula_structural   Dy4WI4
_chemical_formula_sum   'Dy8 W2 I8'
_cell_volume   771.17206468
_cell_formula_units_Z   2
loop_
 _symmetry_equiv_pos_site_id
 _symmetry_equiv_pos_as_xyz
  1  'x, y, z'
loop_
 _atom_site_type_symbol
 _atom_site_label
 _atom_site_symmetry_multiplicity
 _atom_site_fract_x
 _atom_site_fract_y
 _atom_site_fract_z
 _atom_site_occupancy
  Dy  Dy0  1  0.207318  0.915083  0.002711  1
  Dy  Dy1  1  0.792682  0.084917  0.997289  1
  Dy  Dy2  1  0.084917  0.792682  0.497289  1
  Dy  Dy3  1  0.915083  0.207318  0.502711  1
  Dy  Dy4  1  0.792672  0.915102  0.496312  1
  Dy  Dy5  1  0.207328  0.084898  0.503688  1
  Dy  Dy6  1  0.084898  0.207328  0.003688  1
  Dy  Dy7  1  0.915102  0.792672  0.996312  1
  W  W8  1  0.999792  0.000208  0.250000  1
  W  W9  1  0.000208  0.999792  0.750000  1
  I  I10  1  0.359288  0.848527  0.494900  1
  I  I11  1  0.640712  0.151473  0.505100  1
  I  I12  1  0.151473  0.640712  0.005100  1
  I  I13  1  0.848527  0.359288  0.994900  1
  I  I14  1  0.359125  0.151720  0.013390  1
  I  I15  1  0.640875  0.848280  0.986610  1
  I  I16  1  0.848280  0.640875  0.486610  1
  I  I17  1  0.151720  0.359125  0.513390  1
