# generated using pymatgen
data_PrGdDy4Ta2O14
_symmetry_space_group_name_H-M   'P 1'
_cell_length_a   6.42146485
_cell_length_b   6.56531739
_cell_length_c   7.65197395
_cell_angle_alpha   106.49536649
_cell_angle_beta   89.68937461
_cell_angle_gamma   97.42804204
_symmetry_Int_Tables_number   1
_chemical_formula_structural   PrGdDy4Ta2O14
_chemical_formula_sum   'Pr1 Gd1 Dy4 Ta2 O14'
_cell_volume   306.55998288
_cell_formula_units_Z   1
loop_
 _symmetry_equiv_pos_site_id
 _symmetry_equiv_pos_as_xyz
  1  'x, y, z'
loop_
 _atom_site_type_symbol
 _atom_site_label
 _atom_site_symmetry_multiplicity
 _atom_site_fract_x
 _atom_site_fract_y
 _atom_site_fract_z
 _atom_site_occupancy
  Pr  Pr0  1  0.740586  0.465437  0.118616  1
  Gd  Gd1  1  0.262103  0.537348  0.881825  1
  Dy  Dy2  1  0.733149  0.450456  0.605932  1
  Dy  Dy3  1  0.547361  0.993043  0.750291  1
  Dy  Dy4  1  0.451308  0.007409  0.250507  1
  Dy  Dy5  1  0.266986  0.554109  0.400613  1
  Ta  Ta6  1  0.002488  0.999734  0.998106  1
  Ta  Ta7  1  0.000906  0.002923  0.501691  1
  O  O8  1  0.709386  0.064543  0.479400  1
  O  O9  1  0.925068  0.676348  0.927620  1
  O  O10  1  0.709218  0.063547  0.052826  1
  O  O11  1  0.928199  0.670900  0.412433  1
  O  O12  1  0.915763  0.979748  0.743850  1
  O  O13  1  0.554463  0.343847  0.827581  1
  O  O14  1  0.530834  0.357931  0.347190  1
  O  O15  1  0.464705  0.643468  0.659451  1
  O  O16  1  0.431972  0.655210  0.168872  1
  O  O17  1  0.079045  0.019825  0.255104  1
  O  O18  1  0.075747  0.328247  0.594561  1
  O  O19  1  0.294758  0.933515  0.949995  1
  O  O20  1  0.083673  0.316911  0.053953  1
  O  O21  1  0.292281  0.935501  0.519582  1
