# generated using pymatgen
data_Eu5P3H
_symmetry_space_group_name_H-M   'P 1'
_cell_length_a   6.68542700
_cell_length_b   8.55367935
_cell_length_c   8.55368000
_cell_angle_alpha   119.99999479
_cell_angle_beta   90.00000000
_cell_angle_gamma   90.00000000
_symmetry_Int_Tables_number   1
_chemical_formula_structural   Eu5P3H
_chemical_formula_sum   'Eu10 P6 H2'
_cell_volume   423.60957710
_cell_formula_units_Z   2
loop_
 _symmetry_equiv_pos_site_id
 _symmetry_equiv_pos_as_xyz
  1  'x, y, z'
loop_
 _atom_site_type_symbol
 _atom_site_label
 _atom_site_symmetry_multiplicity
 _atom_site_fract_x
 _atom_site_fract_y
 _atom_site_fract_z
 _atom_site_occupancy
  Eu  Eu0  1  0.500000  0.333333  0.666667  1
  Eu  Eu1  1  0.500000  0.666666  0.333333  1
  Eu  Eu2  1  0.000000  0.666667  0.333333  1
  Eu  Eu3  1  0.000000  0.333334  0.666667  1
  Eu  Eu4  1  0.750000  0.249746  0.000000  1
  Eu  Eu5  1  0.750000  0.750254  0.750254  1
  Eu  Eu6  1  0.750000  0.000000  0.249746  1
  Eu  Eu7  1  0.250000  0.750254  0.000000  1
  Eu  Eu8  1  0.250000  0.249746  0.249746  1
  Eu  Eu9  1  0.250000  0.000000  0.750254  1
  P  P10  1  0.750000  0.607812  0.000000  1
  P  P11  1  0.750000  0.392188  0.392188  1
  P  P12  1  0.750000  0.000000  0.607812  1
  P  P13  1  0.250000  0.392188  0.000000  1
  P  P14  1  0.250000  0.607812  0.607812  1
  P  P15  1  0.250000  0.000000  0.392188  1
  H  H16  1  0.500000  0.000000  0.000000  1
  H  H17  1  0.000000  0.000000  0.000000  1
