# generated using pymatgen
data_AuF17
_symmetry_space_group_name_H-M   'P 1'
_cell_length_a   8.72600728
_cell_length_b   8.45748418
_cell_length_c   10.05252944
_cell_angle_alpha   83.06847467
_cell_angle_beta   88.55321615
_cell_angle_gamma   67.97424912
_symmetry_Int_Tables_number   1
_chemical_formula_structural   AuF17
_chemical_formula_sum   'Au2 F34'
_cell_volume   682.54374380
_cell_formula_units_Z   2
loop_
 _symmetry_equiv_pos_site_id
 _symmetry_equiv_pos_as_xyz
  1  'x, y, z'
loop_
 _atom_site_type_symbol
 _atom_site_label
 _atom_site_symmetry_multiplicity
 _atom_site_fract_x
 _atom_site_fract_y
 _atom_site_fract_z
 _atom_site_occupancy
  Au  Au0  1  0.863348  0.249392  0.760220  1
  Au  Au1  1  0.136652  0.750608  0.239780  1
  F  F2  1  0.600920  0.198431  0.496445  1
  F  F3  1  0.399080  0.801569  0.503555  1
  F  F4  1  0.824774  0.688228  0.725673  1
  F  F5  1  0.175226  0.311772  0.274327  1
  F  F6  1  0.081073  0.782194  0.862376  1
  F  F7  1  0.918927  0.217806  0.137624  1
  F  F8  1  0.554460  0.145010  0.378816  1
  F  F9  1  0.445540  0.854990  0.621184  1
  F  F10  1  0.638236  0.320530  0.692707  1
  F  F11  1  0.361764  0.679470  0.307293  1
  F  F12  1  0.934310  0.060366  0.653329  1
  F  F13  1  0.065690  0.939634  0.346671  1
  F  F14  1  0.907466  0.391145  0.610978  1
  F  F15  1  0.092534  0.608855  0.389022  1
  F  F16  1  0.850237  0.801377  0.618662  1
  F  F17  1  0.149763  0.198623  0.381338  1
  F  F18  1  0.794808  0.440944  0.865348  1
  F  F19  1  0.205192  0.559056  0.134652  1
  F  F20  1  0.205856  0.692589  0.775638  1
  F  F21  1  0.794144  0.307411  0.224362  1
  F  F22  1  0.913721  0.820906  0.169217  1
  F  F23  1  0.086279  0.179094  0.830783  1
  F  F24  1  0.816839  0.107272  0.908390  1
  F  F25  1  0.183161  0.892728  0.091610  1
  F  F26  1  0.474392  0.589971  0.981715  1
  F  F27  1  0.525608  0.410029  0.018285  1
  F  F28  1  0.467746  0.079574  0.866285  1
  F  F29  1  0.532254  0.920426  0.133715  1
  F  F30  1  0.286608  0.233124  0.617567  1
  F  F31  1  0.713392  0.766876  0.382433  1
  F  F32  1  0.261113  0.388831  0.670977  1
  F  F33  1  0.738887  0.611169  0.329023  1
  F  F34  1  0.557760  0.907402  0.841284  1
  F  F35  1  0.442240  0.092598  0.158716  1
