# generated using pymatgen
data_CdCoBiIrO7
_symmetry_space_group_name_H-M   'P 1'
_cell_length_a   7.12944467
_cell_length_b   7.28954728
_cell_length_c   7.12944456
_cell_angle_alpha   59.25431982
_cell_angle_beta   59.12389956
_cell_angle_gamma   59.25432225
_symmetry_Int_Tables_number   1
_chemical_formula_structural   CdCoBiIrO7
_chemical_formula_sum   'Cd2 Co2 Bi2 Ir2 O14'
_cell_volume   257.28612530
_cell_formula_units_Z   2
loop_
 _symmetry_equiv_pos_site_id
 _symmetry_equiv_pos_as_xyz
  1  'x, y, z'
loop_
 _atom_site_type_symbol
 _atom_site_label
 _atom_site_symmetry_multiplicity
 _atom_site_fract_x
 _atom_site_fract_y
 _atom_site_fract_z
 _atom_site_occupancy
  Cd  Cd0  1  0.625000  0.125000  0.125000  1
  Cd  Cd1  1  0.125000  0.125000  0.625000  1
  Co  Co2  1  0.125000  0.625000  0.625000  1
  Co  Co3  1  0.625000  0.625000  0.125000  1
  Bi  Bi4  1  0.125000  0.625000  0.125000  1
  Bi  Bi5  1  0.125000  0.125000  0.125000  1
  Ir  Ir6  1  0.625000  0.125000  0.625000  1
  Ir  Ir7  1  0.625000  0.625000  0.625000  1
  O  O8  1  0.707935  0.698931  0.291445  1
  O  O9  1  0.291445  0.301689  0.707935  1
  O  O10  1  0.698970  0.301030  0.698970  1
  O  O11  1  0.298874  0.701126  0.298874  1
  O  O12  1  0.291445  0.698931  0.707935  1
  O  O13  1  0.707935  0.301689  0.291445  1
  O  O14  1  0.542065  0.551069  0.958555  1
  O  O15  1  0.958555  0.948311  0.542065  1
  O  O16  1  0.551030  0.948970  0.551030  1
  O  O17  1  0.951126  0.548874  0.951126  1
  O  O18  1  0.958555  0.551069  0.542065  1
  O  O19  1  0.542065  0.948311  0.958555  1
  O  O20  1  0.251375  0.248625  0.251375  1
  O  O21  1  0.998625  0.001375  0.998625  1
