# generated using pymatgen
data_Pa5Cu(As2Ru3)6
_symmetry_space_group_name_H-M   'P 1'
_cell_length_a   12.97904600
_cell_length_b   12.97904639
_cell_length_c   4.07151800
_cell_angle_alpha   90.00000000
_cell_angle_beta   90.00000000
_cell_angle_gamma   119.99999901
_symmetry_Int_Tables_number   1
_chemical_formula_structural   Pa5Cu(As2Ru3)6
_chemical_formula_sum   'Pa5 Cu1 As12 Ru18'
_cell_volume   593.98099756
_cell_formula_units_Z   1
loop_
 _symmetry_equiv_pos_site_id
 _symmetry_equiv_pos_as_xyz
  1  'x, y, z'
loop_
 _atom_site_type_symbol
 _atom_site_label
 _atom_site_symmetry_multiplicity
 _atom_site_fract_x
 _atom_site_fract_y
 _atom_site_fract_z
 _atom_site_occupancy
  Pa  Pa0  1  0.333333  0.666667  0.000000  1
  Pa  Pa1  1  0.666667  0.333333  0.000000  1
  Pa  Pa2  1  0.194427  0.000000  0.500000  1
  Pa  Pa3  1  0.000000  0.194427  0.500000  1
  Pa  Pa4  1  0.805573  0.805573  0.500000  1
  Cu  Cu5  1  0.000000  0.000000  0.000000  1
  As  As6  1  0.373277  0.000000  0.000000  1
  As  As7  1  0.000000  0.373277  0.000000  1
  As  As8  1  0.626723  0.626723  0.000000  1
  As  As9  1  0.309213  0.477946  0.500000  1
  As  As10  1  0.522054  0.831266  0.500000  1
  As  As11  1  0.168734  0.690787  0.500000  1
  As  As12  1  0.831266  0.522054  0.500000  1
  As  As13  1  0.690787  0.168734  0.500000  1
  As  As14  1  0.477946  0.309213  0.500000  1
  As  As15  1  0.826219  0.000000  0.000000  1
  As  As16  1  0.000000  0.826219  0.000000  1
  As  As17  1  0.173781  0.173781  0.000000  1
  Ru  Ru18  1  0.188573  0.369976  0.000000  1
  Ru  Ru19  1  0.630024  0.818598  0.000000  1
  Ru  Ru20  1  0.181402  0.811427  0.000000  1
  Ru  Ru21  1  0.818598  0.630024  0.000000  1
  Ru  Ru22  1  0.811427  0.181402  0.000000  1
  Ru  Ru23  1  0.369976  0.188573  0.000000  1
  Ru  Ru24  1  0.559418  0.000000  0.000000  1
  Ru  Ru25  1  0.000000  0.559418  0.000000  1
  Ru  Ru26  1  0.440582  0.440582  0.000000  1
  Ru  Ru27  1  0.126646  0.490048  0.500000  1
  Ru  Ru28  1  0.509952  0.636597  0.500000  1
  Ru  Ru29  1  0.363403  0.873354  0.500000  1
  Ru  Ru30  1  0.636597  0.509952  0.500000  1
  Ru  Ru31  1  0.873354  0.363403  0.500000  1
  Ru  Ru32  1  0.490048  0.126646  0.500000  1
  Ru  Ru33  1  0.721414  0.000000  0.500000  1
  Ru  Ru34  1  0.000000  0.721414  0.500000  1
  Ru  Ru35  1  0.278586  0.278586  0.500000  1
