# generated using pymatgen
data_Tb2NdY(Mo2O7)2
_symmetry_space_group_name_H-M   'P 1'
_cell_length_a   7.38128068
_cell_length_b   7.47268781
_cell_length_c   7.38181579
_cell_angle_alpha   60.25903253
_cell_angle_beta   59.65488683
_cell_angle_gamma   60.24295191
_symmetry_Int_Tables_number   1
_chemical_formula_structural   Tb2NdY(Mo2O7)2
_chemical_formula_sum   'Tb2 Nd1 Y1 Mo4 O14'
_cell_volume   288.23053332
_cell_formula_units_Z   1
loop_
 _symmetry_equiv_pos_site_id
 _symmetry_equiv_pos_as_xyz
  1  'x, y, z'
loop_
 _atom_site_type_symbol
 _atom_site_label
 _atom_site_symmetry_multiplicity
 _atom_site_fract_x
 _atom_site_fract_y
 _atom_site_fract_z
 _atom_site_occupancy
  Tb  Tb0  1  0.625000  0.125000  0.125000  1
  Tb  Tb1  1  0.125000  0.125000  0.625000  1
  Nd  Nd2  1  0.125000  0.625000  0.125000  1
  Y  Y3  1  0.125000  0.125000  0.125000  1
  Mo  Mo4  1  0.625000  0.625000  0.625000  1
  Mo  Mo5  1  0.125000  0.625000  0.625000  1
  Mo  Mo6  1  0.625000  0.625000  0.125000  1
  Mo  Mo7  1  0.625000  0.125000  0.625000  1
  O  O8  1  0.000058  0.004687  0.999986  1
  O  O9  1  0.249942  0.245313  0.250014  1
  O  O10  1  0.288168  0.286700  0.708503  1
  O  O11  1  0.543792  0.534033  0.962401  1
  O  O12  1  0.716395  0.286071  0.717066  1
  O  O13  1  0.709077  0.286661  0.288289  1
  O  O14  1  0.288075  0.715744  0.706284  1
  O  O15  1  0.287636  0.721510  0.288025  1
  O  O16  1  0.706208  0.715967  0.287599  1
  O  O17  1  0.961925  0.534256  0.543716  1
  O  O18  1  0.540923  0.963339  0.961711  1
  O  O19  1  0.961832  0.963300  0.541497  1
  O  O20  1  0.962364  0.528490  0.961975  1
  O  O21  1  0.533605  0.963929  0.532934  1
