# generated using pymatgen
data_Pr8Nd4Ir2I17
_symmetry_space_group_name_H-M   'P 1'
_cell_length_a   10.12951684
_cell_length_b   12.11807810
_cell_length_c   12.09227156
_cell_angle_alpha   93.02144443
_cell_angle_beta   104.40098915
_cell_angle_gamma   115.11461264
_symmetry_Int_Tables_number   1
_chemical_formula_structural   Pr8Nd4Ir2I17
_chemical_formula_sum   'Pr8 Nd4 Ir2 I17'
_cell_volume   1280.39902212
_cell_formula_units_Z   1
loop_
 _symmetry_equiv_pos_site_id
 _symmetry_equiv_pos_as_xyz
  1  'x, y, z'
loop_
 _atom_site_type_symbol
 _atom_site_label
 _atom_site_symmetry_multiplicity
 _atom_site_fract_x
 _atom_site_fract_y
 _atom_site_fract_z
 _atom_site_occupancy
  Pr  Pr0  1  0.213976  0.662104  0.992510  1
  Pr  Pr1  1  0.263043  0.987803  0.893521  1
  Pr  Pr2  1  0.358846  0.760778  0.715763  1
  Pr  Pr3  1  0.940060  0.485778  0.676968  1
  Pr  Pr4  1  0.736303  0.012077  0.106753  1
  Pr  Pr5  1  0.156426  0.290070  0.148696  1
  Pr  Pr6  1  0.786321  0.339000  0.007970  1
  Pr  Pr7  1  0.844420  0.710274  0.852069  1
  Nd  Nd8  1  0.058210  0.512482  0.322522  1
  Nd  Nd9  1  0.989349  0.810265  0.580518  1
  Nd  Nd10  1  0.643604  0.240025  0.283759  1
  Nd  Nd11  1  0.011170  0.189754  0.419225  1
  Ir  Ir12  1  0.102577  0.737781  0.784477  1
  Ir  Ir13  1  0.897633  0.262482  0.215618  1
  I  I14  1  0.784600  0.528139  0.417562  1
  I  I15  1  0.635160  0.416199  0.757606  1
  I  I16  1  0.845924  0.897607  0.328664  1
  I  I17  1  0.325122  0.212285  0.368956  1
  I  I18  1  0.154166  0.102777  0.671361  1
  I  I19  1  0.590720  0.055473  0.841878  1
  I  I20  1  0.753510  0.182279  0.536544  1
  I  I21  1  0.547342  0.706784  0.954867  1
  I  I22  1  0.361890  0.584123  0.244089  1
  I  I23  1  0.215903  0.471515  0.579005  1
  I  I24  1  0.058252  0.359184  0.889791  1
  I  I25  1  0.453969  0.292821  0.048055  1
  I  I26  1  0.999841  0.000226  0.000196  1
  I  I27  1  0.242099  0.814492  0.459516  1
  I  I28  1  0.410306  0.946802  0.159304  1
  I  I29  1  0.676628  0.787984  0.630405  1
  I  I30  1  0.942632  0.640636  0.111831  1
