# generated using pymatgen
data_Cs5ThF9
_symmetry_space_group_name_H-M   'P 1'
_cell_length_a   8.30072007
_cell_length_b   8.30071935
_cell_length_c   11.80265400
_cell_angle_alpha   90.00000000
_cell_angle_beta   90.00000000
_cell_angle_gamma   116.61125664
_symmetry_Int_Tables_number   1
_chemical_formula_structural   Cs5ThF9
_chemical_formula_sum   'Cs10 Th2 F18'
_cell_volume   727.07778513
_cell_formula_units_Z   2
loop_
 _symmetry_equiv_pos_site_id
 _symmetry_equiv_pos_as_xyz
  1  'x, y, z'
loop_
 _atom_site_type_symbol
 _atom_site_label
 _atom_site_symmetry_multiplicity
 _atom_site_fract_x
 _atom_site_fract_y
 _atom_site_fract_z
 _atom_site_occupancy
  Cs  Cs0  1  0.137140  0.349354  0.901094  1
  Cs  Cs1  1  0.862860  0.650646  0.401094  1
  Cs  Cs2  1  0.650646  0.862860  0.901094  1
  Cs  Cs3  1  0.349354  0.137140  0.401094  1
  Cs  Cs4  1  0.114794  0.391808  0.554739  1
  Cs  Cs5  1  0.885206  0.608192  0.054739  1
  Cs  Cs6  1  0.608192  0.885206  0.554739  1
  Cs  Cs7  1  0.391808  0.114794  0.054739  1
  Cs  Cs8  1  0.580038  0.419962  0.713007  1
  Cs  Cs9  1  0.419962  0.580038  0.213007  1
  Th  Th10  1  0.162462  0.837538  0.750071  1
  Th  Th11  1  0.837538  0.162462  0.250071  1
  F  F12  1  0.468022  0.037591  0.769840  1
  F  F13  1  0.531978  0.962409  0.269840  1
  F  F14  1  0.962409  0.531978  0.769840  1
  F  F15  1  0.037591  0.468022  0.269840  1
  F  F16  1  0.208384  0.123147  0.682919  1
  F  F17  1  0.791616  0.876853  0.182919  1
  F  F18  1  0.876853  0.791616  0.682919  1
  F  F19  1  0.123147  0.208384  0.182919  1
  F  F20  1  0.518178  0.481822  0.961609  1
  F  F21  1  0.481822  0.518178  0.461609  1
  F  F22  1  0.240060  0.759940  0.934251  1
  F  F23  1  0.759940  0.240060  0.434251  1
  F  F24  1  0.949112  0.050888  0.395170  1
  F  F25  1  0.050888  0.949112  0.895170  1
  F  F26  1  0.802989  0.197011  0.056571  1
  F  F27  1  0.197011  0.802989  0.556571  1
  F  F28  1  0.664436  0.335564  0.226639  1
  F  F29  1  0.335564  0.664436  0.726639  1
