# generated using pymatgen
data_Ho4Sc(SiHg)2
_symmetry_space_group_name_H-M   'P 1'
_cell_length_a   8.74197215
_cell_length_b   8.74197250
_cell_length_c   7.38447600
_cell_angle_alpha   90.00000000
_cell_angle_beta   90.00000000
_cell_angle_gamma   130.16289619
_symmetry_Int_Tables_number   1
_chemical_formula_structural   Ho4Sc(SiHg)2
_chemical_formula_sum   'Ho8 Sc2 Si4 Hg4'
_cell_volume   431.27416816
_cell_formula_units_Z   2
loop_
 _symmetry_equiv_pos_site_id
 _symmetry_equiv_pos_as_xyz
  1  'x, y, z'
loop_
 _atom_site_type_symbol
 _atom_site_label
 _atom_site_symmetry_multiplicity
 _atom_site_fract_x
 _atom_site_fract_y
 _atom_site_fract_z
 _atom_site_occupancy
  Ho  Ho0  1  0.055029  0.308904  0.323523  1
  Ho  Ho1  1  0.944971  0.691096  0.676477  1
  Ho  Ho2  1  0.444971  0.191096  0.823523  1
  Ho  Ho3  1  0.808904  0.555029  0.176477  1
  Ho  Ho4  1  0.555029  0.808904  0.176477  1
  Ho  Ho5  1  0.191096  0.444971  0.823523  1
  Ho  Ho6  1  0.691096  0.944971  0.676477  1
  Ho  Ho7  1  0.308904  0.055029  0.323523  1
  Sc  Sc8  1  0.000000  0.000000  0.000000  1
  Sc  Sc9  1  0.500000  0.500000  0.500000  1
  Si  Si10  1  0.378489  0.378489  0.123956  1
  Si  Si11  1  0.621511  0.621511  0.876044  1
  Si  Si12  1  0.121511  0.121511  0.623956  1
  Si  Si13  1  0.878489  0.878489  0.376044  1
  Hg  Hg14  1  0.782225  0.217775  0.000000  1
  Hg  Hg15  1  0.217775  0.782225  0.000000  1
  Hg  Hg16  1  0.717775  0.282225  0.500000  1
  Hg  Hg17  1  0.282225  0.717775  0.500000  1
