# generated using pymatgen
data_Yb3ScBiSb2
_symmetry_space_group_name_H-M   'P 1'
_cell_length_a   7.90634015
_cell_length_b   8.15480750
_cell_length_c   8.15480712
_cell_angle_alpha   110.12407831
_cell_angle_beta   108.86766224
_cell_angle_gamma   108.86766381
_symmetry_Int_Tables_number   1
_chemical_formula_structural   Yb3ScBiSb2
_chemical_formula_sum   'Yb6 Sc2 Bi2 Sb4'
_cell_volume   407.44033409
_cell_formula_units_Z   2
loop_
 _symmetry_equiv_pos_site_id
 _symmetry_equiv_pos_as_xyz
  1  'x, y, z'
loop_
 _atom_site_type_symbol
 _atom_site_label
 _atom_site_symmetry_multiplicity
 _atom_site_fract_x
 _atom_site_fract_y
 _atom_site_fract_z
 _atom_site_occupancy
  Yb  Yb0  1  0.501204  0.997447  0.646669  1
  Yb  Yb1  1  0.351701  0.354089  0.352750  1
  Yb  Yb2  1  0.501274  0.996675  0.146668  1
  Yb  Yb3  1  0.001274  0.646668  0.496675  1
  Yb  Yb4  1  0.851701  0.852750  0.854089  1
  Yb  Yb5  1  0.001204  0.146669  0.497447  1
  Sc  Sc6  1  0.142814  0.503304  0.004684  1
  Sc  Sc7  1  0.642814  0.504684  0.003304  1
  Bi  Bi8  1  0.259522  0.143671  0.881662  1
  Bi  Bi9  1  0.759522  0.381662  0.643671  1
  Sb  Sb10  1  0.378216  0.617577  0.763140  1
  Sb  Sb11  1  0.878216  0.263140  0.117577  1
  Sb  Sb12  1  0.615268  0.736869  0.354796  1
  Sb  Sb13  1  0.115268  0.854796  0.236869  1
