# generated using pymatgen
data_Nd16Cd2Hg2Os3Pt
_symmetry_space_group_name_H-M   'P 1'
_cell_length_a   9.94490815
_cell_length_b   10.00488458
_cell_length_c   10.01175187
_cell_angle_alpha   59.70544002
_cell_angle_beta   59.57670091
_cell_angle_gamma   59.59788649
_symmetry_Int_Tables_number   1
_chemical_formula_structural   Nd16Cd2Hg2Os3Pt
_chemical_formula_sum   'Nd16 Cd2 Hg2 Os3 Pt1'
_cell_volume   698.40358459
_cell_formula_units_Z   1
loop_
 _symmetry_equiv_pos_site_id
 _symmetry_equiv_pos_as_xyz
  1  'x, y, z'
loop_
 _atom_site_type_symbol
 _atom_site_label
 _atom_site_symmetry_multiplicity
 _atom_site_fract_x
 _atom_site_fract_y
 _atom_site_fract_z
 _atom_site_occupancy
  Nd  Nd0  1  0.344326  0.349931  0.349362  1
  Nd  Nd1  1  0.344748  0.350192  0.955324  1
  Nd  Nd2  1  0.345151  0.953866  0.350341  1
  Nd  Nd3  1  0.961171  0.345688  0.345759  1
  Nd  Nd4  1  0.812084  0.192369  0.192619  1
  Nd  Nd5  1  0.189763  0.808896  0.808875  1
  Nd  Nd6  1  0.191500  0.808075  0.192116  1
  Nd  Nd7  1  0.813063  0.191375  0.803528  1
  Nd  Nd8  1  0.190905  0.191309  0.808688  1
  Nd  Nd9  1  0.812750  0.802281  0.192654  1
  Nd  Nd10  1  0.937264  0.560710  0.561031  1
  Nd  Nd11  1  0.556984  0.939442  0.941604  1
  Nd  Nd12  1  0.556917  0.937924  0.565416  1
  Nd  Nd13  1  0.938614  0.559708  0.943090  1
  Nd  Nd14  1  0.556649  0.565111  0.939106  1
  Nd  Nd15  1  0.939050  0.941996  0.560400  1
  Cd  Cd16  1  0.578237  0.261609  0.579102  1
  Cd  Cd17  1  0.260299  0.578718  0.579427  1
  Hg  Hg18  1  0.582770  0.581009  0.582833  1
  Hg  Hg19  1  0.582015  0.582044  0.250756  1
  Os  Os20  1  0.142985  0.137857  0.137650  1
  Os  Os21  1  0.142716  0.137386  0.581937  1
  Os  Os22  1  0.142582  0.581794  0.137417  1
  Pt  Pt23  1  0.577460  0.140711  0.140967  1
