# generated using pymatgen
data_ErBeInF6
_symmetry_space_group_name_H-M   'P 1'
_cell_length_a   5.86094700
_cell_length_b   6.50937464
_cell_length_c   7.23151832
_cell_angle_alpha   66.31076895
_cell_angle_beta   90.00000000
_cell_angle_gamma   90.00000000
_symmetry_Int_Tables_number   1
_chemical_formula_structural   ErBeInF6
_chemical_formula_sum   'Er2 Be2 In2 F12'
_cell_volume   252.64333638
_cell_formula_units_Z   2
loop_
 _symmetry_equiv_pos_site_id
 _symmetry_equiv_pos_as_xyz
  1  'x, y, z'
loop_
 _atom_site_type_symbol
 _atom_site_label
 _atom_site_symmetry_multiplicity
 _atom_site_fract_x
 _atom_site_fract_y
 _atom_site_fract_z
 _atom_site_occupancy
  Er  Er0  1  0.250000  0.390457  0.184362  1
  Er  Er1  1  0.750000  0.609543  0.815638  1
  Be  Be2  1  0.250000  0.767674  0.464459  1
  Be  Be3  1  0.750000  0.232326  0.535541  1
  In  In4  1  0.250000  0.073998  0.802616  1
  In  In5  1  0.750000  0.926002  0.197384  1
  F  F6  1  0.464684  0.754723  0.597982  1
  F  F7  1  0.535316  0.245277  0.402018  1
  F  F8  1  0.964684  0.245277  0.402018  1
  F  F9  1  0.035316  0.754723  0.597982  1
  F  F10  1  0.250000  0.575163  0.390300  1
  F  F11  1  0.750000  0.424837  0.609700  1
  F  F12  1  0.498967  0.675850  0.028382  1
  F  F13  1  0.501033  0.324150  0.971618  1
  F  F14  1  0.998967  0.324150  0.971618  1
  F  F15  1  0.001033  0.675850  0.028382  1
  F  F16  1  0.250000  0.998812  0.273629  1
  F  F17  1  0.750000  0.001188  0.726371  1
