# generated using pymatgen
data_Ho3TmLu2(Si3Ru)8
_symmetry_space_group_name_H-M   'P 1'
_cell_length_a   10.09260681
_cell_length_b   10.09255796
_cell_length_c   8.11436108
_cell_angle_alpha   89.94723378
_cell_angle_beta   90.07024751
_cell_angle_gamma   132.63867691
_symmetry_Int_Tables_number   1
_chemical_formula_structural   Ho3TmLu2(Si3Ru)8
_chemical_formula_sum   'Ho3 Tm1 Lu2 Si24 Ru8'
_cell_volume   608.02850927
_cell_formula_units_Z   1
loop_
 _symmetry_equiv_pos_site_id
 _symmetry_equiv_pos_as_xyz
  1  'x, y, z'
loop_
 _atom_site_type_symbol
 _atom_site_label
 _atom_site_symmetry_multiplicity
 _atom_site_fract_x
 _atom_site_fract_y
 _atom_site_fract_z
 _atom_site_occupancy
  Ho  Ho0  1  0.997406  0.497321  0.250245  1
  Ho  Ho1  1  0.497362  0.997454  0.250234  1
  Ho  Ho2  1  0.002473  0.502655  0.749743  1
  Tm  Tm3  1  0.500017  0.499995  0.500072  1
  Lu  Lu4  1  0.000039  0.000038  0.999987  1
  Lu  Lu5  1  0.502558  0.002414  0.749777  1
  Si  Si6  1  0.794567  0.204890  0.500578  1
  Si  Si7  1  0.295102  0.705146  0.999446  1
  Si  Si8  1  0.205322  0.794900  0.500515  1
  Si  Si9  1  0.704737  0.294776  0.999352  1
  Si  Si10  1  0.331832  0.331888  0.833445  1
  Si  Si11  1  0.668168  0.668177  0.166643  1
  Si  Si12  1  0.167517  0.167463  0.332909  1
  Si  Si13  1  0.832555  0.832519  0.667002  1
  Si  Si14  1  0.121660  0.887278  0.728515  1
  Si  Si15  1  0.112236  0.877552  0.271075  1
  Si  Si16  1  0.612550  0.378109  0.229101  1
  Si  Si17  1  0.622486  0.388268  0.771670  1
  Si  Si18  1  0.879042  0.113556  0.270913  1
  Si  Si19  1  0.887145  0.121411  0.728234  1
  Si  Si20  1  0.388384  0.622700  0.771384  1
  Si  Si21  1  0.376568  0.611192  0.228963  1
  Si  Si22  1  0.344575  0.111257  0.505087  1
  Si  Si23  1  0.888048  0.654103  0.495237  1
  Si  Si24  1  0.387872  0.155240  0.004421  1
  Si  Si25  1  0.846217  0.612772  0.995050  1
  Si  Si26  1  0.655632  0.888717  0.496214  1
  Si  Si27  1  0.111841  0.345760  0.504471  1
  Si  Si28  1  0.612150  0.845006  0.994404  1
  Si  Si29  1  0.153684  0.387177  0.005368  1
  Ru  Ru30  1  0.667523  0.329134  0.501008  1
  Ru  Ru31  1  0.170977  0.832355  0.999248  1
  Ru  Ru32  1  0.332453  0.670771  0.500721  1
  Ru  Ru33  1  0.829046  0.167739  0.998952  1
  Ru  Ru34  1  0.126514  0.126554  0.627465  1
  Ru  Ru35  1  0.873590  0.873619  0.372392  1
  Ru  Ru36  1  0.373356  0.373360  0.128171  1
  Ru  Ru37  1  0.626797  0.626733  0.871987  1
