# generated using pymatgen
data_Nd4Dy12Cd4RuPt3
_symmetry_space_group_name_H-M   'P 1'
_cell_length_a   9.75888710
_cell_length_b   9.75567244
_cell_length_c   9.75567155
_cell_angle_alpha   59.96932985
_cell_angle_beta   59.71211518
_cell_angle_gamma   59.71211620
_symmetry_Int_Tables_number   1
_chemical_formula_structural   Nd4Dy12Cd4RuPt3
_chemical_formula_sum   'Nd4 Dy12 Cd4 Ru1 Pt3'
_cell_volume   653.72674183
_cell_formula_units_Z   1
loop_
 _symmetry_equiv_pos_site_id
 _symmetry_equiv_pos_as_xyz
  1  'x, y, z'
loop_
 _atom_site_type_symbol
 _atom_site_label
 _atom_site_symmetry_multiplicity
 _atom_site_fract_x
 _atom_site_fract_y
 _atom_site_fract_z
 _atom_site_occupancy
  Nd  Nd0  1  0.564222  0.936098  0.565367  1
  Nd  Nd1  1  0.937324  0.560441  0.935973  1
  Nd  Nd2  1  0.564222  0.565367  0.936098  1
  Nd  Nd3  1  0.937324  0.935973  0.560441  1
  Dy  Dy4  1  0.350991  0.351265  0.351265  1
  Dy  Dy5  1  0.347699  0.348043  0.952618  1
  Dy  Dy6  1  0.347699  0.952618  0.348043  1
  Dy  Dy7  1  0.951299  0.348446  0.348446  1
  Dy  Dy8  1  0.816529  0.187306  0.187306  1
  Dy  Dy9  1  0.187859  0.810784  0.810784  1
  Dy  Dy10  1  0.187947  0.815879  0.187964  1
  Dy  Dy11  1  0.810889  0.186605  0.810399  1
  Dy  Dy12  1  0.187947  0.187964  0.815879  1
  Dy  Dy13  1  0.810889  0.810399  0.186605  1
  Dy  Dy14  1  0.939848  0.560100  0.560100  1
  Dy  Dy15  1  0.556205  0.940980  0.940980  1
  Cd  Cd16  1  0.582159  0.578388  0.578388  1
  Cd  Cd17  1  0.578893  0.582554  0.258209  1
  Cd  Cd18  1  0.578893  0.258209  0.582554  1
  Cd  Cd19  1  0.258243  0.579094  0.579094  1
  Ru  Ru20  1  0.144241  0.141994  0.141994  1
  Pt  Pt21  1  0.142918  0.145538  0.572975  1
  Pt  Pt22  1  0.142918  0.572975  0.145538  1
  Pt  Pt23  1  0.572842  0.142979  0.142979  1
