# generated using pymatgen
data_Rb4Na2ErInSb4
_symmetry_space_group_name_H-M   'P 1'
_cell_length_a   10.03422020
_cell_length_b   10.03421947
_cell_length_c   10.03421882
_cell_angle_alpha   136.32511594
_cell_angle_beta   62.33435987
_cell_angle_gamma   137.82017889
_symmetry_Int_Tables_number   1
_chemical_formula_structural   Rb4Na2ErInSb4
_chemical_formula_sum   'Rb4 Na2 Er1 In1 Sb4'
_cell_volume   462.83482601
_cell_formula_units_Z   1
loop_
 _symmetry_equiv_pos_site_id
 _symmetry_equiv_pos_as_xyz
  1  'x, y, z'
loop_
 _atom_site_type_symbol
 _atom_site_label
 _atom_site_symmetry_multiplicity
 _atom_site_fract_x
 _atom_site_fract_y
 _atom_site_fract_z
 _atom_site_occupancy
  Rb  Rb0  1  0.832630  0.241461  0.061153  1
  Rb  Rb1  1  0.667369  0.728523  0.408832  1
  Rb  Rb2  1  0.319692  0.258538  0.591169  1
  Rb  Rb3  1  0.180309  0.771478  0.938848  1
  Na  Na4  1  0.250000  0.250000  0.000000  1
  Na  Na5  1  0.750000  0.750000  0.000000  1
  Er  Er6  1  0.750001  0.250000  0.500000  1
  In  In7  1  0.250000  0.750001  0.500001  1
  Sb  Sb8  1  0.395597  0.772305  0.176907  1
  Sb  Sb9  1  0.104402  0.281310  0.376708  1
  Sb  Sb10  1  0.904602  0.727695  0.623292  1
  Sb  Sb11  1  0.595398  0.218691  0.823094  1
