# generated using pymatgen
data_Sc12AgSn3N4
_symmetry_space_group_name_H-M   'P 1'
_cell_length_a   6.24127841
_cell_length_b   6.24269176
_cell_length_c   8.83837200
_cell_angle_alpha   90.00000000
_cell_angle_beta   90.00000000
_cell_angle_gamma   90.07049474
_symmetry_Int_Tables_number   1
_chemical_formula_structural   Sc12AgSn3N4
_chemical_formula_sum   'Sc12 Ag1 Sn3 N4'
_cell_volume   344.36372409
_cell_formula_units_Z   1
loop_
 _symmetry_equiv_pos_site_id
 _symmetry_equiv_pos_as_xyz
  1  'x, y, z'
loop_
 _atom_site_type_symbol
 _atom_site_label
 _atom_site_symmetry_multiplicity
 _atom_site_fract_x
 _atom_site_fract_y
 _atom_site_fract_z
 _atom_site_occupancy
  Sc  Sc0  1  0.001750  0.499351  0.250000  1
  Sc  Sc1  1  0.496314  0.000323  0.250000  1
  Sc  Sc2  1  0.502131  0.999681  0.750000  1
  Sc  Sc3  1  0.998323  0.500347  0.750000  1
  Sc  Sc4  1  0.749898  0.250033  0.002750  1
  Sc  Sc5  1  0.752898  0.752945  0.496535  1
  Sc  Sc6  1  0.247574  0.247568  0.000610  1
  Sc  Sc7  1  0.250367  0.749594  0.499262  1
  Sc  Sc8  1  0.250367  0.749594  0.000738  1
  Sc  Sc9  1  0.247574  0.247568  0.499390  1
  Sc  Sc10  1  0.752898  0.752945  0.003465  1
  Sc  Sc11  1  0.749898  0.250033  0.497250  1
  Ag  Ag12  1  0.999834  0.000120  0.250000  1
  Sn  Sn13  1  0.999888  0.999977  0.750000  1
  Sn  Sn14  1  0.500306  0.500015  0.750000  1
  Sn  Sn15  1  0.500090  0.499950  0.250000  1
  N  N16  1  0.499921  0.999996  0.500387  1
  N  N17  1  0.000025  0.499982  0.999617  1
  N  N18  1  0.000025  0.499982  0.500383  1
  N  N19  1  0.499921  0.999996  0.999613  1
