# generated using pymatgen
data_Yb2Ni8SnSb3
_symmetry_space_group_name_H-M   'P 1'
_cell_length_a   6.65797540
_cell_length_b   6.67020733
_cell_length_c   6.67020717
_cell_angle_alpha   108.82884232
_cell_angle_beta   109.83276611
_cell_angle_gamma   109.83278202
_symmetry_Int_Tables_number   1
_chemical_formula_structural   Yb2Ni8SnSb3
_chemical_formula_sum   'Yb2 Ni8 Sn1 Sb3'
_cell_volume   227.78875261
_cell_formula_units_Z   1
loop_
 _symmetry_equiv_pos_site_id
 _symmetry_equiv_pos_as_xyz
  1  'x, y, z'
loop_
 _atom_site_type_symbol
 _atom_site_label
 _atom_site_symmetry_multiplicity
 _atom_site_fract_x
 _atom_site_fract_y
 _atom_site_fract_z
 _atom_site_occupancy
  Yb  Yb0  1  0.500000  0.000489  0.499511  1
  Yb  Yb1  1  0.500000  0.500528  0.999472  1
  Ni  Ni2  1  0.715084  0.443141  0.440772  1
  Ni  Ni3  1  0.284972  0.727671  0.726014  1
  Ni  Ni4  1  0.000438  0.942733  0.227986  1
  Ni  Ni5  1  0.999553  0.224767  0.942739  1
  Ni  Ni6  1  0.999562  0.272014  0.557267  1
  Ni  Ni7  1  0.000447  0.557261  0.275233  1
  Ni  Ni8  1  0.284916  0.059228  0.056859  1
  Ni  Ni9  1  0.715028  0.773986  0.772329  1
  Sn  Sn10  1  0.000000  0.592565  0.907435  1
  Sb  Sb11  1  0.314005  0.406674  0.407290  1
  Sb  Sb12  1  0.685995  0.092710  0.093326  1
  Sb  Sb13  1  0.000000  0.906232  0.593768  1
