# generated using pymatgen
data_YbTm2Al3Ge2Ir
_symmetry_space_group_name_H-M   'P 1'
_cell_length_a   6.92650600
_cell_length_b   6.93364054
_cell_length_c   4.22737800
_cell_angle_alpha   90.00000000
_cell_angle_beta   90.00000000
_cell_angle_gamma   119.96596763
_symmetry_Int_Tables_number   1
_chemical_formula_structural   YbTm2Al3Ge2Ir
_chemical_formula_sum   'Yb1 Tm2 Al3 Ge2 Ir1'
_cell_volume   175.88389874
_cell_formula_units_Z   1
loop_
 _symmetry_equiv_pos_site_id
 _symmetry_equiv_pos_as_xyz
  1  'x, y, z'
loop_
 _atom_site_type_symbol
 _atom_site_label
 _atom_site_symmetry_multiplicity
 _atom_site_fract_x
 _atom_site_fract_y
 _atom_site_fract_z
 _atom_site_occupancy
  Yb  Yb0  1  0.419997  0.000000  0.000000  1
  Tm  Tm1  1  0.001903  0.416742  0.000000  1
  Tm  Tm2  1  0.585161  0.583258  0.000000  1
  Al  Al3  1  0.770605  0.000000  0.499999  1
  Al  Al4  1  0.228305  0.229763  0.499999  1
  Al  Al5  1  0.998542  0.770238  0.499999  1
  Ge  Ge6  1  0.671040  0.338143  0.499999  1
  Ge  Ge7  1  0.332897  0.661856  0.499999  1
  Ir  Ir8  1  0.991548  0.000000  0.000000  1
