# generated using pymatgen
data_NaLi2CrO4
_symmetry_space_group_name_H-M   'P 1'
_cell_length_a   5.13567200
_cell_length_b   5.37872900
_cell_length_c   6.95255700
_cell_angle_alpha   90.00000000
_cell_angle_beta   90.00000000
_cell_angle_gamma   90.00000000
_symmetry_Int_Tables_number   1
_chemical_formula_structural   NaLi2CrO4
_chemical_formula_sum   'Na2 Li4 Cr2 O8'
_cell_volume   192.05317905
_cell_formula_units_Z   2
loop_
 _symmetry_equiv_pos_site_id
 _symmetry_equiv_pos_as_xyz
  1  'x, y, z'
loop_
 _atom_site_type_symbol
 _atom_site_label
 _atom_site_symmetry_multiplicity
 _atom_site_fract_x
 _atom_site_fract_y
 _atom_site_fract_z
 _atom_site_occupancy
  Na  Na0  1  0.520375  0.802743  0.000000  1
  Na  Na1  1  0.020375  0.197257  0.500000  1
  Li  Li2  1  0.507602  0.322761  0.251355  1
  Li  Li3  1  0.007602  0.677239  0.751355  1
  Li  Li4  1  0.507602  0.322761  0.748645  1
  Li  Li5  1  0.007602  0.677239  0.248645  1
  Cr  Cr6  1  0.499837  0.811097  0.500000  1
  Cr  Cr7  1  0.999837  0.188903  0.000000  1
  O  O8  1  0.060219  0.870670  0.000000  1
  O  O9  1  0.664658  0.221747  0.000000  1
  O  O10  1  0.560219  0.129330  0.500000  1
  O  O11  1  0.164658  0.778253  0.500000  1
  O  O12  1  0.129904  0.334213  0.199572  1
  O  O13  1  0.629904  0.665787  0.300428  1
  O  O14  1  0.629904  0.665787  0.699572  1
  O  O15  1  0.129904  0.334213  0.800428  1
