# generated using pymatgen
data_DyY5Al24(Os3Ru)2
_symmetry_space_group_name_H-M   'P 1'
_cell_length_a   8.83890702
_cell_length_b   8.84000310
_cell_length_c   9.57212000
_cell_angle_alpha   90.00000000
_cell_angle_beta   90.00000000
_cell_angle_gamma   120.00410660
_symmetry_Int_Tables_number   1
_chemical_formula_structural   DyY5Al24(Os3Ru)2
_chemical_formula_sum   'Dy1 Y5 Al24 Os6 Ru2'
_cell_volume   647.69683717
_cell_formula_units_Z   1
loop_
 _symmetry_equiv_pos_site_id
 _symmetry_equiv_pos_as_xyz
  1  'x, y, z'
loop_
 _atom_site_type_symbol
 _atom_site_label
 _atom_site_symmetry_multiplicity
 _atom_site_fract_x
 _atom_site_fract_y
 _atom_site_fract_z
 _atom_site_occupancy
  Dy  Dy0  1  0.386614  0.193307  0.750000  1
  Y  Y1  1  0.193203  0.806774  0.250000  1
  Y  Y2  1  0.193203  0.386429  0.250000  1
  Y  Y3  1  0.613583  0.806792  0.250000  1
  Y  Y4  1  0.806696  0.193246  0.750000  1
  Y  Y5  1  0.806696  0.613450  0.750000  1
  Al  Al6  1  0.560752  0.439261  0.250000  1
  Al  Al7  1  0.560752  0.121492  0.250000  1
  Al  Al8  1  0.878510  0.439256  0.250000  1
  Al  Al9  1  0.439199  0.560688  0.750000  1
  Al  Al10  1  0.439199  0.878510  0.750000  1
  Al  Al11  1  0.121495  0.560747  0.750000  1
  Al  Al12  1  0.324114  0.162058  0.423651  1
  Al  Al13  1  0.837967  0.162085  0.423608  1
  Al  Al14  1  0.837967  0.675883  0.423608  1
  Al  Al15  1  0.675874  0.837937  0.576382  1
  Al  Al16  1  0.162075  0.837974  0.576437  1
  Al  Al17  1  0.162075  0.324101  0.576437  1
  Al  Al18  1  0.675874  0.837937  0.923618  1
  Al  Al19  1  0.162075  0.837974  0.923563  1
  Al  Al20  1  0.162075  0.324101  0.923563  1
  Al  Al21  1  0.324114  0.162058  0.076349  1
  Al  Al22  1  0.837967  0.162085  0.076392  1
  Al  Al23  1  0.837967  0.675883  0.076392  1
  Al  Al24  1  0.666628  0.333313  0.515575  1
  Al  Al25  1  0.333304  0.666653  0.484497  1
  Al  Al26  1  0.333304  0.666653  0.015503  1
  Al  Al27  1  0.666628  0.333313  0.984425  1
  Al  Al28  1  0.000004  0.000002  0.250000  1
  Al  Al29  1  0.000197  0.000099  0.750000  1
  Os  Os30  1  0.499966  0.499921  0.500062  1
  Os  Os31  1  0.499966  0.000046  0.500062  1
  Os  Os32  1  0.000011  0.500006  0.499996  1
  Os  Os33  1  0.499966  0.499921  0.999938  1
  Os  Os34  1  0.499966  0.000046  0.999938  1
  Os  Os35  1  0.000011  0.500006  0.000004  1
  Ru  Ru36  1  0.999999  0.999999  0.499961  1
  Ru  Ru37  1  0.999999  0.999999  0.000039  1
