# generated using pymatgen
data_Tb5Y(Ni3As2)6
_symmetry_space_group_name_H-M   'P 1'
_cell_length_a   3.90946700
_cell_length_b   10.88387800
_cell_length_c   12.76401200
_cell_angle_alpha   90.00111463
_cell_angle_beta   90.00000000
_cell_angle_gamma   90.00000000
_symmetry_Int_Tables_number   1
_chemical_formula_structural   Tb5Y(Ni3As2)6
_chemical_formula_sum   'Tb5 Y1 Ni18 As12'
_cell_volume   543.11077670
_cell_formula_units_Z   1
loop_
 _symmetry_equiv_pos_site_id
 _symmetry_equiv_pos_as_xyz
  1  'x, y, z'
loop_
 _atom_site_type_symbol
 _atom_site_label
 _atom_site_symmetry_multiplicity
 _atom_site_fract_x
 _atom_site_fract_y
 _atom_site_fract_z
 _atom_site_occupancy
  Tb  Tb0  1  0.000000  0.500014  0.523383  1
  Tb  Tb1  1  0.500000  0.999995  0.476584  1
  Tb  Tb2  1  0.500000  0.816071  0.206365  1
  Tb  Tb3  1  0.500000  0.183948  0.206360  1
  Tb  Tb4  1  0.000000  0.683759  0.793672  1
  Y  Y5  1  0.000000  0.316213  0.793689  1
  Ni  Ni6  1  0.500000  0.499994  0.156355  1
  Ni  Ni7  1  0.000000  0.999948  0.843613  1
  Ni  Ni8  1  0.500000  0.500018  0.699352  1
  Ni  Ni9  1  0.000000  0.000003  0.300625  1
  Ni  Ni10  1  0.000000  0.500004  0.982634  1
  Ni  Ni11  1  0.500000  0.000002  0.017384  1
  Ni  Ni12  1  0.500000  0.333115  0.997552  1
  Ni  Ni13  1  0.500000  0.666896  0.997559  1
  Ni  Ni14  1  0.000000  0.166881  0.002457  1
  Ni  Ni15  1  0.000000  0.833135  0.002437  1
  Ni  Ni16  1  0.500000  0.302989  0.426278  1
  Ni  Ni17  1  0.500000  0.696994  0.426243  1
  Ni  Ni18  1  0.000000  0.196954  0.573746  1
  Ni  Ni19  1  0.000000  0.803037  0.573759  1
  Ni  Ni20  1  0.500000  0.879992  0.707375  1
  Ni  Ni21  1  0.500000  0.120085  0.707425  1
  Ni  Ni22  1  0.000000  0.620008  0.292592  1
  Ni  Ni23  1  0.000000  0.379980  0.292582  1
  As  As24  1  0.500000  0.499863  0.876704  1
  As  As25  1  0.000000  0.999996  0.123206  1
  As  As26  1  0.500000  0.500007  0.344664  1
  As  As27  1  0.000000  0.999951  0.655317  1
  As  As28  1  0.500000  0.314127  0.613454  1
  As  As29  1  0.500000  0.685881  0.613297  1
  As  As30  1  0.000000  0.185893  0.386691  1
  As  As31  1  0.000000  0.814108  0.386703  1
  As  As32  1  0.500000  0.847466  0.890786  1
  As  As33  1  0.500000  0.152671  0.890673  1
  As  As34  1  0.000000  0.652517  0.109219  1
  As  As35  1  0.000000  0.347486  0.109265  1
