# generated using pymatgen
data_Pr6GdYO12
_symmetry_space_group_name_H-M   'P 1'
_cell_length_a   7.02773977
_cell_length_b   7.02773990
_cell_length_c   7.02774088
_cell_angle_alpha   91.84826675
_cell_angle_beta   91.84826910
_cell_angle_gamma   91.84825370
_symmetry_Int_Tables_number   1
_chemical_formula_structural   Pr6GdYO12
_chemical_formula_sum   'Pr6 Gd1 Y1 O12'
_cell_volume   346.54031245
_cell_formula_units_Z   1
loop_
 _symmetry_equiv_pos_site_id
 _symmetry_equiv_pos_as_xyz
  1  'x, y, z'
loop_
 _atom_site_type_symbol
 _atom_site_label
 _atom_site_symmetry_multiplicity
 _atom_site_fract_x
 _atom_site_fract_y
 _atom_site_fract_z
 _atom_site_occupancy
  Pr  Pr0  1  0.747270  0.936576  0.443758  1
  Pr  Pr1  1  0.443758  0.747270  0.936576  1
  Pr  Pr2  1  0.063424  0.556242  0.252730  1
  Pr  Pr3  1  0.936576  0.443758  0.747270  1
  Pr  Pr4  1  0.556242  0.252730  0.063424  1
  Pr  Pr5  1  0.252730  0.063424  0.556242  1
  Gd  Gd6  1  0.000000  0.000000  0.000000  1
  Y  Y7  1  0.500000  0.500000  0.500000  1
  O  O8  1  0.066908  0.907846  0.310445  1
  O  O9  1  0.689555  0.933092  0.092154  1
  O  O10  1  0.467907  0.809524  0.597378  1
  O  O11  1  0.092154  0.689555  0.933092  1
  O  O12  1  0.809524  0.597378  0.467907  1
  O  O13  1  0.402622  0.532093  0.190476  1
  O  O14  1  0.597378  0.467907  0.809524  1
  O  O15  1  0.190476  0.402622  0.532093  1
  O  O16  1  0.907846  0.310445  0.066908  1
  O  O17  1  0.532093  0.190476  0.402622  1
  O  O18  1  0.310445  0.066908  0.907846  1
  O  O19  1  0.933092  0.092154  0.689555  1
