# generated using pymatgen
data_Dy4Ho2NpO12
_symmetry_space_group_name_H-M   'P 1'
_cell_length_a   6.55387947
_cell_length_b   6.55705827
_cell_length_c   6.55889930
_cell_angle_alpha   98.89188052
_cell_angle_beta   98.94989378
_cell_angle_gamma   98.94229724
_symmetry_Int_Tables_number   1
_chemical_formula_structural   Dy4Ho2NpO12
_chemical_formula_sum   'Dy4 Ho2 Np1 O12'
_cell_volume   270.39320698
_cell_formula_units_Z   1
loop_
 _symmetry_equiv_pos_site_id
 _symmetry_equiv_pos_as_xyz
  1  'x, y, z'
loop_
 _atom_site_type_symbol
 _atom_site_label
 _atom_site_symmetry_multiplicity
 _atom_site_fract_x
 _atom_site_fract_y
 _atom_site_fract_z
 _atom_site_occupancy
  Dy  Dy0  1  0.144985  0.320192  0.609987  1
  Dy  Dy1  1  0.389386  0.854603  0.678804  1
  Dy  Dy2  1  0.680131  0.389354  0.854978  1
  Dy  Dy3  1  0.321207  0.610942  0.145808  1
  Ho  Ho4  1  0.610953  0.145693  0.321439  1
  Ho  Ho5  1  0.853938  0.678237  0.389375  1
  Np  Np6  1  0.999885  0.999836  0.000288  1
  O  O7  1  0.077137  0.307860  0.954192  1
  O  O8  1  0.044429  0.921490  0.691862  1
  O  O9  1  0.411400  0.569903  0.822221  1
  O  O10  1  0.176673  0.589588  0.429467  1
  O  O11  1  0.691903  0.045076  0.922244  1
  O  O12  1  0.430078  0.177736  0.586828  1
  O  O13  1  0.572055  0.822893  0.411007  1
  O  O14  1  0.308702  0.955881  0.078626  1
  O  O15  1  0.821608  0.411597  0.569433  1
  O  O16  1  0.589552  0.429083  0.178841  1
  O  O17  1  0.953541  0.078067  0.307716  1
  O  O18  1  0.922439  0.691972  0.046885  1
