# generated using pymatgen
data_PrGdNCl3
_symmetry_space_group_name_H-M   'P 1'
_cell_length_a   8.60269853
_cell_length_b   8.60269953
_cell_length_c   11.01245707
_cell_angle_alpha   60.39221443
_cell_angle_beta   60.39221201
_cell_angle_gamma   26.97245841
_symmetry_Int_Tables_number   1
_chemical_formula_structural   PrGdNCl3
_chemical_formula_sum   'Pr2 Gd2 N2 Cl6'
_cell_volume   318.38531725
_cell_formula_units_Z   2
loop_
 _symmetry_equiv_pos_site_id
 _symmetry_equiv_pos_as_xyz
  1  'x, y, z'
loop_
 _atom_site_type_symbol
 _atom_site_label
 _atom_site_symmetry_multiplicity
 _atom_site_fract_x
 _atom_site_fract_y
 _atom_site_fract_z
 _atom_site_occupancy
  Pr  Pr0  1  0.862766  0.862766  0.291670  1
  Pr  Pr1  1  0.137234  0.137234  0.708330  1
  Gd  Gd2  1  0.583714  0.583714  0.044893  1
  Gd  Gd3  1  0.416286  0.416286  0.955107  1
  N  N4  1  0.427322  0.427322  0.151130  1
  N  N5  1  0.572678  0.572678  0.848870  1
  Cl  Cl6  1  0.049561  0.049561  0.242553  1
  Cl  Cl7  1  0.950439  0.950439  0.757447  1
  Cl  Cl8  1  0.664628  0.664628  0.487406  1
  Cl  Cl9  1  0.335372  0.335372  0.512594  1
  Cl  Cl10  1  0.784124  0.784124  0.108272  1
  Cl  Cl11  1  0.215876  0.215876  0.891728  1
