# generated using pymatgen
data_Zr10AlHg(BiPb2)2
_symmetry_space_group_name_H-M   'P 1'
_cell_length_a   8.90138439
_cell_length_b   8.88359666
_cell_length_c   6.03483122
_cell_angle_alpha   89.92645970
_cell_angle_beta   90.03669154
_cell_angle_gamma   119.93391633
_symmetry_Int_Tables_number   1
_chemical_formula_structural   Zr10AlHg(BiPb2)2
_chemical_formula_sum   'Zr10 Al1 Hg1 Bi2 Pb4'
_cell_volume   413.55245457
_cell_formula_units_Z   1
loop_
 _symmetry_equiv_pos_site_id
 _symmetry_equiv_pos_as_xyz
  1  'x, y, z'
loop_
 _atom_site_type_symbol
 _atom_site_label
 _atom_site_symmetry_multiplicity
 _atom_site_fract_x
 _atom_site_fract_y
 _atom_site_fract_z
 _atom_site_occupancy
  Zr  Zr0  1  0.666720  0.333530  0.001318  1
  Zr  Zr1  1  0.333280  0.666811  0.001318  1
  Zr  Zr2  1  0.332994  0.666637  0.498532  1
  Zr  Zr3  1  0.667006  0.333642  0.498532  1
  Zr  Zr4  1  0.727762  0.727286  0.736658  1
  Zr  Zr5  1  0.272238  0.999524  0.736658  1
  Zr  Zr6  1  0.000000  0.273062  0.735870  1
  Zr  Zr7  1  0.273791  0.273344  0.263771  1
  Zr  Zr8  1  0.726209  0.999553  0.263771  1
  Zr  Zr9  1  0.000000  0.725901  0.263303  1
  Al  Al10  1  0.000000  0.999481  0.498121  1
  Hg  Hg11  1  0.000000  0.999467  0.001828  1
  Bi  Bi12  1  0.385574  0.385522  0.755418  1
  Bi  Bi13  1  0.614426  0.999948  0.755418  1
  Pb  Pb14  1  0.000000  0.615972  0.755900  1
  Pb  Pb15  1  0.616786  0.616550  0.244768  1
  Pb  Pb16  1  0.383214  0.999765  0.244768  1
  Pb  Pb17  1  0.000000  0.384005  0.244047  1
