# generated using pymatgen
data_Sm3Bi(AuO3)4
_symmetry_space_group_name_H-M   'P 1'
_cell_length_a   3.96507904
_cell_length_b   5.66794100
_cell_length_c   13.13314795
_cell_angle_alpha   90.00000000
_cell_angle_beta   89.51900398
_cell_angle_gamma   90.00000000
_symmetry_Int_Tables_number   1
_chemical_formula_structural   Sm3Bi(AuO3)4
_chemical_formula_sum   'Sm3 Bi1 Au4 O12'
_cell_volume   295.14178730
_cell_formula_units_Z   1
loop_
 _symmetry_equiv_pos_site_id
 _symmetry_equiv_pos_as_xyz
  1  'x, y, z'
loop_
 _atom_site_type_symbol
 _atom_site_label
 _atom_site_symmetry_multiplicity
 _atom_site_fract_x
 _atom_site_fract_y
 _atom_site_fract_z
 _atom_site_occupancy
  Sm  Sm0  1  0.262326  0.750000  0.076629  1
  Sm  Sm1  1  0.256829  0.250000  0.420135  1
  Sm  Sm2  1  0.741174  0.250000  0.922516  1
  Bi  Bi3  1  0.720051  0.750000  0.574700  1
  Au  Au4  1  0.071981  0.750000  0.832662  1
  Au  Au5  1  0.072563  0.250000  0.671308  1
  Au  Au6  1  0.932297  0.250000  0.169113  1
  Au  Au7  1  0.931466  0.750000  0.328383  1
  O  O8  1  0.188090  0.499685  0.249129  1
  O  O9  1  0.821105  0.006659  0.756316  1
  O  O10  1  0.821105  0.493341  0.756316  1
  O  O11  1  0.188090  0.000315  0.249129  1
  O  O12  1  0.743759  0.498977  0.076405  1
  O  O13  1  0.739454  0.502755  0.422766  1
  O  O14  1  0.260174  0.998945  0.926003  1
  O  O15  1  0.253075  0.007913  0.571659  1
  O  O16  1  0.739454  0.997245  0.422766  1
  O  O17  1  0.743759  0.001023  0.076405  1
  O  O18  1  0.253075  0.492087  0.571659  1
  O  O19  1  0.260174  0.501055  0.926003  1
