# generated using pymatgen
data_YHo5Fe8(Co5P6)2
_symmetry_space_group_name_H-M   'P 1'
_cell_length_a   3.70577800
_cell_length_b   10.52570900
_cell_length_c   12.12252100
_cell_angle_alpha   90.00000000
_cell_angle_beta   90.00000000
_cell_angle_gamma   90.00000000
_symmetry_Int_Tables_number   1
_chemical_formula_structural   YHo5Fe8(Co5P6)2
_chemical_formula_sum   'Y1 Ho5 Fe8 Co10 P12'
_cell_volume   472.85033704
_cell_formula_units_Z   1
loop_
 _symmetry_equiv_pos_site_id
 _symmetry_equiv_pos_as_xyz
  1  'x, y, z'
loop_
 _atom_site_type_symbol
 _atom_site_label
 _atom_site_symmetry_multiplicity
 _atom_site_fract_x
 _atom_site_fract_y
 _atom_site_fract_z
 _atom_site_occupancy
  Y  Y0  1  0.000000  0.500000  0.522904  1
  Ho  Ho1  1  0.500000  0.000000  0.477060  1
  Ho  Ho2  1  0.500000  0.819038  0.205225  1
  Ho  Ho3  1  0.500000  0.180962  0.205225  1
  Ho  Ho4  1  0.000000  0.681092  0.794804  1
  Ho  Ho5  1  0.000000  0.318908  0.794804  1
  Fe  Fe6  1  0.000000  0.500000  0.987175  1
  Fe  Fe7  1  0.500000  0.000000  0.012902  1
  Fe  Fe8  1  0.500000  0.297888  0.428860  1
  Fe  Fe9  1  0.500000  0.702112  0.428860  1
  Fe  Fe10  1  0.000000  0.201358  0.571111  1
  Fe  Fe11  1  0.000000  0.798642  0.571111  1
  Fe  Fe12  1  0.500000  0.500000  0.155501  1
  Fe  Fe13  1  0.000000  0.000000  0.844431  1
  Co  Co14  1  0.500000  0.880609  0.711688  1
  Co  Co15  1  0.500000  0.119391  0.711688  1
  Co  Co16  1  0.000000  0.619573  0.288110  1
  Co  Co17  1  0.000000  0.380427  0.288110  1
  Co  Co18  1  0.500000  0.331874  0.993997  1
  Co  Co19  1  0.500000  0.668126  0.993997  1
  Co  Co20  1  0.000000  0.168017  0.006027  1
  Co  Co21  1  0.000000  0.831983  0.006027  1
  Co  Co22  1  0.500000  0.500000  0.700554  1
  Co  Co23  1  0.000000  0.000000  0.300037  1
  P  P24  1  0.500000  0.307249  0.614682  1
  P  P25  1  0.500000  0.692751  0.614682  1
  P  P26  1  0.000000  0.192138  0.385531  1
  P  P27  1  0.000000  0.807862  0.385531  1
  P  P28  1  0.500000  0.500000  0.883428  1
  P  P29  1  0.000000  0.000000  0.116667  1
  P  P30  1  0.500000  0.848019  0.893976  1
  P  P31  1  0.500000  0.151981  0.893976  1
  P  P32  1  0.000000  0.652020  0.105915  1
  P  P33  1  0.000000  0.347980  0.105915  1
  P  P34  1  0.500000  0.500000  0.342323  1
  P  P35  1  0.000000  0.000000  0.657163  1
