# generated using pymatgen
data_Ho9Cd5Pd4
_symmetry_space_group_name_H-M   'P 1'
_cell_length_a   10.86165600
_cell_length_b   10.86165600
_cell_length_c   3.68951200
_cell_angle_alpha   90.00000000
_cell_angle_beta   90.00000000
_cell_angle_gamma   90.00000000
_symmetry_Int_Tables_number   1
_chemical_formula_structural   Ho9Cd5Pd4
_chemical_formula_sum   'Ho9 Cd5 Pd4'
_cell_volume   435.27228514
_cell_formula_units_Z   1
loop_
 _symmetry_equiv_pos_site_id
 _symmetry_equiv_pos_as_xyz
  1  'x, y, z'
loop_
 _atom_site_type_symbol
 _atom_site_label
 _atom_site_symmetry_multiplicity
 _atom_site_fract_x
 _atom_site_fract_y
 _atom_site_fract_z
 _atom_site_occupancy
  Ho  Ho0  1  0.331782  0.331782  0.500000  1
  Ho  Ho1  1  0.668218  0.668218  0.500000  1
  Ho  Ho2  1  0.331782  0.668218  0.500000  1
  Ho  Ho3  1  0.668218  0.331782  0.500000  1
  Ho  Ho4  1  0.000000  0.290624  0.500000  1
  Ho  Ho5  1  0.000000  0.709376  0.500000  1
  Ho  Ho6  1  0.290624  0.000000  0.500000  1
  Ho  Ho7  1  0.709376  0.000000  0.500000  1
  Ho  Ho8  1  0.000000  0.000000  0.000000  1
  Cd  Cd9  1  0.500000  0.146503  0.000000  1
  Cd  Cd10  1  0.500000  0.853497  0.000000  1
  Cd  Cd11  1  0.146503  0.500000  0.000000  1
  Cd  Cd12  1  0.853497  0.500000  0.000000  1
  Cd  Cd13  1  0.500000  0.500000  0.000000  1
  Pd  Pd14  1  0.191928  0.191928  0.000000  1
  Pd  Pd15  1  0.808072  0.808072  0.000000  1
  Pd  Pd16  1  0.191928  0.808072  0.000000  1
  Pd  Pd17  1  0.808072  0.191928  0.000000  1
