# generated using pymatgen
data_Yb2Ho2TmRu2
_symmetry_space_group_name_H-M   'P 1'
_cell_length_a   6.40264899
_cell_length_b   7.21614321
_cell_length_c   8.49179384
_cell_angle_alpha   97.35338728
_cell_angle_beta   112.14739630
_cell_angle_gamma   90.00000631
_symmetry_Int_Tables_number   1
_chemical_formula_structural   Yb2Ho2TmRu2
_chemical_formula_sum   'Yb4 Ho4 Tm2 Ru4'
_cell_volume   359.90721753
_cell_formula_units_Z   2
loop_
 _symmetry_equiv_pos_site_id
 _symmetry_equiv_pos_as_xyz
  1  'x, y, z'
loop_
 _atom_site_type_symbol
 _atom_site_label
 _atom_site_symmetry_multiplicity
 _atom_site_fract_x
 _atom_site_fract_y
 _atom_site_fract_z
 _atom_site_occupancy
  Yb  Yb0  1  0.794846  0.078928  0.816567  1
  Yb  Yb1  1  0.978278  0.421072  0.183433  1
  Yb  Yb2  1  0.205154  0.921072  0.183433  1
  Yb  Yb3  1  0.021722  0.578928  0.816567  1
  Ho  Ho4  1  0.198297  0.184396  0.565979  1
  Ho  Ho5  1  0.632319  0.315604  0.434021  1
  Ho  Ho6  1  0.801703  0.815604  0.434021  1
  Ho  Ho7  1  0.367681  0.684396  0.565979  1
  Tm  Tm8  1  0.431922  0.250000  0.000000  1
  Tm  Tm9  1  0.568078  0.750000  0.000000  1
  Ru  Ru10  1  0.582123  0.424927  0.768997  1
  Ru  Ru11  1  0.813125  0.075073  0.231003  1
  Ru  Ru12  1  0.417877  0.575073  0.231003  1
  Ru  Ru13  1  0.186875  0.924927  0.768997  1
