# generated using pymatgen
data_Sr3Sn2IrPd
_symmetry_space_group_name_H-M   'P 1'
_cell_length_a   6.23378400
_cell_length_b   8.72494600
_cell_length_c   14.44489000
_cell_angle_alpha   90.00000000
_cell_angle_beta   90.00000000
_cell_angle_gamma   90.00000000
_symmetry_Int_Tables_number   1
_chemical_formula_structural   Sr3Sn2IrPd
_chemical_formula_sum   'Sr12 Sn8 Ir4 Pd4'
_cell_volume   785.64931583
_cell_formula_units_Z   4
loop_
 _symmetry_equiv_pos_site_id
 _symmetry_equiv_pos_as_xyz
  1  'x, y, z'
loop_
 _atom_site_type_symbol
 _atom_site_label
 _atom_site_symmetry_multiplicity
 _atom_site_fract_x
 _atom_site_fract_y
 _atom_site_fract_z
 _atom_site_occupancy
  Sr  Sr0  1  0.144233  0.392223  0.594503  1
  Sr  Sr1  1  0.855767  0.607777  0.094503  1
  Sr  Sr2  1  0.144233  0.107777  0.405497  1
  Sr  Sr3  1  0.855767  0.892223  0.905497  1
  Sr  Sr4  1  0.847030  0.600852  0.402031  1
  Sr  Sr5  1  0.152970  0.399148  0.902031  1
  Sr  Sr6  1  0.847030  0.899148  0.597969  1
  Sr  Sr7  1  0.152970  0.100852  0.097969  1
  Sr  Sr8  1  0.639781  0.244956  0.749802  1
  Sr  Sr9  1  0.360219  0.755044  0.249802  1
  Sr  Sr10  1  0.639781  0.255044  0.250198  1
  Sr  Sr11  1  0.360219  0.744956  0.750198  1
  Sn  Sn12  1  0.617238  0.250000  0.500000  1
  Sn  Sn13  1  0.382762  0.750000  0.000000  1
  Sn  Sn14  1  0.366691  0.750000  0.500000  1
  Sn  Sn15  1  0.633309  0.250000  0.000000  1
  Sn  Sn16  1  0.153033  0.095787  0.747441  1
  Sn  Sn17  1  0.846967  0.904213  0.247441  1
  Sn  Sn18  1  0.153033  0.404213  0.252559  1
  Sn  Sn19  1  0.846967  0.595787  0.752559  1
  Ir  Ir20  1  0.372900  0.031550  0.589764  1
  Ir  Ir21  1  0.627100  0.968450  0.089764  1
  Ir  Ir22  1  0.372900  0.468450  0.410236  1
  Ir  Ir23  1  0.627100  0.531550  0.910236  1
  Pd  Pd24  1  0.622433  0.964810  0.408756  1
  Pd  Pd25  1  0.377567  0.035190  0.908756  1
  Pd  Pd26  1  0.622433  0.535190  0.591244  1
  Pd  Pd27  1  0.377567  0.464810  0.091244  1
