# generated using pymatgen
data_Dy4Zn3Si5
_symmetry_space_group_name_H-M   'P 1'
_cell_length_a   4.09810900
_cell_length_b   4.09810968
_cell_length_c   16.00804800
_cell_angle_alpha   90.00000000
_cell_angle_beta   90.00000000
_cell_angle_gamma   120.00000257
_symmetry_Int_Tables_number   1
_chemical_formula_structural   Dy4Zn3Si5
_chemical_formula_sum   'Dy4 Zn3 Si5'
_cell_volume   232.82846847
_cell_formula_units_Z   1
loop_
 _symmetry_equiv_pos_site_id
 _symmetry_equiv_pos_as_xyz
  1  'x, y, z'
loop_
 _atom_site_type_symbol
 _atom_site_label
 _atom_site_symmetry_multiplicity
 _atom_site_fract_x
 _atom_site_fract_y
 _atom_site_fract_z
 _atom_site_occupancy
  Dy  Dy0  1  0.333333  0.666667  0.119000  1
  Dy  Dy1  1  0.333333  0.666667  0.626274  1
  Dy  Dy2  1  0.333333  0.666667  0.373726  1
  Dy  Dy3  1  0.333333  0.666667  0.881000  1
  Zn  Zn4  1  0.666667  0.333333  0.500000  1
  Zn  Zn5  1  0.000000  0.000000  0.246912  1
  Zn  Zn6  1  0.000000  0.000000  0.753088  1
  Si  Si7  1  0.666667  0.333333  0.250461  1
  Si  Si8  1  0.666667  0.333333  0.749539  1
  Si  Si9  1  0.000000  0.000000  0.000000  1
  Si  Si10  1  0.000000  0.000000  0.500000  1
  Si  Si11  1  0.666667  0.333333  0.000000  1
