# generated using pymatgen
data_Tb15LuCd4(CoPt)2
_symmetry_space_group_name_H-M   'P 1'
_cell_length_a   9.63970052
_cell_length_b   9.61341507
_cell_length_c   9.61088004
_cell_angle_alpha   59.93871109
_cell_angle_beta   60.14931915
_cell_angle_gamma   59.98878952
_symmetry_Int_Tables_number   1
_chemical_formula_structural   Tb15LuCd4(CoPt)2
_chemical_formula_sum   'Tb15 Lu1 Cd4 Co2 Pt2'
_cell_volume   630.14168986
_cell_formula_units_Z   1
loop_
 _symmetry_equiv_pos_site_id
 _symmetry_equiv_pos_as_xyz
  1  'x, y, z'
loop_
 _atom_site_type_symbol
 _atom_site_label
 _atom_site_symmetry_multiplicity
 _atom_site_fract_x
 _atom_site_fract_y
 _atom_site_fract_z
 _atom_site_occupancy
  Tb  Tb0  1  0.586257  0.599836  0.603105  1
  Tb  Tb1  1  0.185810  0.814743  0.816419  1
  Tb  Tb2  1  0.069291  0.052414  0.437545  1
  Tb  Tb3  1  0.437389  0.062717  0.062363  1
  Tb  Tb4  1  0.810651  0.189726  0.815006  1
  Tb  Tb5  1  0.439663  0.053358  0.438076  1
  Tb  Tb6  1  0.597425  0.196832  0.610617  1
  Tb  Tb7  1  0.812166  0.813657  0.190067  1
  Tb  Tb8  1  0.205184  0.601541  0.603499  1
  Tb  Tb9  1  0.807269  0.191391  0.189276  1
  Tb  Tb10  1  0.061134  0.440553  0.439055  1
  Tb  Tb11  1  0.187384  0.811932  0.187922  1
  Tb  Tb12  1  0.598729  0.611688  0.194074  1
  Tb  Tb13  1  0.186142  0.188123  0.812785  1
  Tb  Tb14  1  0.071472  0.437027  0.052747  1
  Lu  Lu15  1  0.441445  0.438487  0.052873  1
  Cd  Cd16  1  0.831263  0.829203  0.507495  1
  Cd  Cd17  1  0.832715  0.830540  0.830108  1
  Cd  Cd18  1  0.504756  0.829897  0.830593  1
  Cd  Cd19  1  0.830601  0.507241  0.829273  1
  Co  Co20  1  0.392008  0.824159  0.390785  1
  Co  Co21  1  0.391970  0.391211  0.826825  1
  Pt  Pt22  1  0.397023  0.392667  0.388345  1
  Pt  Pt23  1  0.822254  0.391056  0.391149  1
