# generated using pymatgen
data_Sc3Al3ZnSiRh
_symmetry_space_group_name_H-M   'P 1'
_cell_length_a   6.68839200
_cell_length_b   6.68839167
_cell_length_c   4.06070200
_cell_angle_alpha   90.00000000
_cell_angle_beta   90.00000000
_cell_angle_gamma   120.00000164
_symmetry_Int_Tables_number   1
_chemical_formula_structural   Sc3Al3ZnSiRh
_chemical_formula_sum   'Sc3 Al3 Zn1 Si1 Rh1'
_cell_volume   157.31682032
_cell_formula_units_Z   1
loop_
 _symmetry_equiv_pos_site_id
 _symmetry_equiv_pos_as_xyz
  1  'x, y, z'
loop_
 _atom_site_type_symbol
 _atom_site_label
 _atom_site_symmetry_multiplicity
 _atom_site_fract_x
 _atom_site_fract_y
 _atom_site_fract_z
 _atom_site_occupancy
  Sc  Sc0  1  0.418050  0.997282  0.000000  1
  Sc  Sc1  1  0.002718  0.420768  0.000000  1
  Sc  Sc2  1  0.579232  0.581950  0.000000  1
  Al  Al3  1  0.760159  0.000685  0.500000  1
  Al  Al4  1  0.240526  0.239840  0.500000  1
  Al  Al5  1  0.999315  0.759474  0.500000  1
  Zn  Zn6  1  0.666667  0.333333  0.500000  1
  Si  Si7  1  0.333333  0.666666  0.500000  1
  Rh  Rh8  1  0.000000  0.000000  0.000000  1
