# generated using pymatgen
data_Ti2MnCrGaC3
_symmetry_space_group_name_H-M   'P 1'
_cell_length_a   2.98308100
_cell_length_b   2.98308081
_cell_length_c   22.37247500
_cell_angle_alpha   90.00000000
_cell_angle_beta   90.00000000
_cell_angle_gamma   119.99999099
_symmetry_Int_Tables_number   1
_chemical_formula_structural   Ti2MnCrGaC3
_chemical_formula_sum   'Ti4 Mn2 Cr2 Ga2 C6'
_cell_volume   172.41488916
_cell_formula_units_Z   2
loop_
 _symmetry_equiv_pos_site_id
 _symmetry_equiv_pos_as_xyz
  1  'x, y, z'
loop_
 _atom_site_type_symbol
 _atom_site_label
 _atom_site_symmetry_multiplicity
 _atom_site_fract_x
 _atom_site_fract_y
 _atom_site_fract_z
 _atom_site_occupancy
  Ti  Ti0  1  0.333333  0.666667  0.444341  1
  Ti  Ti1  1  0.666667  0.333333  0.555659  1
  Ti  Ti2  1  0.666667  0.333333  0.944068  1
  Ti  Ti3  1  0.333333  0.666667  0.055932  1
  Mn  Mn4  1  0.000000  0.000000  0.842052  1
  Mn  Mn5  1  0.000000  0.000000  0.157948  1
  Cr  Cr6  1  0.000000  0.000000  0.340503  1
  Cr  Cr7  1  0.000000  0.000000  0.659497  1
  Ga  Ga8  1  0.333333  0.666667  0.249765  1
  Ga  Ga9  1  0.666667  0.333333  0.750235  1
  C  C10  1  0.000000  0.000000  0.500000  1
  C  C11  1  0.000000  0.000000  0.000000  1
  C  C12  1  0.666667  0.333333  0.384432  1
  C  C13  1  0.333333  0.666667  0.615568  1
  C  C14  1  0.333333  0.666667  0.883221  1
  C  C15  1  0.666667  0.333333  0.116779  1
