# generated using pymatgen
data_Sr6InHg12Bi5
_symmetry_space_group_name_H-M   'P 1'
_cell_length_a   5.10017300
_cell_length_b   9.24723600
_cell_length_c   15.11402501
_cell_angle_alpha   90.00045845
_cell_angle_beta   89.99687338
_cell_angle_gamma   89.99944769
_symmetry_Int_Tables_number   1
_chemical_formula_structural   Sr6InHg12Bi5
_chemical_formula_sum   'Sr6 In1 Hg12 Bi5'
_cell_volume   712.81525447
_cell_formula_units_Z   1
loop_
 _symmetry_equiv_pos_site_id
 _symmetry_equiv_pos_as_xyz
  1  'x, y, z'
loop_
 _atom_site_type_symbol
 _atom_site_label
 _atom_site_symmetry_multiplicity
 _atom_site_fract_x
 _atom_site_fract_y
 _atom_site_fract_z
 _atom_site_occupancy
  Sr  Sr0  1  0.999999  0.000003  0.004544  1
  Sr  Sr1  1  0.499974  0.500003  0.163994  1
  Sr  Sr2  1  0.999979  0.000000  0.333330  1
  Sr  Sr3  1  0.499998  0.500001  0.502657  1
  Sr  Sr4  1  0.000016  0.999999  0.662113  1
  Sr  Sr5  1  0.500013  0.500002  0.833354  1
  In  In6  1  0.500008  0.000000  0.833333  1
  Hg  Hg7  1  0.500002  0.236814  0.993625  1
  Hg  Hg8  1  0.500003  0.763185  0.993625  1
  Hg  Hg9  1  0.999994  0.255744  0.165978  1
  Hg  Hg10  1  0.999989  0.744258  0.165978  1
  Hg  Hg11  1  0.499977  0.247169  0.333315  1
  Hg  Hg12  1  0.499976  0.752830  0.333317  1
  Hg  Hg13  1  0.999998  0.255750  0.500689  1
  Hg  Hg14  1  0.000001  0.744248  0.500687  1
  Hg  Hg15  1  0.500014  0.236839  0.673062  1
  Hg  Hg16  1  0.500017  0.763162  0.673062  1
  Hg  Hg17  1  0.000023  0.242814  0.833329  1
  Hg  Hg18  1  0.000022  0.757185  0.833329  1
  Bi  Bi19  1  0.999998  0.499997  0.995635  1
  Bi  Bi20  1  0.499993  0.999998  0.168695  1
  Bi  Bi21  1  0.999972  0.499998  0.333332  1
  Bi  Bi22  1  0.500000  0.000000  0.497980  1
  Bi  Bi23  1  0.000028  0.500002  0.671037  1
