# generated using pymatgen
data_Ce5Zr3(Co4P3)4
_symmetry_space_group_name_H-M   'P 1'
_cell_length_a   12.33938900
_cell_length_b   12.33938895
_cell_length_c   3.78227600
_cell_angle_alpha   90.00000000
_cell_angle_beta   90.00000000
_cell_angle_gamma   120.00000280
_symmetry_Int_Tables_number   1
_chemical_formula_structural   Ce5Zr3(Co4P3)4
_chemical_formula_sum   'Ce5 Zr3 Co16 P12'
_cell_volume   498.73649175
_cell_formula_units_Z   1
loop_
 _symmetry_equiv_pos_site_id
 _symmetry_equiv_pos_as_xyz
  1  'x, y, z'
loop_
 _atom_site_type_symbol
 _atom_site_label
 _atom_site_symmetry_multiplicity
 _atom_site_fract_x
 _atom_site_fract_y
 _atom_site_fract_z
 _atom_site_occupancy
  Ce  Ce0  1  0.666667  0.333333  0.000000  1
  Ce  Ce1  1  0.333333  0.666667  0.000000  1
  Ce  Ce2  1  0.817625  0.817625  0.500000  1
  Ce  Ce3  1  0.182375  0.000000  0.500000  1
  Ce  Ce4  1  0.000000  0.182375  0.500000  1
  Zr  Zr5  1  0.437173  0.437173  0.000000  1
  Zr  Zr6  1  0.562827  0.000000  0.000000  1
  Zr  Zr7  1  0.000000  0.562827  0.000000  1
  Co  Co8  1  0.876194  0.357045  0.500000  1
  Co  Co9  1  0.642955  0.519149  0.500000  1
  Co  Co10  1  0.480851  0.123806  0.500000  1
  Co  Co11  1  0.357045  0.876194  0.500000  1
  Co  Co12  1  0.519149  0.642955  0.500000  1
  Co  Co13  1  0.123806  0.480851  0.500000  1
  Co  Co14  1  0.807644  0.181983  0.000000  1
  Co  Co15  1  0.818017  0.625660  0.000000  1
  Co  Co16  1  0.374340  0.192356  0.000000  1
  Co  Co17  1  0.181983  0.807644  0.000000  1
  Co  Co18  1  0.625660  0.818017  0.000000  1
  Co  Co19  1  0.192356  0.374340  0.000000  1
  Co  Co20  1  0.277083  0.277083  0.500000  1
  Co  Co21  1  0.722917  0.000000  0.500000  1
  Co  Co22  1  0.000000  0.722917  0.500000  1
  Co  Co23  1  0.000000  0.000000  0.000000  1
  P  P24  1  0.696851  0.170959  0.500000  1
  P  P25  1  0.829041  0.525893  0.500000  1
  P  P26  1  0.474107  0.303149  0.500000  1
  P  P27  1  0.170959  0.696851  0.500000  1
  P  P28  1  0.525893  0.829041  0.500000  1
  P  P29  1  0.303149  0.474107  0.500000  1
  P  P30  1  0.181941  0.181941  0.000000  1
  P  P31  1  0.818059  0.000000  0.000000  1
  P  P32  1  0.000000  0.818059  0.000000  1
  P  P33  1  0.644087  0.644087  0.000000  1
  P  P34  1  0.355913  0.000000  0.000000  1
  P  P35  1  0.000000  0.355913  0.000000  1
