# generated using pymatgen
data_La3(CdSb3)2
_symmetry_space_group_name_H-M   'P 1'
_cell_length_a   4.36353800
_cell_length_b   11.14146500
_cell_length_c   13.58517500
_cell_angle_alpha   90.00000000
_cell_angle_beta   90.00000000
_cell_angle_gamma   90.00000000
_symmetry_Int_Tables_number   1
_chemical_formula_structural   La3(CdSb3)2
_chemical_formula_sum   'La6 Cd4 Sb12'
_cell_volume   660.45966503
_cell_formula_units_Z   2
loop_
 _symmetry_equiv_pos_site_id
 _symmetry_equiv_pos_as_xyz
  1  'x, y, z'
loop_
 _atom_site_type_symbol
 _atom_site_label
 _atom_site_symmetry_multiplicity
 _atom_site_fract_x
 _atom_site_fract_y
 _atom_site_fract_z
 _atom_site_occupancy
  La  La0  1  0.750000  0.266696  0.750000  1
  La  La1  1  0.750000  0.273747  0.413052  1
  La  La2  1  0.250000  0.726253  0.913052  1
  La  La3  1  0.250000  0.726253  0.586948  1
  La  La4  1  0.250000  0.733304  0.250000  1
  La  La5  1  0.750000  0.273747  0.086948  1
  Cd  Cd6  1  0.250000  0.002175  0.096677  1
  Cd  Cd7  1  0.250000  0.002175  0.403323  1
  Cd  Cd8  1  0.750000  0.997825  0.596677  1
  Cd  Cd9  1  0.750000  0.997825  0.903323  1
  Sb  Sb10  1  0.750000  0.502600  0.250000  1
  Sb  Sb11  1  0.750000  0.494387  0.916624  1
  Sb  Sb12  1  0.750000  0.820581  0.750000  1
  Sb  Sb13  1  0.750000  0.825802  0.418660  1
  Sb  Sb14  1  0.250000  0.174198  0.918660  1
  Sb  Sb15  1  0.250000  0.174198  0.581340  1
  Sb  Sb16  1  0.250000  0.179419  0.250000  1
  Sb  Sb17  1  0.250000  0.505613  0.083376  1
  Sb  Sb18  1  0.250000  0.497400  0.750000  1
  Sb  Sb19  1  0.250000  0.505613  0.416624  1
  Sb  Sb20  1  0.750000  0.494387  0.583376  1
  Sb  Sb21  1  0.750000  0.825802  0.081340  1
