# generated using pymatgen
data_Li8Pr8Sn7Sb
_symmetry_space_group_name_H-M   'P 1'
_cell_length_a   9.59465318
_cell_length_b   9.59465390
_cell_length_c   7.72756817
_cell_angle_alpha   89.94544639
_cell_angle_beta   90.05455407
_cell_angle_gamma   119.98417065
_symmetry_Int_Tables_number   1
_chemical_formula_structural   Li8Pr8Sn7Sb
_chemical_formula_sum   'Li8 Pr8 Sn7 Sb1'
_cell_volume   616.17072264
_cell_formula_units_Z   1
loop_
 _symmetry_equiv_pos_site_id
 _symmetry_equiv_pos_as_xyz
  1  'x, y, z'
loop_
 _atom_site_type_symbol
 _atom_site_label
 _atom_site_symmetry_multiplicity
 _atom_site_fract_x
 _atom_site_fract_y
 _atom_site_fract_z
 _atom_site_occupancy
  Li  Li0  1  0.833096  0.166904  0.714186  1
  Li  Li1  1  0.832883  0.665960  0.712419  1
  Li  Li2  1  0.334040  0.167117  0.712419  1
  Li  Li3  1  0.166982  0.833018  0.212994  1
  Li  Li4  1  0.166948  0.333753  0.211943  1
  Li  Li5  1  0.666247  0.833052  0.211943  1
  Li  Li6  1  0.666818  0.333182  0.332816  1
  Li  Li7  1  0.333300  0.666700  0.832022  1
  Pr  Pr8  1  0.488144  0.511856  0.504866  1
  Pr  Pr9  1  0.485469  0.975240  0.506482  1
  Pr  Pr10  1  0.024760  0.514531  0.506482  1
  Pr  Pr11  1  0.511822  0.488178  0.004643  1
  Pr  Pr12  1  0.509862  0.022469  0.004358  1
  Pr  Pr13  1  0.977531  0.490138  0.004358  1
  Pr  Pr14  1  0.000925  0.999075  0.502139  1
  Pr  Pr15  1  0.001036  0.998964  0.000524  1
  Sn  Sn16  1  0.833774  0.666708  0.270197  1
  Sn  Sn17  1  0.333292  0.166226  0.270197  1
  Sn  Sn18  1  0.166605  0.833395  0.769515  1
  Sn  Sn19  1  0.166193  0.333289  0.769910  1
  Sn  Sn20  1  0.666711  0.833807  0.769910  1
  Sn  Sn21  1  0.666934  0.333066  0.732999  1
  Sn  Sn22  1  0.333249  0.666751  0.232831  1
  Sb  Sb23  1  0.833379  0.166621  0.267852  1
