# generated using pymatgen
data_K16TiSnBiSb7
_symmetry_space_group_name_H-M   'P 1'
_cell_length_a   11.63468229
_cell_length_b   11.62663632
_cell_length_c   11.63305800
_cell_angle_alpha   59.98172755
_cell_angle_beta   60.00461808
_cell_angle_gamma   59.98415098
_symmetry_Int_Tables_number   1
_chemical_formula_structural   K16TiSnBiSb7
_chemical_formula_sum   'K16 Ti1 Sn1 Bi1 Sb7'
_cell_volume   1112.47591659
_cell_formula_units_Z   1
loop_
 _symmetry_equiv_pos_site_id
 _symmetry_equiv_pos_as_xyz
  1  'x, y, z'
loop_
 _atom_site_type_symbol
 _atom_site_label
 _atom_site_symmetry_multiplicity
 _atom_site_fract_x
 _atom_site_fract_y
 _atom_site_fract_z
 _atom_site_occupancy
  K  K0  1  0.624083  0.127650  0.624134  1
  K  K1  1  0.624293  0.623174  0.128215  1
  K  K2  1  0.128317  0.623122  0.624282  1
  K  K3  1  0.624293  0.623174  0.624318  1
  K  K4  1  0.017603  0.023182  0.479607  1
  K  K5  1  0.779109  0.220786  0.220849  1
  K  K6  1  0.219640  0.778959  0.781918  1
  K  K7  1  0.781716  0.779072  0.219607  1
  K  K8  1  0.779109  0.220786  0.779255  1
  K  K9  1  0.219640  0.778959  0.219485  1
  K  K10  1  0.479684  0.023236  0.479365  1
  K  K11  1  0.479684  0.023236  0.017714  1
  K  K12  1  0.022023  0.477454  0.478358  1
  K  K13  1  0.022023  0.477454  0.022165  1
  K  K14  1  0.220852  0.220664  0.779242  1
  K  K15  1  0.478451  0.477264  0.022142  1
  Ti  Ti16  1  0.750323  0.749379  0.750149  1
  Sn  Sn17  1  0.500364  0.498742  0.500447  1
  Bi  Bi18  1  0.393639  0.818910  0.393726  1
  Sb  Sb19  1  0.847870  0.846889  0.457443  1
  Sb  Sb20  1  0.457724  0.846812  0.847732  1
  Sb  Sb21  1  0.847870  0.846889  0.847798  1
  Sb  Sb22  1  0.811115  0.395912  0.396486  1
  Sb  Sb23  1  0.396344  0.395907  0.396443  1
  Sb  Sb24  1  0.396344  0.395907  0.811305  1
  Sb  Sb25  1  0.847887  0.456480  0.847818  1
