# generated using pymatgen
data_YHoSn5Rh3
_symmetry_space_group_name_H-M   'P 1'
_cell_length_a   13.46947753
_cell_length_b   13.46947739
_cell_length_c   7.29192000
_cell_angle_alpha   90.00000000
_cell_angle_beta   90.00000000
_cell_angle_gamma   161.11438285
_symmetry_Int_Tables_number   1
_chemical_formula_structural   YHoSn5Rh3
_chemical_formula_sum   'Y2 Ho2 Sn10 Rh6'
_cell_volume   428.21230302
_cell_formula_units_Z   2
loop_
 _symmetry_equiv_pos_site_id
 _symmetry_equiv_pos_as_xyz
  1  'x, y, z'
loop_
 _atom_site_type_symbol
 _atom_site_label
 _atom_site_symmetry_multiplicity
 _atom_site_fract_x
 _atom_site_fract_y
 _atom_site_fract_z
 _atom_site_occupancy
  Y  Y0  1  0.172597  0.827403  0.744657  1
  Y  Y1  1  0.827403  0.172597  0.244657  1
  Ho  Ho2  1  0.475951  0.524049  0.763165  1
  Ho  Ho3  1  0.524049  0.475951  0.263165  1
  Sn  Sn4  1  0.880851  0.119149  0.769682  1
  Sn  Sn5  1  0.119149  0.880851  0.269682  1
  Sn  Sn6  1  0.704564  0.295436  0.449866  1
  Sn  Sn7  1  0.295436  0.704564  0.949866  1
  Sn  Sn8  1  0.596320  0.403680  0.885507  1
  Sn  Sn9  1  0.403680  0.596320  0.385507  1
  Sn  Sn10  1  0.952492  0.047508  0.102229  1
  Sn  Sn11  1  0.047508  0.952492  0.602229  1
  Sn  Sn12  1  0.290689  0.709311  0.522527  1
  Sn  Sn13  1  0.709311  0.290689  0.022527  1
  Rh  Rh14  1  0.050061  0.949939  0.982166  1
  Rh  Rh15  1  0.949939  0.050061  0.482166  1
  Rh  Rh16  1  0.776889  0.223111  0.735047  1
  Rh  Rh17  1  0.223111  0.776889  0.235047  1
  Rh  Rh18  1  0.394017  0.605983  0.017154  1
  Rh  Rh19  1  0.605983  0.394017  0.517154  1
