# generated using pymatgen
data_Ca7Ac13Sn16
_symmetry_space_group_name_H-M   'P 1'
_cell_length_a   8.36508649
_cell_length_b   8.87401377
_cell_length_c   16.84527690
_cell_angle_alpha   90.12398804
_cell_angle_beta   90.29547901
_cell_angle_gamma   90.01980172
_symmetry_Int_Tables_number   1
_chemical_formula_structural   Ca7Ac13Sn16
_chemical_formula_sum   'Ca7 Ac13 Sn16'
_cell_volume   1250.43715147
_cell_formula_units_Z   1
loop_
 _symmetry_equiv_pos_site_id
 _symmetry_equiv_pos_as_xyz
  1  'x, y, z'
loop_
 _atom_site_type_symbol
 _atom_site_label
 _atom_site_symmetry_multiplicity
 _atom_site_fract_x
 _atom_site_fract_y
 _atom_site_fract_z
 _atom_site_occupancy
  Ca  Ca0  1  0.331998  0.827990  0.872548  1
  Ca  Ca1  1  0.827181  0.672784  0.623897  1
  Ca  Ca2  1  0.675869  0.169937  0.377189  1
  Ca  Ca3  1  0.163882  0.495939  0.749979  1
  Ca  Ca4  1  0.662982  0.005257  0.749295  1
  Ca  Ca5  1  0.834632  0.506681  0.252510  1
  Ca  Ca6  1  0.339402  0.992718  0.253104  1
  Ac  Ac7  1  0.168099  0.326320  0.122877  1
  Ac  Ac8  1  0.668315  0.169824  0.124348  1
  Ac  Ac9  1  0.169005  0.327798  0.378240  1
  Ac  Ac10  1  0.331460  0.828043  0.623849  1
  Ac  Ac11  1  0.834091  0.673773  0.874177  1
  Ac  Ac12  1  0.491105  0.318126  0.902691  1
  Ac  Ac13  1  0.988463  0.184915  0.597065  1
  Ac  Ac14  1  0.513343  0.685583  0.404629  1
  Ac  Ac15  1  0.009228  0.813780  0.097298  1
  Ac  Ac16  1  0.505674  0.685224  0.094897  1
  Ac  Ac17  1  0.006879  0.815542  0.406762  1
  Ac  Ac18  1  0.491916  0.315354  0.594747  1
  Ac  Ac19  1  0.991299  0.186086  0.902849  1
  Sn  Sn20  1  0.326338  0.030994  0.032589  1
  Sn  Sn21  1  0.825826  0.464505  0.463694  1
  Sn  Sn22  1  0.675009  0.964510  0.538171  1
  Sn  Sn23  1  0.179635  0.541501  0.959778  1
  Sn  Sn24  1  0.660161  0.964639  0.957665  1
  Sn  Sn25  1  0.155379  0.534807  0.543463  1
  Sn  Sn26  1  0.343755  0.033943  0.458289  1
  Sn  Sn27  1  0.824566  0.466417  0.037947  1
  Sn  Sn28  1  0.531012  0.601033  0.745954  1
  Sn  Sn29  1  0.030479  0.900432  0.751556  1
  Sn  Sn30  1  0.473769  0.398867  0.252281  1
  Sn  Sn31  1  0.970953  0.097993  0.253928  1
  Sn  Sn32  1  0.286471  0.138220  0.749571  1
  Sn  Sn33  1  0.786729  0.362747  0.748908  1
  Sn  Sn34  1  0.711903  0.859730  0.251923  1
  Sn  Sn35  1  0.213189  0.637989  0.251331  1
