# generated using pymatgen
data_Tm3Al7Si5Tc3
_symmetry_space_group_name_H-M   'P 1'
_cell_length_a   8.61765300
_cell_length_b   8.61765239
_cell_length_c   9.31707900
_cell_angle_alpha   90.00000000
_cell_angle_beta   90.00000000
_cell_angle_gamma   119.99999851
_symmetry_Int_Tables_number   1
_chemical_formula_structural   Tm3Al7Si5Tc3
_chemical_formula_sum   'Tm6 Al14 Si10 Tc6'
_cell_volume   599.22288426
_cell_formula_units_Z   2
loop_
 _symmetry_equiv_pos_site_id
 _symmetry_equiv_pos_as_xyz
  1  'x, y, z'
loop_
 _atom_site_type_symbol
 _atom_site_label
 _atom_site_symmetry_multiplicity
 _atom_site_fract_x
 _atom_site_fract_y
 _atom_site_fract_z
 _atom_site_occupancy
  Tm  Tm0  1  0.198611  0.801389  0.250000  1
  Tm  Tm1  1  0.198611  0.397222  0.250000  1
  Tm  Tm2  1  0.602778  0.801389  0.250000  1
  Tm  Tm3  1  0.801389  0.198611  0.750000  1
  Tm  Tm4  1  0.801389  0.602778  0.750000  1
  Tm  Tm5  1  0.397222  0.198611  0.750000  1
  Al  Al6  1  0.164385  0.835615  0.917604  1
  Al  Al7  1  0.164385  0.328769  0.917604  1
  Al  Al8  1  0.671231  0.835615  0.917604  1
  Al  Al9  1  0.835615  0.164385  0.082396  1
  Al  Al10  1  0.835615  0.671231  0.082396  1
  Al  Al11  1  0.328769  0.164385  0.082396  1
  Al  Al12  1  0.835615  0.164385  0.417604  1
  Al  Al13  1  0.835615  0.671231  0.417604  1
  Al  Al14  1  0.328769  0.164385  0.417604  1
  Al  Al15  1  0.164385  0.835615  0.582396  1
  Al  Al16  1  0.164385  0.328769  0.582396  1
  Al  Al17  1  0.671231  0.835615  0.582396  1
  Al  Al18  1  0.000000  0.000000  0.250000  1
  Al  Al19  1  0.000000  0.000000  0.750000  1
  Si  Si20  1  0.564827  0.435173  0.250000  1
  Si  Si21  1  0.564827  0.129656  0.250000  1
  Si  Si22  1  0.870344  0.435173  0.250000  1
  Si  Si23  1  0.435173  0.564827  0.750000  1
  Si  Si24  1  0.435173  0.870344  0.750000  1
  Si  Si25  1  0.129656  0.564827  0.750000  1
  Si  Si26  1  0.333333  0.666667  0.459128  1
  Si  Si27  1  0.666667  0.333333  0.540872  1
  Si  Si28  1  0.666667  0.333333  0.959128  1
  Si  Si29  1  0.333333  0.666667  0.040872  1
  Tc  Tc30  1  0.500000  0.500000  0.500000  1
  Tc  Tc31  1  0.500000  0.000000  0.500000  1
  Tc  Tc32  1  0.000000  0.500000  0.500000  1
  Tc  Tc33  1  0.500000  0.500000  0.000000  1
  Tc  Tc34  1  0.500000  0.000000  0.000000  1
  Tc  Tc35  1  0.000000  0.500000  0.000000  1
