# generated using pymatgen
data_Tb2C2Br
_symmetry_space_group_name_H-M   'P 1'
_cell_length_a   7.73441866
_cell_length_b   7.73441880
_cell_length_c   6.56228394
_cell_angle_alpha   101.79269649
_cell_angle_beta   101.79269596
_cell_angle_gamma   30.09637959
_symmetry_Int_Tables_number   1
_chemical_formula_structural   Tb2C2Br
_chemical_formula_sum   'Tb4 C4 Br2'
_cell_volume   192.39486227
_cell_formula_units_Z   2
loop_
 _symmetry_equiv_pos_site_id
 _symmetry_equiv_pos_as_xyz
  1  'x, y, z'
loop_
 _atom_site_type_symbol
 _atom_site_label
 _atom_site_symmetry_multiplicity
 _atom_site_fract_x
 _atom_site_fract_y
 _atom_site_fract_z
 _atom_site_occupancy
  Tb  Tb0  1  0.469223  0.845072  0.157162  1
  Tb  Tb1  1  0.154929  0.530777  0.342837  1
  Tb  Tb2  1  0.845072  0.469223  0.657163  1
  Tb  Tb3  1  0.530778  0.154929  0.842838  1
  C  C4  1  0.084583  0.356201  0.028187  1
  C  C5  1  0.643799  0.915418  0.471812  1
  C  C6  1  0.356201  0.084583  0.528188  1
  C  C7  1  0.915418  0.643799  0.971813  1
  Br  Br8  1  0.769897  0.230103  0.250000  1
  Br  Br9  1  0.230103  0.769897  0.750001  1
