# generated using pymatgen
data_YTh2(GaPt)3
_symmetry_space_group_name_H-M   'P 1'
_cell_length_a   7.29672372
_cell_length_b   7.29672350
_cell_length_c   4.09199800
_cell_angle_alpha   90.00000000
_cell_angle_beta   90.00000000
_cell_angle_gamma   119.82289014
_symmetry_Int_Tables_number   1
_chemical_formula_structural   YTh2(GaPt)3
_chemical_formula_sum   'Y1 Th2 Ga3 Pt3'
_cell_volume   189.01407636
_cell_formula_units_Z   1
loop_
 _symmetry_equiv_pos_site_id
 _symmetry_equiv_pos_as_xyz
  1  'x, y, z'
loop_
 _atom_site_type_symbol
 _atom_site_label
 _atom_site_symmetry_multiplicity
 _atom_site_fract_x
 _atom_site_fract_y
 _atom_site_fract_z
 _atom_site_occupancy
  Y  Y0  1  0.409045  0.409045  0.500000  1
  Th  Th1  1  0.584116  0.998693  0.500000  1
  Th  Th2  1  0.998693  0.584116  0.500000  1
  Ga  Ga3  1  0.752684  0.752684  0.000000  1
  Ga  Ga4  1  0.242926  0.008788  0.000000  1
  Ga  Ga5  1  0.008788  0.242926  0.000000  1
  Pt  Pt6  1  0.671544  0.333648  0.000000  1
  Pt  Pt7  1  0.333648  0.671544  0.000000  1
  Pt  Pt8  1  0.998556  0.998556  0.500000  1
