# generated using pymatgen
data_Sc3As2PIrRu2
_symmetry_space_group_name_H-M   'P 1'
_cell_length_a   6.67956306
_cell_length_b   6.66680792
_cell_length_c   3.73327700
_cell_angle_alpha   90.00000000
_cell_angle_beta   90.00000000
_cell_angle_gamma   119.93685081
_symmetry_Int_Tables_number   1
_chemical_formula_structural   Sc3As2PIrRu2
_chemical_formula_sum   'Sc3 As2 P1 Ir1 Ru2'
_cell_volume   144.06644769
_cell_formula_units_Z   1
loop_
 _symmetry_equiv_pos_site_id
 _symmetry_equiv_pos_as_xyz
  1  'x, y, z'
loop_
 _atom_site_type_symbol
 _atom_site_label
 _atom_site_symmetry_multiplicity
 _atom_site_fract_x
 _atom_site_fract_y
 _atom_site_fract_z
 _atom_site_occupancy
  Sc  Sc0  1  0.406599  0.406774  0.500000  1
  Sc  Sc1  1  0.593401  0.000175  0.500000  1
  Sc  Sc2  1  0.000000  0.588910  0.500000  1
  As  As3  1  0.664668  0.335029  0.000000  1
  As  As4  1  0.335332  0.670361  0.000000  1
  P  P5  1  0.000000  0.992366  0.500000  1
  Ir  Ir6  1  0.000000  0.239544  0.000000  1
  Ru  Ru7  1  0.236864  0.001852  0.000000  1
  Ru  Ru8  1  0.763136  0.764988  0.000000  1
