# generated using pymatgen
data_Pr3Th(HgAu2)2
_symmetry_space_group_name_H-M   'P 1'
_cell_length_a   8.24588445
_cell_length_b   8.24588407
_cell_length_c   3.84382800
_cell_angle_alpha   90.00000000
_cell_angle_beta   90.00000000
_cell_angle_gamma   90.64879684
_symmetry_Int_Tables_number   1
_chemical_formula_structural   Pr3Th(HgAu2)2
_chemical_formula_sum   'Pr3 Th1 Hg2 Au4'
_cell_volume   261.34281876
_cell_formula_units_Z   1
loop_
 _symmetry_equiv_pos_site_id
 _symmetry_equiv_pos_as_xyz
  1  'x, y, z'
loop_
 _atom_site_type_symbol
 _atom_site_label
 _atom_site_symmetry_multiplicity
 _atom_site_fract_x
 _atom_site_fract_y
 _atom_site_fract_z
 _atom_site_occupancy
  Pr  Pr0  1  0.324843  0.824843  0.500000  1
  Pr  Pr1  1  0.173794  0.325741  0.500000  1
  Pr  Pr2  1  0.825741  0.673794  0.500000  1
  Th  Th3  1  0.672646  0.172646  0.500000  1
  Hg  Hg4  1  0.001941  0.000122  0.000000  1
  Hg  Hg5  1  0.500122  0.501941  0.000000  1
  Au  Au6  1  0.123285  0.623285  0.000000  1
  Au  Au7  1  0.869847  0.369847  0.000000  1
  Au  Au8  1  0.628763  0.879020  0.000000  1
  Au  Au9  1  0.379020  0.128763  0.000000  1
