# generated using pymatgen
data_Dy2Al9Ir2Au
_symmetry_space_group_name_H-M   'P 1'
_cell_length_a   7.64502833
_cell_length_b   7.64502814
_cell_length_c   9.45797900
_cell_angle_alpha   90.00000000
_cell_angle_beta   90.00000000
_cell_angle_gamma   119.71437832
_symmetry_Int_Tables_number   1
_chemical_formula_structural   Dy2Al9Ir2Au
_chemical_formula_sum   'Dy4 Al18 Ir4 Au2'
_cell_volume   480.09803946
_cell_formula_units_Z   2
loop_
 _symmetry_equiv_pos_site_id
 _symmetry_equiv_pos_as_xyz
  1  'x, y, z'
loop_
 _atom_site_type_symbol
 _atom_site_label
 _atom_site_symmetry_multiplicity
 _atom_site_fract_x
 _atom_site_fract_y
 _atom_site_fract_z
 _atom_site_occupancy
  Dy  Dy0  1  0.995050  0.675223  0.750000  1
  Dy  Dy1  1  0.004950  0.324777  0.250000  1
  Dy  Dy2  1  0.675223  0.995050  0.750000  1
  Dy  Dy3  1  0.324777  0.004950  0.250000  1
  Al  Al4  1  0.138904  0.138904  0.750000  1
  Al  Al5  1  0.861096  0.861096  0.250000  1
  Al  Al6  1  0.000085  0.344480  0.577388  1
  Al  Al7  1  0.999915  0.655520  0.422612  1
  Al  Al8  1  0.999915  0.655520  0.077388  1
  Al  Al9  1  0.344480  0.000085  0.922612  1
  Al  Al10  1  0.000085  0.344480  0.922612  1
  Al  Al11  1  0.655520  0.999915  0.077388  1
  Al  Al12  1  0.655520  0.999915  0.422612  1
  Al  Al13  1  0.344480  0.000085  0.577388  1
  Al  Al14  1  0.341723  0.341723  0.058989  1
  Al  Al15  1  0.658277  0.658277  0.941011  1
  Al  Al16  1  0.658277  0.658277  0.558989  1
  Al  Al17  1  0.341723  0.341723  0.441011  1
  Al  Al18  1  0.336687  0.550082  0.750000  1
  Al  Al19  1  0.663313  0.449918  0.250000  1
  Al  Al20  1  0.550082  0.336687  0.750000  1
  Al  Al21  1  0.449918  0.663313  0.250000  1
  Ir  Ir22  1  0.671393  0.328607  0.500000  1
  Ir  Ir23  1  0.328607  0.671393  0.500000  1
  Ir  Ir24  1  0.328607  0.671393  0.000000  1
  Ir  Ir25  1  0.671393  0.328607  0.000000  1
  Au  Au26  1  0.000000  0.000000  0.500000  1
  Au  Au27  1  0.000000  0.000000  0.000000  1
