# generated using pymatgen
data_TbNd3GaI6
_symmetry_space_group_name_H-M   'P 1'
_cell_length_a   4.36633000
_cell_length_b   14.38139766
_cell_length_c   15.21347100
_cell_angle_alpha   90.01737431
_cell_angle_beta   90.00000000
_cell_angle_gamma   90.00000000
_symmetry_Int_Tables_number   1
_chemical_formula_structural   TbNd3GaI6
_chemical_formula_sum   'Tb2 Nd6 Ga2 I12'
_cell_volume   955.31355944
_cell_formula_units_Z   2
loop_
 _symmetry_equiv_pos_site_id
 _symmetry_equiv_pos_as_xyz
  1  'x, y, z'
loop_
 _atom_site_type_symbol
 _atom_site_label
 _atom_site_symmetry_multiplicity
 _atom_site_fract_x
 _atom_site_fract_y
 _atom_site_fract_z
 _atom_site_occupancy
  Tb  Tb0  1  0.000000  0.611761  0.925310  1
  Tb  Tb1  1  0.000000  0.388239  0.074690  1
  Nd  Nd2  1  0.500000  0.117497  0.341929  1
  Nd  Nd3  1  0.500000  0.882503  0.658071  1
  Nd  Nd4  1  0.500000  0.615607  0.155758  1
  Nd  Nd5  1  0.500000  0.384393  0.844242  1
  Nd  Nd6  1  0.000000  0.116991  0.578372  1
  Nd  Nd7  1  0.000000  0.883009  0.421628  1
  Ga  Ga8  1  0.500000  0.000000  0.500000  1
  Ga  Ga9  1  0.500000  0.500000  0.000000  1
  I  I10  1  0.500000  0.252260  0.160490  1
  I  I11  1  0.500000  0.747740  0.839510  1
  I  I12  1  0.500000  0.744295  0.334902  1
  I  I13  1  0.500000  0.255705  0.665098  1
  I  I14  1  0.000000  0.260927  0.414208  1
  I  I15  1  0.000000  0.739073  0.585792  1
  I  I16  1  0.000000  0.758039  0.081274  1
  I  I17  1  0.000000  0.241961  0.918726  1
  I  I18  1  0.000000  0.998092  0.238004  1
  I  I19  1  0.000000  0.001908  0.761996  1
  I  I20  1  0.000000  0.494017  0.257518  1
  I  I21  1  0.000000  0.505983  0.742482  1
