# generated using pymatgen
data_ZrTc6AgO24
_symmetry_space_group_name_H-M   'P 1'
_cell_length_a   10.48373421
_cell_length_b   10.48373256
_cell_length_c   10.48373200
_cell_angle_alpha   49.04577485
_cell_angle_beta   49.04578268
_cell_angle_gamma   49.04578402
_symmetry_Int_Tables_number   1
_chemical_formula_structural   ZrTc6AgO24
_chemical_formula_sum   'Zr1 Tc6 Ag1 O24'
_cell_volume   603.50999231
_cell_formula_units_Z   1
loop_
 _symmetry_equiv_pos_site_id
 _symmetry_equiv_pos_as_xyz
  1  'x, y, z'
loop_
 _atom_site_type_symbol
 _atom_site_label
 _atom_site_symmetry_multiplicity
 _atom_site_fract_x
 _atom_site_fract_y
 _atom_site_fract_z
 _atom_site_occupancy
  Zr  Zr0  1  0.500000  0.500000  0.500000  1
  Tc  Tc1  1  0.577994  0.941101  0.240333  1
  Tc  Tc2  1  0.240333  0.577994  0.941101  1
  Tc  Tc3  1  0.941101  0.240333  0.577994  1
  Tc  Tc4  1  0.759667  0.422006  0.058899  1
  Tc  Tc5  1  0.058899  0.759667  0.422006  1
  Tc  Tc6  1  0.422006  0.058899  0.759667  1
  Ag  Ag7  1  0.000000  0.000000  0.000000  1
  O  O8  1  0.803389  0.862083  0.203213  1
  O  O9  1  0.203213  0.803389  0.862083  1
  O  O10  1  0.862083  0.203213  0.803389  1
  O  O11  1  0.640439  0.474959  0.252407  1
  O  O12  1  0.252407  0.640439  0.474959  1
  O  O13  1  0.474959  0.252407  0.640439  1
  O  O14  1  0.196611  0.137917  0.796787  1
  O  O15  1  0.796787  0.196611  0.137917  1
  O  O16  1  0.137917  0.796787  0.196611  1
  O  O17  1  0.359561  0.525041  0.747593  1
  O  O18  1  0.747593  0.359561  0.525041  1
  O  O19  1  0.525041  0.747593  0.359561  1
  O  O20  1  0.429713  0.068183  0.369198  1
  O  O21  1  0.369198  0.429713  0.068183  1
  O  O22  1  0.068183  0.369198  0.429713  1
  O  O23  1  0.966594  0.441881  0.924716  1
  O  O24  1  0.924716  0.966594  0.441881  1
  O  O25  1  0.441881  0.924716  0.966594  1
  O  O26  1  0.570287  0.931817  0.630802  1
  O  O27  1  0.630802  0.570287  0.931817  1
  O  O28  1  0.931817  0.630802  0.570287  1
  O  O29  1  0.033406  0.558119  0.075284  1
  O  O30  1  0.075284  0.033406  0.558119  1
  O  O31  1  0.558119  0.075284  0.033406  1
