# generated using pymatgen
data_Pr2Al2Ru2C
_symmetry_space_group_name_H-M   'P 1'
_cell_length_a   6.18386985
_cell_length_b   6.18386938
_cell_length_c   7.42462793
_cell_angle_alpha   127.96327875
_cell_angle_beta   127.96327903
_cell_angle_gamma   40.50726037
_symmetry_Int_Tables_number   1
_chemical_formula_structural   Pr2Al2Ru2C
_chemical_formula_sum   'Pr2 Al2 Ru2 C1'
_cell_volume   139.24007570
_cell_formula_units_Z   1
loop_
 _symmetry_equiv_pos_site_id
 _symmetry_equiv_pos_as_xyz
  1  'x, y, z'
loop_
 _atom_site_type_symbol
 _atom_site_label
 _atom_site_symmetry_multiplicity
 _atom_site_fract_x
 _atom_site_fract_y
 _atom_site_fract_z
 _atom_site_occupancy
  Pr  Pr0  1  0.557300  0.557300  0.288406  1
  Pr  Pr1  1  0.442700  0.442700  0.711592  1
  Al  Al2  1  0.835426  0.835426  0.276720  1
  Al  Al3  1  0.164574  0.164574  0.723280  1
  Ru  Ru4  1  0.195046  0.195046  0.091506  1
  Ru  Ru5  1  0.804955  0.804955  0.908494  1
  C  C6  1  0.000000  0.000000  0.000000  1
