# generated using pymatgen
data_Dy7Ho3(SiHg)4
_symmetry_space_group_name_H-M   'P 1'
_cell_length_a   8.77412206
_cell_length_b   8.77286037
_cell_length_c   7.55882005
_cell_angle_alpha   89.99657593
_cell_angle_beta   90.01200437
_cell_angle_gamma   129.18532973
_symmetry_Int_Tables_number   1
_chemical_formula_structural   Dy7Ho3(SiHg)4
_chemical_formula_sum   'Dy7 Ho3 Si4 Hg4'
_cell_volume   450.98297321
_cell_formula_units_Z   1
loop_
 _symmetry_equiv_pos_site_id
 _symmetry_equiv_pos_as_xyz
  1  'x, y, z'
loop_
 _atom_site_type_symbol
 _atom_site_label
 _atom_site_symmetry_multiplicity
 _atom_site_fract_x
 _atom_site_fract_y
 _atom_site_fract_z
 _atom_site_occupancy
  Dy  Dy0  1  0.053928  0.308658  0.324369  1
  Dy  Dy1  1  0.946157  0.691391  0.675595  1
  Dy  Dy2  1  0.446015  0.191272  0.824314  1
  Dy  Dy3  1  0.808699  0.553948  0.175708  1
  Dy  Dy4  1  0.553885  0.808653  0.175696  1
  Dy  Dy5  1  0.191327  0.446066  0.824342  1
  Dy  Dy6  1  0.691374  0.946065  0.675647  1
  Ho  Ho7  1  0.308514  0.053914  0.324431  1
  Ho  Ho8  1  0.000089  0.999987  0.000059  1
  Ho  Ho9  1  0.499972  0.499930  0.499978  1
  Si  Si10  1  0.380212  0.380035  0.122347  1
  Si  Si11  1  0.619762  0.619743  0.877796  1
  Si  Si12  1  0.119804  0.119721  0.622027  1
  Si  Si13  1  0.880444  0.880352  0.377796  1
  Hg  Hg14  1  0.782665  0.217352  0.999995  1
  Hg  Hg15  1  0.217392  0.782817  0.000179  1
  Hg  Hg16  1  0.717064  0.282506  0.499856  1
  Hg  Hg17  1  0.282697  0.717588  0.499866  1
