# generated using pymatgen
data_Tb2YSiAg3Ge2
_symmetry_space_group_name_H-M   'P 1'
_cell_length_a   7.17744288
_cell_length_b   7.17761597
_cell_length_c   4.20979000
_cell_angle_alpha   90.00000000
_cell_angle_beta   90.00000000
_cell_angle_gamma   119.94247637
_symmetry_Int_Tables_number   1
_chemical_formula_structural   Tb2YSiAg3Ge2
_chemical_formula_sum   'Tb2 Y1 Si1 Ag3 Ge2'
_cell_volume   187.92842429
_cell_formula_units_Z   1
loop_
 _symmetry_equiv_pos_site_id
 _symmetry_equiv_pos_as_xyz
  1  'x, y, z'
loop_
 _atom_site_type_symbol
 _atom_site_label
 _atom_site_symmetry_multiplicity
 _atom_site_fract_x
 _atom_site_fract_y
 _atom_site_fract_z
 _atom_site_occupancy
  Tb  Tb0  1  0.583487  0.997839  0.000000  1
  Tb  Tb1  1  0.001798  0.585497  0.000000  1
  Y  Y2  1  0.414093  0.416299  0.000000  1
  Si  Si3  1  0.333710  0.666547  0.500000  1
  Ag  Ag4  1  0.252772  0.994710  0.500000  1
  Ag  Ag5  1  0.005558  0.258122  0.500000  1
  Ag  Ag6  1  0.741840  0.747248  0.500000  1
  Ge  Ge7  1  0.666634  0.333632  0.500000  1
  Ge  Ge8  1  0.000107  0.000105  0.000000  1
