# generated using pymatgen
data_La7Nd9(InRh)4
_symmetry_space_group_name_H-M   'P 1'
_cell_length_a   10.03933254
_cell_length_b   10.03676295
_cell_length_c   10.10172800
_cell_angle_alpha   59.80252287
_cell_angle_beta   60.22315993
_cell_angle_gamma   60.42015145
_symmetry_Int_Tables_number   1
_chemical_formula_structural   La7Nd9(InRh)4
_chemical_formula_sum   'La7 Nd9 In4 Rh4'
_cell_volume   722.12518693
_cell_formula_units_Z   1
loop_
 _symmetry_equiv_pos_site_id
 _symmetry_equiv_pos_as_xyz
  1  'x, y, z'
loop_
 _atom_site_type_symbol
 _atom_site_label
 _atom_site_symmetry_multiplicity
 _atom_site_fract_x
 _atom_site_fract_y
 _atom_site_fract_z
 _atom_site_occupancy
  La  La0  1  0.348516  0.347978  0.349161  1
  La  La1  1  0.349111  0.347274  0.955367  1
  La  La2  1  0.349161  0.954345  0.348516  1
  La  La3  1  0.955367  0.348247  0.349111  1
  La  La4  1  0.808869  0.191440  0.188384  1
  La  La5  1  0.188384  0.811307  0.808869  1
  La  La6  1  0.190541  0.809459  0.190541  1
  Nd  Nd7  1  0.807331  0.192669  0.807331  1
  Nd  Nd8  1  0.192236  0.195494  0.804930  1
  Nd  Nd9  1  0.804930  0.807342  0.192236  1
  Nd  Nd10  1  0.936277  0.562805  0.564012  1
  Nd  Nd11  1  0.564012  0.936905  0.936277  1
  Nd  Nd12  1  0.563482  0.936518  0.563482  1
  Nd  Nd13  1  0.937354  0.562646  0.937354  1
  Nd  Nd14  1  0.563789  0.562273  0.936313  1
  Nd  Nd15  1  0.936313  0.937625  0.563789  1
  In  In16  1  0.583245  0.580186  0.579796  1
  In  In17  1  0.581842  0.582205  0.257043  1
  In  In18  1  0.579796  0.256773  0.583245  1
  In  In19  1  0.257043  0.578910  0.581842  1
  Rh  Rh20  1  0.138831  0.139326  0.145187  1
  Rh  Rh21  1  0.143396  0.137426  0.574988  1
  Rh  Rh22  1  0.145187  0.576655  0.138831  1
  Rh  Rh23  1  0.574988  0.144190  0.143396  1
