# generated using pymatgen
data_TiBe8VTc2
_symmetry_space_group_name_H-M   'P 1'
_cell_length_a   4.38842800
_cell_length_b   4.38842925
_cell_length_c   7.17508300
_cell_angle_alpha   90.00000000
_cell_angle_beta   90.00000000
_cell_angle_gamma   120.00000563
_symmetry_Int_Tables_number   1
_chemical_formula_structural   TiBe8VTc2
_chemical_formula_sum   'Ti1 Be8 V1 Tc2'
_cell_volume   119.66733381
_cell_formula_units_Z   1
loop_
 _symmetry_equiv_pos_site_id
 _symmetry_equiv_pos_as_xyz
  1  'x, y, z'
loop_
 _atom_site_type_symbol
 _atom_site_label
 _atom_site_symmetry_multiplicity
 _atom_site_fract_x
 _atom_site_fract_y
 _atom_site_fract_z
 _atom_site_occupancy
  Ti  Ti0  1  0.666667  0.333333  0.935075  1
  Be  Be1  1  0.000000  0.000000  0.002288  1
  Be  Be2  1  0.000000  0.000000  0.502201  1
  Be  Be3  1  0.830883  0.661765  0.251596  1
  Be  Be4  1  0.170138  0.829862  0.747917  1
  Be  Be5  1  0.659723  0.829862  0.747917  1
  Be  Be6  1  0.338235  0.169117  0.251596  1
  Be  Be7  1  0.830883  0.169117  0.251596  1
  Be  Be8  1  0.170138  0.340277  0.747917  1
  V  V9  1  0.333333  0.666667  0.436004  1
  Tc  Tc10  1  0.333333  0.666667  0.067573  1
  Tc  Tc11  1  0.666667  0.333333  0.558317  1
