# generated using pymatgen
data_TlCd4In(BiO6)2
_symmetry_space_group_name_H-M   'P 1'
_cell_length_a   6.67154775
_cell_length_b   6.69762921
_cell_length_c   6.72430484
_cell_angle_alpha   90.40520439
_cell_angle_beta   90.11301646
_cell_angle_gamma   90.15013945
_symmetry_Int_Tables_number   1
_chemical_formula_structural   TlCd4In(BiO6)2
_chemical_formula_sum   'Tl1 Cd4 In1 Bi2 O12'
_cell_volume   300.45669175
_cell_formula_units_Z   1
loop_
 _symmetry_equiv_pos_site_id
 _symmetry_equiv_pos_as_xyz
  1  'x, y, z'
loop_
 _atom_site_type_symbol
 _atom_site_label
 _atom_site_symmetry_multiplicity
 _atom_site_fract_x
 _atom_site_fract_y
 _atom_site_fract_z
 _atom_site_occupancy
  Tl  Tl0  1  0.054456  0.745798  0.563521  1
  Cd  Cd1  1  0.560899  0.050709  0.749055  1
  Cd  Cd2  1  0.946265  0.250736  0.435701  1
  Cd  Cd3  1  0.253364  0.433866  0.952167  1
  Cd  Cd4  1  0.438528  0.957311  0.252863  1
  In  In5  1  0.746090  0.565722  0.053000  1
  Bi  Bi6  1  0.503724  0.501676  0.501512  1
  Bi  Bi7  1  0.997163  0.001118  0.001469  1
  O  O8  1  0.028738  0.686541  0.916903  1
  O  O9  1  0.694193  0.896177  0.039409  1
  O  O10  1  0.914681  0.029547  0.693597  1
  O  O11  1  0.941437  0.306133  0.088183  1
  O  O12  1  0.300682  0.091982  0.960536  1
  O  O13  1  0.090740  0.960765  0.304125  1
  O  O14  1  0.807125  0.577515  0.400574  1
  O  O15  1  0.579811  0.433075  0.805906  1
  O  O16  1  0.411305  0.803231  0.563881  1
  O  O17  1  0.195998  0.435763  0.581797  1
  O  O18  1  0.448085  0.571989  0.193727  1
  O  O19  1  0.586719  0.200342  0.442073  1
