# generated using pymatgen
data_HoCu3HgPd
_symmetry_space_group_name_H-M   'P 1'
_cell_length_a   5.18734972
_cell_length_b   5.18734985
_cell_length_c   5.18735101
_cell_angle_alpha   58.98457436
_cell_angle_beta   58.98457915
_cell_angle_gamma   58.98456829
_symmetry_Int_Tables_number   1
_chemical_formula_structural   HoCu3HgPd
_chemical_formula_sum   'Ho1 Cu3 Hg1 Pd1'
_cell_volume   96.41468155
_cell_formula_units_Z   1
loop_
 _symmetry_equiv_pos_site_id
 _symmetry_equiv_pos_as_xyz
  1  'x, y, z'
loop_
 _atom_site_type_symbol
 _atom_site_label
 _atom_site_symmetry_multiplicity
 _atom_site_fract_x
 _atom_site_fract_y
 _atom_site_fract_z
 _atom_site_occupancy
  Ho  Ho0  1  0.252043  0.252043  0.252043  1
  Cu  Cu1  1  0.624253  0.624253  0.121928  1
  Cu  Cu2  1  0.624253  0.121928  0.624253  1
  Cu  Cu3  1  0.121928  0.624253  0.624253  1
  Hg  Hg4  1  0.004302  0.004302  0.004302  1
  Pd  Pd5  1  0.623221  0.623221  0.623221  1
