# generated using pymatgen
data_Nd5DyRuBr10
_symmetry_space_group_name_H-M   'P 1'
_cell_length_a   7.60446483
_cell_length_b   9.50928912
_cell_length_c   9.52018454
_cell_angle_alpha   108.62018752
_cell_angle_beta   96.38967357
_cell_angle_gamma   105.90533980
_symmetry_Int_Tables_number   1
_chemical_formula_structural   Nd5DyRuBr10
_chemical_formula_sum   'Nd5 Dy1 Ru1 Br10'
_cell_volume   612.31420228
_cell_formula_units_Z   1
loop_
 _symmetry_equiv_pos_site_id
 _symmetry_equiv_pos_as_xyz
  1  'x, y, z'
loop_
 _atom_site_type_symbol
 _atom_site_label
 _atom_site_symmetry_multiplicity
 _atom_site_fract_x
 _atom_site_fract_y
 _atom_site_fract_z
 _atom_site_occupancy
  Nd  Nd0  1  0.123936  0.044771  0.754117  1
  Nd  Nd1  1  0.870656  0.951523  0.243912  1
  Nd  Nd2  1  0.970131  0.294889  0.092108  1
  Nd  Nd3  1  0.025769  0.703212  0.904822  1
  Nd  Nd4  1  0.371158  0.142352  0.187628  1
  Dy  Dy5  1  0.637724  0.863369  0.818894  1
  Ru  Ru6  1  0.999102  0.999293  0.000135  1
  Br  Br7  1  0.549024  0.169237  0.914392  1
  Br  Br8  1  0.452458  0.823952  0.075514  1
  Br  Br9  1  0.355438  0.457074  0.271944  1
  Br  Br10  1  0.637810  0.553320  0.725943  1
  Br  Br11  1  0.249538  0.081884  0.454797  1
  Br  Br12  1  0.741046  0.912819  0.550010  1
  Br  Br13  1  0.797964  0.259502  0.353435  1
  Br  Br14  1  0.220118  0.744955  0.654811  1
  Br  Br15  1  0.087967  0.366318  0.826461  1
  Br  Br16  1  0.910162  0.631529  0.171078  1
