# generated using pymatgen
data_Zr10BeAlSiSb5
_symmetry_space_group_name_H-M   'P 1'
_cell_length_a   8.58011752
_cell_length_b   8.60279022
_cell_length_c   5.81436700
_cell_angle_alpha   89.98287032
_cell_angle_beta   90.03434989
_cell_angle_gamma   119.91284875
_symmetry_Int_Tables_number   1
_chemical_formula_structural   Zr10BeAlSiSb5
_chemical_formula_sum   'Zr10 Be1 Al1 Si1 Sb5'
_cell_volume   372.00286839
_cell_formula_units_Z   1
loop_
 _symmetry_equiv_pos_site_id
 _symmetry_equiv_pos_as_xyz
  1  'x, y, z'
loop_
 _atom_site_type_symbol
 _atom_site_label
 _atom_site_symmetry_multiplicity
 _atom_site_fract_x
 _atom_site_fract_y
 _atom_site_fract_z
 _atom_site_occupancy
  Zr  Zr0  1  0.263891  0.000000  0.245922  1
  Zr  Zr1  1  0.252589  0.250968  0.754083  1
  Zr  Zr2  1  0.001620  0.749032  0.754083  1
  Zr  Zr3  1  0.992332  0.256881  0.244671  1
  Zr  Zr4  1  0.735451  0.743119  0.244671  1
  Zr  Zr5  1  0.748544  0.000000  0.756407  1
  Zr  Zr6  1  0.335225  0.668550  0.002802  1
  Zr  Zr7  1  0.666758  0.331276  0.497208  1
  Zr  Zr8  1  0.666677  0.331450  0.002802  1
  Zr  Zr9  1  0.335481  0.668724  0.497208  1
  Be  Be10  1  0.999497  0.000000  0.014299  1
  Al  Al11  1  0.609157  0.000000  0.249241  1
  Si  Si12  1  0.999406  0.000000  0.486790  1
  Sb  Sb13  1  0.606572  0.606119  0.750130  1
  Sb  Sb14  1  0.000452  0.393881  0.750130  1
  Sb  Sb15  1  0.998857  0.611403  0.249294  1
  Sb  Sb16  1  0.387454  0.388597  0.249294  1
  Sb  Sb17  1  0.400037  0.000000  0.750964  1
