# generated using pymatgen
data_NaEuB2Pt7Pb
_symmetry_space_group_name_H-M   'P 1'
_cell_length_a   8.31186012
_cell_length_b   8.31185969
_cell_length_c   8.31185882
_cell_angle_alpha   38.98598696
_cell_angle_beta   38.98598129
_cell_angle_gamma   38.98598130
_symmetry_Int_Tables_number   1
_chemical_formula_structural   NaEuB2Pt7Pb
_chemical_formula_sum   'Na1 Eu1 B2 Pt7 Pb1'
_cell_volume   204.39790726
_cell_formula_units_Z   1
loop_
 _symmetry_equiv_pos_site_id
 _symmetry_equiv_pos_as_xyz
  1  'x, y, z'
loop_
 _atom_site_type_symbol
 _atom_site_label
 _atom_site_symmetry_multiplicity
 _atom_site_fract_x
 _atom_site_fract_y
 _atom_site_fract_z
 _atom_site_occupancy
  Na  Na0  1  0.998398  0.998398  0.998398  1
  Eu  Eu1  1  0.141133  0.141133  0.141133  1
  B  B2  1  0.668044  0.668044  0.668044  1
  B  B3  1  0.332657  0.332657  0.332657  1
  Pt  Pt4  1  0.436014  0.933781  0.436014  1
  Pt  Pt5  1  0.436014  0.436014  0.933781  1
  Pt  Pt6  1  0.933781  0.436014  0.436014  1
  Pt  Pt7  1  0.563427  0.066747  0.563427  1
  Pt  Pt8  1  0.563427  0.563427  0.066747  1
  Pt  Pt9  1  0.066747  0.563427  0.563427  1
  Pt  Pt10  1  0.499426  0.499426  0.499426  1
  Pb  Pb11  1  0.860931  0.860931  0.860931  1
