# generated using pymatgen
data_Ac4Sn3
_symmetry_space_group_name_H-M   'P 1'
_cell_length_a   8.83792910
_cell_length_b   8.83793562
_cell_length_c   8.83799615
_cell_angle_alpha   109.47435114
_cell_angle_beta   109.46987910
_cell_angle_gamma   109.46960871
_symmetry_Int_Tables_number   1
_chemical_formula_structural   Ac4Sn3
_chemical_formula_sum   'Ac8 Sn6'
_cell_volume   531.41317110
_cell_formula_units_Z   2
loop_
 _symmetry_equiv_pos_site_id
 _symmetry_equiv_pos_as_xyz
  1  'x, y, z'
loop_
 _atom_site_type_symbol
 _atom_site_label
 _atom_site_symmetry_multiplicity
 _atom_site_fract_x
 _atom_site_fract_y
 _atom_site_fract_z
 _atom_site_occupancy
  Ac  Ac0  1  0.362910  0.500077  0.000373  1
  Ac  Ac1  1  0.861535  0.500098  0.000473  1
  Ac  Ac2  1  0.138465  0.138564  0.138938  1
  Ac  Ac3  1  0.499864  0.000157  0.362054  1
  Ac  Ac4  1  0.999950  0.361788  0.499244  1
  Ac  Ac5  1  0.000050  0.861838  0.499294  1
  Ac  Ac6  1  0.637091  0.637169  0.637464  1
  Ac  Ac7  1  0.500135  0.000293  0.862190  1
  Sn  Sn8  1  0.749989  0.875399  0.124576  1
  Sn  Sn9  1  0.625557  0.375049  0.250391  1
  Sn  Sn10  1  0.250011  0.625410  0.374586  1
  Sn  Sn11  1  0.374443  0.249493  0.624834  1
  Sn  Sn12  1  0.875259  0.124962  0.750422  1
  Sn  Sn13  1  0.124740  0.749702  0.875160  1
