# generated using pymatgen
data_SmFeCo(Sb6Os)2
_symmetry_space_group_name_H-M   'P 1'
_cell_length_a   8.05907722
_cell_length_b   8.01494370
_cell_length_c   8.07933964
_cell_angle_alpha   109.50353662
_cell_angle_beta   109.69891357
_cell_angle_gamma   109.48256134
_symmetry_Int_Tables_number   1
_chemical_formula_structural   SmFeCo(Sb6Os)2
_chemical_formula_sum   'Sm1 Fe1 Co1 Sb12 Os2'
_cell_volume   400.38280074
_cell_formula_units_Z   1
loop_
 _symmetry_equiv_pos_site_id
 _symmetry_equiv_pos_as_xyz
  1  'x, y, z'
loop_
 _atom_site_type_symbol
 _atom_site_label
 _atom_site_symmetry_multiplicity
 _atom_site_fract_x
 _atom_site_fract_y
 _atom_site_fract_z
 _atom_site_occupancy
  Sm  Sm0  1  0.000000  0.000000  0.000000  1
  Fe  Fe1  1  0.500000  0.000000  0.000000  1
  Co  Co2  1  0.000000  0.000000  0.500000  1
  Sb  Sb3  1  0.334045  0.171399  0.840534  1
  Sb  Sb4  1  0.665955  0.828601  0.159466  1
  Sb  Sb5  1  0.659130  0.503230  0.843483  1
  Sb  Sb6  1  0.340870  0.496770  0.156517  1
  Sb  Sb7  1  0.178578  0.847073  0.342029  1
  Sb  Sb8  1  0.821422  0.152927  0.657971  1
  Sb  Sb9  1  0.504829  0.847228  0.671217  1
  Sb  Sb10  1  0.495171  0.152772  0.328783  1
  Sb  Sb11  1  0.834371  0.329476  0.175793  1
  Sb  Sb12  1  0.165629  0.670524  0.824207  1
  Sb  Sb13  1  0.846655  0.668243  0.505078  1
  Sb  Sb14  1  0.153345  0.331757  0.494922  1
  Os  Os15  1  0.000000  0.500000  0.000000  1
  Os  Os16  1  0.500000  0.500000  0.500000  1
