# generated using pymatgen
data_CsLiIrF6
_symmetry_space_group_name_H-M   'P 1'
_cell_length_a   10.79566800
_cell_length_b   6.05271056
_cell_length_c   9.39881473
_cell_angle_alpha   88.89307248
_cell_angle_beta   90.00000000
_cell_angle_gamma   90.00000000
_symmetry_Int_Tables_number   1
_chemical_formula_structural   CsLiIrF6
_chemical_formula_sum   'Cs4 Li4 Ir4 F24'
_cell_volume   614.03264613
_cell_formula_units_Z   4
loop_
 _symmetry_equiv_pos_site_id
 _symmetry_equiv_pos_as_xyz
  1  'x, y, z'
loop_
 _atom_site_type_symbol
 _atom_site_label
 _atom_site_symmetry_multiplicity
 _atom_site_fract_x
 _atom_site_fract_y
 _atom_site_fract_z
 _atom_site_occupancy
  Cs  Cs0  1  0.799419  0.312813  0.005890  1
  Cs  Cs1  1  0.700581  0.312813  0.505890  1
  Cs  Cs2  1  0.200581  0.687187  0.994110  1
  Cs  Cs3  1  0.299419  0.687187  0.494110  1
  Li  Li4  1  0.410417  0.230924  0.817520  1
  Li  Li5  1  0.910417  0.769076  0.682480  1
  Li  Li6  1  0.589583  0.769076  0.182480  1
  Li  Li7  1  0.089583  0.230924  0.317520  1
  Ir  Ir8  1  0.579530  0.779227  0.775004  1
  Ir  Ir9  1  0.920470  0.779227  0.275004  1
  Ir  Ir10  1  0.420470  0.220773  0.224996  1
  Ir  Ir11  1  0.079530  0.220773  0.724996  1
  F  F12  1  0.012071  0.519039  0.757273  1
  F  F13  1  0.861650  0.077248  0.302994  1
  F  F14  1  0.361650  0.922752  0.197006  1
  F  F15  1  0.138350  0.922752  0.697006  1
  F  F16  1  0.638350  0.077248  0.802994  1
  F  F17  1  0.590243  0.087114  0.208654  1
  F  F18  1  0.090243  0.912886  0.291346  1
  F  F19  1  0.409757  0.912886  0.791346  1
  F  F20  1  0.512071  0.480961  0.742727  1
  F  F21  1  0.247077  0.342188  0.244865  1
  F  F22  1  0.487929  0.519039  0.257273  1
  F  F23  1  0.987929  0.480961  0.242727  1
  F  F24  1  0.752923  0.657812  0.755135  1
  F  F25  1  0.252923  0.342188  0.744865  1
  F  F26  1  0.578792  0.827940  0.570498  1
  F  F27  1  0.747077  0.657812  0.255135  1
  F  F28  1  0.917246  0.719676  0.481190  1
  F  F29  1  0.078792  0.172060  0.929502  1
  F  F30  1  0.421208  0.172060  0.429502  1
  F  F31  1  0.921208  0.827940  0.070498  1
  F  F32  1  0.582754  0.719676  0.981190  1
  F  F33  1  0.082754  0.280324  0.518810  1
  F  F34  1  0.417246  0.280324  0.018810  1
  F  F35  1  0.909757  0.087114  0.708654  1
