# generated using pymatgen
data_Eu4Ta3AsO14
_symmetry_space_group_name_H-M   'P 1'
_cell_length_a   7.53777641
_cell_length_b   7.53777657
_cell_length_c   7.53777636
_cell_angle_alpha   60.19073568
_cell_angle_beta   60.19073512
_cell_angle_gamma   60.19073711
_symmetry_Int_Tables_number   1
_chemical_formula_structural   Eu4Ta3AsO14
_chemical_formula_sum   'Eu4 Ta3 As1 O14'
_cell_volume   304.14910332
_cell_formula_units_Z   1
loop_
 _symmetry_equiv_pos_site_id
 _symmetry_equiv_pos_as_xyz
  1  'x, y, z'
loop_
 _atom_site_type_symbol
 _atom_site_label
 _atom_site_symmetry_multiplicity
 _atom_site_fract_x
 _atom_site_fract_y
 _atom_site_fract_z
 _atom_site_occupancy
  Eu  Eu0  1  0.625000  0.125000  0.125000  1
  Eu  Eu1  1  0.125000  0.625000  0.125000  1
  Eu  Eu2  1  0.125000  0.125000  0.625000  1
  Eu  Eu3  1  0.125000  0.125000  0.125000  1
  Ta  Ta4  1  0.125000  0.625000  0.625000  1
  Ta  Ta5  1  0.625000  0.125000  0.625000  1
  Ta  Ta6  1  0.625000  0.625000  0.125000  1
  As  As7  1  0.625000  0.625000  0.625000  1
  O  O8  1  0.248220  0.248220  0.248220  1
  O  O9  1  0.001780  0.001780  0.001780  1
  O  O10  1  0.706486  0.706486  0.280795  1
  O  O11  1  0.310934  0.310934  0.698768  1
  O  O12  1  0.706486  0.280795  0.706486  1
  O  O13  1  0.310934  0.698768  0.310934  1
  O  O14  1  0.280795  0.706486  0.706486  1
  O  O15  1  0.698768  0.310934  0.310934  1
  O  O16  1  0.543514  0.543514  0.969205  1
  O  O17  1  0.939066  0.939066  0.551232  1
  O  O18  1  0.543514  0.969205  0.543514  1
  O  O19  1  0.939066  0.551232  0.939066  1
  O  O20  1  0.969205  0.543514  0.543514  1
  O  O21  1  0.551232  0.939066  0.939066  1
