# generated using pymatgen
data_PrSmCo3P7Ru9
_symmetry_space_group_name_H-M   'P 1'
_cell_length_a   9.39015800
_cell_length_b   9.39015768
_cell_length_c   3.86202400
_cell_angle_alpha   90.00000000
_cell_angle_beta   90.00000000
_cell_angle_gamma   120.00000114
_symmetry_Int_Tables_number   1
_chemical_formula_structural   PrSmCo3P7Ru9
_chemical_formula_sum   'Pr1 Sm1 Co3 P7 Ru9'
_cell_volume   294.91127701
_cell_formula_units_Z   1
loop_
 _symmetry_equiv_pos_site_id
 _symmetry_equiv_pos_as_xyz
  1  'x, y, z'
loop_
 _atom_site_type_symbol
 _atom_site_label
 _atom_site_symmetry_multiplicity
 _atom_site_fract_x
 _atom_site_fract_y
 _atom_site_fract_z
 _atom_site_occupancy
  Pr  Pr0  1  0.000000  0.000000  0.000000  1
  Sm  Sm1  1  0.333333  0.666667  0.500000  1
  Co  Co2  1  0.823339  0.600347  0.000000  1
  Co  Co3  1  0.399653  0.222992  0.000000  1
  Co  Co4  1  0.777008  0.176661  0.000000  1
  P  P5  1  0.778075  0.730457  0.500000  1
  P  P6  1  0.269543  0.047618  0.500000  1
  P  P7  1  0.952382  0.221925  0.500000  1
  P  P8  1  0.666667  0.333333  0.000000  1
  P  P9  1  0.076228  0.635202  0.000000  1
  P  P10  1  0.364798  0.441027  0.000000  1
  P  P11  1  0.558973  0.923772  0.000000  1
  Ru  Ru12  1  0.090332  0.394254  0.000000  1
  Ru  Ru13  1  0.605746  0.696078  0.000000  1
  Ru  Ru14  1  0.303922  0.909668  0.000000  1
  Ru  Ru15  1  0.048800  0.764960  0.500000  1
  Ru  Ru16  1  0.235040  0.283840  0.500000  1
  Ru  Ru17  1  0.716160  0.951200  0.500000  1
  Ru  Ru18  1  0.871593  0.418473  0.500000  1
  Ru  Ru19  1  0.581527  0.453120  0.500000  1
  Ru  Ru20  1  0.546880  0.128407  0.500000  1
