# generated using pymatgen
data_Tb4LuU3(SnPt2)4
_symmetry_space_group_name_H-M   'P 1'
_cell_length_a   7.82425933
_cell_length_b   7.82425809
_cell_length_c   7.22634800
_cell_angle_alpha   90.00000000
_cell_angle_beta   90.00000000
_cell_angle_gamma   87.20969394
_symmetry_Int_Tables_number   1
_chemical_formula_structural   Tb4LuU3(SnPt2)4
_chemical_formula_sum   'Tb4 Lu1 U3 Sn4 Pt8'
_cell_volume   441.86547111
_cell_formula_units_Z   1
loop_
 _symmetry_equiv_pos_site_id
 _symmetry_equiv_pos_as_xyz
  1  'x, y, z'
loop_
 _atom_site_type_symbol
 _atom_site_label
 _atom_site_symmetry_multiplicity
 _atom_site_fract_x
 _atom_site_fract_y
 _atom_site_fract_z
 _atom_site_occupancy
  Tb  Tb0  1  0.181984  0.178486  0.000000  1
  Tb  Tb1  1  0.821514  0.818016  0.000000  1
  Tb  Tb2  1  0.837862  0.841339  0.500000  1
  Tb  Tb3  1  0.158661  0.162138  0.500000  1
  Lu  Lu4  1  0.680362  0.319638  0.500000  1
  U  U5  1  0.320618  0.679382  0.500000  1
  U  U6  1  0.345173  0.654827  0.000000  1
  U  U7  1  0.657506  0.342494  0.000000  1
  Sn  Sn8  1  0.502790  0.004348  0.252818  1
  Sn  Sn9  1  0.995652  0.497210  0.747182  1
  Sn  Sn10  1  0.502790  0.004348  0.747182  1
  Sn  Sn11  1  0.995652  0.497210  0.252818  1
  Pt  Pt12  1  0.866482  0.133518  0.225982  1
  Pt  Pt13  1  0.136633  0.863367  0.230657  1
  Pt  Pt14  1  0.371743  0.375140  0.726936  1
  Pt  Pt15  1  0.624860  0.628257  0.726936  1
  Pt  Pt16  1  0.136633  0.863367  0.769343  1
  Pt  Pt17  1  0.866482  0.133518  0.774018  1
  Pt  Pt18  1  0.624860  0.628257  0.273064  1
  Pt  Pt19  1  0.371743  0.375140  0.273064  1
