# generated using pymatgen
data_Pa4Ga2Fe7Ge4
_symmetry_space_group_name_H-M   'P 1'
_cell_length_a   7.09883132
_cell_length_b   7.10640392
_cell_length_c   7.10640400
_cell_angle_alpha   109.75665037
_cell_angle_beta   109.35013876
_cell_angle_gamma   109.35013083
_symmetry_Int_Tables_number   1
_chemical_formula_structural   Pa4Ga2Fe7Ge4
_chemical_formula_sum   'Pa4 Ga2 Fe7 Ge4'
_cell_volume   275.82092279
_cell_formula_units_Z   1
loop_
 _symmetry_equiv_pos_site_id
 _symmetry_equiv_pos_as_xyz
  1  'x, y, z'
loop_
 _atom_site_type_symbol
 _atom_site_label
 _atom_site_symmetry_multiplicity
 _atom_site_fract_x
 _atom_site_fract_y
 _atom_site_fract_z
 _atom_site_occupancy
  Pa  Pa0  1  0.000000  0.999067  0.506293  1
  Pa  Pa1  1  0.000000  0.493707  0.000933  1
  Pa  Pa2  1  0.500000  0.999056  0.000944  1
  Pa  Pa3  1  0.500000  0.499056  0.500944  1
  Ga  Ga4  1  0.685476  0.682782  0.002695  1
  Ga  Ga5  1  0.314524  0.997305  0.317218  1
  Fe  Fe6  1  0.749547  0.250007  0.499540  1
  Fe  Fe7  1  0.752913  0.500189  0.252724  1
  Fe  Fe8  1  0.500000  0.250356  0.749644  1
  Fe  Fe9  1  0.250453  0.500460  0.749993  1
  Fe  Fe10  1  0.247087  0.747276  0.499811  1
  Fe  Fe11  1  0.500000  0.750356  0.249644  1
  Fe  Fe12  1  0.000000  0.009721  0.990279  1
  Ge  Ge13  1  0.000000  0.317753  0.322756  1
  Ge  Ge14  1  0.330811  0.328237  0.002574  1
  Ge  Ge15  1  0.669189  0.997426  0.671763  1
  Ge  Ge16  1  0.000000  0.677244  0.682247  1
