# generated using pymatgen
data_Ho11TmTlCo4Ni
_symmetry_space_group_name_H-M   'P 1'
_cell_length_a   8.24845141
_cell_length_b   8.24618412
_cell_length_c   8.24845190
_cell_angle_alpha   110.71630869
_cell_angle_beta   110.78809220
_cell_angle_gamma   106.94918893
_symmetry_Int_Tables_number   1
_chemical_formula_structural   Ho11TmTlCo4Ni
_chemical_formula_sum   'Ho11 Tm1 Tl1 Co4 Ni1'
_cell_volume   431.20930697
_cell_formula_units_Z   1
loop_
 _symmetry_equiv_pos_site_id
 _symmetry_equiv_pos_as_xyz
  1  'x, y, z'
loop_
 _atom_site_type_symbol
 _atom_site_label
 _atom_site_symmetry_multiplicity
 _atom_site_fract_x
 _atom_site_fract_y
 _atom_site_fract_z
 _atom_site_occupancy
  Ho  Ho0  1  0.684897  0.379693  0.694796  1
  Ho  Ho1  1  0.314964  0.009359  0.694397  1
  Ho  Ho2  1  0.684522  0.989693  0.305170  1
  Ho  Ho3  1  0.185868  0.292235  0.477212  1
  Ho  Ho4  1  0.813476  0.707983  0.522153  1
  Ho  Ho5  1  0.185829  0.707983  0.894508  1
  Ho  Ho6  1  0.815022  0.292235  0.106367  1
  Ho  Ho7  1  0.406886  0.212282  0.195354  1
  Ho  Ho8  1  0.592505  0.787911  0.803892  1
  Ho  Ho9  1  0.016928  0.212282  0.805395  1
  Ho  Ho10  1  0.984018  0.787911  0.195406  1
  Tm  Tm11  1  0.315599  0.621937  0.306339  1
  Tl  Tl12  1  0.499701  0.500129  0.000428  1
  Co  Co13  1  0.112851  0.612432  0.499581  1
  Co  Co14  1  0.887915  0.388044  0.500128  1
  Co  Co15  1  0.377600  0.999056  0.377582  1
  Co  Co16  1  0.621473  0.999056  0.621455  1
  Ni  Ni17  1  0.999946  0.999780  0.999834  1
