# generated using pymatgen
data_Li2Hf5Zr(Co4P3)4
_symmetry_space_group_name_H-M   'P 1'
_cell_length_a   11.86773303
_cell_length_b   11.92820120
_cell_length_c   3.62522600
_cell_angle_alpha   90.00000000
_cell_angle_beta   90.00000000
_cell_angle_gamma   120.14222156
_symmetry_Int_Tables_number   1
_chemical_formula_structural   Li2Hf5Zr(Co4P3)4
_chemical_formula_sum   'Li2 Hf5 Zr1 Co16 P12'
_cell_volume   443.79689626
_cell_formula_units_Z   1
loop_
 _symmetry_equiv_pos_site_id
 _symmetry_equiv_pos_as_xyz
  1  'x, y, z'
loop_
 _atom_site_type_symbol
 _atom_site_label
 _atom_site_symmetry_multiplicity
 _atom_site_fract_x
 _atom_site_fract_y
 _atom_site_fract_z
 _atom_site_occupancy
  Li  Li0  1  0.442739  0.441402  0.000000  1
  Li  Li1  1  0.557273  0.998558  0.000000  1
  Hf  Hf2  1  0.999720  0.556468  0.000000  1
  Hf  Hf3  1  0.666371  0.331317  0.000000  1
  Hf  Hf4  1  0.813457  0.812888  0.500000  1
  Hf  Hf5  1  0.186396  0.999421  0.500000  1
  Hf  Hf6  1  0.000071  0.180343  0.500000  1
  Zr  Zr7  1  0.333516  0.664951  0.000000  1
  Co  Co8  1  0.199692  0.375244  0.000000  1
  Co  Co9  1  0.180656  0.810791  0.000000  1
  Co  Co10  1  0.819030  0.629829  0.000000  1
  Co  Co11  1  0.800225  0.176034  0.000000  1
  Co  Co12  1  0.375399  0.197586  0.000000  1
  Co  Co13  1  0.126971  0.478777  0.500000  1
  Co  Co14  1  0.357340  0.874399  0.500000  1
  Co  Co15  1  0.519637  0.647169  0.500000  1
  Co  Co16  1  0.642550  0.515375  0.500000  1
  Co  Co17  1  0.871317  0.351974  0.500000  1
  Co  Co18  1  0.482002  0.129053  0.500000  1
  Co  Co19  1  0.000071  0.003013  0.000000  1
  Co  Co20  1  0.716968  0.000030  0.500000  1
  Co  Co21  1  0.999796  0.723013  0.500000  1
  Co  Co22  1  0.625083  0.822670  0.000000  1
  Co  Co23  1  0.283419  0.282810  0.500000  1
  P  P24  1  0.634599  0.639630  0.000000  1
  P  P25  1  0.365420  0.004879  0.000000  1
  P  P26  1  0.000177  0.345119  0.000000  1
  P  P27  1  0.483610  0.314386  0.500000  1
  P  P28  1  0.682727  0.166806  0.500000  1
  P  P29  1  0.824033  0.515593  0.500000  1
  P  P30  1  0.517246  0.831559  0.500000  1
  P  P31  1  0.175301  0.691909  0.500000  1
  P  P32  1  0.821518  0.998651  0.000000  1
  P  P33  1  0.999835  0.828039  0.000000  1
  P  P34  1  0.317170  0.483269  0.500000  1
  P  P35  1  0.178664  0.177043  0.000000  1
