# generated using pymatgen
data_Ce3Ho13(ZnCo)4
_symmetry_space_group_name_H-M   'P 1'
_cell_length_a   9.29383105
_cell_length_b   9.33520672
_cell_length_c   9.33520700
_cell_angle_alpha   59.99999547
_cell_angle_beta   59.85261653
_cell_angle_gamma   59.85261991
_symmetry_Int_Tables_number   1
_chemical_formula_structural   Ce3Ho13(ZnCo)4
_chemical_formula_sum   'Ce3 Ho13 Zn4 Co4'
_cell_volume   571.42151126
_cell_formula_units_Z   1
loop_
 _symmetry_equiv_pos_site_id
 _symmetry_equiv_pos_as_xyz
  1  'x, y, z'
loop_
 _atom_site_type_symbol
 _atom_site_label
 _atom_site_symmetry_multiplicity
 _atom_site_fract_x
 _atom_site_fract_y
 _atom_site_fract_z
 _atom_site_occupancy
  Ce  Ce0  1  0.343894  0.348204  0.348204  1
  Ce  Ce1  1  0.343894  0.348204  0.959698  1
  Ce  Ce2  1  0.343894  0.959698  0.348204  1
  Ho  Ho3  1  0.943740  0.352087  0.352087  1
  Ho  Ho4  1  0.810441  0.190085  0.190085  1
  Ho  Ho5  1  0.191007  0.809859  0.809859  1
  Ho  Ho6  1  0.191007  0.809859  0.189275  1
  Ho  Ho7  1  0.810441  0.190085  0.809390  1
  Ho  Ho8  1  0.191007  0.189275  0.809859  1
  Ho  Ho9  1  0.810441  0.809390  0.190085  1
  Ho  Ho10  1  0.937389  0.563833  0.563833  1
  Ho  Ho11  1  0.562231  0.937259  0.937259  1
  Ho  Ho12  1  0.562231  0.937259  0.563250  1
  Ho  Ho13  1  0.937389  0.563833  0.934945  1
  Ho  Ho14  1  0.562231  0.563250  0.937259  1
  Ho  Ho15  1  0.937389  0.934945  0.563833  1
  Zn  Zn16  1  0.577651  0.578360  0.578360  1
  Zn  Zn17  1  0.577651  0.578360  0.265628  1
  Zn  Zn18  1  0.577651  0.265628  0.578360  1
  Zn  Zn19  1  0.265165  0.578278  0.578278  1
  Co  Co20  1  0.153299  0.140385  0.140385  1
  Co  Co21  1  0.153299  0.140385  0.565932  1
  Co  Co22  1  0.153299  0.565932  0.140385  1
  Co  Co23  1  0.563361  0.145547  0.145547  1
