# generated using pymatgen
data_Er10NiBi4Os
_symmetry_space_group_name_H-M   'P 1'
_cell_length_a   7.92670433
_cell_length_b   8.93509200
_cell_length_c   12.32123815
_cell_angle_alpha   90.00000000
_cell_angle_beta   90.68359756
_cell_angle_gamma   90.00000000
_symmetry_Int_Tables_number   1
_chemical_formula_structural   Er10NiBi4Os
_chemical_formula_sum   'Er20 Ni2 Bi8 Os2'
_cell_volume   872.59983817
_cell_formula_units_Z   2
loop_
 _symmetry_equiv_pos_site_id
 _symmetry_equiv_pos_as_xyz
  1  'x, y, z'
loop_
 _atom_site_type_symbol
 _atom_site_label
 _atom_site_symmetry_multiplicity
 _atom_site_fract_x
 _atom_site_fract_y
 _atom_site_fract_z
 _atom_site_occupancy
  Er  Er0  1  0.835099  0.750000  0.789710  1
  Er  Er1  1  0.164901  0.250000  0.210290  1
  Er  Er2  1  0.344279  0.250000  0.704427  1
  Er  Er3  1  0.655721  0.750000  0.295573  1
  Er  Er4  1  0.378262  0.750000  0.695913  1
  Er  Er5  1  0.621738  0.250000  0.304087  1
  Er  Er6  1  0.880417  0.250000  0.812981  1
  Er  Er7  1  0.119583  0.750000  0.187019  1
  Er  Er8  1  0.943994  0.750000  0.503580  1
  Er  Er9  1  0.056006  0.250000  0.496420  1
  Er  Er10  1  0.449951  0.250000  0.999766  1
  Er  Er11  1  0.550049  0.750000  0.000234  1
  Er  Er12  1  0.675465  0.043106  0.564047  1
  Er  Er13  1  0.324535  0.956894  0.435953  1
  Er  Er14  1  0.175440  0.959455  0.935274  1
  Er  Er15  1  0.324535  0.543106  0.435953  1
  Er  Er16  1  0.824560  0.040545  0.064726  1
  Er  Er17  1  0.675465  0.456894  0.564047  1
  Er  Er18  1  0.824560  0.459455  0.064726  1
  Er  Er19  1  0.175440  0.540545  0.935274  1
  Ni  Ni20  1  0.070562  0.250000  0.994646  1
  Ni  Ni21  1  0.929438  0.750000  0.005354  1
  Bi  Bi22  1  0.571159  0.488968  0.829344  1
  Bi  Bi23  1  0.428841  0.511032  0.170656  1
  Bi  Bi24  1  0.067503  0.507582  0.675068  1
  Bi  Bi25  1  0.428841  0.988968  0.170656  1
  Bi  Bi26  1  0.932497  0.492418  0.324932  1
  Bi  Bi27  1  0.571159  0.011032  0.829344  1
  Bi  Bi28  1  0.932497  0.007582  0.324932  1
  Bi  Bi29  1  0.067503  0.992418  0.675068  1
  Os  Os30  1  0.577237  0.750000  0.513648  1
  Os  Os31  1  0.422763  0.250000  0.486352  1
