# generated using pymatgen
data_Ba4GaSn3Au4
_symmetry_space_group_name_H-M   'P 1'
_cell_length_a   6.48547002
_cell_length_b   6.48546862
_cell_length_c   11.96551518
_cell_angle_alpha   88.20464668
_cell_angle_beta   88.20464676
_cell_angle_gamma   44.81671088
_symmetry_Int_Tables_number   1
_chemical_formula_structural   Ba4GaSn3Au4
_chemical_formula_sum   'Ba4 Ga1 Sn3 Au4'
_cell_volume   354.53240568
_cell_formula_units_Z   1
loop_
 _symmetry_equiv_pos_site_id
 _symmetry_equiv_pos_as_xyz
  1  'x, y, z'
loop_
 _atom_site_type_symbol
 _atom_site_label
 _atom_site_symmetry_multiplicity
 _atom_site_fract_x
 _atom_site_fract_y
 _atom_site_fract_z
 _atom_site_occupancy
  Ba  Ba0  1  0.692470  0.692470  0.692960  1
  Ba  Ba1  1  0.182239  0.182239  0.180447  1
  Ba  Ba2  1  0.402251  0.402251  0.898425  1
  Ba  Ba3  1  0.890432  0.890432  0.390678  1
  Ga  Ga4  1  0.673788  0.673788  0.988442  1
  Sn  Sn5  1  0.172735  0.172735  0.487122  1
  Sn  Sn6  1  0.990822  0.990822  0.672021  1
  Sn  Sn7  1  0.484121  0.484121  0.173336  1
  Au  Au8  1  0.390216  0.390216  0.604813  1
  Au  Au9  1  0.873274  0.873274  0.103180  1
  Au  Au10  1  0.118139  0.118139  0.896054  1
  Au  Au11  1  0.601912  0.601912  0.384921  1
