# generated using pymatgen
data_Pu2(GaAu2)3
_symmetry_space_group_name_H-M   'P 1'
_cell_length_a   8.83250193
_cell_length_b   8.83250168
_cell_length_c   8.83250317
_cell_angle_alpha   56.83064693
_cell_angle_beta   56.83064650
_cell_angle_gamma   56.83064296
_symmetry_Int_Tables_number   1
_chemical_formula_structural   Pu2(GaAu2)3
_chemical_formula_sum   'Pu4 Ga6 Au12'
_cell_volume   451.59690178
_cell_formula_units_Z   2
loop_
 _symmetry_equiv_pos_site_id
 _symmetry_equiv_pos_as_xyz
  1  'x, y, z'
loop_
 _atom_site_type_symbol
 _atom_site_label
 _atom_site_symmetry_multiplicity
 _atom_site_fract_x
 _atom_site_fract_y
 _atom_site_fract_z
 _atom_site_occupancy
  Pu  Pu0  1  0.911525  0.911525  0.911525  1
  Pu  Pu1  1  0.411525  0.411525  0.411525  1
  Pu  Pu2  1  0.088475  0.088475  0.088475  1
  Pu  Pu3  1  0.588475  0.588475  0.588475  1
  Ga  Ga4  1  0.556668  0.750000  0.943332  1
  Ga  Ga5  1  0.943332  0.556668  0.750000  1
  Ga  Ga6  1  0.750000  0.943332  0.556668  1
  Ga  Ga7  1  0.443332  0.250000  0.056668  1
  Ga  Ga8  1  0.056668  0.443332  0.250000  1
  Ga  Ga9  1  0.250000  0.056668  0.443332  1
  Au  Au10  1  0.485368  0.859661  0.203320  1
  Au  Au11  1  0.203320  0.485368  0.859661  1
  Au  Au12  1  0.859661  0.203320  0.485368  1
  Au  Au13  1  0.703320  0.359661  0.985368  1
  Au  Au14  1  0.985368  0.703320  0.359661  1
  Au  Au15  1  0.359661  0.985368  0.703320  1
  Au  Au16  1  0.514632  0.140339  0.796680  1
  Au  Au17  1  0.796680  0.514632  0.140339  1
  Au  Au18  1  0.140339  0.796680  0.514632  1
  Au  Au19  1  0.296680  0.640339  0.014632  1
  Au  Au20  1  0.014632  0.296680  0.640339  1
  Au  Au21  1  0.640339  0.014632  0.296680  1
