# generated using pymatgen
data_Dy4Y12Cd4NiIr3
_symmetry_space_group_name_H-M   'P 1'
_cell_length_a   9.64513838
_cell_length_b   9.68202788
_cell_length_c   9.68203341
_cell_angle_alpha   59.91361250
_cell_angle_beta   59.75043874
_cell_angle_gamma   59.75046895
_symmetry_Int_Tables_number   1
_chemical_formula_structural   Dy4Y12Cd4NiIr3
_chemical_formula_sum   'Dy4 Y12 Cd4 Ni1 Ir3'
_cell_volume   636.49608358
_cell_formula_units_Z   1
loop_
 _symmetry_equiv_pos_site_id
 _symmetry_equiv_pos_as_xyz
  1  'x, y, z'
loop_
 _atom_site_type_symbol
 _atom_site_label
 _atom_site_symmetry_multiplicity
 _atom_site_fract_x
 _atom_site_fract_y
 _atom_site_fract_z
 _atom_site_occupancy
  Dy  Dy0  1  0.601391  0.596360  0.596360  1
  Dy  Dy1  1  0.602535  0.598189  0.203383  1
  Dy  Dy2  1  0.602535  0.203382  0.598189  1
  Dy  Dy3  1  0.202493  0.599694  0.599694  1
  Y  Y4  1  0.058031  0.439862  0.439863  1
  Y  Y5  1  0.437192  0.060416  0.060415  1
  Y  Y6  1  0.439034  0.059785  0.440611  1
  Y  Y7  1  0.059115  0.438414  0.061290  1
  Y  Y8  1  0.439034  0.440611  0.059785  1
  Y  Y9  1  0.059115  0.061291  0.438414  1
  Y  Y10  1  0.189154  0.811969  0.811969  1
  Y  Y11  1  0.809796  0.187340  0.187340  1
  Y  Y12  1  0.810989  0.188129  0.815757  1
  Y  Y13  1  0.189012  0.810997  0.188359  1
  Y  Y14  1  0.810990  0.815757  0.188129  1
  Y  Y15  1  0.189012  0.188359  0.810997  1
  Cd  Cd16  1  0.828729  0.830603  0.830603  1
  Cd  Cd17  1  0.829878  0.831017  0.506521  1
  Cd  Cd18  1  0.829877  0.506520  0.831017  1
  Cd  Cd19  1  0.506475  0.830873  0.830873  1
  Ni  Ni20  1  0.823962  0.392349  0.392350  1
  Ir  Ir21  1  0.394461  0.392167  0.392167  1
  Ir  Ir22  1  0.393594  0.393184  0.822728  1
  Ir  Ir23  1  0.393594  0.822728  0.393182  1
