# generated using pymatgen
data_Y6Lu7Th3(CdNi)4
_symmetry_space_group_name_H-M   'P 1'
_cell_length_a   9.52969487
_cell_length_b   9.55316911
_cell_length_c   9.55316900
_cell_angle_alpha   59.99999691
_cell_angle_beta   59.91847899
_cell_angle_gamma   59.91847701
_symmetry_Int_Tables_number   1
_chemical_formula_structural   Y6Lu7Th3(CdNi)4
_chemical_formula_sum   'Y6 Lu7 Th3 Cd4 Ni4'
_cell_volume   614.21818937
_cell_formula_units_Z   1
loop_
 _symmetry_equiv_pos_site_id
 _symmetry_equiv_pos_as_xyz
  1  'x, y, z'
loop_
 _atom_site_type_symbol
 _atom_site_label
 _atom_site_symmetry_multiplicity
 _atom_site_fract_x
 _atom_site_fract_y
 _atom_site_fract_z
 _atom_site_occupancy
  Y  Y0  1  0.187892  0.814291  0.814291  1
  Y  Y1  1  0.813013  0.186070  0.186070  1
  Y  Y2  1  0.813013  0.186070  0.814848  1
  Y  Y3  1  0.187892  0.814291  0.183525  1
  Y  Y4  1  0.813013  0.814848  0.186070  1
  Y  Y5  1  0.187892  0.183525  0.814291  1
  Lu  Lu6  1  0.197100  0.600967  0.600967  1
  Lu  Lu7  1  0.065017  0.436062  0.436062  1
  Lu  Lu8  1  0.436608  0.065119  0.065119  1
  Lu  Lu9  1  0.436608  0.065119  0.433155  1
  Lu  Lu10  1  0.065017  0.436062  0.062859  1
  Lu  Lu11  1  0.436608  0.433155  0.065119  1
  Lu  Lu12  1  0.065017  0.062859  0.436062  1
  Th  Th13  1  0.593346  0.600291  0.600291  1
  Th  Th14  1  0.593346  0.600291  0.206072  1
  Th  Th15  1  0.593346  0.206072  0.600291  1
  Cd  Cd16  1  0.834573  0.830848  0.830848  1
  Cd  Cd17  1  0.834573  0.830848  0.503731  1
  Cd  Cd18  1  0.834573  0.503731  0.830848  1
  Cd  Cd19  1  0.504683  0.831772  0.831772  1
  Ni  Ni20  1  0.395281  0.390788  0.390788  1
  Ni  Ni21  1  0.395281  0.390788  0.823144  1
  Ni  Ni22  1  0.395281  0.823144  0.390788  1
  Ni  Ni23  1  0.821027  0.392991  0.392991  1
