# generated using pymatgen
data_DyY3(MgPt)4
_symmetry_space_group_name_H-M   'P 1'
_cell_length_a   4.17374600
_cell_length_b   7.14387194
_cell_length_c   8.67530703
_cell_angle_alpha   91.31153076
_cell_angle_beta   90.00000000
_cell_angle_gamma   90.00000000
_symmetry_Int_Tables_number   1
_chemical_formula_structural   DyY3(MgPt)4
_chemical_formula_sum   'Dy1 Y3 Mg4 Pt4'
_cell_volume   258.60132201
_cell_formula_units_Z   1
loop_
 _symmetry_equiv_pos_site_id
 _symmetry_equiv_pos_as_xyz
  1  'x, y, z'
loop_
 _atom_site_type_symbol
 _atom_site_label
 _atom_site_symmetry_multiplicity
 _atom_site_fract_x
 _atom_site_fract_y
 _atom_site_fract_z
 _atom_site_occupancy
  Dy  Dy0  1  0.250000  0.962078  0.322949  1
  Y  Y1  1  0.250000  0.463523  0.173896  1
  Y  Y2  1  0.750000  0.037979  0.677873  1
  Y  Y3  1  0.750000  0.536924  0.826270  1
  Mg  Mg4  1  0.250000  0.863967  0.938625  1
  Mg  Mg5  1  0.250000  0.364150  0.561415  1
  Mg  Mg6  1  0.750000  0.136761  0.061283  1
  Mg  Mg7  1  0.750000  0.634803  0.438306  1
  Pt  Pt8  1  0.250000  0.251305  0.871266  1
  Pt  Pt9  1  0.250000  0.752496  0.623044  1
  Pt  Pt10  1  0.750000  0.750267  0.129544  1
  Pt  Pt11  1  0.750000  0.245746  0.375530  1
