# generated using pymatgen
data_YbErRu2O7
_symmetry_space_group_name_H-M   'P 1'
_cell_length_a   7.21502257
_cell_length_b   7.21502318
_cell_length_c   7.20526600
_cell_angle_alpha   60.04472504
_cell_angle_beta   60.04472225
_cell_angle_gamma   59.94157817
_symmetry_Int_Tables_number   1
_chemical_formula_structural   YbErRu2O7
_chemical_formula_sum   'Yb2 Er2 Ru4 O14'
_cell_volume   265.28416078
_cell_formula_units_Z   2
loop_
 _symmetry_equiv_pos_site_id
 _symmetry_equiv_pos_as_xyz
  1  'x, y, z'
loop_
 _atom_site_type_symbol
 _atom_site_label
 _atom_site_symmetry_multiplicity
 _atom_site_fract_x
 _atom_site_fract_y
 _atom_site_fract_z
 _atom_site_occupancy
  Yb  Yb0  1  0.125000  0.625000  0.125000  1
  Yb  Yb1  1  0.625000  0.125000  0.125000  1
  Er  Er2  1  0.125000  0.125000  0.625000  1
  Er  Er3  1  0.125000  0.125000  0.125000  1
  Ru  Ru4  1  0.625000  0.625000  0.125000  1
  Ru  Ru5  1  0.625000  0.125000  0.625000  1
  Ru  Ru6  1  0.125000  0.625000  0.625000  1
  Ru  Ru7  1  0.625000  0.625000  0.625000  1
  O  O8  1  0.243523  0.243523  0.256477  1
  O  O9  1  0.006477  0.006477  0.993523  1
  O  O10  1  0.542679  0.954464  0.549679  1
  O  O11  1  0.295536  0.707321  0.296822  1
  O  O12  1  0.549210  0.549210  0.950790  1
  O  O13  1  0.954464  0.542679  0.549679  1
  O  O14  1  0.542679  0.954464  0.953178  1
  O  O15  1  0.959086  0.959086  0.540914  1
  O  O16  1  0.954464  0.542679  0.953178  1
  O  O17  1  0.707321  0.295536  0.296822  1
  O  O18  1  0.295536  0.707321  0.700321  1
  O  O19  1  0.707321  0.295536  0.700321  1
  O  O20  1  0.290914  0.290914  0.709086  1
  O  O21  1  0.700790  0.700790  0.299210  1
