# generated using pymatgen
data_Tb8Ti8Nb4Si15P
_symmetry_space_group_name_H-M   'P 1'
_cell_length_a   7.05668275
_cell_length_b   7.07109908
_cell_length_c   13.00416807
_cell_angle_alpha   89.99967815
_cell_angle_beta   89.97912378
_cell_angle_gamma   89.96037447
_symmetry_Int_Tables_number   1
_chemical_formula_structural   Tb8Ti8Nb4Si15P
_chemical_formula_sum   'Tb8 Ti8 Nb4 Si15 P1'
_cell_volume   648.88832055
_cell_formula_units_Z   1
loop_
 _symmetry_equiv_pos_site_id
 _symmetry_equiv_pos_as_xyz
  1  'x, y, z'
loop_
 _atom_site_type_symbol
 _atom_site_label
 _atom_site_symmetry_multiplicity
 _atom_site_fract_x
 _atom_site_fract_y
 _atom_site_fract_z
 _atom_site_occupancy
  Tb  Tb0  1  0.340068  0.002276  0.467966  1
  Tb  Tb1  1  0.494754  0.843833  0.716923  1
  Tb  Tb2  1  0.502078  0.159224  0.216586  1
  Tb  Tb3  1  0.840054  0.497574  0.283352  1
  Tb  Tb4  1  0.159508  0.498021  0.781946  1
  Tb  Tb5  1  0.660300  0.996190  0.966924  1
  Tb  Tb6  1  0.003358  0.339517  0.534249  1
  Tb  Tb7  1  0.997870  0.659658  0.032798  1
  Ti  Ti8  1  0.154747  0.010780  0.872347  1
  Ti  Ti9  1  0.490315  0.653656  0.125068  1
  Ti  Ti10  1  0.507629  0.344396  0.626593  1
  Ti  Ti11  1  0.654764  0.493106  0.874417  1
  Ti  Ti12  1  0.346484  0.509137  0.374803  1
  Ti  Ti13  1  0.847005  0.990661  0.375651  1
  Ti  Ti14  1  0.008969  0.153001  0.124575  1
  Ti  Ti15  1  0.992973  0.848414  0.625403  1
  Nb  Nb16  1  0.325860  0.326504  0.999388  1
  Nb  Nb17  1  0.173144  0.826943  0.250085  1
  Nb  Nb18  1  0.827526  0.173285  0.749348  1
  Nb  Nb19  1  0.673120  0.673311  0.500276  1
  Si  Si20  1  0.369907  0.702980  0.933890  1
  Si  Si21  1  0.629005  0.297719  0.435938  1
  Si  Si22  1  0.702527  0.370932  0.064915  1
  Si  Si23  1  0.297955  0.629124  0.565198  1
  Si  Si24  1  0.797058  0.870604  0.185035  1
  Si  Si25  1  0.129266  0.202785  0.315467  1
  Si  Si26  1  0.871192  0.796169  0.814710  1
  Si  Si27  1  0.291221  0.953066  0.062903  1
  Si  Si28  1  0.546352  0.791904  0.314124  1
  Si  Si29  1  0.458803  0.210186  0.816738  1
  Si  Si30  1  0.790114  0.548043  0.685613  1
  Si  Si31  1  0.208390  0.452871  0.186177  1
  Si  Si32  1  0.708641  0.046237  0.563747  1
  Si  Si33  1  0.953010  0.291303  0.936176  1
  Si  Si34  1  0.046549  0.707862  0.436496  1
  P  P35  1  0.199484  0.128723  0.684176  1
