# generated using pymatgen
data_KIrRhO6
_symmetry_space_group_name_H-M   'P 1'
_cell_length_a   5.16158600
_cell_length_b   5.16158511
_cell_length_c   6.00240300
_cell_angle_alpha   90.00000000
_cell_angle_beta   90.00000000
_cell_angle_gamma   120.00001849
_symmetry_Int_Tables_number   1
_chemical_formula_structural   KIrRhO6
_chemical_formula_sum   'K1 Ir1 Rh1 O6'
_cell_volume   138.49113109
_cell_formula_units_Z   1
loop_
 _symmetry_equiv_pos_site_id
 _symmetry_equiv_pos_as_xyz
  1  'x, y, z'
loop_
 _atom_site_type_symbol
 _atom_site_label
 _atom_site_symmetry_multiplicity
 _atom_site_fract_x
 _atom_site_fract_y
 _atom_site_fract_z
 _atom_site_occupancy
  K  K0  1  0.000000  0.000000  0.000000  1
  Ir  Ir1  1  0.333333  0.666667  0.500000  1
  Rh  Rh2  1  0.666667  0.333333  0.500000  1
  O  O3  1  0.379974  0.994049  0.680382  1
  O  O4  1  0.005951  0.385925  0.680382  1
  O  O5  1  0.614075  0.620026  0.680382  1
  O  O6  1  0.005951  0.620026  0.319618  1
  O  O7  1  0.614075  0.994049  0.319618  1
  O  O8  1  0.379974  0.385925  0.319618  1
