# generated using pymatgen
data_Ho3Th(Co7B3)2
_symmetry_space_group_name_H-M   'P 1'
_cell_length_a   5.02581308
_cell_length_b   5.02648285
_cell_length_c   12.82696200
_cell_angle_alpha   90.00217403
_cell_angle_beta   90.00074487
_cell_angle_gamma   120.03423104
_symmetry_Int_Tables_number   1
_chemical_formula_structural   Ho3Th(Co7B3)2
_chemical_formula_sum   'Ho3 Th1 Co14 B6'
_cell_volume   280.52726034
_cell_formula_units_Z   1
loop_
 _symmetry_equiv_pos_site_id
 _symmetry_equiv_pos_as_xyz
  1  'x, y, z'
loop_
 _atom_site_type_symbol
 _atom_site_label
 _atom_site_symmetry_multiplicity
 _atom_site_fract_x
 _atom_site_fract_y
 _atom_site_fract_z
 _atom_site_occupancy
  Ho  Ho0  1  0.999972  0.999972  0.500091  1
  Ho  Ho1  1  0.000006  0.999978  0.263141  1
  Ho  Ho2  1  0.999955  0.999968  0.737104  1
  Th  Th3  1  0.999985  0.999991  0.000264  1
  Co  Co4  1  0.333311  0.666774  0.999832  1
  Co  Co5  1  0.666672  0.333269  0.000042  1
  Co  Co6  1  0.499957  0.999911  0.384802  1
  Co  Co7  1  0.000098  0.500028  0.384873  1
  Co  Co8  1  0.499946  0.500065  0.385004  1
  Co  Co9  1  0.500081  0.000252  0.615238  1
  Co  Co10  1  0.500140  0.499759  0.615203  1
  Co  Co11  1  0.999652  0.499808  0.615297  1
  Co  Co12  1  0.500141  0.000237  0.156874  1
  Co  Co13  1  0.999623  0.499805  0.156878  1
  Co  Co14  1  0.500186  0.499824  0.156805  1
  Co  Co15  1  0.499833  0.999692  0.842783  1
  Co  Co16  1  0.499740  0.500302  0.842986  1
  Co  Co17  1  0.000582  0.500304  0.842636  1
  B  B18  1  0.333242  0.666600  0.269177  1
  B  B19  1  0.666655  0.333301  0.269153  1
  B  B20  1  0.666582  0.333342  0.730807  1
  B  B21  1  0.333573  0.666841  0.730805  1
  B  B22  1  0.333319  0.666702  0.500095  1
  B  B23  1  0.666649  0.333274  0.500107  1
