# generated using pymatgen
data_Sc2Cr2Fe10P7
_symmetry_space_group_name_H-M   'P 1'
_cell_length_a   8.89524365
_cell_length_b   8.94692913
_cell_length_c   3.58037000
_cell_angle_alpha   90.00000000
_cell_angle_beta   90.00000000
_cell_angle_gamma   119.93964124
_symmetry_Int_Tables_number   1
_chemical_formula_structural   Sc2Cr2Fe10P7
_chemical_formula_sum   'Sc2 Cr2 Fe10 P7'
_cell_volume   246.91882993
_cell_formula_units_Z   1
loop_
 _symmetry_equiv_pos_site_id
 _symmetry_equiv_pos_as_xyz
  1  'x, y, z'
loop_
 _atom_site_type_symbol
 _atom_site_label
 _atom_site_symmetry_multiplicity
 _atom_site_fract_x
 _atom_site_fract_y
 _atom_site_fract_z
 _atom_site_occupancy
  Sc  Sc0  1  0.004310  0.000971  0.000000  1
  Sc  Sc1  1  0.664322  0.332424  0.500000  1
  Cr  Cr2  1  0.115116  0.565779  0.500000  1
  Cr  Cr3  1  0.452584  0.883084  0.500000  1
  Fe  Fe4  1  0.391287  0.297618  0.000000  1
  Fe  Fe5  1  0.902738  0.610679  0.000000  1
  Fe  Fe6  1  0.708044  0.095492  0.000000  1
  Fe  Fe7  1  0.612118  0.785744  0.000000  1
  Fe  Fe8  1  0.174658  0.388398  0.000000  1
  Fe  Fe9  1  0.214234  0.822598  0.000000  1
  Fe  Fe10  1  0.768355  0.715003  0.500000  1
  Fe  Fe11  1  0.945646  0.231382  0.500000  1
  Fe  Fe12  1  0.283372  0.053847  0.500000  1
  Fe  Fe13  1  0.426508  0.547146  0.500000  1
  P  P14  1  0.627147  0.546584  0.000000  1
  P  P15  1  0.916111  0.371180  0.000000  1
  P  P16  1  0.448653  0.082318  0.000000  1
  P  P17  1  0.746147  0.955090  0.500000  1
  P  P18  1  0.218583  0.261684  0.500000  1
  P  P19  1  0.046236  0.789326  0.500000  1
  P  P20  1  0.333832  0.663650  0.000000  1
