# generated using pymatgen
data_TmSc9(GaBi)3
_symmetry_space_group_name_H-M   'P 1'
_cell_length_a   8.35997000
_cell_length_b   8.40602790
_cell_length_c   6.10260700
_cell_angle_alpha   90.00000000
_cell_angle_beta   90.00000000
_cell_angle_gamma   119.81891604
_symmetry_Int_Tables_number   1
_chemical_formula_structural   TmSc9(GaBi)3
_chemical_formula_sum   'Tm1 Sc9 Ga3 Bi3'
_cell_volume   372.07557267
_cell_formula_units_Z   1
loop_
 _symmetry_equiv_pos_site_id
 _symmetry_equiv_pos_as_xyz
  1  'x, y, z'
loop_
 _atom_site_type_symbol
 _atom_site_label
 _atom_site_symmetry_multiplicity
 _atom_site_fract_x
 _atom_site_fract_y
 _atom_site_fract_z
 _atom_site_occupancy
  Tm  Tm0  1  0.229439  0.000000  0.250000  1
  Sc  Sc1  1  0.324630  0.666872  0.005656  1
  Sc  Sc2  1  0.657759  0.333128  0.494344  1
  Sc  Sc3  1  0.657759  0.333128  0.005656  1
  Sc  Sc4  1  0.324630  0.666872  0.494344  1
  Sc  Sc5  1  0.241439  0.224853  0.750000  1
  Sc  Sc6  1  0.016587  0.775147  0.750000  1
  Sc  Sc7  1  0.018137  0.252142  0.250000  1
  Sc  Sc8  1  0.765994  0.747858  0.250000  1
  Sc  Sc9  1  0.756853  0.000000  0.750000  1
  Ga  Ga10  1  0.994596  0.597406  0.250000  1
  Ga  Ga11  1  0.397189  0.402594  0.250000  1
  Ga  Ga12  1  0.398519  0.000000  0.750000  1
  Bi  Bi13  1  0.615526  0.000000  0.250000  1
  Bi  Bi14  1  0.604670  0.608394  0.750000  1
  Bi  Bi15  1  0.996276  0.391606  0.750000  1
