# generated using pymatgen
data_Ti2Nb2MoN6
_symmetry_space_group_name_H-M   'P 1'
_cell_length_a   5.15673423
_cell_length_b   5.14842006
_cell_length_c   10.20698300
_cell_angle_alpha   90.00000000
_cell_angle_beta   90.00000000
_cell_angle_gamma   119.94668031
_symmetry_Int_Tables_number   1
_chemical_formula_structural   Ti2Nb2MoN6
_chemical_formula_sum   'Ti4 Nb4 Mo2 N12'
_cell_volume   234.80634879
_cell_formula_units_Z   2
loop_
 _symmetry_equiv_pos_site_id
 _symmetry_equiv_pos_as_xyz
  1  'x, y, z'
loop_
 _atom_site_type_symbol
 _atom_site_label
 _atom_site_symmetry_multiplicity
 _atom_site_fract_x
 _atom_site_fract_y
 _atom_site_fract_z
 _atom_site_occupancy
  Ti  Ti0  1  0.333522  0.666761  0.500000  1
  Ti  Ti1  1  0.666958  0.333478  0.000000  1
  Ti  Ti2  1  0.666958  0.333478  0.500000  1
  Ti  Ti3  1  0.333522  0.666761  0.000000  1
  Nb  Nb4  1  0.998984  0.323387  0.250000  1
  Nb  Nb5  1  0.998984  0.675597  0.750000  1
  Nb  Nb6  1  0.323305  0.324397  0.750000  1
  Nb  Nb7  1  0.323305  0.998909  0.250000  1
  Mo  Mo8  1  0.675530  0.000012  0.750000  1
  Mo  Mo9  1  0.675530  0.675518  0.250000  1
  N  N10  1  0.348077  0.347902  0.379589  1
  N  N11  1  0.654773  0.997697  0.380206  1
  N  N12  1  0.997999  0.655287  0.379599  1
  N  N13  1  0.997999  0.342712  0.879599  1
  N  N14  1  0.654773  0.997697  0.119794  1
  N  N15  1  0.654773  0.657077  0.880206  1
  N  N16  1  0.348077  0.000175  0.879589  1
  N  N17  1  0.654773  0.657077  0.619794  1
  N  N18  1  0.997999  0.342712  0.620401  1
  N  N19  1  0.997999  0.655287  0.120401  1
  N  N20  1  0.348077  0.000175  0.620411  1
  N  N21  1  0.348077  0.347902  0.120411  1
