# generated using pymatgen
data_Pr7Ho9(TmSn4)4
_symmetry_space_group_name_H-M   'P 1'
_cell_length_a   8.08963942
_cell_length_b   8.26832981
_cell_length_c   15.59792995
_cell_angle_alpha   89.99289049
_cell_angle_beta   90.31612237
_cell_angle_gamma   89.64045383
_symmetry_Int_Tables_number   1
_chemical_formula_structural   Pr7Ho9(TmSn4)4
_chemical_formula_sum   'Pr7 Ho9 Tm4 Sn16'
_cell_volume   1043.27488988
_cell_formula_units_Z   1
loop_
 _symmetry_equiv_pos_site_id
 _symmetry_equiv_pos_as_xyz
  1  'x, y, z'
loop_
 _atom_site_type_symbol
 _atom_site_label
 _atom_site_symmetry_multiplicity
 _atom_site_fract_x
 _atom_site_fract_y
 _atom_site_fract_z
 _atom_site_occupancy
  Pr  Pr0  1  0.014178  0.178914  0.598195  1
  Pr  Pr1  1  0.486703  0.677515  0.403776  1
  Pr  Pr2  1  0.986036  0.821482  0.095688  1
  Pr  Pr3  1  0.484569  0.676322  0.095862  1
  Pr  Pr4  1  0.986506  0.822571  0.403770  1
  Pr  Pr5  1  0.512017  0.323256  0.595762  1
  Pr  Pr6  1  0.014090  0.179124  0.903243  1
  Ho  Ho7  1  0.359148  0.835538  0.876083  1
  Ho  Ho8  1  0.856812  0.664181  0.623923  1
  Ho  Ho9  1  0.642186  0.164496  0.376018  1
  Ho  Ho10  1  0.139031  0.337000  0.121708  1
  Ho  Ho11  1  0.639457  0.164356  0.123121  1
  Ho  Ho12  1  0.142015  0.335554  0.376874  1
  Ho  Ho13  1  0.358333  0.836222  0.625501  1
  Ho  Ho14  1  0.860514  0.662589  0.877696  1
  Ho  Ho15  1  0.519264  0.322764  0.901988  1
  Tm  Tm16  1  0.192922  0.502032  0.751126  1
  Tm  Tm17  1  0.691392  0.996955  0.750958  1
  Tm  Tm18  1  0.807095  0.497066  0.249430  1
  Tm  Tm19  1  0.307957  0.003293  0.249612  1
  Sn  Sn20  1  0.306905  0.040900  0.041701  1
  Sn  Sn21  1  0.806700  0.458973  0.457944  1
  Sn  Sn22  1  0.692367  0.960873  0.542899  1
  Sn  Sn23  1  0.202629  0.535938  0.955469  1
  Sn  Sn24  1  0.692508  0.961856  0.956891  1
  Sn  Sn25  1  0.192080  0.542989  0.542506  1
  Sn  Sn26  1  0.307804  0.039859  0.458448  1
  Sn  Sn27  1  0.799274  0.456477  0.040463  1
  Sn  Sn28  1  0.557624  0.621011  0.751121  1
  Sn  Sn29  1  0.056039  0.875543  0.750502  1
  Sn  Sn30  1  0.441973  0.376203  0.249471  1
  Sn  Sn31  1  0.943273  0.125726  0.249230  1
  Sn  Sn32  1  0.327081  0.146958  0.752443  1
  Sn  Sn33  1  0.819972  0.356383  0.750870  1
  Sn  Sn34  1  0.676890  0.856124  0.249768  1
  Sn  Sn35  1  0.176655  0.642954  0.249943  1
