# generated using pymatgen
data_Pu4Ta(WN4)3
_symmetry_space_group_name_H-M   'P 1'
_cell_length_a   5.46965922
_cell_length_b   5.71280612
_cell_length_c   7.84144836
_cell_angle_alpha   90.13411169
_cell_angle_beta   89.98951070
_cell_angle_gamma   89.97058508
_symmetry_Int_Tables_number   1
_chemical_formula_structural   Pu4Ta(WN4)3
_chemical_formula_sum   'Pu4 Ta1 W3 N12'
_cell_volume   245.02183409
_cell_formula_units_Z   1
loop_
 _symmetry_equiv_pos_site_id
 _symmetry_equiv_pos_as_xyz
  1  'x, y, z'
loop_
 _atom_site_type_symbol
 _atom_site_label
 _atom_site_symmetry_multiplicity
 _atom_site_fract_x
 _atom_site_fract_y
 _atom_site_fract_z
 _atom_site_occupancy
  Pu  Pu0  1  0.509897  0.560613  0.250212  1
  Pu  Pu1  1  0.989819  0.061537  0.251267  1
  Pu  Pu2  1  0.490103  0.439387  0.749788  1
  Pu  Pu3  1  0.010181  0.938463  0.748733  1
  Ta  Ta4  1  0.500000  0.000000  0.000000  1
  W  W5  1  0.000000  0.500000  0.000000  1
  W  W6  1  0.500000  0.000000  0.500000  1
  W  W7  1  0.000000  0.500000  0.500000  1
  N  N8  1  0.402205  0.969957  0.253226  1
  N  N9  1  0.092312  0.472189  0.250332  1
  N  N10  1  0.597795  0.030043  0.746774  1
  N  N11  1  0.907688  0.527811  0.749668  1
  N  N12  1  0.813375  0.802588  0.050612  1
  N  N13  1  0.693876  0.301858  0.452008  1
  N  N14  1  0.193580  0.198670  0.547141  1
  N  N15  1  0.307487  0.690447  0.950099  1
  N  N16  1  0.186625  0.197412  0.949388  1
  N  N17  1  0.306124  0.698142  0.547992  1
  N  N18  1  0.806420  0.801330  0.452859  1
  N  N19  1  0.692513  0.309553  0.049901  1
