# generated using pymatgen
data_Ba3NbSi4W5O26
_symmetry_space_group_name_H-M   'P 1'
_cell_length_a   9.14083351
_cell_length_b   9.14597739
_cell_length_c   7.81722266
_cell_angle_alpha   89.87847250
_cell_angle_beta   90.09890195
_cell_angle_gamma   119.86205855
_symmetry_Int_Tables_number   1
_chemical_formula_structural   Ba3NbSi4W5O26
_chemical_formula_sum   'Ba3 Nb1 Si4 W5 O26'
_cell_volume   566.76094730
_cell_formula_units_Z   1
loop_
 _symmetry_equiv_pos_site_id
 _symmetry_equiv_pos_as_xyz
  1  'x, y, z'
loop_
 _atom_site_type_symbol
 _atom_site_label
 _atom_site_symmetry_multiplicity
 _atom_site_fract_x
 _atom_site_fract_y
 _atom_site_fract_z
 _atom_site_occupancy
  Ba  Ba0  1  0.608175  0.002455  0.498113  1
  Ba  Ba1  1  0.397741  0.399907  0.497408  1
  Ba  Ba2  1  0.997372  0.596816  0.496562  1
  Nb  Nb3  1  0.002376  0.234884  0.761986  1
  Si  Si4  1  0.664126  0.332594  0.206335  1
  Si  Si5  1  0.333234  0.668563  0.206309  1
  Si  Si6  1  0.667857  0.332915  0.793155  1
  Si  Si7  1  0.336146  0.666382  0.793593  1
  W  W8  1  0.236587  0.999649  0.245437  1
  W  W9  1  0.995999  0.237935  0.249047  1
  W  W10  1  0.760746  0.762509  0.245524  1
  W  W11  1  0.763893  0.759152  0.754656  1
  W  W12  1  0.243929  0.998550  0.752745  1
  O  O13  1  0.268361  0.994005  0.991064  1
  O  O14  1  0.005336  0.278968  0.006305  1
  O  O15  1  0.665570  0.331734  0.999611  1
  O  O16  1  0.334935  0.669816  0.999794  1
  O  O17  1  0.725372  0.729292  0.006647  1
  O  O18  1  0.809787  0.002760  0.235591  1
  O  O19  1  0.999517  0.817547  0.235134  1
  O  O20  1  0.179238  0.171859  0.231751  1
  O  O21  1  0.687328  0.507409  0.286125  1
  O  O22  1  0.508208  0.695105  0.289301  1
  O  O23  1  0.817067  0.309021  0.285645  1
  O  O24  1  0.306616  0.823896  0.278222  1
  O  O25  1  0.487374  0.179099  0.284410  1
  O  O26  1  0.181063  0.493716  0.284848  1
  O  O27  1  0.221092  0.996706  0.505769  1
  O  O28  1  0.003993  0.227296  0.494156  1
  O  O29  1  0.773044  0.777005  0.496023  1
  O  O30  1  0.491969  0.181604  0.713081  1
  O  O31  1  0.189072  0.488907  0.713684  1
  O  O32  1  0.821683  0.310093  0.715835  1
  O  O33  1  0.312093  0.817224  0.710629  1
  O  O34  1  0.691284  0.510058  0.714344  1
  O  O35  1  0.518880  0.695373  0.722780  1
  O  O36  1  0.178041  0.179089  0.765427  1
  O  O37  1  0.822967  0.003623  0.768302  1
  O  O38  1  0.992167  0.816723  0.764645  1
