# generated using pymatgen
data_CsTb6Dy4(C2I9)2
_symmetry_space_group_name_H-M   'P 1'
_cell_length_a   11.46862303
_cell_length_b   11.49276592
_cell_length_c   11.52359849
_cell_angle_alpha   113.21754729
_cell_angle_beta   86.87349558
_cell_angle_gamma   119.85134047
_symmetry_Int_Tables_number   1
_chemical_formula_structural   CsTb6Dy4(C2I9)2
_chemical_formula_sum   'Cs1 Tb6 Dy4 C4 I18'
_cell_volume   1191.38954045
_cell_formula_units_Z   1
loop_
 _symmetry_equiv_pos_site_id
 _symmetry_equiv_pos_as_xyz
  1  'x, y, z'
loop_
 _atom_site_type_symbol
 _atom_site_label
 _atom_site_symmetry_multiplicity
 _atom_site_fract_x
 _atom_site_fract_y
 _atom_site_fract_z
 _atom_site_occupancy
  Cs  Cs0  1  0.499988  0.999953  0.499975  1
  Tb  Tb1  1  0.906842  0.609413  0.708328  1
  Tb  Tb2  1  0.104890  0.944816  0.000672  1
  Tb  Tb3  1  0.035717  0.962498  0.676231  1
  Tb  Tb4  1  0.322162  0.275277  0.288659  1
  Tb  Tb5  1  0.723231  0.647535  0.984828  1
  Tb  Tb6  1  0.895108  0.055385  0.999446  1
  Dy  Dy7  1  0.678812  0.725327  0.712159  1
  Dy  Dy8  1  0.275852  0.351689  0.015798  1
  Dy  Dy9  1  0.093212  0.389475  0.290825  1
  Dy  Dy10  1  0.964789  0.038027  0.322898  1
  C  C11  1  0.151662  0.220255  0.121235  1
  C  C12  1  0.847787  0.780069  0.878782  1
  C  C13  1  0.923361  0.855970  0.802976  1
  C  C14  1  0.076001  0.144272  0.197033  1
  I  I15  1  0.449470  0.530188  0.831319  1
  I  I16  1  0.383522  0.039403  0.157530  1
  I  I17  1  0.777048  0.855206  0.501249  1
  I  I18  1  0.838475  0.310490  0.153755  1
  I  I19  1  0.549788  0.469623  0.168033  1
  I  I20  1  0.222020  0.144459  0.498334  1
  I  I21  1  0.317712  0.096753  0.830861  1
  I  I22  1  0.683066  0.904482  0.170280  1
  I  I23  1  0.975753  0.757204  0.170160  1
  I  I24  1  0.933947  0.298238  0.500784  1
  I  I25  1  0.025105  0.244152  0.830964  1
  I  I26  1  0.066595  0.701157  0.498183  1
  I  I27  1  0.260466  0.620771  0.182624  1
  I  I28  1  0.739169  0.377786  0.817143  1
  I  I29  1  0.641686  0.434682  0.500134  1
  I  I30  1  0.162453  0.689934  0.846837  1
  I  I31  1  0.616731  0.959603  0.841952  1
  I  I32  1  0.357580  0.565908  0.500013  1
