# generated using pymatgen
data_Dy4Ho6RuRh3
_symmetry_space_group_name_H-M   'P 1'
_cell_length_a   6.39839415
_cell_length_b   7.20185425
_cell_length_c   8.57404644
_cell_angle_alpha   96.76924809
_cell_angle_beta   112.09138915
_cell_angle_gamma   90.02359969
_symmetry_Int_Tables_number   1
_chemical_formula_structural   Dy4Ho6RuRh3
_chemical_formula_sum   'Dy4 Ho6 Ru1 Rh3'
_cell_volume   363.10677266
_cell_formula_units_Z   1
loop_
 _symmetry_equiv_pos_site_id
 _symmetry_equiv_pos_as_xyz
  1  'x, y, z'
loop_
 _atom_site_type_symbol
 _atom_site_label
 _atom_site_symmetry_multiplicity
 _atom_site_fract_x
 _atom_site_fract_y
 _atom_site_fract_z
 _atom_site_occupancy
  Dy  Dy0  1  0.981323  0.918229  0.189023  1
  Dy  Dy1  1  0.790981  0.582817  0.811890  1
  Dy  Dy2  1  0.022311  0.082483  0.813950  1
  Dy  Dy3  1  0.210659  0.415296  0.189185  1
  Ho  Ho4  1  0.643048  0.814960  0.434699  1
  Ho  Ho5  1  0.207869  0.686601  0.563825  1
  Ho  Ho6  1  0.356911  0.186329  0.561875  1
  Ho  Ho7  1  0.789203  0.312315  0.435237  1
  Ho  Ho8  1  0.422479  0.751879  0.001169  1
  Ho  Ho9  1  0.577026  0.249253  0.000564  1
  Ru  Ru10  1  0.398320  0.074897  0.220082  1
  Rh  Rh11  1  0.821538  0.574954  0.222115  1
  Rh  Rh12  1  0.598762  0.924262  0.778991  1
  Rh  Rh13  1  0.179570  0.425725  0.777395  1
