# generated using pymatgen
data_HoScBe2AlIr5
_symmetry_space_group_name_H-M   'P 1'
_cell_length_a   9.60956475
_cell_length_b   9.60956475
_cell_length_c   3.11987700
_cell_angle_alpha   90.00000000
_cell_angle_beta   90.00000000
_cell_angle_gamma   89.35176769
_symmetry_Int_Tables_number   1
_chemical_formula_structural   HoScBe2AlIr5
_chemical_formula_sum   'Ho2 Sc2 Be4 Al2 Ir10'
_cell_volume   288.08265569
_cell_formula_units_Z   2
loop_
 _symmetry_equiv_pos_site_id
 _symmetry_equiv_pos_as_xyz
  1  'x, y, z'
loop_
 _atom_site_type_symbol
 _atom_site_label
 _atom_site_symmetry_multiplicity
 _atom_site_fract_x
 _atom_site_fract_y
 _atom_site_fract_z
 _atom_site_occupancy
  Ho  Ho0  1  0.676617  0.176617  0.000000  1
  Ho  Ho1  1  0.323383  0.823383  0.000000  1
  Sc  Sc2  1  0.174764  0.325236  0.000000  1
  Sc  Sc3  1  0.825236  0.674764  0.000000  1
  Be  Be4  1  0.121726  0.621726  0.000000  1
  Be  Be5  1  0.878274  0.378274  0.000000  1
  Be  Be6  1  0.624904  0.875096  0.000000  1
  Be  Be7  1  0.375096  0.124904  0.000000  1
  Al  Al8  1  0.000000  0.000000  0.000000  1
  Al  Al9  1  0.500000  0.500000  0.000000  1
  Ir  Ir10  1  0.207375  0.072710  0.500000  1
  Ir  Ir11  1  0.792625  0.927290  0.500000  1
  Ir  Ir12  1  0.060604  0.788087  0.500000  1
  Ir  Ir13  1  0.711913  0.439396  0.500000  1
  Ir  Ir14  1  0.939396  0.211913  0.500000  1
  Ir  Ir15  1  0.288087  0.560604  0.500000  1
  Ir  Ir16  1  0.572710  0.707375  0.500000  1
  Ir  Ir17  1  0.427290  0.292625  0.500000  1
  Ir  Ir18  1  0.500000  0.000000  0.500000  1
  Ir  Ir19  1  0.000000  0.500000  0.500000  1
