# generated using pymatgen
data_Tb4Dy6(SnSb)3
_symmetry_space_group_name_H-M   'P 1'
_cell_length_a   6.41680800
_cell_length_b   9.01055973
_cell_length_c   9.01268709
_cell_angle_alpha   119.99220131
_cell_angle_beta   89.99985577
_cell_angle_gamma   90.00025463
_symmetry_Int_Tables_number   1
_chemical_formula_structural   Tb4Dy6(SnSb)3
_chemical_formula_sum   'Tb4 Dy6 Sn3 Sb3'
_cell_volume   451.32549047
_cell_formula_units_Z   1
loop_
 _symmetry_equiv_pos_site_id
 _symmetry_equiv_pos_as_xyz
  1  'x, y, z'
loop_
 _atom_site_type_symbol
 _atom_site_label
 _atom_site_symmetry_multiplicity
 _atom_site_fract_x
 _atom_site_fract_y
 _atom_site_fract_z
 _atom_site_occupancy
  Tb  Tb0  1  0.749998  0.241662  0.000000  1
  Tb  Tb1  1  0.249998  0.757816  0.000000  1
  Tb  Tb2  1  0.250001  0.242206  0.242236  1
  Tb  Tb3  1  0.250001  0.999970  0.757764  1
  Dy  Dy4  1  0.500614  0.333348  0.666679  1
  Dy  Dy5  1  0.500614  0.666670  0.333321  1
  Dy  Dy6  1  0.999387  0.666672  0.333324  1
  Dy  Dy7  1  0.999387  0.333348  0.666676  1
  Dy  Dy8  1  0.750001  0.758277  0.758276  1
  Dy  Dy9  1  0.750001  0.000002  0.241724  1
  Sn  Sn10  1  0.750000  0.607379  0.000000  1
  Sn  Sn11  1  0.750000  0.392760  0.392838  1
  Sn  Sn12  1  0.750000  0.999921  0.607162  1
  Sb  Sb13  1  0.249990  0.391436  0.000000  1
  Sb  Sb14  1  0.250005  0.608546  0.608558  1
  Sb  Sb15  1  0.250005  0.999988  0.391442  1
