# generated using pymatgen
data_Ho15Lu5(Ir2Os)4
_symmetry_space_group_name_H-M   'P 1'
_cell_length_a   10.76190950
_cell_length_b   10.76363813
_cell_length_c   6.35641537
_cell_angle_alpha   89.98201332
_cell_angle_beta   89.96505953
_cell_angle_gamma   89.99890594
_symmetry_Int_Tables_number   1
_chemical_formula_structural   Ho15Lu5(Ir2Os)4
_chemical_formula_sum   'Ho15 Lu5 Ir8 Os4'
_cell_volume   736.30981799
_cell_formula_units_Z   1
loop_
 _symmetry_equiv_pos_site_id
 _symmetry_equiv_pos_as_xyz
  1  'x, y, z'
loop_
 _atom_site_type_symbol
 _atom_site_label
 _atom_site_symmetry_multiplicity
 _atom_site_fract_x
 _atom_site_fract_y
 _atom_site_fract_z
 _atom_site_occupancy
  Ho  Ho0  1  0.292513  0.914328  0.876268  1
  Ho  Ho1  1  0.707227  0.086071  0.876316  1
  Ho  Ho2  1  0.707249  0.913960  0.376391  1
  Ho  Ho3  1  0.585992  0.792705  0.876301  1
  Ho  Ho4  1  0.585540  0.207172  0.376119  1
  Ho  Ho5  1  0.413426  0.793148  0.376259  1
  Ho  Ho6  1  0.413436  0.207189  0.876288  1
  Ho  Ho7  1  0.207446  0.413693  0.623527  1
  Ho  Ho8  1  0.207486  0.586203  0.123626  1
  Ho  Ho9  1  0.792558  0.413810  0.123634  1
  Ho  Ho10  1  0.792532  0.586091  0.623767  1
  Ho  Ho11  1  0.913911  0.707457  0.123614  1
  Ho  Ho12  1  0.913904  0.292703  0.623936  1
  Ho  Ho13  1  0.086230  0.707393  0.623675  1
  Ho  Ho14  1  0.086652  0.292182  0.124014  1
  Lu  Lu15  1  0.293745  0.085734  0.377540  1
  Lu  Lu16  1  0.000646  0.000304  0.499672  1
  Lu  Lu17  1  0.000129  0.000091  0.000077  1
  Lu  Lu18  1  0.499931  0.499888  0.999881  1
  Lu  Lu19  1  0.499825  0.499938  0.500024  1
  Ir  Ir20  1  0.849519  0.150629  0.249946  1
  Ir  Ir21  1  0.849578  0.849527  0.750010  1
  Ir  Ir22  1  0.151140  0.150124  0.747813  1
  Ir  Ir23  1  0.151052  0.850195  0.250489  1
  Ir  Ir24  1  0.650491  0.349400  0.749986  1
  Ir  Ir25  1  0.650565  0.650516  0.250011  1
  Ir  Ir26  1  0.349352  0.348284  0.250697  1
  Ir  Ir27  1  0.349492  0.650608  0.750028  1
  Os  Os28  1  0.499330  0.000359  0.124183  1
  Os  Os29  1  0.499137  0.000368  0.622196  1
  Os  Os30  1  0.000001  0.500016  0.877056  1
  Os  Os31  1  0.999968  0.499913  0.376655  1
