# generated using pymatgen
data_Y13Th3(NiAg)4
_symmetry_space_group_name_H-M   'P 1'
_cell_length_a   9.56346082
_cell_length_b   9.54919676
_cell_length_c   9.54919700
_cell_angle_alpha   59.99999569
_cell_angle_beta   60.04932244
_cell_angle_gamma   60.04932563
_symmetry_Int_Tables_number   1
_chemical_formula_structural   Y13Th3(NiAg)4
_chemical_formula_sum   'Y13 Th3 Ni4 Ag4'
_cell_volume   617.10227101
_cell_formula_units_Z   1
loop_
 _symmetry_equiv_pos_site_id
 _symmetry_equiv_pos_as_xyz
  1  'x, y, z'
loop_
 _atom_site_type_symbol
 _atom_site_label
 _atom_site_symmetry_multiplicity
 _atom_site_fract_x
 _atom_site_fract_y
 _atom_site_fract_z
 _atom_site_occupancy
  Y  Y0  1  0.189348  0.603551  0.603551  1
  Y  Y1  1  0.060626  0.439223  0.439223  1
  Y  Y2  1  0.440769  0.061830  0.061830  1
  Y  Y3  1  0.440769  0.061830  0.435571  1
  Y  Y4  1  0.060626  0.439223  0.060929  1
  Y  Y5  1  0.440769  0.435571  0.061830  1
  Y  Y6  1  0.060626  0.060929  0.439223  1
  Y  Y7  1  0.184547  0.815790  0.815790  1
  Y  Y8  1  0.814475  0.185122  0.185122  1
  Y  Y9  1  0.814475  0.185122  0.815280  1
  Y  Y10  1  0.184547  0.815790  0.183872  1
  Y  Y11  1  0.814475  0.815280  0.185122  1
  Y  Y12  1  0.184547  0.183872  0.815790  1
  Th  Th13  1  0.597389  0.602961  0.602961  1
  Th  Th14  1  0.597389  0.602961  0.196688  1
  Th  Th15  1  0.597389  0.196688  0.602961  1
  Ni  Ni16  1  0.398859  0.391740  0.391740  1
  Ni  Ni17  1  0.398859  0.391740  0.817662  1
  Ni  Ni18  1  0.398859  0.817662  0.391740  1
  Ni  Ni19  1  0.814159  0.395281  0.395281  1
  Ag  Ag20  1  0.835989  0.832610  0.832610  1
  Ag  Ag21  1  0.835989  0.832610  0.498789  1
  Ag  Ag22  1  0.835989  0.498789  0.832610  1
  Ag  Ag23  1  0.498526  0.833824  0.833824  1
