# generated using pymatgen
data_Er3Ni2Sn3Rh
_symmetry_space_group_name_H-M   'P 1'
_cell_length_a   7.46445900
_cell_length_b   7.46445815
_cell_length_c   3.74711400
_cell_angle_alpha   90.00000000
_cell_angle_beta   90.00000000
_cell_angle_gamma   119.99999049
_symmetry_Int_Tables_number   1
_chemical_formula_structural   Er3Ni2Sn3Rh
_chemical_formula_sum   'Er3 Ni2 Sn3 Rh1'
_cell_volume   180.81073164
_cell_formula_units_Z   1
loop_
 _symmetry_equiv_pos_site_id
 _symmetry_equiv_pos_as_xyz
  1  'x, y, z'
loop_
 _atom_site_type_symbol
 _atom_site_label
 _atom_site_symmetry_multiplicity
 _atom_site_fract_x
 _atom_site_fract_y
 _atom_site_fract_z
 _atom_site_occupancy
  Er  Er0  1  0.403295  0.403710  0.000000  1
  Er  Er1  1  0.000415  0.596705  0.000000  1
  Er  Er2  1  0.596290  0.999585  0.000000  1
  Ni  Ni3  1  0.000000  0.000000  0.000000  1
  Ni  Ni4  1  0.666667  0.333333  0.500000  1
  Sn  Sn5  1  0.743242  0.738865  0.500000  1
  Sn  Sn6  1  0.995622  0.256758  0.500000  1
  Sn  Sn7  1  0.261135  0.004378  0.500000  1
  Rh  Rh8  1  0.333333  0.666667  0.500000  1
