# generated using pymatgen
data_TbDy7In3Co
_symmetry_space_group_name_H-M   'P 1'
_cell_length_a   10.37434811
_cell_length_b   10.37434805
_cell_length_c   7.01887002
_cell_angle_alpha   89.99600090
_cell_angle_beta   90.00400178
_cell_angle_gamma   119.98699650
_symmetry_Int_Tables_number   1
_chemical_formula_structural   TbDy7In3Co
_chemical_formula_sum   'Tb2 Dy14 In6 Co2'
_cell_volume   654.29914490
_cell_formula_units_Z   2
loop_
 _symmetry_equiv_pos_site_id
 _symmetry_equiv_pos_as_xyz
  1  'x, y, z'
loop_
 _atom_site_type_symbol
 _atom_site_label
 _atom_site_symmetry_multiplicity
 _atom_site_fract_x
 _atom_site_fract_y
 _atom_site_fract_z
 _atom_site_occupancy
  Tb  Tb0  1  0.535292  0.070757  0.791460  1
  Tb  Tb1  1  0.929243  0.464708  0.791460  1
  Dy  Dy2  1  0.535371  0.464629  0.791882  1
  Dy  Dy3  1  0.464415  0.928337  0.291633  1
  Dy  Dy4  1  0.071663  0.535585  0.291633  1
  Dy  Dy5  1  0.464358  0.535642  0.292015  1
  Dy  Dy6  1  0.822318  0.644738  0.498373  1
  Dy  Dy7  1  0.355262  0.177682  0.498373  1
  Dy  Dy8  1  0.822357  0.177643  0.498301  1
  Dy  Dy9  1  0.177962  0.355579  0.999077  1
  Dy  Dy10  1  0.644421  0.822038  0.999077  1
  Dy  Dy11  1  0.177751  0.822249  0.999442  1
  Dy  Dy12  1  0.666504  0.333496  0.183236  1
  Dy  Dy13  1  0.333500  0.666500  0.683012  1
  Dy  Dy14  1  0.000210  0.999790  0.779196  1
  Dy  Dy15  1  0.999818  0.000182  0.279251  1
  In  In16  1  0.836604  0.673896  0.038837  1
  In  In17  1  0.326104  0.163396  0.038837  1
  In  In18  1  0.836899  0.163101  0.039184  1
  In  In19  1  0.163028  0.326171  0.539016  1
  In  In20  1  0.673829  0.836972  0.539016  1
  In  In21  1  0.163248  0.836752  0.538435  1
  Co  Co22  1  0.666410  0.333590  0.567486  1
  Co  Co23  1  0.333439  0.666561  0.067676  1
