# generated using pymatgen
data_Dy3Er17Bi12
_symmetry_space_group_name_H-M   'P 1'
_cell_length_a   8.21360407
_cell_length_b   9.47912700
_cell_length_c   11.96545410
_cell_angle_alpha   90.00000000
_cell_angle_beta   90.01497405
_cell_angle_gamma   90.00000000
_symmetry_Int_Tables_number   1
_chemical_formula_structural   Dy3Er17Bi12
_chemical_formula_sum   'Dy3 Er17 Bi12'
_cell_volume   931.60385402
_cell_formula_units_Z   1
loop_
 _symmetry_equiv_pos_site_id
 _symmetry_equiv_pos_as_xyz
  1  'x, y, z'
loop_
 _atom_site_type_symbol
 _atom_site_label
 _atom_site_symmetry_multiplicity
 _atom_site_fract_x
 _atom_site_fract_y
 _atom_site_fract_z
 _atom_site_occupancy
  Dy  Dy0  1  0.812840  0.250000  0.281595  1
  Dy  Dy1  1  0.686972  0.750000  0.781771  1
  Dy  Dy2  1  0.186794  0.750000  0.718329  1
  Er  Er3  1  0.353051  0.750000  0.216706  1
  Er  Er4  1  0.852980  0.750000  0.283256  1
  Er  Er5  1  0.646939  0.250000  0.783554  1
  Er  Er6  1  0.147187  0.250000  0.716610  1
  Er  Er7  1  0.692423  0.564942  0.059086  1
  Er  Er8  1  0.192099  0.935061  0.440791  1
  Er  Er9  1  0.307744  0.064973  0.941023  1
  Er  Er10  1  0.807992  0.435035  0.559080  1
  Er  Er11  1  0.307744  0.435027  0.941023  1
  Er  Er12  1  0.807992  0.064965  0.559080  1
  Er  Er13  1  0.692423  0.935058  0.059086  1
  Er  Er14  1  0.192099  0.564939  0.440791  1
  Er  Er15  1  0.475975  0.250000  0.488414  1
  Er  Er16  1  0.976073  0.250000  0.011724  1
  Er  Er17  1  0.523938  0.750000  0.511359  1
  Er  Er18  1  0.024055  0.750000  0.988693  1
  Er  Er19  1  0.312583  0.250000  0.217822  1
  Bi  Bi20  1  0.405654  0.750000  0.958151  1
  Bi  Bi21  1  0.905505  0.750000  0.541850  1
  Bi  Bi22  1  0.593843  0.250000  0.042520  1
  Bi  Bi23  1  0.094879  0.250000  0.457765  1
  Bi  Bi24  1  0.565137  0.995425  0.325635  1
  Bi  Bi25  1  0.066437  0.504608  0.174163  1
  Bi  Bi26  1  0.434325  0.495030  0.674041  1
  Bi  Bi27  1  0.934207  0.005069  0.826120  1
  Bi  Bi28  1  0.434325  0.004970  0.674041  1
  Bi  Bi29  1  0.934207  0.494931  0.826120  1
  Bi  Bi30  1  0.565137  0.504575  0.325635  1
  Bi  Bi31  1  0.066437  0.995392  0.174163  1
