# generated using pymatgen
data_ScTiNb2(SiPt)4
_symmetry_space_group_name_H-M   'P 1'
_cell_length_a   3.86548200
_cell_length_b   6.46692061
_cell_length_c   7.47436594
_cell_angle_alpha   90.18692779
_cell_angle_beta   90.00000000
_cell_angle_gamma   90.00000000
_symmetry_Int_Tables_number   1
_chemical_formula_structural   ScTiNb2(SiPt)4
_chemical_formula_sum   'Sc1 Ti1 Nb2 Si4 Pt4'
_cell_volume   186.84145046
_cell_formula_units_Z   1
loop_
 _symmetry_equiv_pos_site_id
 _symmetry_equiv_pos_as_xyz
  1  'x, y, z'
loop_
 _atom_site_type_symbol
 _atom_site_label
 _atom_site_symmetry_multiplicity
 _atom_site_fract_x
 _atom_site_fract_y
 _atom_site_fract_z
 _atom_site_occupancy
  Sc  Sc0  1  0.750000  0.972294  0.674173  1
  Ti  Ti1  1  0.750000  0.472157  0.831918  1
  Nb  Nb2  1  0.250000  0.028953  0.321923  1
  Nb  Nb3  1  0.250000  0.527514  0.174878  1
  Si  Si4  1  0.250000  0.265982  0.621054  1
  Si  Si5  1  0.250000  0.752258  0.881369  1
  Si  Si6  1  0.750000  0.735300  0.368799  1
  Si  Si7  1  0.750000  0.238190  0.127403  1
  Pt  Pt8  1  0.250000  0.150647  0.930923  1
  Pt  Pt9  1  0.250000  0.651045  0.569946  1
  Pt  Pt10  1  0.750000  0.852917  0.056766  1
  Pt  Pt11  1  0.750000  0.352742  0.440848  1
