# generated using pymatgen
data_PrFe2(PIr)3
_symmetry_space_group_name_H-M   'P 1'
_cell_length_a   3.90953500
_cell_length_b   10.57972400
_cell_length_c   12.40497800
_cell_angle_alpha   90.00000000
_cell_angle_beta   90.00000000
_cell_angle_gamma   90.00000000
_symmetry_Int_Tables_number   1
_chemical_formula_structural   PrFe2(PIr)3
_chemical_formula_sum   'Pr4 Fe8 P12 Ir12'
_cell_volume   513.09223477
_cell_formula_units_Z   4
loop_
 _symmetry_equiv_pos_site_id
 _symmetry_equiv_pos_as_xyz
  1  'x, y, z'
loop_
 _atom_site_type_symbol
 _atom_site_label
 _atom_site_symmetry_multiplicity
 _atom_site_fract_x
 _atom_site_fract_y
 _atom_site_fract_z
 _atom_site_occupancy
  Pr  Pr0  1  0.250000  0.579820  0.712212  1
  Pr  Pr1  1  0.250000  0.920180  0.212212  1
  Pr  Pr2  1  0.750000  0.420180  0.287788  1
  Pr  Pr3  1  0.750000  0.079820  0.787788  1
  Fe  Fe4  1  0.250000  0.875111  0.696405  1
  Fe  Fe5  1  0.250000  0.624889  0.196405  1
  Fe  Fe6  1  0.750000  0.124889  0.303595  1
  Fe  Fe7  1  0.750000  0.375111  0.803595  1
  Fe  Fe8  1  0.250000  0.457833  0.937002  1
  Fe  Fe9  1  0.250000  0.042167  0.437002  1
  Fe  Fe10  1  0.750000  0.542167  0.062998  1
  Fe  Fe11  1  0.750000  0.957833  0.562998  1
  P  P12  1  0.250000  0.441362  0.109914  1
  P  P13  1  0.250000  0.058638  0.609914  1
  P  P14  1  0.750000  0.558638  0.890086  1
  P  P15  1  0.750000  0.941362  0.390086  1
  P  P16  1  0.250000  0.274815  0.863634  1
  P  P17  1  0.250000  0.225185  0.363634  1
  P  P18  1  0.750000  0.725185  0.136366  1
  P  P19  1  0.750000  0.774815  0.636366  1
  P  P20  1  0.250000  0.602950  0.379578  1
  P  P21  1  0.250000  0.897050  0.879578  1
  P  P22  1  0.750000  0.397050  0.620422  1
  P  P23  1  0.750000  0.102950  0.120422  1
  Ir  Ir24  1  0.250000  0.717357  0.989727  1
  Ir  Ir25  1  0.250000  0.782643  0.489727  1
  Ir  Ir26  1  0.750000  0.282643  0.010273  1
  Ir  Ir27  1  0.750000  0.217357  0.510273  1
  Ir  Ir28  1  0.250000  0.408448  0.478293  1
  Ir  Ir29  1  0.250000  0.091552  0.978293  1
  Ir  Ir30  1  0.750000  0.591552  0.521707  1
  Ir  Ir31  1  0.750000  0.908448  0.021707  1
  Ir  Ir32  1  0.250000  0.229890  0.172415  1
  Ir  Ir33  1  0.250000  0.270110  0.672415  1
  Ir  Ir34  1  0.750000  0.770110  0.827585  1
  Ir  Ir35  1  0.750000  0.729890  0.327585  1
