# generated using pymatgen
data_BaCuPd5O11
_symmetry_space_group_name_H-M   'P 1'
_cell_length_a   6.06437200
_cell_length_b   6.06437182
_cell_length_c   13.82691500
_cell_angle_alpha   90.00000000
_cell_angle_beta   90.00000000
_cell_angle_gamma   120.00000099
_symmetry_Int_Tables_number   1
_chemical_formula_structural   BaCuPd5O11
_chemical_formula_sum   'Ba2 Cu2 Pd10 O22'
_cell_volume   440.37998786
_cell_formula_units_Z   2
loop_
 _symmetry_equiv_pos_site_id
 _symmetry_equiv_pos_as_xyz
  1  'x, y, z'
loop_
 _atom_site_type_symbol
 _atom_site_label
 _atom_site_symmetry_multiplicity
 _atom_site_fract_x
 _atom_site_fract_y
 _atom_site_fract_z
 _atom_site_occupancy
  Ba  Ba0  1  0.333333  0.666667  0.750000  1
  Ba  Ba1  1  0.666667  0.333333  0.250000  1
  Cu  Cu2  1  0.333333  0.666667  0.250000  1
  Cu  Cu3  1  0.666667  0.333333  0.750000  1
  Pd  Pd4  1  0.000000  0.000000  0.148556  1
  Pd  Pd5  1  0.000000  0.000000  0.851444  1
  Pd  Pd6  1  0.000000  0.000000  0.648556  1
  Pd  Pd7  1  0.000000  0.000000  0.351444  1
  Pd  Pd8  1  0.500000  0.000000  0.000000  1
  Pd  Pd9  1  0.000000  0.500000  0.000000  1
  Pd  Pd10  1  0.500000  0.000000  0.500000  1
  Pd  Pd11  1  0.500000  0.500000  0.000000  1
  Pd  Pd12  1  0.000000  0.500000  0.500000  1
  Pd  Pd13  1  0.500000  0.500000  0.500000  1
  O  O14  1  0.148797  0.297596  0.250000  1
  O  O15  1  0.851203  0.702404  0.750000  1
  O  O16  1  0.702404  0.851203  0.250000  1
  O  O17  1  0.297596  0.148797  0.750000  1
  O  O18  1  0.148797  0.851203  0.250000  1
  O  O19  1  0.851203  0.148797  0.750000  1
  O  O20  1  0.333333  0.666667  0.078254  1
  O  O21  1  0.666667  0.333333  0.921746  1
  O  O22  1  0.666667  0.333333  0.578254  1
  O  O23  1  0.333333  0.666667  0.421746  1
  O  O24  1  0.177257  0.354515  0.582478  1
  O  O25  1  0.822743  0.645485  0.417522  1
  O  O26  1  0.645485  0.822743  0.582478  1
  O  O27  1  0.822743  0.645485  0.082478  1
  O  O28  1  0.354515  0.177257  0.417522  1
  O  O29  1  0.177257  0.354515  0.917522  1
  O  O30  1  0.177257  0.822743  0.582478  1
  O  O31  1  0.354515  0.177257  0.082478  1
  O  O32  1  0.822743  0.177257  0.417522  1
  O  O33  1  0.645485  0.822743  0.917522  1
  O  O34  1  0.822743  0.177257  0.082478  1
  O  O35  1  0.177257  0.822743  0.917522  1
