# generated using pymatgen
data_ErZrMn2Co10P7
_symmetry_space_group_name_H-M   'P 1'
_cell_length_a   8.99719441
_cell_length_b   8.97046155
_cell_length_c   3.58383300
_cell_angle_alpha   90.00000000
_cell_angle_beta   90.00000000
_cell_angle_gamma   119.98310522
_symmetry_Int_Tables_number   1
_chemical_formula_structural   ErZrMn2Co10P7
_chemical_formula_sum   'Er1 Zr1 Mn2 Co10 P7'
_cell_volume   250.53834257
_cell_formula_units_Z   1
loop_
 _symmetry_equiv_pos_site_id
 _symmetry_equiv_pos_as_xyz
  1  'x, y, z'
loop_
 _atom_site_type_symbol
 _atom_site_label
 _atom_site_symmetry_multiplicity
 _atom_site_fract_x
 _atom_site_fract_y
 _atom_site_fract_z
 _atom_site_occupancy
  Er  Er0  1  0.999368  0.999850  0.500000  1
  Zr  Zr1  1  0.332862  0.665070  0.000000  1
  Mn  Mn2  1  0.764744  0.553877  0.500000  1
  Mn  Mn3  1  0.445040  0.209531  0.500000  1
  Co  Co4  1  0.039099  0.275259  0.000000  1
  Co  Co5  1  0.726335  0.766517  0.000000  1
  Co  Co6  1  0.234868  0.960226  0.000000  1
  Co  Co7  1  0.549194  0.056442  0.000000  1
  Co  Co8  1  0.942946  0.490663  0.000000  1
  Co  Co9  1  0.505924  0.451110  0.000000  1
  Co  Co10  1  0.613134  0.895664  0.500000  1
  Co  Co11  1  0.105705  0.717000  0.500000  1
  Co  Co12  1  0.281054  0.388163  0.500000  1
  Co  Co13  1  0.795546  0.238843  0.500000  1
  P  P14  1  0.780894  0.038196  0.000000  1
  P  P15  1  0.963789  0.744580  0.000000  1
  P  P16  1  0.254089  0.218860  0.000000  1
  P  P17  1  0.376377  0.922553  0.500000  1
  P  P18  1  0.072833  0.450605  0.500000  1
  P  P19  1  0.549216  0.623654  0.500000  1
  P  P20  1  0.666984  0.333338  0.000000  1
