# generated using pymatgen
data_BaCuPd7O16
_symmetry_space_group_name_H-M   'P 1'
_cell_length_a   6.22503665
_cell_length_b   7.36877463
_cell_length_c   7.37265500
_cell_angle_alpha   87.52731326
_cell_angle_beta   77.97595613
_cell_angle_gamma   77.84672703
_symmetry_Int_Tables_number   1
_chemical_formula_structural   BaCuPd7O16
_chemical_formula_sum   'Ba1 Cu1 Pd7 O16'
_cell_volume   323.35711119
_cell_formula_units_Z   1
loop_
 _symmetry_equiv_pos_site_id
 _symmetry_equiv_pos_as_xyz
  1  'x, y, z'
loop_
 _atom_site_type_symbol
 _atom_site_label
 _atom_site_symmetry_multiplicity
 _atom_site_fract_x
 _atom_site_fract_y
 _atom_site_fract_z
 _atom_site_occupancy
  Ba  Ba0  1  0.236124  0.997868  0.010872  1
  Cu  Cu1  1  0.078942  0.186750  0.484197  1
  Pd  Pd2  1  0.581314  0.184311  0.480401  1
  Pd  Pd3  1  0.321283  0.514395  0.182097  1
  Pd  Pd4  1  0.822640  0.521230  0.182545  1
  Pd  Pd5  1  0.173511  0.480313  0.814341  1
  Pd  Pd6  1  0.673023  0.475833  0.815003  1
  Pd  Pd7  1  0.412061  0.818844  0.516596  1
  Pd  Pd8  1  0.913551  0.818549  0.521472  1
  O  O9  1  0.389328  0.048503  0.354099  1
  O  O10  1  0.901511  0.046867  0.354231  1
  O  O11  1  0.079994  0.373696  0.286149  1
  O  O12  1  0.589282  0.366869  0.273238  1
  O  O13  1  0.075249  0.651024  0.049322  1
  O  O14  1  0.568320  0.650449  0.044620  1
  O  O15  1  0.266417  0.281869  0.623412  1
  O  O16  1  0.776927  0.282909  0.619379  1
  O  O17  1  0.222624  0.724773  0.365767  1
  O  O18  1  0.724962  0.728092  0.366057  1
  O  O19  1  0.418611  0.344337  0.950293  1
  O  O20  1  0.925935  0.348152  0.952125  1
  O  O21  1  0.410436  0.629426  0.722138  1
  O  O22  1  0.906676  0.628320  0.723808  1
  O  O23  1  0.591951  0.954750  0.651699  1
  O  O24  1  0.101905  0.941871  0.656141  1
