# generated using pymatgen
data_Ba8TaIr3O20
_symmetry_space_group_name_H-M   'P 1'
_cell_length_a   5.78014000
_cell_length_b   7.52668483
_cell_length_c   11.72742605
_cell_angle_alpha   90.32800588
_cell_angle_beta   90.00000000
_cell_angle_gamma   90.00000000
_symmetry_Int_Tables_number   1
_chemical_formula_structural   Ba8TaIr3O20
_chemical_formula_sum   'Ba8 Ta1 Ir3 O20'
_cell_volume   510.19673483
_cell_formula_units_Z   1
loop_
 _symmetry_equiv_pos_site_id
 _symmetry_equiv_pos_as_xyz
  1  'x, y, z'
loop_
 _atom_site_type_symbol
 _atom_site_label
 _atom_site_symmetry_multiplicity
 _atom_site_fract_x
 _atom_site_fract_y
 _atom_site_fract_z
 _atom_site_occupancy
  Ba  Ba0  1  0.750000  0.159428  0.577395  1
  Ba  Ba1  1  0.250000  0.820566  0.417717  1
  Ba  Ba2  1  0.750000  0.668326  0.918901  1
  Ba  Ba3  1  0.250000  0.337630  0.084070  1
  Ba  Ba4  1  0.250000  0.024934  0.785631  1
  Ba  Ba5  1  0.750000  0.981637  0.217234  1
  Ba  Ba6  1  0.250000  0.523467  0.709575  1
  Ba  Ba7  1  0.750000  0.478873  0.289305  1
  Ta  Ta8  1  0.250000  0.313593  0.431265  1
  Ir  Ir9  1  0.750000  0.668352  0.562179  1
  Ir  Ir10  1  0.250000  0.830882  0.060336  1
  Ir  Ir11  1  0.750000  0.169873  0.939708  1
  O  O12  1  0.489775  0.679216  0.111882  1
  O  O13  1  0.989977  0.321382  0.887881  1
  O  O14  1  0.001672  0.170041  0.381105  1
  O  O15  1  0.509601  0.822176  0.614984  1
  O  O16  1  0.510023  0.321382  0.887881  1
  O  O17  1  0.010225  0.679216  0.111882  1
  O  O18  1  0.990399  0.822176  0.614984  1
  O  O19  1  0.498328  0.170041  0.381105  1
  O  O20  1  0.750000  0.284552  0.091912  1
  O  O21  1  0.250000  0.717025  0.908167  1
  O  O22  1  0.750000  0.785009  0.410987  1
  O  O23  1  0.250000  0.224136  0.593767  1
  O  O24  1  0.990841  0.504543  0.502528  1
  O  O25  1  0.509159  0.504543  0.502528  1
  O  O26  1  0.499746  0.000496  0.999782  1
  O  O27  1  0.000254  0.000496  0.999782  1
  O  O28  1  0.250000  0.479830  0.304486  1
  O  O29  1  0.750000  0.537105  0.701315  1
  O  O30  1  0.250000  0.967962  0.196666  1
  O  O31  1  0.750000  0.031116  0.803065  1
