# generated using pymatgen
data_PrCo4ReP3
_symmetry_space_group_name_H-M   'P 1'
_cell_length_a   3.77060300
_cell_length_b   10.50970700
_cell_length_c   11.95200900
_cell_angle_alpha   90.00000000
_cell_angle_beta   90.00000000
_cell_angle_gamma   90.00000000
_symmetry_Int_Tables_number   1
_chemical_formula_structural   PrCo4ReP3
_chemical_formula_sum   'Pr4 Co16 Re4 P12'
_cell_volume   473.63340880
_cell_formula_units_Z   4
loop_
 _symmetry_equiv_pos_site_id
 _symmetry_equiv_pos_as_xyz
  1  'x, y, z'
loop_
 _atom_site_type_symbol
 _atom_site_label
 _atom_site_symmetry_multiplicity
 _atom_site_fract_x
 _atom_site_fract_y
 _atom_site_fract_z
 _atom_site_occupancy
  Pr  Pr0  1  0.250000  0.583710  0.703861  1
  Pr  Pr1  1  0.250000  0.916290  0.203861  1
  Pr  Pr2  1  0.750000  0.416290  0.296139  1
  Pr  Pr3  1  0.750000  0.083710  0.796139  1
  Co  Co4  1  0.250000  0.403902  0.490859  1
  Co  Co5  1  0.250000  0.096098  0.990859  1
  Co  Co6  1  0.750000  0.596098  0.509141  1
  Co  Co7  1  0.750000  0.903902  0.009141  1
  Co  Co8  1  0.250000  0.222393  0.175066  1
  Co  Co9  1  0.250000  0.277607  0.675066  1
  Co  Co10  1  0.750000  0.777607  0.824934  1
  Co  Co11  1  0.750000  0.722393  0.324934  1
  Co  Co12  1  0.250000  0.884692  0.700519  1
  Co  Co13  1  0.250000  0.615308  0.200519  1
  Co  Co14  1  0.750000  0.115308  0.299481  1
  Co  Co15  1  0.750000  0.384692  0.799481  1
  Co  Co16  1  0.250000  0.464567  0.933597  1
  Co  Co17  1  0.250000  0.035433  0.433597  1
  Co  Co18  1  0.750000  0.535433  0.066403  1
  Co  Co19  1  0.750000  0.964567  0.566403  1
  Re  Re20  1  0.250000  0.707651  0.988983  1
  Re  Re21  1  0.250000  0.792349  0.488983  1
  Re  Re22  1  0.750000  0.292349  0.011017  1
  Re  Re23  1  0.750000  0.207651  0.511017  1
  P  P24  1  0.250000  0.419774  0.111004  1
  P  P25  1  0.250000  0.080226  0.611004  1
  P  P26  1  0.750000  0.580226  0.888996  1
  P  P27  1  0.750000  0.919774  0.388996  1
  P  P28  1  0.250000  0.274679  0.865504  1
  P  P29  1  0.250000  0.225321  0.365504  1
  P  P30  1  0.750000  0.725321  0.134496  1
  P  P31  1  0.750000  0.774679  0.634496  1
  P  P32  1  0.250000  0.600392  0.392860  1
  P  P33  1  0.250000  0.899608  0.892860  1
  P  P34  1  0.750000  0.399608  0.607140  1
  P  P35  1  0.750000  0.100392  0.107140  1
