# generated using pymatgen
data_Ho4ErBe5P7Ir19
_symmetry_space_group_name_H-M   'P 1'
_cell_length_a   12.55506801
_cell_length_b   12.47251778
_cell_length_c   3.94527700
_cell_angle_alpha   90.00000000
_cell_angle_beta   90.00000000
_cell_angle_gamma   119.81804841
_symmetry_Int_Tables_number   1
_chemical_formula_structural   Ho4ErBe5P7Ir19
_chemical_formula_sum   'Ho4 Er1 Be5 P7 Ir19'
_cell_volume   536.01220774
_cell_formula_units_Z   1
loop_
 _symmetry_equiv_pos_site_id
 _symmetry_equiv_pos_as_xyz
  1  'x, y, z'
loop_
 _atom_site_type_symbol
 _atom_site_label
 _atom_site_symmetry_multiplicity
 _atom_site_fract_x
 _atom_site_fract_y
 _atom_site_fract_z
 _atom_site_occupancy
  Ho  Ho0  1  0.666342  0.334587  0.000000  1
  Ho  Ho1  1  0.810859  0.808700  0.500000  1
  Ho  Ho2  1  0.188329  0.998243  0.500000  1
  Ho  Ho3  1  0.993629  0.183386  0.500000  1
  Er  Er4  1  0.336111  0.679155  0.000000  1
  Be  Be5  1  0.688309  0.164636  0.500000  1
  Be  Be6  1  0.834954  0.522866  0.500000  1
  Be  Be7  1  0.477175  0.312719  0.500000  1
  Be  Be8  1  0.168349  0.692744  0.500000  1
  Be  Be9  1  0.521778  0.834311  0.500000  1
  P  P10  1  0.306620  0.484926  0.500000  1
  P  P11  1  0.633206  0.625664  0.000000  1
  P  P12  1  0.376182  0.000851  0.000000  1
  P  P13  1  0.993623  0.369652  0.000000  1
  P  P14  1  0.182494  0.180182  0.000000  1
  P  P15  1  0.814828  0.996048  0.000000  1
  P  P16  1  0.001507  0.817237  0.000000  1
  Ir  Ir17  1  0.805935  0.181654  0.000000  1
  Ir  Ir18  1  0.818651  0.623397  0.000000  1
  Ir  Ir19  1  0.375524  0.190729  0.000000  1
  Ir  Ir20  1  0.186329  0.810134  0.000000  1
  Ir  Ir21  1  0.622668  0.809933  0.000000  1
  Ir  Ir22  1  0.191112  0.377486  0.000000  1
  Ir  Ir23  1  0.451842  0.442797  0.000000  1
  Ir  Ir24  1  0.555957  0.997248  0.000000  1
  Ir  Ir25  1  0.003401  0.556766  0.000000  1
  Ir  Ir26  1  0.280465  0.284216  0.500000  1
  Ir  Ir27  1  0.716931  0.996512  0.500000  1
  Ir  Ir28  1  0.000916  0.718929  0.500000  1
  Ir  Ir29  1  0.873540  0.360917  0.500000  1
  Ir  Ir30  1  0.640858  0.512518  0.500000  1
  Ir  Ir31  1  0.489928  0.128766  0.500000  1
  Ir  Ir32  1  0.362471  0.874999  0.500000  1
  Ir  Ir33  1  0.502225  0.635059  0.500000  1
  Ir  Ir34  1  0.127389  0.492094  0.500000  1
  Ir  Ir35  1  0.999562  0.999938  0.000000  1
