# generated using pymatgen
data_SrSn2HgAu
_symmetry_space_group_name_H-M   'P 1'
_cell_length_a   4.89561000
_cell_length_b   4.89561000
_cell_length_c   11.54824900
_cell_angle_alpha   90.00000000
_cell_angle_beta   90.00000000
_cell_angle_gamma   90.00000000
_symmetry_Int_Tables_number   1
_chemical_formula_structural   SrSn2HgAu
_chemical_formula_sum   'Sr2 Sn4 Hg2 Au2'
_cell_volume   276.77685228
_cell_formula_units_Z   2
loop_
 _symmetry_equiv_pos_site_id
 _symmetry_equiv_pos_as_xyz
  1  'x, y, z'
loop_
 _atom_site_type_symbol
 _atom_site_label
 _atom_site_symmetry_multiplicity
 _atom_site_fract_x
 _atom_site_fract_y
 _atom_site_fract_z
 _atom_site_occupancy
  Sr  Sr0  1  0.000000  0.500000  0.249609  1
  Sr  Sr1  1  0.500000  0.000000  0.750391  1
  Sn  Sn2  1  0.000000  0.000000  0.000000  1
  Sn  Sn3  1  0.500000  0.500000  0.000000  1
  Sn  Sn4  1  0.000000  0.500000  0.640897  1
  Sn  Sn5  1  0.500000  0.000000  0.359103  1
  Hg  Hg6  1  0.000000  0.000000  0.500000  1
  Hg  Hg7  1  0.500000  0.500000  0.500000  1
  Au  Au8  1  0.000000  0.500000  0.873561  1
  Au  Au9  1  0.500000  0.000000  0.126439  1
