# generated using pymatgen
data_CeSmNi2(PH2)2
_symmetry_space_group_name_H-M   'P 1'
_cell_length_a   3.99025900
_cell_length_b   3.99025918
_cell_length_c   8.22582900
_cell_angle_alpha   90.00000000
_cell_angle_beta   90.00000000
_cell_angle_gamma   120.00002340
_symmetry_Int_Tables_number   1
_chemical_formula_structural   CeSmNi2(PH2)2
_chemical_formula_sum   'Ce1 Sm1 Ni2 P2 H4'
_cell_volume   113.42594265
_cell_formula_units_Z   1
loop_
 _symmetry_equiv_pos_site_id
 _symmetry_equiv_pos_as_xyz
  1  'x, y, z'
loop_
 _atom_site_type_symbol
 _atom_site_label
 _atom_site_symmetry_multiplicity
 _atom_site_fract_x
 _atom_site_fract_y
 _atom_site_fract_z
 _atom_site_occupancy
  Ce  Ce0  1  0.000000  0.000000  0.000000  1
  Sm  Sm1  1  0.000000  0.000000  0.500000  1
  Ni  Ni2  1  0.666667  0.333333  0.747618  1
  Ni  Ni3  1  0.333333  0.666667  0.252382  1
  P  P4  1  0.333333  0.666667  0.753483  1
  P  P5  1  0.666667  0.333333  0.246517  1
  H  H6  1  0.333333  0.666667  0.446503  1
  H  H7  1  0.666667  0.333333  0.553497  1
  H  H8  1  0.333333  0.666667  0.056803  1
  H  H9  1  0.666667  0.333333  0.943197  1
