# generated using pymatgen
data_Tm2LuSi2Ag3Hg
_symmetry_space_group_name_H-M   'P 1'
_cell_length_a   7.16430000
_cell_length_b   7.16384992
_cell_length_c   4.18177600
_cell_angle_alpha   90.00000000
_cell_angle_beta   90.00000000
_cell_angle_gamma   119.99792103
_symmetry_Int_Tables_number   1
_chemical_formula_structural   Tm2LuSi2Ag3Hg
_chemical_formula_sum   'Tm2 Lu1 Si2 Ag3 Hg1'
_cell_volume   185.87489574
_cell_formula_units_Z   1
loop_
 _symmetry_equiv_pos_site_id
 _symmetry_equiv_pos_as_xyz
  1  'x, y, z'
loop_
 _atom_site_type_symbol
 _atom_site_label
 _atom_site_symmetry_multiplicity
 _atom_site_fract_x
 _atom_site_fract_y
 _atom_site_fract_z
 _atom_site_occupancy
  Tm  Tm0  1  0.421556  0.421589  0.500000  1
  Tm  Tm1  1  0.578444  0.000034  0.500000  1
  Lu  Lu2  1  0.000000  0.578392  0.500000  1
  Si  Si3  1  0.666915  0.333503  0.000000  1
  Si  Si4  1  0.333085  0.666590  0.000000  1
  Ag  Ag5  1  0.728601  0.728530  0.000000  1
  Ag  Ag6  1  0.271399  0.999929  0.000000  1
  Ag  Ag7  1  0.000000  0.271665  0.000000  1
  Hg  Hg8  1  0.000000  0.999767  0.500000  1
