# generated using pymatgen
data_SrAc5Rh18
_symmetry_space_group_name_H-M   'P 1'
_cell_length_a   5.48745000
_cell_length_b   5.48742206
_cell_length_c   17.89765900
_cell_angle_alpha   89.99990603
_cell_angle_beta   90.00006265
_cell_angle_gamma   119.99983087
_symmetry_Int_Tables_number   1
_chemical_formula_structural   SrAc5Rh18
_chemical_formula_sum   'Sr1 Ac5 Rh18'
_cell_volume   466.73088639
_cell_formula_units_Z   1
loop_
 _symmetry_equiv_pos_site_id
 _symmetry_equiv_pos_as_xyz
  1  'x, y, z'
loop_
 _atom_site_type_symbol
 _atom_site_label
 _atom_site_symmetry_multiplicity
 _atom_site_fract_x
 _atom_site_fract_y
 _atom_site_fract_z
 _atom_site_occupancy
  Sr  Sr0  1  0.333372  0.666675  0.541338  1
  Ac  Ac1  1  0.333319  0.666664  0.956173  1
  Ac  Ac2  1  0.666649  0.333332  0.043277  1
  Ac  Ac3  1  0.666685  0.333339  0.461007  1
  Ac  Ac4  1  0.333325  0.666665  0.746321  1
  Ac  Ac5  1  0.666670  0.333321  0.251476  1
  Rh  Rh6  1  0.165843  0.834133  0.371440  1
  Rh  Rh7  1  0.165837  0.331727  0.371435  1
  Rh  Rh8  1  0.668281  0.834158  0.371461  1
  Rh  Rh9  1  0.834520  0.165504  0.628612  1
  Rh  Rh10  1  0.834537  0.669042  0.628616  1
  Rh  Rh11  1  0.330917  0.165445  0.628593  1
  Rh  Rh12  1  0.833892  0.166092  0.870316  1
  Rh  Rh13  1  0.833870  0.667775  0.870292  1
  Rh  Rh14  1  0.332178  0.166101  0.870302  1
  Rh  Rh15  1  0.166079  0.833889  0.129618  1
  Rh  Rh16  1  0.166049  0.332180  0.129627  1
  Rh  Rh17  1  0.667839  0.833947  0.129606  1
  Rh  Rh18  1  0.333563  0.666737  0.250710  1
  Rh  Rh19  1  0.666451  0.333288  0.749259  1
  Rh  Rh20  1  0.999870  0.999915  0.250562  1
  Rh  Rh21  1  0.000149  0.000038  0.749349  1
  Rh  Rh22  1  0.000137  0.000016  0.500684  1
  Rh  Rh23  1  0.999967  0.000014  0.999927  1
