# generated using pymatgen
data_ReTc3Se8
_symmetry_space_group_name_H-M   'P 1'
_cell_length_a   6.66402725
_cell_length_b   6.79348013
_cell_length_c   7.35275109
_cell_angle_alpha   92.00914210
_cell_angle_beta   103.87753054
_cell_angle_gamma   118.81830844
_symmetry_Int_Tables_number   1
_chemical_formula_structural   ReTc3Se8
_chemical_formula_sum   'Re1 Tc3 Se8'
_cell_volume   278.65709333
_cell_formula_units_Z   1
loop_
 _symmetry_equiv_pos_site_id
 _symmetry_equiv_pos_as_xyz
  1  'x, y, z'
loop_
 _atom_site_type_symbol
 _atom_site_label
 _atom_site_symmetry_multiplicity
 _atom_site_fract_x
 _atom_site_fract_y
 _atom_site_fract_z
 _atom_site_occupancy
  Re  Re0  1  0.512016  0.708101  0.502914  1
  Tc  Tc1  1  0.064057  0.315837  0.490840  1
  Tc  Tc2  1  0.936106  0.684517  0.508649  1
  Tc  Tc3  1  0.487484  0.290245  0.497138  1
  Se  Se4  1  0.258518  0.386150  0.233107  1
  Se  Se5  1  0.742756  0.614084  0.767457  1
  Se  Se6  1  0.728408  0.344650  0.262846  1
  Se  Se7  1  0.271908  0.656373  0.737703  1
  Se  Se8  1  0.220026  0.106719  0.701636  1
  Se  Se9  1  0.778259  0.893345  0.296799  1
  Se  Se10  1  0.750867  0.133796  0.679205  1
  Se  Se11  1  0.249595  0.866183  0.321704  1
