# generated using pymatgen
data_La8Cd2CuRu
_symmetry_space_group_name_H-M   'P 1'
_cell_length_a   10.11465374
_cell_length_b   10.11465322
_cell_length_c   10.08351000
_cell_angle_alpha   60.10180100
_cell_angle_beta   60.10180270
_cell_angle_gamma   60.60636220
_symmetry_Int_Tables_number   1
_chemical_formula_structural   La8Cd2CuRu
_chemical_formula_sum   'La16 Cd4 Cu2 Ru2'
_cell_volume   733.87521726
_cell_formula_units_Z   2
loop_
 _symmetry_equiv_pos_site_id
 _symmetry_equiv_pos_as_xyz
  1  'x, y, z'
loop_
 _atom_site_type_symbol
 _atom_site_label
 _atom_site_symmetry_multiplicity
 _atom_site_fract_x
 _atom_site_fract_y
 _atom_site_fract_z
 _atom_site_occupancy
  La  La0  1  0.901902  0.901902  0.906139  1
  La  La1  1  0.438289  0.438289  0.061711  1
  La  La2  1  0.057987  0.057987  0.442013  1
  La  La3  1  0.449211  0.057383  0.059410  1
  La  La4  1  0.305837  0.685836  0.315885  1
  La  La5  1  0.688738  0.688738  0.311262  1
  La  La6  1  0.685836  0.305837  0.315885  1
  La  La7  1  0.302560  0.891353  0.903044  1
  La  La8  1  0.891353  0.302560  0.903044  1
  La  La9  1  0.305837  0.685836  0.692442  1
  La  La10  1  0.901902  0.901902  0.290058  1
  La  La11  1  0.057383  0.449211  0.059410  1
  La  La12  1  0.310558  0.310558  0.689442  1
  La  La13  1  0.057383  0.449211  0.433996  1
  La  La14  1  0.449211  0.057383  0.433996  1
  La  La15  1  0.685836  0.305837  0.692442  1
  Cd  Cd16  1  0.670475  0.670475  0.989617  1
  Cd  Cd17  1  0.986171  0.671578  0.671125  1
  Cd  Cd18  1  0.671578  0.986171  0.671125  1
  Cd  Cd19  1  0.670475  0.670475  0.669432  1
  Cu  Cu20  1  0.111449  0.111449  0.675489  1
  Cu  Cu21  1  0.111449  0.111449  0.101613  1
  Ru  Ru22  1  0.114509  0.674070  0.105710  1
  Ru  Ru23  1  0.674070  0.114509  0.105710  1
