# generated using pymatgen
data_Nd16Mg2CoNi3Hg2
_symmetry_space_group_name_H-M   'P 1'
_cell_length_a   9.84687144
_cell_length_b   9.84097890
_cell_length_c   9.85590900
_cell_angle_alpha   59.94980421
_cell_angle_beta   59.96963781
_cell_angle_gamma   60.34207415
_symmetry_Int_Tables_number   1
_chemical_formula_structural   Nd16Mg2CoNi3Hg2
_chemical_formula_sum   'Nd16 Mg2 Co1 Ni3 Hg2'
_cell_volume   676.64731240
_cell_formula_units_Z   1
loop_
 _symmetry_equiv_pos_site_id
 _symmetry_equiv_pos_as_xyz
  1  'x, y, z'
loop_
 _atom_site_type_symbol
 _atom_site_label
 _atom_site_symmetry_multiplicity
 _atom_site_fract_x
 _atom_site_fract_y
 _atom_site_fract_z
 _atom_site_occupancy
  Nd  Nd0  1  0.599452  0.595327  0.594081  1
  Nd  Nd1  1  0.599452  0.595327  0.211140  1
  Nd  Nd2  1  0.601781  0.206229  0.595995  1
  Nd  Nd3  1  0.203539  0.600114  0.598173  1
  Nd  Nd4  1  0.189498  0.810247  0.814320  1
  Nd  Nd5  1  0.811646  0.188254  0.186461  1
  Nd  Nd6  1  0.811646  0.188254  0.813639  1
  Nd  Nd7  1  0.189498  0.810247  0.185935  1
  Nd  Nd8  1  0.812939  0.810382  0.188340  1
  Nd  Nd9  1  0.186834  0.185651  0.813757  1
  Nd  Nd10  1  0.057509  0.436892  0.440580  1
  Nd  Nd11  1  0.437809  0.061054  0.059954  1
  Nd  Nd12  1  0.437809  0.061054  0.441182  1
  Nd  Nd13  1  0.057509  0.436892  0.065019  1
  Nd  Nd14  1  0.437915  0.438123  0.061981  1
  Nd  Nd15  1  0.052133  0.059621  0.444123  1
  Mg  Mg16  1  0.830736  0.523692  0.822786  1
  Mg  Mg17  1  0.524213  0.830449  0.822669  1
  Co  Co18  1  0.822097  0.391900  0.393002  1
  Ni  Ni19  1  0.391268  0.392520  0.393697  1
  Ni  Ni20  1  0.391268  0.392520  0.822515  1
  Ni  Ni21  1  0.390902  0.822535  0.393282  1
  Hg  Hg22  1  0.831274  0.831358  0.837050  1
  Hg  Hg23  1  0.831274  0.831358  0.500319  1
