# generated using pymatgen
data_Li6Ga5GePt12
_symmetry_space_group_name_H-M   'P 1'
_cell_length_a   4.06863707
_cell_length_b   6.66185522
_cell_length_c   12.20205300
_cell_angle_alpha   89.99986239
_cell_angle_beta   90.01064622
_cell_angle_gamma   90.01461240
_symmetry_Int_Tables_number   1
_chemical_formula_structural   Li6Ga5GePt12
_chemical_formula_sum   'Li6 Ga5 Ge1 Pt12'
_cell_volume   330.73261673
_cell_formula_units_Z   1
loop_
 _symmetry_equiv_pos_site_id
 _symmetry_equiv_pos_as_xyz
  1  'x, y, z'
loop_
 _atom_site_type_symbol
 _atom_site_label
 _atom_site_symmetry_multiplicity
 _atom_site_fract_x
 _atom_site_fract_y
 _atom_site_fract_z
 _atom_site_occupancy
  Li  Li0  1  0.999999  0.000009  0.999997  1
  Li  Li1  1  0.499874  0.499994  0.167507  1
  Li  Li2  1  0.999845  0.000002  0.333912  1
  Li  Li3  1  0.500001  0.499990  0.499997  1
  Li  Li4  1  0.000146  0.000010  0.666093  1
  Li  Li5  1  0.500131  0.499994  0.832488  1
  Ga  Ga6  1  0.499894  0.000003  0.167697  1
  Ga  Ga7  1  0.999891  0.500001  0.334395  1
  Ga  Ga8  1  0.500000  0.000002  0.499998  1
  Ga  Ga9  1  0.000110  0.499999  0.665610  1
  Ga  Ga10  1  0.500105  0.000002  0.832307  1
  Ge  Ge11  1  0.999994  0.499993  0.999989  1
  Pt  Pt12  1  0.500005  0.251097  0.000003  1
  Pt  Pt13  1  0.499997  0.748906  0.000001  1
  Pt  Pt14  1  0.999932  0.251083  0.166272  1
  Pt  Pt15  1  0.999895  0.748920  0.166270  1
  Pt  Pt16  1  0.499896  0.250215  0.333126  1
  Pt  Pt17  1  0.499923  0.749788  0.333126  1
  Pt  Pt18  1  0.000002  0.249639  0.500002  1
  Pt  Pt19  1  0.999998  0.750363  0.500002  1
  Pt  Pt20  1  0.500077  0.250210  0.666873  1
  Pt  Pt21  1  0.500108  0.749790  0.666872  1
  Pt  Pt22  1  0.000107  0.251083  0.833732  1
  Pt  Pt23  1  0.000070  0.748920  0.833729  1
