# generated using pymatgen
data_InF18
_symmetry_space_group_name_H-M   'P 1'
_cell_length_a   6.79851195
_cell_length_b   10.37561376
_cell_length_c   10.60071011
_cell_angle_alpha   90.55971468
_cell_angle_beta   97.13539549
_cell_angle_gamma   74.20145541
_symmetry_Int_Tables_number   1
_chemical_formula_structural   InF18
_chemical_formula_sum   'In2 F36'
_cell_volume   713.71506970
_cell_formula_units_Z   2
loop_
 _symmetry_equiv_pos_site_id
 _symmetry_equiv_pos_as_xyz
  1  'x, y, z'
loop_
 _atom_site_type_symbol
 _atom_site_label
 _atom_site_symmetry_multiplicity
 _atom_site_fract_x
 _atom_site_fract_y
 _atom_site_fract_z
 _atom_site_occupancy
  In  In0  1  0.650781  0.823722  0.823548  1
  In  In1  1  0.349219  0.176278  0.176452  1
  F  F2  1  0.301546  0.393098  0.891354  1
  F  F3  1  0.698454  0.606902  0.108646  1
  F  F4  1  0.325937  0.254427  0.562574  1
  F  F5  1  0.674063  0.745573  0.437426  1
  F  F6  1  0.896421  0.214399  0.820774  1
  F  F7  1  0.103579  0.785601  0.179226  1
  F  F8  1  0.693119  0.883566  0.013446  1
  F  F9  1  0.306881  0.116434  0.986554  1
  F  F10  1  0.775468  0.619153  0.871276  1
  F  F11  1  0.224532  0.380847  0.128724  1
  F  F12  1  0.461668  0.424744  0.833728  1
  F  F13  1  0.538332  0.575256  0.166272  1
  F  F14  1  0.786964  0.686234  0.690429  1
  F  F15  1  0.213036  0.313766  0.309571  1
  F  F16  1  0.764068  0.984375  0.548472  1
  F  F17  1  0.235932  0.015625  0.451528  1
  F  F18  1  0.266533  0.207861  0.674140  1
  F  F19  1  0.733467  0.792139  0.325860  1
  F  F20  1  0.819752  0.078094  0.636027  1
  F  F21  1  0.180248  0.921906  0.363973  1
  F  F22  1  0.843850  0.947692  0.880244  1
  F  F23  1  0.156150  0.052308  0.119756  1
  F  F24  1  0.883230  0.353294  0.807659  1
  F  F25  1  0.116770  0.646706  0.192341  1
  F  F26  1  0.247377  0.706888  0.931556  1
  F  F27  1  0.752623  0.293112  0.068444  1
  F  F28  1  0.398200  0.932463  0.721092  1
  F  F29  1  0.601800  0.067537  0.278908  1
  F  F30  1  0.115653  0.751131  0.573205  1
  F  F31  1  0.884347  0.248869  0.426795  1
  F  F32  1  0.206953  0.629378  0.644719  1
  F  F33  1  0.793047  0.370622  0.355281  1
  F  F34  1  0.296659  0.803297  0.846592  1
  F  F35  1  0.703341  0.196703  0.153408  1
  F  F36  1  0.505668  0.440524  0.535066  1
  F  F37  1  0.494332  0.559476  0.464934  1
