# generated using pymatgen
data_CeCdNiPt3
_symmetry_space_group_name_H-M   'P 1'
_cell_length_a   5.42034125
_cell_length_b   5.42034114
_cell_length_c   5.23785108
_cell_angle_alpha   58.84062271
_cell_angle_beta   58.84062411
_cell_angle_gamma   60.00000335
_symmetry_Int_Tables_number   1
_chemical_formula_structural   CeCdNiPt3
_chemical_formula_sum   'Ce1 Cd1 Ni1 Pt3'
_cell_volume   106.86962463
_cell_formula_units_Z   1
loop_
 _symmetry_equiv_pos_site_id
 _symmetry_equiv_pos_as_xyz
  1  'x, y, z'
loop_
 _atom_site_type_symbol
 _atom_site_label
 _atom_site_symmetry_multiplicity
 _atom_site_fract_x
 _atom_site_fract_y
 _atom_site_fract_z
 _atom_site_occupancy
  Ce  Ce0  1  0.250369  0.250369  0.248893  1
  Cd  Cd1  1  0.997376  0.997376  0.007873  1
  Ni  Ni2  1  0.626292  0.626292  0.121124  1
  Pt  Pt3  1  0.626201  0.123560  0.624037  1
  Pt  Pt4  1  0.626201  0.626201  0.624037  1
  Pt  Pt5  1  0.123560  0.626201  0.624037  1
