# generated using pymatgen
data_Zr3Co2Si2Ge
_symmetry_space_group_name_H-M   'P 1'
_cell_length_a   5.41269325
_cell_length_b   5.41269277
_cell_length_c   13.06280300
_cell_angle_alpha   90.00000000
_cell_angle_beta   90.00000000
_cell_angle_gamma   138.05639254
_symmetry_Int_Tables_number   1
_chemical_formula_structural   Zr3Co2Si2Ge
_chemical_formula_sum   'Zr6 Co4 Si4 Ge2'
_cell_volume   255.79901344
_cell_formula_units_Z   2
loop_
 _symmetry_equiv_pos_site_id
 _symmetry_equiv_pos_as_xyz
  1  'x, y, z'
loop_
 _atom_site_type_symbol
 _atom_site_label
 _atom_site_symmetry_multiplicity
 _atom_site_fract_x
 _atom_site_fract_y
 _atom_site_fract_z
 _atom_site_occupancy
  Zr  Zr0  1  0.924414  0.075586  0.386227  1
  Zr  Zr1  1  0.075586  0.924414  0.613773  1
  Zr  Zr2  1  0.924414  0.075586  0.113773  1
  Zr  Zr3  1  0.075586  0.924414  0.886227  1
  Zr  Zr4  1  0.635677  0.364323  0.250000  1
  Zr  Zr5  1  0.364323  0.635677  0.750000  1
  Co  Co6  1  0.780499  0.219501  0.923775  1
  Co  Co7  1  0.219501  0.780499  0.076225  1
  Co  Co8  1  0.780499  0.219501  0.576225  1
  Co  Co9  1  0.219501  0.780499  0.423775  1
  Si  Si10  1  0.610603  0.389397  0.456816  1
  Si  Si11  1  0.389397  0.610603  0.543184  1
  Si  Si12  1  0.610603  0.389397  0.043184  1
  Si  Si13  1  0.389397  0.610603  0.956816  1
  Ge  Ge14  1  0.336365  0.663635  0.250000  1
  Ge  Ge15  1  0.663635  0.336365  0.750000  1
