# generated using pymatgen
data_Dy2HoAl12Os3Pt
_symmetry_space_group_name_H-M   'P 1'
_cell_length_a   8.82801537
_cell_length_b   8.80798978
_cell_length_c   9.57356397
_cell_angle_alpha   90.04974931
_cell_angle_beta   90.12324761
_cell_angle_gamma   119.57831082
_symmetry_Int_Tables_number   1
_chemical_formula_structural   Dy2HoAl12Os3Pt
_chemical_formula_sum   'Dy4 Ho2 Al24 Os6 Pt2'
_cell_volume   647.39875160
_cell_formula_units_Z   2
loop_
 _symmetry_equiv_pos_site_id
 _symmetry_equiv_pos_as_xyz
  1  'x, y, z'
loop_
 _atom_site_type_symbol
 _atom_site_label
 _atom_site_symmetry_multiplicity
 _atom_site_fract_x
 _atom_site_fract_y
 _atom_site_fract_z
 _atom_site_occupancy
  Dy  Dy0  1  0.615422  0.808462  0.252669  1
  Dy  Dy1  1  0.384578  0.191538  0.747331  1
  Dy  Dy2  1  0.190518  0.804310  0.252557  1
  Dy  Dy3  1  0.809482  0.195690  0.747443  1
  Ho  Ho4  1  0.190136  0.387491  0.253238  1
  Ho  Ho5  1  0.809864  0.612509  0.746762  1
  Al  Al6  1  0.328562  0.664685  0.026483  1
  Al  Al7  1  0.671438  0.335315  0.973517  1
  Al  Al8  1  0.666673  0.332892  0.522974  1
  Al  Al9  1  0.333327  0.667108  0.477026  1
  Al  Al10  1  0.164599  0.328231  0.575589  1
  Al  Al11  1  0.835401  0.671769  0.424411  1
  Al  Al12  1  0.672815  0.836448  0.575090  1
  Al  Al13  1  0.841645  0.674515  0.077727  1
  Al  Al14  1  0.327185  0.163552  0.424910  1
  Al  Al15  1  0.158355  0.325485  0.922273  1
  Al  Al16  1  0.164524  0.836733  0.576075  1
  Al  Al17  1  0.323566  0.162093  0.078990  1
  Al  Al18  1  0.835476  0.163267  0.423925  1
  Al  Al19  1  0.676434  0.837907  0.921010  1
  Al  Al20  1  0.841298  0.167679  0.077833  1
  Al  Al21  1  0.158702  0.832321  0.922167  1
  Al  Al22  1  0.561733  0.124823  0.251726  1
  Al  Al23  1  0.438267  0.875177  0.748274  1
  Al  Al24  1  0.876229  0.438817  0.248930  1
  Al  Al25  1  0.123771  0.561183  0.751070  1
  Al  Al26  1  0.562228  0.437213  0.252018  1
  Al  Al27  1  0.437772  0.562787  0.747982  1
  Al  Al28  1  0.997840  0.999972  0.250324  1
  Al  Al29  1  0.002160  0.000028  0.749676  1
  Os  Os30  1  0.000000  0.500000  0.000000  1
  Os  Os31  1  0.500000  0.000000  0.500000  1
  Os  Os32  1  0.000000  0.500000  0.500000  1
  Os  Os33  1  0.500000  0.500000  0.500000  1
  Os  Os34  1  0.000000  0.000000  0.000000  1
  Os  Os35  1  0.000000  0.000000  0.500000  1
  Pt  Pt36  1  0.500000  0.000000  0.000000  1
  Pt  Pt37  1  0.500000  0.500000  0.000000  1
