# generated using pymatgen
data_Dy2Er2Al17GaIr6
_symmetry_space_group_name_H-M   'P 1'
_cell_length_a   7.53378501
_cell_length_b   7.53378390
_cell_length_c   9.47431200
_cell_angle_alpha   90.00000000
_cell_angle_beta   90.00000000
_cell_angle_gamma   119.41916163
_symmetry_Int_Tables_number   1
_chemical_formula_structural   Dy2Er2Al17GaIr6
_chemical_formula_sum   'Dy2 Er2 Al17 Ga1 Ir6'
_cell_volume   468.40006149
_cell_formula_units_Z   1
loop_
 _symmetry_equiv_pos_site_id
 _symmetry_equiv_pos_as_xyz
  1  'x, y, z'
loop_
 _atom_site_type_symbol
 _atom_site_label
 _atom_site_symmetry_multiplicity
 _atom_site_fract_x
 _atom_site_fract_y
 _atom_site_fract_z
 _atom_site_occupancy
  Dy  Dy0  1  0.993810  0.674563  0.750000  1
  Dy  Dy1  1  0.674563  0.993810  0.750000  1
  Er  Er2  1  0.004977  0.327858  0.250000  1
  Er  Er3  1  0.327858  0.004977  0.250000  1
  Al  Al4  1  0.869977  0.869977  0.250000  1
  Al  Al5  1  0.001317  0.335740  0.573072  1
  Al  Al6  1  0.998799  0.664305  0.425697  1
  Al  Al7  1  0.998799  0.664305  0.074303  1
  Al  Al8  1  0.335740  0.001317  0.926928  1
  Al  Al9  1  0.001317  0.335740  0.926928  1
  Al  Al10  1  0.664305  0.998799  0.074303  1
  Al  Al11  1  0.664305  0.998799  0.425697  1
  Al  Al12  1  0.335740  0.001317  0.573072  1
  Al  Al13  1  0.333034  0.333034  0.053793  1
  Al  Al14  1  0.665716  0.665716  0.949525  1
  Al  Al15  1  0.665716  0.665716  0.550475  1
  Al  Al16  1  0.333034  0.333034  0.446207  1
  Al  Al17  1  0.338622  0.549476  0.750000  1
  Al  Al18  1  0.660734  0.451098  0.250000  1
  Al  Al19  1  0.549476  0.338622  0.750000  1
  Al  Al20  1  0.451098  0.660734  0.250000  1
  Ga  Ga21  1  0.134953  0.134953  0.750000  1
  Ir  Ir22  1  0.671196  0.327434  0.499942  1
  Ir  Ir23  1  0.327434  0.671196  0.499942  1
  Ir  Ir24  1  0.327434  0.671196  0.000058  1
  Ir  Ir25  1  0.671196  0.327434  0.000058  1
  Ir  Ir26  1  0.999425  0.999425  0.497482  1
  Ir  Ir27  1  0.999425  0.999425  0.002518  1
