# generated using pymatgen
data_Tb7YTi11Si16Hg
_symmetry_space_group_name_H-M   'P 1'
_cell_length_a   7.09313874
_cell_length_b   7.09364067
_cell_length_c   12.94977821
_cell_angle_alpha   90.11384591
_cell_angle_beta   89.89188467
_cell_angle_gamma   89.56533080
_symmetry_Int_Tables_number   1
_chemical_formula_structural   Tb7YTi11Si16Hg
_chemical_formula_sum   'Tb7 Y1 Ti11 Si16 Hg1'
_cell_volume   651.56212311
_cell_formula_units_Z   1
loop_
 _symmetry_equiv_pos_site_id
 _symmetry_equiv_pos_as_xyz
  1  'x, y, z'
loop_
 _atom_site_type_symbol
 _atom_site_label
 _atom_site_symmetry_multiplicity
 _atom_site_fract_x
 _atom_site_fract_y
 _atom_site_fract_z
 _atom_site_occupancy
  Tb  Tb0  1  0.497620  0.839027  0.715974  1
  Tb  Tb1  1  0.501232  0.157922  0.214976  1
  Tb  Tb2  1  0.838967  0.497644  0.284009  1
  Tb  Tb3  1  0.157946  0.501234  0.785057  1
  Tb  Tb4  1  0.657173  0.000282  0.968357  1
  Tb  Tb5  1  0.002470  0.340797  0.533080  1
  Tb  Tb6  1  0.000295  0.657164  0.031642  1
  Y  Y7  1  0.340945  0.002343  0.466877  1
  Ti  Ti8  1  0.173656  0.826620  0.250656  1
  Ti  Ti9  1  0.826650  0.173688  0.749343  1
  Ti  Ti10  1  0.672914  0.672875  0.499988  1
  Ti  Ti11  1  0.147991  0.008945  0.877256  1
  Ti  Ti12  1  0.494906  0.650631  0.124158  1
  Ti  Ti13  1  0.507918  0.350646  0.624826  1
  Ti  Ti14  1  0.650603  0.494913  0.875869  1
  Ti  Ti15  1  0.350603  0.508028  0.375222  1
  Ti  Ti16  1  0.848766  0.991073  0.375046  1
  Ti  Ti17  1  0.008996  0.147945  0.122745  1
  Ti  Ti18  1  0.991063  0.848701  0.624974  1
  Si  Si19  1  0.201267  0.130727  0.684676  1
  Si  Si20  1  0.374670  0.723982  0.928292  1
  Si  Si21  1  0.630095  0.294960  0.433722  1
  Si  Si22  1  0.723963  0.374652  0.071704  1
  Si  Si23  1  0.295046  0.630264  0.566226  1
  Si  Si24  1  0.798666  0.868540  0.183926  1
  Si  Si25  1  0.130696  0.201124  0.315357  1
  Si  Si26  1  0.868494  0.798688  0.816099  1
  Si  Si27  1  0.285558  0.932941  0.067682  1
  Si  Si28  1  0.546284  0.790813  0.314852  1
  Si  Si29  1  0.459107  0.205760  0.805255  1
  Si  Si30  1  0.790783  0.546297  0.685196  1
  Si  Si31  1  0.205784  0.459111  0.194759  1
  Si  Si32  1  0.709889  0.047855  0.564193  1
  Si  Si33  1  0.932932  0.285523  0.932279  1
  Si  Si34  1  0.047914  0.710139  0.435716  1
  Hg  Hg35  1  0.328132  0.328140  0.000013  1
