# generated using pymatgen
data_DyEr2U2O10
_symmetry_space_group_name_H-M   'P 1'
_cell_length_a   6.43537964
_cell_length_b   6.43537988
_cell_length_c   8.32285714
_cell_angle_alpha   51.50823464
_cell_angle_beta   51.50823294
_cell_angle_gamma   48.96361854
_symmetry_Int_Tables_number   1
_chemical_formula_structural   DyEr2U2O10
_chemical_formula_sum   'Dy1 Er2 U2 O10'
_cell_volume   189.68698684
_cell_formula_units_Z   1
loop_
 _symmetry_equiv_pos_site_id
 _symmetry_equiv_pos_as_xyz
  1  'x, y, z'
loop_
 _atom_site_type_symbol
 _atom_site_label
 _atom_site_symmetry_multiplicity
 _atom_site_fract_x
 _atom_site_fract_y
 _atom_site_fract_z
 _atom_site_occupancy
  Dy  Dy0  1  0.500000  0.500000  0.000000  1
  Er  Er1  1  0.102258  0.102258  0.596122  1
  Er  Er2  1  0.897742  0.897742  0.403878  1
  U  U3  1  0.302697  0.302697  0.794290  1
  U  U4  1  0.697303  0.697303  0.205710  1
  O  O5  1  0.552954  0.038527  0.293154  1
  O  O6  1  0.961473  0.447046  0.706846  1
  O  O7  1  0.038527  0.552954  0.293154  1
  O  O8  1  0.354267  0.854478  0.106806  1
  O  O9  1  0.447046  0.961473  0.706846  1
  O  O10  1  0.736687  0.263313  0.500000  1
  O  O11  1  0.854478  0.354267  0.106806  1
  O  O12  1  0.145522  0.645733  0.893194  1
  O  O13  1  0.263313  0.736687  0.500000  1
  O  O14  1  0.645733  0.145522  0.893194  1
