# generated using pymatgen
data_Y11Sc(Si3Ir)4
_symmetry_space_group_name_H-M   'P 1'
_cell_length_a   4.21446200
_cell_length_b   10.67636542
_cell_length_c   12.27953210
_cell_angle_alpha   89.83709441
_cell_angle_beta   90.00000000
_cell_angle_gamma   90.00000000
_symmetry_Int_Tables_number   1
_chemical_formula_structural   Y11Sc(Si3Ir)4
_chemical_formula_sum   'Y11 Sc1 Si12 Ir4'
_cell_volume   552.51698795
_cell_formula_units_Z   1
loop_
 _symmetry_equiv_pos_site_id
 _symmetry_equiv_pos_as_xyz
  1  'x, y, z'
loop_
 _atom_site_type_symbol
 _atom_site_label
 _atom_site_symmetry_multiplicity
 _atom_site_fract_x
 _atom_site_fract_y
 _atom_site_fract_z
 _atom_site_occupancy
  Y  Y0  1  0.250000  0.880827  0.018868  1
  Y  Y1  1  0.250000  0.619641  0.519951  1
  Y  Y2  1  0.750000  0.120247  0.977296  1
  Y  Y3  1  0.750000  0.377246  0.481891  1
  Y  Y4  1  0.250000  0.921391  0.603822  1
  Y  Y5  1  0.250000  0.580958  0.103264  1
  Y  Y6  1  0.750000  0.080657  0.398413  1
  Y  Y7  1  0.750000  0.417942  0.895499  1
  Y  Y8  1  0.250000  0.659007  0.800748  1
  Y  Y9  1  0.250000  0.841926  0.301162  1
  Y  Y10  1  0.750000  0.340079  0.198989  1
  Sc  Sc11  1  0.750000  0.160802  0.701898  1
  Si  Si12  1  0.250000  0.013437  0.819438  1
  Si  Si13  1  0.250000  0.489033  0.321584  1
  Si  Si14  1  0.750000  0.990782  0.178657  1
  Si  Si15  1  0.750000  0.510737  0.678316  1
  Si  Si16  1  0.250000  0.244524  0.835766  1
  Si  Si17  1  0.250000  0.252154  0.342309  1
  Si  Si18  1  0.750000  0.753553  0.159314  1
  Si  Si19  1  0.750000  0.746937  0.658919  1
  Si  Si20  1  0.250000  0.198385  0.552105  1
  Si  Si21  1  0.250000  0.298172  0.042014  1
  Si  Si22  1  0.750000  0.798503  0.456898  1
  Si  Si23  1  0.750000  0.701687  0.955816  1
  Ir  Ir24  1  0.250000  0.387530  0.680714  1
  Ir  Ir25  1  0.250000  0.111223  0.181040  1
  Ir  Ir26  1  0.750000  0.610703  0.319137  1
  Ir  Ir27  1  0.750000  0.891916  0.816171  1
