# generated using pymatgen
data_YBi3Os2O11
_symmetry_space_group_name_H-M   'P 1'
_cell_length_a   6.60155025
_cell_length_b   7.53605536
_cell_length_c   9.87073700
_cell_angle_alpha   100.98728150
_cell_angle_beta   91.98145206
_cell_angle_gamma   90.17989597
_symmetry_Int_Tables_number   1
_chemical_formula_structural   YBi3Os2O11
_chemical_formula_sum   'Y2 Bi6 Os4 O22'
_cell_volume   481.75228832
_cell_formula_units_Z   2
loop_
 _symmetry_equiv_pos_site_id
 _symmetry_equiv_pos_as_xyz
  1  'x, y, z'
loop_
 _atom_site_type_symbol
 _atom_site_label
 _atom_site_symmetry_multiplicity
 _atom_site_fract_x
 _atom_site_fract_y
 _atom_site_fract_z
 _atom_site_occupancy
  Y  Y0  1  0.749354  0.370882  0.478470  1
  Y  Y1  1  0.250646  0.629118  0.521530  1
  Bi  Bi2  1  0.754473  0.870836  0.489940  1
  Bi  Bi3  1  0.245527  0.129164  0.510060  1
  Bi  Bi4  1  0.471918  0.953159  0.819820  1
  Bi  Bi5  1  0.528082  0.046841  0.180180  1
  Bi  Bi6  1  0.411836  0.453222  0.823426  1
  Bi  Bi7  1  0.588164  0.546778  0.176574  1
  Os  Os8  1  0.938225  0.702254  0.809959  1
  Os  Os9  1  0.061775  0.297746  0.190041  1
  Os  Os10  1  0.936215  0.204249  0.811502  1
  Os  Os11  1  0.063785  0.795751  0.188498  1
  O  O12  1  0.230868  0.719815  0.760792  1
  O  O13  1  0.769132  0.280185  0.239208  1
  O  O14  1  0.641792  0.676420  0.829825  1
  O  O15  1  0.358208  0.323580  0.170175  1
  O  O16  1  0.641151  0.240142  0.842420  1
  O  O17  1  0.358849  0.759858  0.157580  1
  O  O18  1  0.886813  0.183301  0.607901  1
  O  O19  1  0.113187  0.816699  0.392099  1
  O  O20  1  0.227262  0.159373  0.761066  1
  O  O21  1  0.772738  0.840627  0.238934  1
  O  O22  1  0.904722  0.626831  0.602620  1
  O  O23  1  0.095278  0.373169  0.397380  1
  O  O24  1  0.010550  0.542887  0.173099  1
  O  O25  1  0.989450  0.457113  0.826901  1
  O  O26  1  0.997543  0.780669  0.999388  1
  O  O27  1  0.002457  0.219331  0.000612  1
  O  O28  1  0.567068  0.601179  0.398277  1
  O  O29  1  0.432932  0.398821  0.601723  1
  O  O30  1  0.144173  0.054561  0.220761  1
  O  O31  1  0.855827  0.945439  0.779239  1
  O  O32  1  0.547792  0.101980  0.401142  1
  O  O33  1  0.452208  0.898020  0.598858  1
