# generated using pymatgen
data_RbGaBr4
_symmetry_space_group_name_H-M   'P 1'
_cell_length_a   7.54302097
_cell_length_b   8.21146808
_cell_length_c   15.30557234
_cell_angle_alpha   85.73511986
_cell_angle_beta   90.33180491
_cell_angle_gamma   90.09418031
_symmetry_Int_Tables_number   1
_chemical_formula_structural   RbGaBr4
_chemical_formula_sum   'Rb4 Ga4 Br16'
_cell_volume   945.37436952
_cell_formula_units_Z   4
loop_
 _symmetry_equiv_pos_site_id
 _symmetry_equiv_pos_as_xyz
  1  'x, y, z'
loop_
 _atom_site_type_symbol
 _atom_site_label
 _atom_site_symmetry_multiplicity
 _atom_site_fract_x
 _atom_site_fract_y
 _atom_site_fract_z
 _atom_site_occupancy
  Rb  Rb0  1  0.507881  0.256475  0.640375  1
  Rb  Rb1  1  0.008789  0.743066  0.860784  1
  Rb  Rb2  1  0.492006  0.743568  0.358244  1
  Rb  Rb3  1  0.992556  0.256251  0.139475  1
  Ga  Ga4  1  0.352933  0.247617  0.360099  1
  Ga  Ga5  1  0.858756  0.753093  0.139325  1
  Ga  Ga6  1  0.644601  0.752298  0.639097  1
  Ga  Ga7  1  0.143272  0.246850  0.861776  1
  Br  Br8  1  0.863568  0.147257  0.909675  1
  Br  Br9  1  0.365135  0.850938  0.589147  1
  Br  Br10  1  0.136970  0.854194  0.090056  1
  Br  Br11  1  0.633057  0.149657  0.409531  1
  Br  Br12  1  0.394318  0.402848  0.225063  1
  Br  Br13  1  0.898462  0.595596  0.273835  1
  Br  Br14  1  0.602360  0.597745  0.774328  1
  Br  Br15  1  0.102702  0.403881  0.727068  1
  Br  Br16  1  0.657251  0.967530  0.159556  1
  Br  Br17  1  0.151556  0.032125  0.340129  1
  Br  Br18  1  0.346290  0.033666  0.841432  1
  Br  Br19  1  0.846967  0.967032  0.659471  1
  Br  Br20  1  0.234283  0.416985  0.463598  1
  Br  Br21  1  0.737603  0.583356  0.035740  1
  Br  Br22  1  0.764914  0.583087  0.535949  1
  Br  Br23  1  0.263774  0.414882  0.966247  1
