# generated using pymatgen
data_Cd2Pt3O8
_symmetry_space_group_name_H-M   'P 1'
_cell_length_a   6.30684196
_cell_length_b   6.30684183
_cell_length_c   6.30684206
_cell_angle_alpha   59.65090115
_cell_angle_beta   59.65090330
_cell_angle_gamma   59.65089630
_symmetry_Int_Tables_number   1
_chemical_formula_structural   Cd2Pt3O8
_chemical_formula_sum   'Cd2 Pt3 O8'
_cell_volume   175.97955584
_cell_formula_units_Z   1
loop_
 _symmetry_equiv_pos_site_id
 _symmetry_equiv_pos_as_xyz
  1  'x, y, z'
loop_
 _atom_site_type_symbol
 _atom_site_label
 _atom_site_symmetry_multiplicity
 _atom_site_fract_x
 _atom_site_fract_y
 _atom_site_fract_z
 _atom_site_occupancy
  Cd  Cd0  1  0.856778  0.856778  0.856778  1
  Cd  Cd1  1  0.143222  0.143222  0.143222  1
  Pt  Pt2  1  0.000000  0.500000  0.500000  1
  Pt  Pt3  1  0.500000  0.000000  0.500000  1
  Pt  Pt4  1  0.500000  0.500000  0.000000  1
  O  O5  1  0.604029  0.604029  0.604029  1
  O  O6  1  0.395971  0.395971  0.395971  1
  O  O7  1  0.112972  0.112972  0.556384  1
  O  O8  1  0.556384  0.112972  0.112972  1
  O  O9  1  0.112972  0.556384  0.112972  1
  O  O10  1  0.443616  0.887028  0.887028  1
  O  O11  1  0.887028  0.887028  0.443616  1
  O  O12  1  0.887028  0.443616  0.887028  1
