# generated using pymatgen
data_Dy(HfH5)3
_symmetry_space_group_name_H-M   'P 1'
_cell_length_a   7.03080807
_cell_length_b   7.04789156
_cell_length_c   7.08449192
_cell_angle_alpha   109.53980205
_cell_angle_beta   109.44245321
_cell_angle_gamma   109.17162810
_symmetry_Int_Tables_number   1
_chemical_formula_structural   Dy(HfH5)3
_chemical_formula_sum   'Dy2 Hf6 H30'
_cell_volume   271.10170229
_cell_formula_units_Z   2
loop_
 _symmetry_equiv_pos_site_id
 _symmetry_equiv_pos_as_xyz
  1  'x, y, z'
loop_
 _atom_site_type_symbol
 _atom_site_label
 _atom_site_symmetry_multiplicity
 _atom_site_fract_x
 _atom_site_fract_y
 _atom_site_fract_z
 _atom_site_occupancy
  Dy  Dy0  1  0.909429  0.908521  0.907707  1
  Dy  Dy1  1  0.501721  0.000814  0.092293  1
  Hf  Hf2  1  0.005254  0.110687  0.505264  1
  Hf  Hf3  1  0.106665  0.497590  0.000880  1
  Hf  Hf4  1  0.999990  0.605423  0.494736  1
  Hf  Hf5  1  0.605786  0.496711  0.999120  1
  Hf  Hf6  1  0.497646  0.000563  0.593866  1
  Hf  Hf7  1  0.403780  0.406697  0.406134  1
  H  H8  1  0.666576  0.975755  0.400975  1
  H  H9  1  0.224228  0.304777  0.845656  1
  H  H10  1  0.193427  0.422851  0.539076  1
  H  H11  1  0.090132  0.287900  0.127243  1
  H  H12  1  0.281933  0.139999  0.105213  1
  H  H13  1  0.128586  0.100495  0.292341  1
  H  H14  1  0.462889  0.160656  0.872757  1
  H  H15  1  0.724006  0.341137  0.810649  1
  H  H16  1  0.626223  0.383815  0.252853  1
  H  H17  1  0.240267  0.622411  0.368422  1
  H  H18  1  0.759491  0.869980  0.140880  1
  H  H19  1  0.118610  0.729100  0.859120  1
  H  H20  1  0.371843  0.253989  0.631578  1
  H  H21  1  0.873369  0.130961  0.747147  1
  H  H22  1  0.765602  0.574781  0.599025  1
  H  H23  1  0.303357  0.832192  0.228074  1
  H  H24  1  0.379580  0.637530  0.967845  1
  H  H25  1  0.974165  0.382770  0.659732  1
  H  H26  1  0.528623  0.196159  0.430797  1
  H  H27  1  0.413357  0.530487  0.189351  1
  H  H28  1  0.862226  0.236678  0.326155  1
  H  H29  1  0.911734  0.669686  0.032155  1
  H  H30  1  0.814433  0.723038  0.340268  1
  H  H31  1  0.154352  0.883775  0.460924  1
  H  H32  1  0.676719  0.034786  0.894787  1
  H  H33  1  0.336245  0.808154  0.707659  1
  H  H34  1  0.878572  0.459121  0.154344  1
  H  H35  1  0.597827  0.765364  0.569203  1
  H  H36  1  0.575282  0.604117  0.771926  1
  H  H37  1  0.036070  0.910522  0.673845  1
