# generated using pymatgen
data_CaNd3(GaPd)4
_symmetry_space_group_name_H-M   'P 1'
_cell_length_a   4.54720300
_cell_length_b   7.11609453
_cell_length_c   7.79461237
_cell_angle_alpha   91.08599018
_cell_angle_beta   90.00000000
_cell_angle_gamma   90.00000000
_symmetry_Int_Tables_number   1
_chemical_formula_structural   CaNd3(GaPd)4
_chemical_formula_sum   'Ca1 Nd3 Ga4 Pd4'
_cell_volume   252.17530637
_cell_formula_units_Z   1
loop_
 _symmetry_equiv_pos_site_id
 _symmetry_equiv_pos_as_xyz
  1  'x, y, z'
loop_
 _atom_site_type_symbol
 _atom_site_label
 _atom_site_symmetry_multiplicity
 _atom_site_fract_x
 _atom_site_fract_y
 _atom_site_fract_z
 _atom_site_occupancy
  Ca  Ca0  1  0.250000  0.021299  0.695380  1
  Nd  Nd1  1  0.250000  0.526744  0.804697  1
  Nd  Nd2  1  0.750000  0.976250  0.311377  1
  Nd  Nd3  1  0.750000  0.473768  0.191985  1
  Ga  Ga4  1  0.250000  0.165632  0.070721  1
  Ga  Ga5  1  0.250000  0.668515  0.425984  1
  Ga  Ga6  1  0.750000  0.836873  0.926712  1
  Ga  Ga7  1  0.750000  0.331318  0.573666  1
  Pd  Pd8  1  0.250000  0.285440  0.399976  1
  Pd  Pd9  1  0.250000  0.785636  0.104471  1
  Pd  Pd10  1  0.750000  0.712574  0.600470  1
  Pd  Pd11  1  0.750000  0.215952  0.894559  1
