# generated using pymatgen
data_Tl2CdSb2(PO4)6
_symmetry_space_group_name_H-M   'P 1'
_cell_length_a   8.53087040
_cell_length_b   8.53087018
_cell_length_c   9.18633222
_cell_angle_alpha   117.66648132
_cell_angle_beta   62.33352258
_cell_angle_gamma   120.00000282
_symmetry_Int_Tables_number   1
_chemical_formula_structural   Tl2CdSb2(PO4)6
_chemical_formula_sum   'Tl2 Cd1 Sb2 P6 O24'
_cell_volume   488.72365543
_cell_formula_units_Z   1
loop_
 _symmetry_equiv_pos_site_id
 _symmetry_equiv_pos_as_xyz
  1  'x, y, z'
loop_
 _atom_site_type_symbol
 _atom_site_label
 _atom_site_symmetry_multiplicity
 _atom_site_fract_x
 _atom_site_fract_y
 _atom_site_fract_z
 _atom_site_occupancy
  Tl  Tl0  1  0.850783  0.149217  0.447651  1
  Tl  Tl1  1  0.149217  0.850783  0.552349  1
  Cd  Cd2  1  0.000000  0.000000  0.000000  1
  Sb  Sb3  1  0.652488  0.347511  0.042534  1
  Sb  Sb4  1  0.347511  0.652488  0.957466  1
  P  P5  1  0.255680  0.046063  0.238322  1
  P  P6  1  0.953937  0.447940  0.238322  1
  P  P7  1  0.552060  0.744319  0.238322  1
  P  P8  1  0.447940  0.255681  0.761677  1
  P  P9  1  0.046063  0.552060  0.761677  1
  P  P10  1  0.744319  0.953937  0.761677  1
  O  O11  1  0.157575  0.480931  0.101655  1
  O  O12  1  0.519069  0.778298  0.101655  1
  O  O13  1  0.221702  0.842425  0.101655  1
  O  O14  1  0.470081  0.177230  0.187859  1
  O  O15  1  0.822771  0.480710  0.187859  1
  O  O16  1  0.519291  0.529919  0.187859  1
  O  O17  1  0.129920  0.120770  0.228613  1
  O  O18  1  0.879231  0.237763  0.228613  1
  O  O19  1  0.762237  0.870080  0.228613  1
  O  O20  1  0.206187  0.040182  0.417576  1
  O  O21  1  0.959817  0.583581  0.417576  1
  O  O22  1  0.416418  0.793813  0.417576  1
  O  O23  1  0.583581  0.206187  0.582425  1
  O  O24  1  0.040182  0.416419  0.582425  1
  O  O25  1  0.793812  0.959817  0.582425  1
  O  O26  1  0.237762  0.129920  0.771387  1
  O  O27  1  0.120770  0.762238  0.771387  1
  O  O28  1  0.870080  0.879231  0.771387  1
  O  O29  1  0.480710  0.470082  0.812141  1
  O  O30  1  0.177231  0.519291  0.812141  1
  O  O31  1  0.529918  0.822770  0.812141  1
  O  O32  1  0.778298  0.157575  0.898346  1
  O  O33  1  0.480930  0.221702  0.898346  1
  O  O34  1  0.842425  0.519070  0.898346  1
