# generated using pymatgen
data_ScTiGa4Mo
_symmetry_space_group_name_H-M   'P 1'
_cell_length_a   5.38750366
_cell_length_b   5.38750369
_cell_length_c   5.38750315
_cell_angle_alpha   104.35610357
_cell_angle_beta   104.35609937
_cell_angle_gamma   120.27192209
_symmetry_Int_Tables_number   1
_chemical_formula_structural   ScTiGa4Mo
_chemical_formula_sum   'Sc1 Ti1 Ga4 Mo1'
_cell_volume   117.11724156
_cell_formula_units_Z   1
loop_
 _symmetry_equiv_pos_site_id
 _symmetry_equiv_pos_as_xyz
  1  'x, y, z'
loop_
 _atom_site_type_symbol
 _atom_site_label
 _atom_site_symmetry_multiplicity
 _atom_site_fract_x
 _atom_site_fract_y
 _atom_site_fract_z
 _atom_site_occupancy
  Sc  Sc0  1  0.000000  0.000000  0.000000  1
  Ti  Ti1  1  0.750000  0.250000  0.500000  1
  Ga  Ga2  1  0.301651  0.301651  0.603302  1
  Ga  Ga3  1  0.698349  0.698349  0.396698  1
  Ga  Ga4  1  0.698349  0.301651  0.000000  1
  Ga  Ga5  1  0.301651  0.698349  0.000000  1
  Mo  Mo6  1  0.250000  0.750000  0.500000  1
