# generated using pymatgen
data_Ce2Ho3Al2Ru3
_symmetry_space_group_name_H-M   'P 1'
_cell_length_a   8.39222920
_cell_length_b   8.39164404
_cell_length_c   8.40877981
_cell_angle_alpha   110.10025079
_cell_angle_beta   110.24540392
_cell_angle_gamma   109.81002994
_symmetry_Int_Tables_number   1
_chemical_formula_structural   Ce2Ho3Al2Ru3
_chemical_formula_sum   'Ce4 Ho6 Al4 Ru6'
_cell_volume   445.78954025
_cell_formula_units_Z   2
loop_
 _symmetry_equiv_pos_site_id
 _symmetry_equiv_pos_as_xyz
  1  'x, y, z'
loop_
 _atom_site_type_symbol
 _atom_site_label
 _atom_site_symmetry_multiplicity
 _atom_site_fract_x
 _atom_site_fract_y
 _atom_site_fract_z
 _atom_site_occupancy
  Ce  Ce0  1  0.502948  0.993477  0.704342  1
  Ce  Ce1  1  0.255634  0.201211  0.947590  1
  Ce  Ce2  1  0.941697  0.248911  0.192894  1
  Ce  Ce3  1  0.196363  0.943190  0.248845  1
  Ho  Ho4  1  0.775895  0.777680  0.777591  1
  Ho  Ho5  1  0.313069  0.565263  0.750763  1
  Ho  Ho6  1  0.755979  0.318479  0.566233  1
  Ho  Ho7  1  0.566205  0.746643  0.307825  1
  Ho  Ho8  1  0.724625  0.508914  0.997793  1
  Ho  Ho9  1  0.995190  0.722948  0.508165  1
  Al  Al10  1  0.409307  0.407111  0.409904  1
  Al  Al11  1  0.097143  0.499408  0.005303  1
  Al  Al12  1  0.999210  0.094381  0.501717  1
  Al  Al13  1  0.498980  0.000650  0.092617  1
  Ru  Ru14  1  0.887435  0.118921  0.753296  1
  Ru  Ru15  1  0.754309  0.898022  0.120746  1
  Ru  Ru16  1  0.120082  0.755486  0.903133  1
  Ru  Ru17  1  0.235623  0.609949  0.379466  1
  Ru  Ru18  1  0.369408  0.222168  0.605736  1
  Ru  Ru19  1  0.600897  0.367189  0.226043  1
