# generated using pymatgen
data_Lu5(Sn3Os)6
_symmetry_space_group_name_H-M   'P 1'
_cell_length_a   9.83457990
_cell_length_b   9.83457984
_cell_length_c   9.83458000
_cell_angle_alpha   59.99999947
_cell_angle_beta   59.99999966
_cell_angle_gamma   60.00000346
_symmetry_Int_Tables_number   1
_chemical_formula_structural   Lu5(Sn3Os)6
_chemical_formula_sum   'Lu5 Sn18 Os6'
_cell_volume   672.59316818
_cell_formula_units_Z   1
loop_
 _symmetry_equiv_pos_site_id
 _symmetry_equiv_pos_as_xyz
  1  'x, y, z'
loop_
 _atom_site_type_symbol
 _atom_site_label
 _atom_site_symmetry_multiplicity
 _atom_site_fract_x
 _atom_site_fract_y
 _atom_site_fract_z
 _atom_site_occupancy
  Lu  Lu0  1  0.000000  0.000000  0.000000  1
  Lu  Lu1  1  0.372736  0.372737  0.881792  1
  Lu  Lu2  1  0.372737  0.881791  0.372736  1
  Lu  Lu3  1  0.881791  0.372737  0.372736  1
  Lu  Lu4  1  0.372737  0.372736  0.372736  1
  Sn  Sn5  1  0.593505  0.593505  0.219487  1
  Sn  Sn6  1  0.593505  0.219487  0.593505  1
  Sn  Sn7  1  0.219487  0.593505  0.593505  1
  Sn  Sn8  1  0.593505  0.593505  0.593505  1
  Sn  Sn9  1  0.750000  0.750000  0.750000  1
  Sn  Sn10  1  0.998309  0.351493  0.651891  1
  Sn  Sn11  1  0.998309  0.998309  0.651891  1
  Sn  Sn12  1  0.351493  0.998309  0.651891  1
  Sn  Sn13  1  0.998309  0.651891  0.351493  1
  Sn  Sn14  1  0.351493  0.651891  0.998309  1
  Sn  Sn15  1  0.998309  0.651891  0.998309  1
  Sn  Sn16  1  0.651891  0.998309  0.998309  1
  Sn  Sn17  1  0.651891  0.351493  0.998309  1
  Sn  Sn18  1  0.651891  0.998309  0.351493  1
  Sn  Sn19  1  0.351493  0.998309  0.998309  1
  Sn  Sn20  1  0.998309  0.998309  0.351493  1
  Sn  Sn21  1  0.998309  0.351493  0.998309  1
  Sn  Sn22  1  0.250000  0.250000  0.250000  1
  Os  Os23  1  0.256035  0.256035  0.743965  1
  Os  Os24  1  0.743965  0.256035  0.743965  1
  Os  Os25  1  0.256035  0.743965  0.743965  1
  Os  Os26  1  0.743965  0.743965  0.256035  1
  Os  Os27  1  0.256035  0.743965  0.256035  1
  Os  Os28  1  0.743965  0.256035  0.256035  1
