# generated using pymatgen
data_TbTm4Co(P2Ru3)6
_symmetry_space_group_name_H-M   'P 1'
_cell_length_a   12.46253100
_cell_length_b   12.46253087
_cell_length_c   3.96230700
_cell_angle_alpha   90.00000000
_cell_angle_beta   90.00000000
_cell_angle_gamma   120.00000301
_symmetry_Int_Tables_number   1
_chemical_formula_structural   TbTm4Co(P2Ru3)6
_chemical_formula_sum   'Tb1 Tm4 Co1 P12 Ru18'
_cell_volume   532.95585642
_cell_formula_units_Z   1
loop_
 _symmetry_equiv_pos_site_id
 _symmetry_equiv_pos_as_xyz
  1  'x, y, z'
loop_
 _atom_site_type_symbol
 _atom_site_label
 _atom_site_symmetry_multiplicity
 _atom_site_fract_x
 _atom_site_fract_y
 _atom_site_fract_z
 _atom_site_occupancy
  Tb  Tb0  1  0.666667  0.333333  0.000000  1
  Tm  Tm1  1  0.333333  0.666667  0.000000  1
  Tm  Tm2  1  0.182534  0.182534  0.500000  1
  Tm  Tm3  1  0.817466  0.000000  0.500000  1
  Tm  Tm4  1  0.000000  0.817466  0.500000  1
  Co  Co5  1  0.000000  0.000000  0.000000  1
  P  P6  1  0.372455  0.372378  0.000000  1
  P  P7  1  0.627622  0.000076  0.000000  1
  P  P8  1  0.999924  0.627545  0.000000  1
  P  P9  1  0.831074  0.306848  0.500000  1
  P  P10  1  0.693152  0.524227  0.500000  1
  P  P11  1  0.475773  0.168926  0.500000  1
  P  P12  1  0.306969  0.830519  0.500000  1
  P  P13  1  0.523551  0.693031  0.500000  1
  P  P14  1  0.169481  0.476449  0.500000  1
  P  P15  1  0.823842  0.823945  0.000000  1
  P  P16  1  0.176055  0.999897  0.000000  1
  P  P17  1  0.000103  0.176158  0.000000  1
  Ru  Ru18  1  0.816188  0.189901  0.000000  1
  Ru  Ru19  1  0.810099  0.626288  0.000000  1
  Ru  Ru20  1  0.373712  0.183812  0.000000  1
  Ru  Ru21  1  0.190170  0.815757  0.000000  1
  Ru  Ru22  1  0.625587  0.809830  0.000000  1
  Ru  Ru23  1  0.184243  0.374413  0.000000  1
  Ru  Ru24  1  0.556118  0.556075  0.000000  1
  Ru  Ru25  1  0.443925  0.000043  0.000000  1
  Ru  Ru26  1  0.999957  0.443882  0.000000  1
  Ru  Ru27  1  0.634983  0.125750  0.500000  1
  Ru  Ru28  1  0.874250  0.509234  0.500000  1
  Ru  Ru29  1  0.490766  0.365017  0.500000  1
  Ru  Ru30  1  0.126978  0.635058  0.500000  1
  Ru  Ru31  1  0.508081  0.873022  0.500000  1
  Ru  Ru32  1  0.364942  0.491919  0.500000  1
  Ru  Ru33  1  0.721650  0.721820  0.500000  1
  Ru  Ru34  1  0.278180  0.999830  0.500000  1
  Ru  Ru35  1  0.000170  0.278350  0.500000  1
