# generated using pymatgen
data_Dy5Ho7(TcIr)2
_symmetry_space_group_name_H-M   'P 1'
_cell_length_a   6.32337661
_cell_length_b   7.32746513
_cell_length_c   9.15494133
_cell_angle_alpha   89.98107531
_cell_angle_beta   90.12212693
_cell_angle_gamma   90.00981108
_symmetry_Int_Tables_number   1
_chemical_formula_structural   Dy5Ho7(TcIr)2
_chemical_formula_sum   'Dy5 Ho7 Tc2 Ir2'
_cell_volume   424.18700283
_cell_formula_units_Z   1
loop_
 _symmetry_equiv_pos_site_id
 _symmetry_equiv_pos_as_xyz
  1  'x, y, z'
loop_
 _atom_site_type_symbol
 _atom_site_label
 _atom_site_symmetry_multiplicity
 _atom_site_fract_x
 _atom_site_fract_y
 _atom_site_fract_z
 _atom_site_occupancy
  Dy  Dy0  1  0.328469  0.676912  0.065743  1
  Dy  Dy1  1  0.873610  0.537674  0.250108  1
  Dy  Dy2  1  0.626387  0.037915  0.250119  1
  Dy  Dy3  1  0.133096  0.460001  0.750014  1
  Dy  Dy4  1  0.366843  0.960157  0.749724  1
  Ho  Ho5  1  0.171288  0.176893  0.434221  1
  Ho  Ho6  1  0.668587  0.323762  0.560770  1
  Ho  Ho7  1  0.831419  0.823888  0.939149  1
  Ho  Ho8  1  0.668297  0.323761  0.938983  1
  Ho  Ho9  1  0.831912  0.823948  0.560931  1
  Ho  Ho10  1  0.329119  0.676600  0.434375  1
  Ho  Ho11  1  0.170795  0.176678  0.065870  1
  Tc  Tc12  1  0.035472  0.886363  0.250192  1
  Tc  Tc13  1  0.464504  0.386098  0.250031  1
  Ir  Ir14  1  0.954767  0.114718  0.750295  1
  Ir  Ir15  1  0.545435  0.614629  0.749476  1
