# generated using pymatgen
data_Tb3HoAlGa17Ir6
_symmetry_space_group_name_H-M   'P 1'
_cell_length_a   7.60000441
_cell_length_b   7.60122970
_cell_length_c   9.50439901
_cell_angle_alpha   90.00105895
_cell_angle_beta   89.99746864
_cell_angle_gamma   119.84449935
_symmetry_Int_Tables_number   1
_chemical_formula_structural   Tb3HoAlGa17Ir6
_chemical_formula_sum   'Tb3 Ho1 Al1 Ga17 Ir6'
_cell_volume   476.24603185
_cell_formula_units_Z   1
loop_
 _symmetry_equiv_pos_site_id
 _symmetry_equiv_pos_as_xyz
  1  'x, y, z'
loop_
 _atom_site_type_symbol
 _atom_site_label
 _atom_site_symmetry_multiplicity
 _atom_site_fract_x
 _atom_site_fract_y
 _atom_site_fract_z
 _atom_site_occupancy
  Tb  Tb0  1  0.998691  0.669147  0.249687  1
  Tb  Tb1  1  0.001543  0.330126  0.749449  1
  Tb  Tb2  1  0.669152  0.998700  0.249688  1
  Ho  Ho3  1  0.330084  0.001411  0.749451  1
  Al  Al4  1  0.335717  0.335557  0.950239  1
  Ga  Ga5  1  0.126905  0.126902  0.249331  1
  Ga  Ga6  1  0.872697  0.872568  0.749195  1
  Ga  Ga7  1  0.998682  0.334406  0.080005  1
  Ga  Ga8  1  0.000102  0.665181  0.918403  1
  Ga  Ga9  1  0.999672  0.664915  0.581070  1
  Ga  Ga10  1  0.334668  0.999881  0.418379  1
  Ga  Ga11  1  0.999907  0.334677  0.418221  1
  Ga  Ga12  1  0.664375  0.999423  0.581076  1
  Ga  Ga13  1  0.664638  0.999855  0.918397  1
  Ga  Ga14  1  0.334400  0.998639  0.079849  1
  Ga  Ga15  1  0.331850  0.331625  0.563871  1
  Ga  Ga16  1  0.667863  0.667866  0.434995  1
  Ga  Ga17  1  0.671651  0.671652  0.064932  1
  Ga  Ga18  1  0.340700  0.547972  0.249731  1
  Ga  Ga19  1  0.655448  0.450787  0.750237  1
  Ga  Ga20  1  0.547952  0.340687  0.249732  1
  Ga  Ga21  1  0.450981  0.655738  0.750240  1
  Ir  Ir22  1  0.669019  0.328239  0.998947  1
  Ir  Ir23  1  0.328303  0.669165  0.998951  1
  Ir  Ir24  1  0.328382  0.671802  0.499722  1
  Ir  Ir25  1  0.671674  0.328342  0.499713  1
  Ir  Ir26  1  0.004967  0.004846  0.997186  1
  Ir  Ir27  1  0.999975  0.999888  0.499302  1
