# generated using pymatgen
data_Zr3Ga3PdPt2
_symmetry_space_group_name_H-M   'P 1'
_cell_length_a   7.22798100
_cell_length_b   7.22798197
_cell_length_c   7.11318100
_cell_angle_alpha   90.00000000
_cell_angle_beta   90.00000000
_cell_angle_gamma   120.00000012
_symmetry_Int_Tables_number   1
_chemical_formula_structural   Zr3Ga3PdPt2
_chemical_formula_sum   'Zr6 Ga6 Pd2 Pt4'
_cell_volume   321.83150340
_cell_formula_units_Z   2
loop_
 _symmetry_equiv_pos_site_id
 _symmetry_equiv_pos_as_xyz
  1  'x, y, z'
loop_
 _atom_site_type_symbol
 _atom_site_label
 _atom_site_symmetry_multiplicity
 _atom_site_fract_x
 _atom_site_fract_y
 _atom_site_fract_z
 _atom_site_occupancy
  Zr  Zr0  1  0.388801  0.415661  0.750000  1
  Zr  Zr1  1  0.026860  0.611199  0.750000  1
  Zr  Zr2  1  0.584339  0.973140  0.750000  1
  Zr  Zr3  1  0.611199  0.026860  0.250000  1
  Zr  Zr4  1  0.973140  0.584339  0.250000  1
  Zr  Zr5  1  0.415661  0.388801  0.250000  1
  Ga  Ga6  1  0.266604  0.000000  0.000000  1
  Ga  Ga7  1  0.733396  0.733396  0.000000  1
  Ga  Ga8  1  0.000000  0.266604  0.000000  1
  Ga  Ga9  1  0.733396  0.733396  0.500000  1
  Ga  Ga10  1  0.266604  0.000000  0.500000  1
  Ga  Ga11  1  0.000000  0.266604  0.500000  1
  Pd  Pd12  1  0.000000  0.000000  0.750000  1
  Pd  Pd13  1  0.000000  0.000000  0.250000  1
  Pt  Pt14  1  0.666667  0.333333  0.962989  1
  Pt  Pt15  1  0.666667  0.333333  0.537011  1
  Pt  Pt16  1  0.333333  0.666667  0.462989  1
  Pt  Pt17  1  0.333333  0.666667  0.037011  1
