# generated using pymatgen
data_Tb3HfAl15(GaRh2)3
_symmetry_space_group_name_H-M   'P 1'
_cell_length_a   7.52794890
_cell_length_b   7.51546148
_cell_length_c   9.47662900
_cell_angle_alpha   90.00000000
_cell_angle_beta   90.00000000
_cell_angle_gamma   119.56329900
_symmetry_Int_Tables_number   1
_chemical_formula_structural   Tb3HfAl15(GaRh2)3
_chemical_formula_sum   'Tb3 Hf1 Al15 Ga3 Rh6'
_cell_volume   466.34912194
_cell_formula_units_Z   1
loop_
 _symmetry_equiv_pos_site_id
 _symmetry_equiv_pos_as_xyz
  1  'x, y, z'
loop_
 _atom_site_type_symbol
 _atom_site_label
 _atom_site_symmetry_multiplicity
 _atom_site_fract_x
 _atom_site_fract_y
 _atom_site_fract_z
 _atom_site_occupancy
  Tb  Tb0  1  0.005744  0.327480  0.750000  1
  Tb  Tb1  1  0.671271  0.998443  0.250000  1
  Tb  Tb2  1  0.329787  0.007380  0.750000  1
  Hf  Hf3  1  0.999091  0.672378  0.250000  1
  Al  Al4  1  0.124277  0.121626  0.250000  1
  Al  Al5  1  0.999699  0.339373  0.079765  1
  Al  Al6  1  0.997862  0.665302  0.931683  1
  Al  Al7  1  0.997862  0.665302  0.568317  1
  Al  Al8  1  0.331788  0.996960  0.420249  1
  Al  Al9  1  0.999699  0.339373  0.420235  1
  Al  Al10  1  0.664606  0.995644  0.573530  1
  Al  Al11  1  0.664606  0.995644  0.926470  1
  Al  Al12  1  0.331788  0.996960  0.079751  1
  Al  Al13  1  0.335172  0.335482  0.540891  1
  Al  Al14  1  0.671491  0.668383  0.434538  1
  Al  Al15  1  0.671491  0.668383  0.065462  1
  Al  Al16  1  0.335172  0.335482  0.959109  1
  Al  Al17  1  0.333892  0.551167  0.250000  1
  Al  Al18  1  0.556606  0.342701  0.250000  1
  Ga  Ga19  1  0.871824  0.868729  0.750000  1
  Ga  Ga20  1  0.657811  0.451009  0.750000  1
  Ga  Ga21  1  0.447906  0.654782  0.750000  1
  Rh  Rh22  1  0.672695  0.328801  0.003542  1
  Rh  Rh23  1  0.327830  0.672724  0.004227  1
  Rh  Rh24  1  0.327830  0.672724  0.495773  1
  Rh  Rh25  1  0.672695  0.328801  0.496458  1
  Rh  Rh26  1  0.999752  0.999485  0.003892  1
  Rh  Rh27  1  0.999752  0.999485  0.496108  1
