# generated using pymatgen
data_CsTh2(AsO4)3
_symmetry_space_group_name_H-M   'P 1'
_cell_length_a   10.37497288
_cell_length_b   10.37497243
_cell_length_c   10.37497300
_cell_angle_alpha   55.03444105
_cell_angle_beta   55.03444280
_cell_angle_gamma   55.03443488
_symmetry_Int_Tables_number   1
_chemical_formula_structural   CsTh2(AsO4)3
_chemical_formula_sum   'Cs2 Th4 As6 O24'
_cell_volume   698.44984257
_cell_formula_units_Z   2
loop_
 _symmetry_equiv_pos_site_id
 _symmetry_equiv_pos_as_xyz
  1  'x, y, z'
loop_
 _atom_site_type_symbol
 _atom_site_label
 _atom_site_symmetry_multiplicity
 _atom_site_fract_x
 _atom_site_fract_y
 _atom_site_fract_z
 _atom_site_occupancy
  Cs  Cs0  1  0.500000  0.500000  0.500000  1
  Cs  Cs1  1  0.000000  0.000000  0.000000  1
  Th  Th2  1  0.350461  0.350461  0.350461  1
  Th  Th3  1  0.850461  0.850461  0.850461  1
  Th  Th4  1  0.649539  0.649539  0.649539  1
  Th  Th5  1  0.149539  0.149539  0.149539  1
  As  As6  1  0.960946  0.539054  0.250000  1
  As  As7  1  0.250000  0.960946  0.539054  1
  As  As8  1  0.539054  0.250000  0.960946  1
  As  As9  1  0.750000  0.039054  0.460946  1
  As  As10  1  0.460946  0.750000  0.039054  1
  As  As11  1  0.039054  0.460946  0.750000  1
  O  O12  1  0.133421  0.516091  0.256716  1
  O  O13  1  0.256716  0.133421  0.516091  1
  O  O14  1  0.516091  0.256716  0.133421  1
  O  O15  1  0.756716  0.016091  0.633421  1
  O  O16  1  0.633421  0.756716  0.016091  1
  O  O17  1  0.016091  0.633421  0.756716  1
  O  O18  1  0.866579  0.483909  0.743284  1
  O  O19  1  0.743284  0.866579  0.483909  1
  O  O20  1  0.483909  0.743284  0.866579  1
  O  O21  1  0.243284  0.983909  0.366579  1
  O  O22  1  0.366579  0.243284  0.983909  1
  O  O23  1  0.983909  0.366579  0.243284  1
  O  O24  1  0.211238  0.429539  0.575123  1
  O  O25  1  0.575123  0.211238  0.429539  1
  O  O26  1  0.429539  0.575123  0.211238  1
  O  O27  1  0.075123  0.929539  0.711238  1
  O  O28  1  0.711238  0.075123  0.929539  1
  O  O29  1  0.929539  0.711238  0.075123  1
  O  O30  1  0.788762  0.570461  0.424877  1
  O  O31  1  0.424877  0.788762  0.570461  1
  O  O32  1  0.570461  0.424877  0.788762  1
  O  O33  1  0.924877  0.070461  0.288762  1
  O  O34  1  0.288762  0.924877  0.070461  1
  O  O35  1  0.070461  0.288762  0.924877  1
