# generated using pymatgen
data_Sc5ZnB4(RuRh4)2
_symmetry_space_group_name_H-M   'P 1'
_cell_length_a   9.47109800
_cell_length_b   9.47109800
_cell_length_c   3.06156600
_cell_angle_alpha   90.00000000
_cell_angle_beta   90.00000000
_cell_angle_gamma   90.00000000
_symmetry_Int_Tables_number   1
_chemical_formula_structural   Sc5ZnB4(RuRh4)2
_chemical_formula_sum   'Sc5 Zn1 B4 Ru2 Rh8'
_cell_volume   274.62766667
_cell_formula_units_Z   1
loop_
 _symmetry_equiv_pos_site_id
 _symmetry_equiv_pos_as_xyz
  1  'x, y, z'
loop_
 _atom_site_type_symbol
 _atom_site_label
 _atom_site_symmetry_multiplicity
 _atom_site_fract_x
 _atom_site_fract_y
 _atom_site_fract_z
 _atom_site_occupancy
  Sc  Sc0  1  0.828051  0.324284  0.000000  1
  Sc  Sc1  1  0.324284  0.171949  0.000000  1
  Sc  Sc2  1  0.675716  0.828051  0.000000  1
  Sc  Sc3  1  0.171949  0.675716  0.000000  1
  Sc  Sc4  1  0.500000  0.500000  0.000000  1
  Zn  Zn5  1  0.000000  0.000000  0.000000  1
  B  B6  1  0.626507  0.117351  0.000000  1
  B  B7  1  0.117351  0.373493  0.000000  1
  B  B8  1  0.882649  0.626507  0.000000  1
  B  B9  1  0.373493  0.882649  0.000000  1
  Ru  Ru10  1  0.500000  0.000000  0.500000  1
  Ru  Ru11  1  0.000000  0.500000  0.500000  1
  Rh  Rh12  1  0.069911  0.215697  0.500000  1
  Rh  Rh13  1  0.215697  0.930089  0.500000  1
  Rh  Rh14  1  0.784303  0.069911  0.500000  1
  Rh  Rh15  1  0.930089  0.784303  0.500000  1
  Rh  Rh16  1  0.423975  0.722255  0.500000  1
  Rh  Rh17  1  0.576025  0.277745  0.500000  1
  Rh  Rh18  1  0.722255  0.576025  0.500000  1
  Rh  Rh19  1  0.277745  0.423975  0.500000  1
