# generated using pymatgen
data_Sr2YHo(PPd)4
_symmetry_space_group_name_H-M   'P 1'
_cell_length_a   4.12422300
_cell_length_b   8.22052253
_cell_length_c   7.28258713
_cell_angle_alpha   90.14213565
_cell_angle_beta   90.00000000
_cell_angle_gamma   90.00000000
_symmetry_Int_Tables_number   1
_chemical_formula_structural   Sr2YHo(PPd)4
_chemical_formula_sum   'Sr2 Y1 Ho1 P4 Pd4'
_cell_volume   246.90274439
_cell_formula_units_Z   1
loop_
 _symmetry_equiv_pos_site_id
 _symmetry_equiv_pos_as_xyz
  1  'x, y, z'
loop_
 _atom_site_type_symbol
 _atom_site_label
 _atom_site_symmetry_multiplicity
 _atom_site_fract_x
 _atom_site_fract_y
 _atom_site_fract_z
 _atom_site_occupancy
  Sr  Sr0  1  0.250000  0.499957  0.250282  1
  Sr  Sr1  1  0.750000  0.500030  0.749722  1
  Y  Y2  1  0.750000  0.999872  0.751446  1
  Ho  Ho3  1  0.250000  0.000177  0.248518  1
  P  P4  1  0.250000  0.774141  0.913461  1
  P  P5  1  0.750000  0.225421  0.087057  1
  P  P6  1  0.750000  0.775808  0.413000  1
  P  P7  1  0.250000  0.224632  0.586451  1
  Pd  Pd8  1  0.250000  0.769667  0.582689  1
  Pd  Pd9  1  0.750000  0.229796  0.416487  1
  Pd  Pd10  1  0.750000  0.768539  0.083954  1
  Pd  Pd11  1  0.250000  0.231960  0.916933  1
