# generated using pymatgen
data_Sr4In2BiSbO12
_symmetry_space_group_name_H-M   'P 1'
_cell_length_a   5.85113570
_cell_length_b   5.91705054
_cell_length_c   8.31296807
_cell_angle_alpha   90.01399182
_cell_angle_beta   90.05162404
_cell_angle_gamma   89.95298073
_symmetry_Int_Tables_number   1
_chemical_formula_structural   Sr4In2BiSbO12
_chemical_formula_sum   'Sr4 In2 Bi1 Sb1 O12'
_cell_volume   287.80691623
_cell_formula_units_Z   1
loop_
 _symmetry_equiv_pos_site_id
 _symmetry_equiv_pos_as_xyz
  1  'x, y, z'
loop_
 _atom_site_type_symbol
 _atom_site_label
 _atom_site_symmetry_multiplicity
 _atom_site_fract_x
 _atom_site_fract_y
 _atom_site_fract_z
 _atom_site_occupancy
  Sr  Sr0  1  0.990537  0.040786  0.756372  1
  Sr  Sr1  1  0.507730  0.538126  0.756445  1
  Sr  Sr2  1  0.009463  0.959213  0.243627  1
  Sr  Sr3  1  0.492271  0.461875  0.243555  1
  In  In4  1  0.000001  0.500000  0.500000  1
  In  In5  1  0.499999  0.000000  0.999999  1
  Bi  Bi6  1  0.500000  0.000000  0.500000  1
  Sb  Sb7  1  0.000000  0.500000  0.000000  1
  O  O8  1  0.700375  0.293913  0.547790  1
  O  O9  1  0.800631  0.775588  0.957519  1
  O  O10  1  0.299626  0.706085  0.452212  1
  O  O11  1  0.199370  0.224412  0.042483  1
  O  O12  1  0.794732  0.797056  0.546733  1
  O  O13  1  0.724392  0.297723  0.958976  1
  O  O14  1  0.205268  0.202943  0.453267  1
  O  O15  1  0.275609  0.702279  0.041025  1
  O  O16  1  0.080983  0.475881  0.763571  1
  O  O17  1  0.586483  0.026830  0.250157  1
  O  O18  1  0.413519  0.973170  0.749843  1
  O  O19  1  0.919017  0.524120  0.236428  1
