# generated using pymatgen
data_Dy2Tm14MgCo4Hg3
_symmetry_space_group_name_H-M   'P 1'
_cell_length_a   9.37329473
_cell_length_b   9.34354962
_cell_length_c   9.34993600
_cell_angle_alpha   59.97738011
_cell_angle_beta   60.08239514
_cell_angle_gamma   60.07380282
_symmetry_Int_Tables_number   1
_chemical_formula_structural   Dy2Tm14MgCo4Hg3
_chemical_formula_sum   'Dy2 Tm14 Mg1 Co4 Hg3'
_cell_volume   579.60883203
_cell_formula_units_Z   1
loop_
 _symmetry_equiv_pos_site_id
 _symmetry_equiv_pos_as_xyz
  1  'x, y, z'
loop_
 _atom_site_type_symbol
 _atom_site_label
 _atom_site_symmetry_multiplicity
 _atom_site_fract_x
 _atom_site_fract_y
 _atom_site_fract_z
 _atom_site_occupancy
  Dy  Dy0  1  0.348210  0.960459  0.345665  1
  Dy  Dy1  1  0.950002  0.350468  0.349764  1
  Tm  Tm2  1  0.810039  0.188952  0.189071  1
  Tm  Tm3  1  0.185065  0.813431  0.814554  1
  Tm  Tm4  1  0.185065  0.813431  0.186951  1
  Tm  Tm5  1  0.810039  0.188952  0.811938  1
  Tm  Tm6  1  0.185529  0.187436  0.813518  1
  Tm  Tm7  1  0.810907  0.811719  0.188687  1
  Tm  Tm8  1  0.937214  0.561539  0.562224  1
  Tm  Tm9  1  0.560844  0.937971  0.937894  1
  Tm  Tm10  1  0.560844  0.937971  0.563291  1
  Tm  Tm11  1  0.937214  0.561539  0.939022  1
  Tm  Tm12  1  0.560502  0.562122  0.938688  1
  Tm  Tm13  1  0.936574  0.938370  0.562527  1
  Tm  Tm14  1  0.347680  0.346111  0.345218  1
  Tm  Tm15  1  0.347680  0.346111  0.960990  1
  Mg  Mg16  1  0.284276  0.571087  0.572319  1
  Co  Co17  1  0.139157  0.143376  0.140393  1
  Co  Co18  1  0.139157  0.143376  0.577075  1
  Co  Co19  1  0.140304  0.575959  0.141868  1
  Co  Co20  1  0.576398  0.142895  0.140353  1
  Hg  Hg21  1  0.582558  0.585800  0.586739  1
  Hg  Hg22  1  0.582558  0.585800  0.244902  1
  Hg  Hg23  1  0.582183  0.245126  0.586346  1
