# generated using pymatgen
data_Mn(WF6)2
_symmetry_space_group_name_H-M   'P 1'
_cell_length_a   5.49584263
_cell_length_b   5.89527106
_cell_length_c   7.75996041
_cell_angle_alpha   95.65031279
_cell_angle_beta   91.21925331
_cell_angle_gamma   89.99271614
_symmetry_Int_Tables_number   1
_chemical_formula_structural   Mn(WF6)2
_chemical_formula_sum   'Mn1 W2 F12'
_cell_volume   250.13999949
_cell_formula_units_Z   1
loop_
 _symmetry_equiv_pos_site_id
 _symmetry_equiv_pos_as_xyz
  1  'x, y, z'
loop_
 _atom_site_type_symbol
 _atom_site_label
 _atom_site_symmetry_multiplicity
 _atom_site_fract_x
 _atom_site_fract_y
 _atom_site_fract_z
 _atom_site_occupancy
  Mn  Mn0  1  0.500000  0.500000  0.000000  1
  W  W1  1  0.000000  0.000000  0.000000  1
  W  W2  1  0.500000  0.500000  0.500000  1
  F  F3  1  0.628872  0.794301  0.574907  1
  F  F4  1  0.198287  0.281083  0.050398  1
  F  F5  1  0.096660  0.986135  0.769854  1
  F  F6  1  0.624108  0.513732  0.258346  1
  F  F7  1  0.211901  0.650479  0.426702  1
  F  F8  1  0.716287  0.193302  0.949606  1
  F  F9  1  0.903340  0.013865  0.230146  1
  F  F10  1  0.375892  0.486268  0.741654  1
  F  F11  1  0.788099  0.349521  0.573298  1
  F  F12  1  0.283713  0.806698  0.050394  1
  F  F13  1  0.371128  0.205699  0.425093  1
  F  F14  1  0.801713  0.718917  0.949602  1
