# generated using pymatgen
data_Eu3P4Pd3Pt
_symmetry_space_group_name_H-M   'P 1'
_cell_length_a   4.17507600
_cell_length_b   4.15867000
_cell_length_c   12.28080600
_cell_angle_alpha   90.00000000
_cell_angle_beta   90.00000000
_cell_angle_gamma   90.00000000
_symmetry_Int_Tables_number   1
_chemical_formula_structural   Eu3P4Pd3Pt
_chemical_formula_sum   'Eu3 P4 Pd3 Pt1'
_cell_volume   213.22872782
_cell_formula_units_Z   1
loop_
 _symmetry_equiv_pos_site_id
 _symmetry_equiv_pos_as_xyz
  1  'x, y, z'
loop_
 _atom_site_type_symbol
 _atom_site_label
 _atom_site_symmetry_multiplicity
 _atom_site_fract_x
 _atom_site_fract_y
 _atom_site_fract_z
 _atom_site_occupancy
  Eu  Eu0  1  0.500000  0.500000  0.296252  1
  Eu  Eu1  1  0.500000  0.500000  0.704513  1
  Eu  Eu2  1  0.500000  0.000000  0.000071  1
  P  P3  1  0.000000  0.000000  0.382940  1
  P  P4  1  0.000000  0.500000  0.093392  1
  P  P5  1  0.000000  0.000000  0.617425  1
  P  P6  1  0.000000  0.500000  0.904910  1
  Pd  Pd7  1  0.000000  0.000000  0.188681  1
  Pd  Pd8  1  0.500000  0.000000  0.500523  1
  Pd  Pd9  1  0.000000  0.500000  0.500328  1
  Pt  Pt10  1  0.000000  0.000000  0.810964  1
