# generated using pymatgen
data_Er3Lu2(InSb)2
_symmetry_space_group_name_H-M   'P 1'
_cell_length_a   8.67994268
_cell_length_b   8.73192893
_cell_length_c   7.99866309
_cell_angle_alpha   90.05528253
_cell_angle_beta   90.06364409
_cell_angle_gamma   125.19384787
_symmetry_Int_Tables_number   1
_chemical_formula_structural   Er3Lu2(InSb)2
_chemical_formula_sum   'Er6 Lu4 In4 Sb4'
_cell_volume   495.42202929
_cell_formula_units_Z   2
loop_
 _symmetry_equiv_pos_site_id
 _symmetry_equiv_pos_as_xyz
  1  'x, y, z'
loop_
 _atom_site_type_symbol
 _atom_site_label
 _atom_site_symmetry_multiplicity
 _atom_site_fract_x
 _atom_site_fract_y
 _atom_site_fract_z
 _atom_site_occupancy
  Er  Er0  1  0.469147  0.194359  0.834227  1
  Er  Er1  1  0.809675  0.533472  0.167147  1
  Er  Er2  1  0.530853  0.805641  0.165773  1
  Er  Er3  1  0.190325  0.466528  0.832853  1
  Er  Er4  1  0.691513  0.966604  0.666401  1
  Er  Er5  1  0.308487  0.033396  0.333599  1
  Lu  Lu6  1  0.031718  0.302742  0.334702  1
  Lu  Lu7  1  0.968282  0.697258  0.665298  1
  Lu  Lu8  1  0.000000  0.000000  0.000000  1
  Lu  Lu9  1  0.500000  0.500000  0.500000  1
  In  In10  1  0.370429  0.370161  0.130028  1
  In  In11  1  0.629571  0.629839  0.869972  1
  In  In12  1  0.130757  0.130869  0.629957  1
  In  In13  1  0.869243  0.869131  0.370043  1
  Sb  Sb14  1  0.796630  0.201815  0.003479  1
  Sb  Sb15  1  0.203370  0.798185  0.996521  1
  Sb  Sb16  1  0.707874  0.299930  0.502483  1
  Sb  Sb17  1  0.292126  0.700070  0.497517  1
