# generated using pymatgen
data_Y5Hf3(ReB6)4
_symmetry_space_group_name_H-M   'P 1'
_cell_length_a   3.62101400
_cell_length_b   9.05676409
_cell_length_c   11.44565547
_cell_angle_alpha   89.97563428
_cell_angle_beta   90.00000000
_cell_angle_gamma   90.00000000
_symmetry_Int_Tables_number   1
_chemical_formula_structural   Y5Hf3(ReB6)4
_chemical_formula_sum   'Y5 Hf3 Re4 B24'
_cell_volume   375.35645498
_cell_formula_units_Z   1
loop_
 _symmetry_equiv_pos_site_id
 _symmetry_equiv_pos_as_xyz
  1  'x, y, z'
loop_
 _atom_site_type_symbol
 _atom_site_label
 _atom_site_symmetry_multiplicity
 _atom_site_fract_x
 _atom_site_fract_y
 _atom_site_fract_z
 _atom_site_occupancy
  Y  Y0  1  0.000000  0.321358  0.413214  1
  Y  Y1  1  0.000000  0.677870  0.586214  1
  Y  Y2  1  0.000000  0.821081  0.086069  1
  Y  Y3  1  0.000000  0.179258  0.914334  1
  Y  Y4  1  0.000000  0.944488  0.372662  1
  Hf  Hf5  1  0.000000  0.056702  0.630628  1
  Hf  Hf6  1  0.000000  0.444388  0.126445  1
  Hf  Hf7  1  0.000000  0.555831  0.872670  1
  Re  Re8  1  0.000000  0.634898  0.317106  1
  Re  Re9  1  0.000000  0.360269  0.683070  1
  Re  Re10  1  0.000000  0.144280  0.177716  1
  Re  Re11  1  0.000000  0.859532  0.819659  1
  B  B12  1  0.500000  0.551529  0.432502  1
  B  B13  1  0.500000  0.445102  0.567541  1
  B  B14  1  0.500000  0.055231  0.066260  1
  B  B15  1  0.500000  0.945983  0.933036  1
  B  B16  1  0.500000  0.748072  0.417277  1
  B  B17  1  0.500000  0.247164  0.583602  1
  B  B18  1  0.500000  0.254311  0.080931  1
  B  B19  1  0.500000  0.746977  0.918086  1
  B  B20  1  0.500000  0.791501  0.263433  1
  B  B21  1  0.500000  0.205696  0.736433  1
  B  B22  1  0.500000  0.295652  0.233631  1
  B  B23  1  0.500000  0.705343  0.765069  1
  B  B24  1  0.500000  0.628780  0.182466  1
  B  B25  1  0.500000  0.370646  0.817139  1
  B  B26  1  0.500000  0.133134  0.314493  1
  B  B27  1  0.500000  0.869943  0.684223  1
  B  B28  1  0.500000  0.984408  0.211666  1
  B  B29  1  0.500000  0.017638  0.786936  1
  B  B30  1  0.500000  0.480712  0.285049  1
  B  B31  1  0.500000  0.518235  0.714061  1
  B  B32  1  0.500000  0.599433  0.026140  1
  B  B33  1  0.500000  0.401666  0.972686  1
  B  B34  1  0.500000  0.102377  0.476704  1
  B  B35  1  0.500000  0.900515  0.530845  1
