# generated using pymatgen
data_Hf18MnRe7WS
_symmetry_space_group_name_H-M   'P 1'
_cell_length_a   8.56624100
_cell_length_b   8.56624097
_cell_length_c   8.58127600
_cell_angle_alpha   90.00000000
_cell_angle_beta   90.00000000
_cell_angle_gamma   120.00000397
_symmetry_Int_Tables_number   1
_chemical_formula_structural   Hf18MnRe7WS
_chemical_formula_sum   'Hf18 Mn1 Re7 W1 S1'
_cell_volume   545.33460886
_cell_formula_units_Z   1
loop_
 _symmetry_equiv_pos_site_id
 _symmetry_equiv_pos_as_xyz
  1  'x, y, z'
loop_
 _atom_site_type_symbol
 _atom_site_label
 _atom_site_symmetry_multiplicity
 _atom_site_fract_x
 _atom_site_fract_y
 _atom_site_fract_z
 _atom_site_occupancy
  Hf  Hf0  1  0.201353  0.798647  0.443424  1
  Hf  Hf1  1  0.201353  0.402704  0.443424  1
  Hf  Hf2  1  0.597296  0.798647  0.443424  1
  Hf  Hf3  1  0.803881  0.196119  0.549258  1
  Hf  Hf4  1  0.803881  0.607764  0.549258  1
  Hf  Hf5  1  0.392236  0.196119  0.549258  1
  Hf  Hf6  1  0.806260  0.193740  0.950297  1
  Hf  Hf7  1  0.806260  0.612519  0.950297  1
  Hf  Hf8  1  0.387481  0.193740  0.950297  1
  Hf  Hf9  1  0.200708  0.799292  0.056614  1
  Hf  Hf10  1  0.200708  0.401414  0.056614  1
  Hf  Hf11  1  0.598586  0.799292  0.056614  1
  Hf  Hf12  1  0.539761  0.460239  0.249033  1
  Hf  Hf13  1  0.539761  0.079522  0.249033  1
  Hf  Hf14  1  0.920478  0.460239  0.249033  1
  Hf  Hf15  1  0.456624  0.543376  0.750780  1
  Hf  Hf16  1  0.456624  0.913247  0.750780  1
  Hf  Hf17  1  0.086753  0.543376  0.750780  1
  Mn  Mn18  1  0.333333  0.666667  0.249755  1
  Re  Re19  1  0.888780  0.111220  0.250901  1
  Re  Re20  1  0.888780  0.777559  0.250901  1
  Re  Re21  1  0.222441  0.111220  0.250901  1
  Re  Re22  1  0.110862  0.889138  0.749273  1
  Re  Re23  1  0.110862  0.221726  0.749273  1
  Re  Re24  1  0.778274  0.889138  0.749273  1
  Re  Re25  1  0.000000  0.000000  0.001319  1
  W  W26  1  0.000000  0.000000  0.498256  1
  S  S27  1  0.666667  0.333333  0.751927  1
