# generated using pymatgen
data_DyTa3Nb2(B2Ru5)2
_symmetry_space_group_name_H-M   'P 1'
_cell_length_a   9.52614070
_cell_length_b   9.52614031
_cell_length_c   3.05087500
_cell_angle_alpha   90.00000000
_cell_angle_beta   90.00000000
_cell_angle_gamma   90.16354330
_symmetry_Int_Tables_number   1
_chemical_formula_structural   DyTa3Nb2(B2Ru5)2
_chemical_formula_sum   'Dy1 Ta3 Nb2 B4 Ru10'
_cell_volume   276.85770244
_cell_formula_units_Z   1
loop_
 _symmetry_equiv_pos_site_id
 _symmetry_equiv_pos_as_xyz
  1  'x, y, z'
loop_
 _atom_site_type_symbol
 _atom_site_label
 _atom_site_symmetry_multiplicity
 _atom_site_fract_x
 _atom_site_fract_y
 _atom_site_fract_z
 _atom_site_occupancy
  Dy  Dy0  1  0.824527  0.675473  0.000000  1
  Ta  Ta1  1  0.178298  0.321702  0.000000  1
  Ta  Ta2  1  0.500860  0.500642  0.000000  1
  Ta  Ta3  1  0.999358  0.999140  0.000000  1
  Nb  Nb4  1  0.324196  0.823627  0.000000  1
  Nb  Nb5  1  0.676373  0.175804  0.000000  1
  B  B6  1  0.618567  0.881433  0.000000  1
  B  B7  1  0.377562  0.122438  0.000000  1
  B  B8  1  0.123259  0.620147  0.000000  1
  B  B9  1  0.879853  0.376741  0.000000  1
  Ru  Ru10  1  0.559086  0.724277  0.500000  1
  Ru  Ru11  1  0.425843  0.283400  0.500000  1
  Ru  Ru12  1  0.081289  0.782531  0.500000  1
  Ru  Ru13  1  0.931545  0.216135  0.500000  1
  Ru  Ru14  1  0.283865  0.568455  0.500000  1
  Ru  Ru15  1  0.717469  0.418711  0.500000  1
  Ru  Ru16  1  0.216600  0.074157  0.500000  1
  Ru  Ru17  1  0.775723  0.940914  0.500000  1
  Ru  Ru18  1  0.496099  0.003901  0.500000  1
  Ru  Ru19  1  0.009624  0.490376  0.500000  1
