# generated using pymatgen
data_Sc10Sn6HgGe
_symmetry_space_group_name_H-M   'P 1'
_cell_length_a   8.69079800
_cell_length_b   8.69079950
_cell_length_c   6.21872600
_cell_angle_alpha   90.00000000
_cell_angle_beta   90.00000000
_cell_angle_gamma   120.00000191
_symmetry_Int_Tables_number   1
_chemical_formula_structural   Sc10Sn6HgGe
_chemical_formula_sum   'Sc10 Sn6 Hg1 Ge1'
_cell_volume   406.77235680
_cell_formula_units_Z   1
loop_
 _symmetry_equiv_pos_site_id
 _symmetry_equiv_pos_as_xyz
  1  'x, y, z'
loop_
 _atom_site_type_symbol
 _atom_site_label
 _atom_site_symmetry_multiplicity
 _atom_site_fract_x
 _atom_site_fract_y
 _atom_site_fract_z
 _atom_site_occupancy
  Sc  Sc0  1  0.666667  0.333333  0.000000  1
  Sc  Sc1  1  0.333333  0.666667  0.000000  1
  Sc  Sc2  1  0.333333  0.666667  0.500000  1
  Sc  Sc3  1  0.666667  0.333333  0.500000  1
  Sc  Sc4  1  0.733224  0.733224  0.723134  1
  Sc  Sc5  1  0.266776  0.000000  0.723134  1
  Sc  Sc6  1  0.000000  0.266776  0.723134  1
  Sc  Sc7  1  0.266776  0.266776  0.276866  1
  Sc  Sc8  1  0.733224  0.000000  0.276866  1
  Sc  Sc9  1  0.000000  0.733224  0.276866  1
  Sn  Sn10  1  0.388097  0.388097  0.755467  1
  Sn  Sn11  1  0.611903  0.000000  0.755467  1
  Sn  Sn12  1  0.000000  0.611903  0.755467  1
  Sn  Sn13  1  0.611903  0.611903  0.244533  1
  Sn  Sn14  1  0.388097  0.000000  0.244533  1
  Sn  Sn15  1  0.000000  0.388097  0.244533  1
  Hg  Hg16  1  0.000000  0.000000  0.000000  1
  Ge  Ge17  1  0.000000  0.000000  0.500000  1
