# generated using pymatgen
data_Ac7Y12HoPb16
_symmetry_space_group_name_H-M   'P 1'
_cell_length_a   8.44756297
_cell_length_b   16.17553910
_cell_length_c   8.53896792
_cell_angle_alpha   89.94718947
_cell_angle_beta   89.79839877
_cell_angle_gamma   90.35942954
_symmetry_Int_Tables_number   1
_chemical_formula_structural   Ac7Y12HoPb16
_chemical_formula_sum   'Ac7 Y12 Ho1 Pb16'
_cell_volume   1166.76704985
_cell_formula_units_Z   1
loop_
 _symmetry_equiv_pos_site_id
 _symmetry_equiv_pos_as_xyz
  1  'x, y, z'
loop_
 _atom_site_type_symbol
 _atom_site_label
 _atom_site_symmetry_multiplicity
 _atom_site_fract_x
 _atom_site_fract_y
 _atom_site_fract_z
 _atom_site_occupancy
  Ac  Ac0  1  0.981299  0.902485  0.821954  1
  Ac  Ac1  1  0.517174  0.095060  0.323038  1
  Ac  Ac2  1  0.017888  0.406367  0.178399  1
  Ac  Ac3  1  0.519440  0.405817  0.324811  1
  Ac  Ac4  1  0.017856  0.095039  0.175563  1
  Ac  Ac5  1  0.484901  0.904688  0.676523  1
  Ac  Ac6  1  0.981446  0.595285  0.821236  1
  Y  Y7  1  0.642218  0.623300  0.157126  1
  Y  Y8  1  0.145173  0.874617  0.342573  1
  Y  Y9  1  0.358074  0.124952  0.842303  1
  Y  Y10  1  0.858846  0.378481  0.656191  1
  Y  Y11  1  0.361303  0.377562  0.841391  1
  Y  Y12  1  0.855754  0.124286  0.657705  1
  Y  Y13  1  0.641857  0.873042  0.156496  1
  Y  Y14  1  0.142286  0.622680  0.345604  1
  Y  Y15  1  0.474060  0.600230  0.677625  1
  Y  Y16  1  0.806868  0.748023  0.495597  1
  Y  Y17  1  0.307707  0.747637  0.003175  1
  Y  Y18  1  0.192949  0.251398  0.505852  1
  Ho  Ho19  1  0.692427  0.250339  0.995000  1
  Pb  Pb20  1  0.692478  0.455450  0.953606  1
  Pb  Pb21  1  0.192460  0.045042  0.547059  1
  Pb  Pb22  1  0.306749  0.953610  0.044373  1
  Pb  Pb23  1  0.792475  0.547305  0.464143  1
  Pb  Pb24  1  0.308826  0.546113  0.038858  1
  Pb  Pb25  1  0.808916  0.954192  0.451144  1
  Pb  Pb26  1  0.693147  0.044881  0.954997  1
  Pb  Pb27  1  0.204013  0.459841  0.550002  1
  Pb  Pb28  1  0.447396  0.746995  0.369953  1
  Pb  Pb29  1  0.948722  0.748527  0.132975  1
  Pb  Pb30  1  0.553592  0.250877  0.632977  1
  Pb  Pb31  1  0.051041  0.252011  0.867409  1
  Pb  Pb32  1  0.664924  0.744421  0.847925  1
  Pb  Pb33  1  0.176793  0.748297  0.646614  1
  Pb  Pb34  1  0.329610  0.250717  0.146654  1
  Pb  Pb35  1  0.829330  0.250434  0.353149  1
