# generated using pymatgen
data_Tb10Al3GaRu6
_symmetry_space_group_name_H-M   'P 1'
_cell_length_a   8.37584851
_cell_length_b   8.37584779
_cell_length_c   8.37584982
_cell_angle_alpha   109.57128810
_cell_angle_beta   109.57128912
_cell_angle_gamma   109.57128664
_symmetry_Int_Tables_number   1
_chemical_formula_structural   Tb10Al3GaRu6
_chemical_formula_sum   'Tb10 Al3 Ga1 Ru6'
_cell_volume   450.65591065
_cell_formula_units_Z   1
loop_
 _symmetry_equiv_pos_site_id
 _symmetry_equiv_pos_as_xyz
  1  'x, y, z'
loop_
 _atom_site_type_symbol
 _atom_site_label
 _atom_site_symmetry_multiplicity
 _atom_site_fract_x
 _atom_site_fract_y
 _atom_site_fract_z
 _atom_site_occupancy
  Tb  Tb0  1  0.783879  0.783879  0.783879  1
  Tb  Tb1  1  0.318315  0.567395  0.749168  1
  Tb  Tb2  1  0.749168  0.318315  0.567395  1
  Tb  Tb3  1  0.567395  0.749168  0.318315  1
  Tb  Tb4  1  0.714161  0.499393  0.000248  1
  Tb  Tb5  1  0.000248  0.714161  0.499393  1
  Tb  Tb6  1  0.499393  0.000248  0.714161  1
  Tb  Tb7  1  0.250521  0.182481  0.932510  1
  Tb  Tb8  1  0.932510  0.250521  0.182481  1
  Tb  Tb9  1  0.182481  0.932510  0.250521  1
  Al  Al10  1  0.089380  0.500218  0.000030  1
  Al  Al11  1  0.000030  0.089380  0.500218  1
  Al  Al12  1  0.500218  0.000030  0.089380  1
  Ga  Ga13  1  0.412120  0.412120  0.412120  1
  Ru  Ru14  1  0.877904  0.127704  0.750149  1
  Ru  Ru15  1  0.750149  0.877904  0.127704  1
  Ru  Ru16  1  0.127704  0.750149  0.877904  1
  Ru  Ru17  1  0.249316  0.623529  0.371579  1
  Ru  Ru18  1  0.371579  0.249316  0.623529  1
  Ru  Ru19  1  0.623529  0.371579  0.249316  1
