# generated using pymatgen
data_Ho8Zn(Si4Pd)3
_symmetry_space_group_name_H-M   'P 1'
_cell_length_a   8.12869200
_cell_length_b   8.12869220
_cell_length_c   8.06064300
_cell_angle_alpha   90.00000000
_cell_angle_beta   90.00000000
_cell_angle_gamma   119.99999919
_symmetry_Int_Tables_number   1
_chemical_formula_structural   Ho8Zn(Si4Pd)3
_chemical_formula_sum   'Ho8 Zn1 Si12 Pd3'
_cell_volume   461.25561847
_cell_formula_units_Z   1
loop_
 _symmetry_equiv_pos_site_id
 _symmetry_equiv_pos_as_xyz
  1  'x, y, z'
loop_
 _atom_site_type_symbol
 _atom_site_label
 _atom_site_symmetry_multiplicity
 _atom_site_fract_x
 _atom_site_fract_y
 _atom_site_fract_z
 _atom_site_occupancy
  Ho  Ho0  1  0.502133  0.004265  0.251169  1
  Ho  Ho1  1  0.498016  0.996034  0.749092  1
  Ho  Ho2  1  0.995735  0.497867  0.251169  1
  Ho  Ho3  1  0.003966  0.501984  0.749092  1
  Ho  Ho4  1  0.502133  0.497867  0.251169  1
  Ho  Ho5  1  0.498016  0.501984  0.749092  1
  Ho  Ho6  1  0.000000  0.000000  0.249975  1
  Ho  Ho7  1  0.000000  0.000000  0.748461  1
  Zn  Zn8  1  0.333333  0.666667  0.013015  1
  Si  Si9  1  0.165452  0.330903  0.997581  1
  Si  Si10  1  0.833166  0.666333  0.000898  1
  Si  Si11  1  0.669097  0.834548  0.997581  1
  Si  Si12  1  0.834264  0.668528  0.501738  1
  Si  Si13  1  0.333667  0.166834  0.000898  1
  Si  Si14  1  0.165769  0.331537  0.497871  1
  Si  Si15  1  0.165452  0.834548  0.997581  1
  Si  Si16  1  0.331472  0.165736  0.501738  1
  Si  Si17  1  0.833166  0.166834  0.000898  1
  Si  Si18  1  0.668463  0.834231  0.497871  1
  Si  Si19  1  0.834264  0.165736  0.501738  1
  Si  Si20  1  0.165769  0.834231  0.497871  1
  Pd  Pd21  1  0.666667  0.333333  0.993017  1
  Pd  Pd22  1  0.666667  0.333333  0.505686  1
  Pd  Pd23  1  0.333333  0.666667  0.494800  1
