# generated using pymatgen
data_Er8Co(Si4Ni)3
_symmetry_space_group_name_H-M   'P 1'
_cell_length_a   7.92520500
_cell_length_b   7.92520437
_cell_length_c   7.96758000
_cell_angle_alpha   90.00000000
_cell_angle_beta   90.00000000
_cell_angle_gamma   119.99999010
_symmetry_Int_Tables_number   1
_chemical_formula_structural   Er8Co(Si4Ni)3
_chemical_formula_sum   'Er8 Co1 Si12 Ni3'
_cell_volume   433.38919849
_cell_formula_units_Z   1
loop_
 _symmetry_equiv_pos_site_id
 _symmetry_equiv_pos_as_xyz
  1  'x, y, z'
loop_
 _atom_site_type_symbol
 _atom_site_label
 _atom_site_symmetry_multiplicity
 _atom_site_fract_x
 _atom_site_fract_y
 _atom_site_fract_z
 _atom_site_occupancy
  Er  Er0  1  0.499175  0.998351  0.251802  1
  Er  Er1  1  0.499215  0.998428  0.748323  1
  Er  Er2  1  0.001649  0.500825  0.251802  1
  Er  Er3  1  0.001572  0.500785  0.748323  1
  Er  Er4  1  0.499175  0.500825  0.251802  1
  Er  Er5  1  0.499215  0.500785  0.748323  1
  Er  Er6  1  0.000000  0.000000  0.249461  1
  Er  Er7  1  0.000000  0.000000  0.750748  1
  Co  Co8  1  0.333333  0.666667  0.500481  1
  Si  Si9  1  0.170493  0.340985  0.000110  1
  Si  Si10  1  0.829165  0.658330  0.000125  1
  Si  Si11  1  0.659015  0.829507  0.000110  1
  Si  Si12  1  0.829526  0.659052  0.500106  1
  Si  Si13  1  0.341670  0.170835  0.000125  1
  Si  Si14  1  0.172259  0.344518  0.500008  1
  Si  Si15  1  0.170493  0.829507  0.000110  1
  Si  Si16  1  0.340948  0.170474  0.500106  1
  Si  Si17  1  0.829165  0.170835  0.000125  1
  Si  Si18  1  0.655482  0.827741  0.500008  1
  Si  Si19  1  0.829526  0.170474  0.500106  1
  Si  Si20  1  0.172259  0.827741  0.500008  1
  Ni  Ni21  1  0.333333  0.666667  0.998673  1
  Ni  Ni22  1  0.666667  0.333333  0.998996  1
  Ni  Ni23  1  0.666667  0.333333  0.500217  1
