# generated using pymatgen
data_Zr10Sn5Sb2
_symmetry_space_group_name_H-M   'P 1'
_cell_length_a   5.94033195
_cell_length_b   8.68864100
_cell_length_c   8.68179692
_cell_angle_alpha   120.02609068
_cell_angle_beta   89.91527422
_cell_angle_gamma   90.16929772
_symmetry_Int_Tables_number   1
_chemical_formula_structural   Zr10Sn5Sb2
_chemical_formula_sum   'Zr10 Sn5 Sb2'
_cell_volume   387.95976449
_cell_formula_units_Z   1
loop_
 _symmetry_equiv_pos_site_id
 _symmetry_equiv_pos_as_xyz
  1  'x, y, z'
loop_
 _atom_site_type_symbol
 _atom_site_label
 _atom_site_symmetry_multiplicity
 _atom_site_fract_x
 _atom_site_fract_y
 _atom_site_fract_z
 _atom_site_occupancy
  Zr  Zr0  1  0.499941  0.334508  0.667911  1
  Zr  Zr1  1  0.499941  0.666597  0.332089  1
  Zr  Zr2  1  0.000710  0.666606  0.332761  1
  Zr  Zr3  1  0.000710  0.333845  0.667239  1
  Zr  Zr4  1  0.771282  0.267503  0.000000  1
  Zr  Zr5  1  0.771101  0.734154  0.734810  1
  Zr  Zr6  1  0.771101  0.999343  0.265190  1
  Zr  Zr7  1  0.230090  0.732186  0.000000  1
  Zr  Zr8  1  0.227988  0.266159  0.266320  1
  Zr  Zr9  1  0.227988  0.999839  0.733680  1
  Sn  Sn10  1  0.744222  0.388478  0.388533  1
  Sn  Sn11  1  0.744222  0.999944  0.611467  1
  Sn  Sn12  1  0.255360  0.386469  0.000000  1
  Sn  Sn13  1  0.254867  0.611828  0.611077  1
  Sn  Sn14  1  0.254867  0.000751  0.388923  1
  Sb  Sb15  1  0.746601  0.611013  0.000000  1
  Sb  Sb16  1  0.499007  0.000780  0.000000  1
