# generated using pymatgen
data_TbErAl6(CdNi)2
_symmetry_space_group_name_H-M   'P 1'
_cell_length_a   8.17012542
_cell_length_b   8.17012586
_cell_length_c   6.63570300
_cell_angle_alpha   90.00000000
_cell_angle_beta   90.00000000
_cell_angle_gamma   150.89904931
_symmetry_Int_Tables_number   1
_chemical_formula_structural   TbErAl6(CdNi)2
_chemical_formula_sum   'Tb1 Er1 Al6 Cd2 Ni2'
_cell_volume   215.42357142
_cell_formula_units_Z   1
loop_
 _symmetry_equiv_pos_site_id
 _symmetry_equiv_pos_as_xyz
  1  'x, y, z'
loop_
 _atom_site_type_symbol
 _atom_site_label
 _atom_site_symmetry_multiplicity
 _atom_site_fract_x
 _atom_site_fract_y
 _atom_site_fract_z
 _atom_site_occupancy
  Tb  Tb0  1  0.124405  0.875595  0.750000  1
  Er  Er1  1  0.874876  0.125124  0.250000  1
  Al  Al2  1  0.309336  0.690664  0.552733  1
  Al  Al3  1  0.691258  0.308742  0.446685  1
  Al  Al4  1  0.691258  0.308742  0.053315  1
  Al  Al5  1  0.309336  0.690664  0.947267  1
  Al  Al6  1  0.920970  0.079030  0.750000  1
  Al  Al7  1  0.079142  0.920858  0.250000  1
  Cd  Cd8  1  0.499239  0.500761  0.001261  1
  Cd  Cd9  1  0.499239  0.500761  0.498739  1
  Ni  Ni10  1  0.226466  0.773534  0.250000  1
  Ni  Ni11  1  0.774477  0.225523  0.750000  1
