# generated using pymatgen
data_Tb2Y4TcSb2
_symmetry_space_group_name_H-M   'P 1'
_cell_length_a   8.23097816
_cell_length_b   8.24347322
_cell_length_c   4.25609700
_cell_angle_alpha   90.00000000
_cell_angle_beta   90.00000000
_cell_angle_gamma   120.05024062
_symmetry_Int_Tables_number   1
_chemical_formula_structural   Tb2Y4TcSb2
_chemical_formula_sum   'Tb2 Y4 Tc1 Sb2'
_cell_volume   249.96761263
_cell_formula_units_Z   1
loop_
 _symmetry_equiv_pos_site_id
 _symmetry_equiv_pos_as_xyz
  1  'x, y, z'
loop_
 _atom_site_type_symbol
 _atom_site_label
 _atom_site_symmetry_multiplicity
 _atom_site_fract_x
 _atom_site_fract_y
 _atom_site_fract_z
 _atom_site_occupancy
  Tb  Tb0  1  0.236623  0.999993  0.000000  1
  Tb  Tb1  1  0.763377  0.763371  0.000000  1
  Y  Y2  1  0.000000  0.600331  0.500000  1
  Y  Y3  1  0.399597  0.399574  0.500000  1
  Y  Y4  1  0.000000  0.237689  0.000000  1
  Y  Y5  1  0.600403  0.999976  0.500000  1
  Tc  Tc6  1  0.000000  0.999507  0.500000  1
  Sb  Sb7  1  0.332987  0.666273  0.000000  1
  Sb  Sb8  1  0.667013  0.333285  0.000000  1
