# generated using pymatgen
data_CeEr3(ZnRh)4
_symmetry_space_group_name_H-M   'P 1'
_cell_length_a   3.96945000
_cell_length_b   6.97933280
_cell_length_c   8.20385177
_cell_angle_alpha   90.63696488
_cell_angle_beta   90.00000000
_cell_angle_gamma   90.00000000
_symmetry_Int_Tables_number   1
_chemical_formula_structural   CeEr3(ZnRh)4
_chemical_formula_sum   'Ce1 Er3 Zn4 Rh4'
_cell_volume   227.26638821
_cell_formula_units_Z   1
loop_
 _symmetry_equiv_pos_site_id
 _symmetry_equiv_pos_as_xyz
  1  'x, y, z'
loop_
 _atom_site_type_symbol
 _atom_site_label
 _atom_site_symmetry_multiplicity
 _atom_site_fract_x
 _atom_site_fract_y
 _atom_site_fract_z
 _atom_site_occupancy
  Ce  Ce0  1  0.250000  0.541095  0.183107  1
  Er  Er1  1  0.750000  0.457215  0.810289  1
  Er  Er2  1  0.750000  0.953721  0.683885  1
  Er  Er3  1  0.250000  0.040927  0.318448  1
  Zn  Zn4  1  0.250000  0.632043  0.566157  1
  Zn  Zn5  1  0.750000  0.360228  0.442289  1
  Zn  Zn6  1  0.750000  0.878223  0.061883  1
  Zn  Zn7  1  0.250000  0.133670  0.934841  1
  Rh  Rh8  1  0.250000  0.752158  0.879313  1
  Rh  Rh9  1  0.750000  0.261255  0.125334  1
  Rh  Rh10  1  0.750000  0.742422  0.369772  1
  Rh  Rh11  1  0.250000  0.247044  0.624684  1
