# generated using pymatgen
data_Nd2Ga2PdPt
_symmetry_space_group_name_H-M   'P 1'
_cell_length_a   4.54312600
_cell_length_b   7.14054900
_cell_length_c   7.84800100
_cell_angle_alpha   90.00000000
_cell_angle_beta   90.00000000
_cell_angle_gamma   90.00000000
_symmetry_Int_Tables_number   1
_chemical_formula_structural   Nd2Ga2PdPt
_chemical_formula_sum   'Nd4 Ga4 Pd2 Pt2'
_cell_volume   254.59240007
_cell_formula_units_Z   2
loop_
 _symmetry_equiv_pos_site_id
 _symmetry_equiv_pos_as_xyz
  1  'x, y, z'
loop_
 _atom_site_type_symbol
 _atom_site_label
 _atom_site_symmetry_multiplicity
 _atom_site_fract_x
 _atom_site_fract_y
 _atom_site_fract_z
 _atom_site_occupancy
  Nd  Nd0  1  0.250000  0.022263  0.698006  1
  Nd  Nd1  1  0.250000  0.522263  0.801994  1
  Nd  Nd2  1  0.750000  0.981758  0.302349  1
  Nd  Nd3  1  0.750000  0.481758  0.197651  1
  Ga  Ga4  1  0.250000  0.172207  0.075250  1
  Ga  Ga5  1  0.250000  0.672207  0.424750  1
  Ga  Ga6  1  0.750000  0.828909  0.926353  1
  Ga  Ga7  1  0.750000  0.328909  0.573647  1
  Pd  Pd8  1  0.750000  0.714945  0.597293  1
  Pd  Pd9  1  0.750000  0.214945  0.902707  1
  Pt  Pt10  1  0.250000  0.279918  0.402571  1
  Pt  Pt11  1  0.250000  0.779918  0.097429  1
