# generated using pymatgen
data_Zr6Ti2Al14Os4Rh3Se
_symmetry_space_group_name_H-M   'P 1'
_cell_length_a   8.81764938
_cell_length_b   8.82525191
_cell_length_c   8.83193300
_cell_angle_alpha   120.07774816
_cell_angle_beta   119.66795971
_cell_angle_gamma   90.04856129
_symmetry_Int_Tables_number   1
_chemical_formula_structural   Zr6Ti2Al14Os4Rh3Se
_chemical_formula_sum   'Zr6 Ti2 Al14 Os4 Rh3 Se1'
_cell_volume   487.63434271
_cell_formula_units_Z   1
loop_
 _symmetry_equiv_pos_site_id
 _symmetry_equiv_pos_as_xyz
  1  'x, y, z'
loop_
 _atom_site_type_symbol
 _atom_site_label
 _atom_site_symmetry_multiplicity
 _atom_site_fract_x
 _atom_site_fract_y
 _atom_site_fract_z
 _atom_site_occupancy
  Zr  Zr0  1  0.786431  0.290697  0.081117  1
  Zr  Zr1  1  0.215670  0.296773  0.504521  1
  Zr  Zr2  1  0.211878  0.710861  0.508515  1
  Zr  Zr3  1  0.218160  0.715440  0.920123  1
  Zr  Zr4  1  0.792960  0.711603  0.496819  1
  Zr  Zr5  1  0.783030  0.283345  0.490718  1
  Ti  Ti6  1  0.377097  0.122403  0.742540  1
  Ti  Ti7  1  0.383738  0.636763  0.260301  1
  Al  Al8  1  0.161050  0.335187  0.169761  1
  Al  Al9  1  0.163789  0.996270  0.831461  1
  Al  Al10  1  0.160249  0.336668  0.827168  1
  Al  Al11  1  0.504901  0.335192  0.171581  1
  Al  Al12  1  0.835922  0.663806  0.828068  1
  Al  Al13  1  0.836942  0.002815  0.169190  1
  Al  Al14  1  0.835380  0.664179  0.167958  1
  Al  Al15  1  0.501583  0.666373  0.834022  1
  Al  Al16  1  0.380586  0.121653  0.261827  1
  Al  Al17  1  0.857566  0.120676  0.737586  1
  Al  Al18  1  0.620454  0.876812  0.257746  1
  Al  Al19  1  0.619441  0.360176  0.740486  1
  Al  Al20  1  0.616598  0.878106  0.737189  1
  Al  Al21  1  0.141537  0.878622  0.263294  1
  Os  Os22  1  0.001692  0.000381  0.502405  1
  Os  Os23  1  0.499440  0.001443  0.999534  1
  Os  Os24  1  0.498197  0.497483  0.999684  1
  Os  Os25  1  0.497592  0.500008  0.497413  1
  Rh  Rh26  1  0.000900  0.500272  0.000559  1
  Rh  Rh27  1  0.000134  0.000251  0.999259  1
  Rh  Rh28  1  0.498745  0.997875  0.498768  1
  Se  Se29  1  0.998335  0.497866  0.500384  1
