# generated using pymatgen
data_Li2TbSmSi4
_symmetry_space_group_name_H-M   'P 1'
_cell_length_a   3.82525400
_cell_length_b   7.62971955
_cell_length_c   10.27367252
_cell_angle_alpha   89.81399236
_cell_angle_beta   90.00000000
_cell_angle_gamma   90.00000000
_symmetry_Int_Tables_number   1
_chemical_formula_structural   Li2TbSmSi4
_chemical_formula_sum   'Li4 Tb2 Sm2 Si8'
_cell_volume   299.84187300
_cell_formula_units_Z   2
loop_
 _symmetry_equiv_pos_site_id
 _symmetry_equiv_pos_as_xyz
  1  'x, y, z'
loop_
 _atom_site_type_symbol
 _atom_site_label
 _atom_site_symmetry_multiplicity
 _atom_site_fract_x
 _atom_site_fract_y
 _atom_site_fract_z
 _atom_site_occupancy
  Li  Li0  1  0.250000  0.994193  0.390020  1
  Li  Li1  1  0.750000  0.005807  0.609980  1
  Li  Li2  1  0.250000  0.490906  0.108223  1
  Li  Li3  1  0.750000  0.509094  0.891777  1
  Tb  Tb4  1  0.250000  0.136172  0.864249  1
  Tb  Tb5  1  0.750000  0.863828  0.135751  1
  Sm  Sm6  1  0.250000  0.638601  0.636183  1
  Sm  Sm7  1  0.750000  0.361399  0.363817  1
  Si  Si8  1  0.750000  0.267943  0.066403  1
  Si  Si9  1  0.250000  0.732057  0.933597  1
  Si  Si10  1  0.750000  0.773592  0.428512  1
  Si  Si11  1  0.250000  0.226408  0.571488  1
  Si  Si12  1  0.750000  0.841267  0.823144  1
  Si  Si13  1  0.250000  0.158733  0.176856  1
  Si  Si14  1  0.750000  0.336920  0.681154  1
  Si  Si15  1  0.250000  0.663080  0.318846  1
