# generated using pymatgen
data_TbY8Tm11Bi12
_symmetry_space_group_name_H-M   'P 1'
_cell_length_a   8.22805528
_cell_length_b   9.45994046
_cell_length_c   12.04052939
_cell_angle_alpha   89.99671856
_cell_angle_beta   90.06154661
_cell_angle_gamma   89.97575714
_symmetry_Int_Tables_number   1
_chemical_formula_structural   TbY8Tm11Bi12
_chemical_formula_sum   'Tb1 Y8 Tm11 Bi12'
_cell_volume   937.19701380
_cell_formula_units_Z   1
loop_
 _symmetry_equiv_pos_site_id
 _symmetry_equiv_pos_as_xyz
  1  'x, y, z'
loop_
 _atom_site_type_symbol
 _atom_site_label
 _atom_site_symmetry_multiplicity
 _atom_site_fract_x
 _atom_site_fract_y
 _atom_site_fract_z
 _atom_site_occupancy
  Tb  Tb0  1  0.186223  0.749998  0.718534  1
  Y  Y1  1  0.686150  0.750039  0.781568  1
  Y  Y2  1  0.813832  0.249387  0.281122  1
  Y  Y3  1  0.313586  0.249802  0.218176  1
  Y  Y4  1  0.807834  0.437208  0.559357  1
  Y  Y5  1  0.353798  0.749820  0.216133  1
  Y  Y6  1  0.853413  0.749432  0.283727  1
  Y  Y7  1  0.645035  0.248850  0.784235  1
  Y  Y8  1  0.147118  0.249100  0.716475  1
  Tm  Tm9  1  0.024837  0.749778  0.989038  1
  Tm  Tm10  1  0.524308  0.749912  0.511155  1
  Tm  Tm11  1  0.975410  0.249837  0.011043  1
  Tm  Tm12  1  0.474439  0.249442  0.488904  1
  Tm  Tm13  1  0.307530  0.433946  0.940780  1
  Tm  Tm14  1  0.807459  0.066263  0.559595  1
  Tm  Tm15  1  0.692508  0.933918  0.059271  1
  Tm  Tm16  1  0.192313  0.566259  0.440640  1
  Tm  Tm17  1  0.692345  0.566153  0.059288  1
  Tm  Tm18  1  0.193198  0.934312  0.440302  1
  Tm  Tm19  1  0.307513  0.065910  0.940981  1
  Bi  Bi20  1  0.433987  0.003567  0.672428  1
  Bi  Bi21  1  0.934095  0.495640  0.828015  1
  Bi  Bi22  1  0.566052  0.503549  0.327479  1
  Bi  Bi23  1  0.066139  0.995648  0.172151  1
  Bi  Bi24  1  0.566033  0.995864  0.327695  1
  Bi  Bi25  1  0.066373  0.503894  0.171993  1
  Bi  Bi26  1  0.433495  0.495654  0.672491  1
  Bi  Bi27  1  0.933863  0.003907  0.827990  1
  Bi  Bi28  1  0.405855  0.749980  0.957613  1
  Bi  Bi29  1  0.906714  0.753215  0.541668  1
  Bi  Bi30  1  0.594336  0.250155  0.042694  1
  Bi  Bi31  1  0.094211  0.249561  0.457461  1
