# generated using pymatgen
data_Ca4SiNi3Br2
_symmetry_space_group_name_H-M   'P 1'
_cell_length_a   4.05113900
_cell_length_b   4.05113937
_cell_length_c   16.42792000
_cell_angle_alpha   90.00000000
_cell_angle_beta   90.00000000
_cell_angle_gamma   119.99998884
_symmetry_Int_Tables_number   1
_chemical_formula_structural   Ca4SiNi3Br2
_chemical_formula_sum   'Ca4 Si1 Ni3 Br2'
_cell_volume   233.48962540
_cell_formula_units_Z   1
loop_
 _symmetry_equiv_pos_site_id
 _symmetry_equiv_pos_as_xyz
  1  'x, y, z'
loop_
 _atom_site_type_symbol
 _atom_site_label
 _atom_site_symmetry_multiplicity
 _atom_site_fract_x
 _atom_site_fract_y
 _atom_site_fract_z
 _atom_site_occupancy
  Ca  Ca0  1  0.000000  0.000000  0.110553  1
  Ca  Ca1  1  0.000000  0.000000  0.889413  1
  Ca  Ca2  1  0.000000  0.000000  0.616220  1
  Ca  Ca3  1  0.000000  0.000000  0.384813  1
  Si  Si4  1  0.333333  0.666667  0.502043  1
  Ni  Ni5  1  0.666667  0.333333  0.497847  1
  Ni  Ni6  1  0.666667  0.333333  0.000924  1
  Ni  Ni7  1  0.333333  0.666667  0.998766  1
  Br  Br8  1  0.333333  0.666667  0.247799  1
  Br  Br9  1  0.666667  0.333333  0.751621  1
