# generated using pymatgen
data_Ca3LaAs3
_symmetry_space_group_name_H-M   'P 1'
_cell_length_a   7.86434977
_cell_length_b   7.86434932
_cell_length_c   7.89594500
_cell_angle_alpha   109.59294782
_cell_angle_beta   109.59294369
_cell_angle_gamma   109.39449902
_symmetry_Int_Tables_number   1
_chemical_formula_structural   Ca3LaAs3
_chemical_formula_sum   'Ca6 La2 As6'
_cell_volume   375.15408749
_cell_formula_units_Z   2
loop_
 _symmetry_equiv_pos_site_id
 _symmetry_equiv_pos_as_xyz
  1  'x, y, z'
loop_
 _atom_site_type_symbol
 _atom_site_label
 _atom_site_symmetry_multiplicity
 _atom_site_fract_x
 _atom_site_fract_y
 _atom_site_fract_z
 _atom_site_occupancy
  Ca  Ca0  1  0.997486  0.126541  0.493525  1
  Ca  Ca1  1  0.368810  0.364762  0.371706  1
  Ca  Ca2  1  0.626541  0.497486  0.993525  1
  Ca  Ca3  1  0.502761  0.006211  0.133784  1
  Ca  Ca4  1  0.864762  0.868810  0.871706  1
  Ca  Ca5  1  0.506211  0.002761  0.633784  1
  La  La6  1  0.999495  0.638571  0.501589  1
  La  La7  1  0.138571  0.499495  0.001589  1
  As  As8  1  0.876752  0.251771  0.125344  1
  As  As9  1  0.372425  0.625934  0.751429  1
  As  As10  1  0.125934  0.872425  0.251429  1
  As  As11  1  0.622276  0.746204  0.372622  1
  As  As12  1  0.246204  0.122276  0.872622  1
  As  As13  1  0.751771  0.376752  0.625344  1
