# generated using pymatgen
data_Ho2Be4ZnIr5
_symmetry_space_group_name_H-M   'P 1'
_cell_length_a   6.39979672
_cell_length_b   6.39979648
_cell_length_c   6.39934900
_cell_angle_alpha   129.33571553
_cell_angle_beta   113.05282405
_cell_angle_gamma   88.54618150
_symmetry_Int_Tables_number   1
_chemical_formula_structural   Ho2Be4ZnIr5
_chemical_formula_sum   'Ho2 Be4 Zn1 Ir5'
_cell_volume   177.15250603
_cell_formula_units_Z   1
loop_
 _symmetry_equiv_pos_site_id
 _symmetry_equiv_pos_as_xyz
  1  'x, y, z'
loop_
 _atom_site_type_symbol
 _atom_site_label
 _atom_site_symmetry_multiplicity
 _atom_site_fract_x
 _atom_site_fract_y
 _atom_site_fract_z
 _atom_site_occupancy
  Ho  Ho0  1  0.746774  0.013896  0.260668  1
  Ho  Ho1  1  0.253226  0.986104  0.739332  1
  Be  Be2  1  0.564112  0.360152  0.785116  1
  Be  Be3  1  0.075029  0.278999  0.214902  1
  Be  Be4  1  0.435888  0.639848  0.214884  1
  Be  Be5  1  0.924971  0.721001  0.785098  1
  Zn  Zn6  1  0.000000  0.500000  0.000000  1
  Ir  Ir7  1  0.774083  0.498629  0.265143  1
  Ir  Ir8  1  0.733484  0.008938  0.734857  1
  Ir  Ir9  1  0.225917  0.501371  0.734857  1
  Ir  Ir10  1  0.266516  0.991062  0.265143  1
  Ir  Ir11  1  0.500000  0.500000  0.500000  1
