# generated using pymatgen
data_Sc4Fe7Co(NiP)12
_symmetry_space_group_name_H-M   'P 1'
_cell_length_a   3.62517900
_cell_length_b   10.15592841
_cell_length_c   11.78886182
_cell_angle_alpha   89.64677932
_cell_angle_beta   90.00000000
_cell_angle_gamma   90.00000000
_symmetry_Int_Tables_number   1
_chemical_formula_structural   Sc4Fe7Co(NiP)12
_chemical_formula_sum   'Sc4 Fe7 Co1 Ni12 P12'
_cell_volume   434.02296619
_cell_formula_units_Z   1
loop_
 _symmetry_equiv_pos_site_id
 _symmetry_equiv_pos_as_xyz
  1  'x, y, z'
loop_
 _atom_site_type_symbol
 _atom_site_label
 _atom_site_symmetry_multiplicity
 _atom_site_fract_x
 _atom_site_fract_y
 _atom_site_fract_z
 _atom_site_occupancy
  Sc  Sc0  1  0.250000  0.576056  0.708198  1
  Sc  Sc1  1  0.250000  0.923901  0.207712  1
  Sc  Sc2  1  0.750000  0.423096  0.291081  1
  Sc  Sc3  1  0.750000  0.076481  0.794054  1
  Fe  Fe4  1  0.250000  0.873057  0.700769  1
  Fe  Fe5  1  0.250000  0.629096  0.201588  1
  Fe  Fe6  1  0.750000  0.128188  0.298761  1
  Fe  Fe7  1  0.750000  0.370920  0.797978  1
  Fe  Fe8  1  0.250000  0.459835  0.931064  1
  Fe  Fe9  1  0.250000  0.038498  0.433040  1
  Fe  Fe10  1  0.750000  0.540800  0.068461  1
  Co  Co11  1  0.750000  0.961919  0.569231  1
  Ni  Ni12  1  0.250000  0.715277  0.992664  1
  Ni  Ni13  1  0.250000  0.783563  0.492927  1
  Ni  Ni14  1  0.750000  0.284925  0.006944  1
  Ni  Ni15  1  0.750000  0.214137  0.509004  1
  Ni  Ni16  1  0.250000  0.409243  0.481474  1
  Ni  Ni17  1  0.250000  0.090121  0.982250  1
  Ni  Ni18  1  0.750000  0.590339  0.517956  1
  Ni  Ni19  1  0.750000  0.909407  0.017694  1
  Ni  Ni20  1  0.250000  0.227830  0.170885  1
  Ni  Ni21  1  0.250000  0.272044  0.670846  1
  Ni  Ni22  1  0.750000  0.772308  0.827654  1
  Ni  Ni23  1  0.750000  0.727876  0.329370  1
  P  P24  1  0.250000  0.434034  0.115623  1
  P  P25  1  0.250000  0.068317  0.615834  1
  P  P26  1  0.750000  0.566329  0.883953  1
  P  P27  1  0.750000  0.932907  0.383962  1
  P  P28  1  0.250000  0.263908  0.862553  1
  P  P29  1  0.250000  0.235223  0.362471  1
  P  P30  1  0.750000  0.736276  0.138016  1
  P  P31  1  0.750000  0.763964  0.636732  1
  P  P32  1  0.250000  0.601881  0.387221  1
  P  P33  1  0.250000  0.897920  0.886986  1
  P  P34  1  0.750000  0.398335  0.612231  1
  P  P35  1  0.750000  0.101989  0.112816  1
