# generated using pymatgen
data_La16Cd4Pt3Rh
_symmetry_space_group_name_H-M   'P 1'
_cell_length_a   10.18924054
_cell_length_b   10.18924096
_cell_length_c   10.18924156
_cell_angle_alpha   59.96907928
_cell_angle_beta   59.96907505
_cell_angle_gamma   59.96907993
_symmetry_Int_Tables_number   1
_chemical_formula_structural   La16Cd4Pt3Rh
_chemical_formula_sum   'La16 Cd4 Pt3 Rh1'
_cell_volume   747.49082822
_cell_formula_units_Z   1
loop_
 _symmetry_equiv_pos_site_id
 _symmetry_equiv_pos_as_xyz
  1  'x, y, z'
loop_
 _atom_site_type_symbol
 _atom_site_label
 _atom_site_symmetry_multiplicity
 _atom_site_fract_x
 _atom_site_fract_y
 _atom_site_fract_z
 _atom_site_occupancy
  La  La0  1  0.599578  0.599578  0.599578  1
  La  La1  1  0.597953  0.597953  0.202079  1
  La  La2  1  0.597953  0.202079  0.597953  1
  La  La3  1  0.202079  0.597953  0.597953  1
  La  La4  1  0.063630  0.440502  0.440502  1
  La  La5  1  0.442124  0.057886  0.057886  1
  La  La6  1  0.440502  0.063630  0.440502  1
  La  La7  1  0.057886  0.442124  0.057886  1
  La  La8  1  0.440502  0.440502  0.063630  1
  La  La9  1  0.057886  0.057886  0.442124  1
  La  La10  1  0.187353  0.813367  0.813367  1
  La  La11  1  0.811194  0.187180  0.187180  1
  La  La12  1  0.813367  0.187353  0.813367  1
  La  La13  1  0.187180  0.811194  0.187180  1
  La  La14  1  0.813367  0.813367  0.187353  1
  La  La15  1  0.187180  0.187180  0.811194  1
  Cd  Cd16  1  0.830495  0.830495  0.830495  1
  Cd  Cd17  1  0.830701  0.830701  0.508052  1
  Cd  Cd18  1  0.830701  0.508052  0.830701  1
  Cd  Cd19  1  0.508052  0.830701  0.830701  1
  Pt  Pt20  1  0.392834  0.392834  0.822477  1
  Pt  Pt21  1  0.392834  0.822477  0.392834  1
  Pt  Pt22  1  0.822477  0.392834  0.392834  1
  Rh  Rh23  1  0.392174  0.392174  0.392174  1
