# generated using pymatgen
data_Nd5DyTh2(ZnRh)8
_symmetry_space_group_name_H-M   'P 1'
_cell_length_a   3.95413000
_cell_length_b   7.44660801
_cell_length_c   16.56349201
_cell_angle_alpha   89.99524181
_cell_angle_beta   90.00000000
_cell_angle_gamma   90.00000000
_symmetry_Int_Tables_number   1
_chemical_formula_structural   Nd5DyTh2(ZnRh)8
_chemical_formula_sum   'Nd5 Dy1 Th2 Zn8 Rh8'
_cell_volume   487.70963746
_cell_formula_units_Z   1
loop_
 _symmetry_equiv_pos_site_id
 _symmetry_equiv_pos_as_xyz
  1  'x, y, z'
loop_
 _atom_site_type_symbol
 _atom_site_label
 _atom_site_symmetry_multiplicity
 _atom_site_fract_x
 _atom_site_fract_y
 _atom_site_fract_z
 _atom_site_occupancy
  Nd  Nd0  1  0.750000  0.947718  0.285942  1
  Nd  Nd1  1  0.750000  0.828733  0.063020  1
  Nd  Nd2  1  0.750000  0.445865  0.216123  1
  Nd  Nd3  1  0.250000  0.052312  0.713513  1
  Nd  Nd4  1  0.250000  0.552457  0.785200  1
  Dy  Dy5  1  0.750000  0.329814  0.437801  1
  Th  Th6  1  0.250000  0.171092  0.939840  1
  Th  Th7  1  0.250000  0.668984  0.558869  1
  Zn  Zn8  1  0.750000  0.012187  0.558184  1
  Zn  Zn9  1  0.250000  0.613328  0.349321  1
  Zn  Zn10  1  0.750000  0.379518  0.653512  1
  Zn  Zn11  1  0.250000  0.502126  0.060247  1
  Zn  Zn12  1  0.750000  0.510588  0.940177  1
  Zn  Zn13  1  0.250000  0.006471  0.440453  1
  Zn  Zn14  1  0.250000  0.118237  0.152532  1
  Zn  Zn15  1  0.750000  0.880082  0.845171  1
  Rh  Rh16  1  0.750000  0.742817  0.441265  1
  Rh  Rh17  1  0.250000  0.242945  0.315632  1
  Rh  Rh18  1  0.750000  0.247432  0.820802  1
  Rh  Rh19  1  0.750000  0.748255  0.678565  1
  Rh  Rh20  1  0.250000  0.256169  0.562776  1
  Rh  Rh21  1  0.250000  0.740656  0.188622  1
  Rh  Rh22  1  0.750000  0.247397  0.058402  1
  Rh  Rh23  1  0.250000  0.754819  0.934033  1
