# generated using pymatgen
data_Tm9Th(Al2Ru3)2
_symmetry_space_group_name_H-M   'P 1'
_cell_length_a   8.29113336
_cell_length_b   8.28716616
_cell_length_c   8.28716524
_cell_angle_alpha   109.36877672
_cell_angle_beta   109.39129651
_cell_angle_gamma   109.63428846
_symmetry_Int_Tables_number   1
_chemical_formula_structural   Tm9Th(Al2Ru3)2
_chemical_formula_sum   'Tm9 Th1 Al4 Ru6'
_cell_volume   438.43508881
_cell_formula_units_Z   1
loop_
 _symmetry_equiv_pos_site_id
 _symmetry_equiv_pos_as_xyz
  1  'x, y, z'
loop_
 _atom_site_type_symbol
 _atom_site_label
 _atom_site_symmetry_multiplicity
 _atom_site_fract_x
 _atom_site_fract_y
 _atom_site_fract_z
 _atom_site_occupancy
  Tm  Tm0  1  0.750000  0.819875  0.069875  1
  Tm  Tm1  1  0.430705  0.251474  0.680199  1
  Tm  Tm2  1  0.677776  0.430069  0.248907  1
  Tm  Tm3  1  0.069296  0.749495  0.820770  1
  Tm  Tm4  1  0.822224  0.071131  0.752292  1
  Tm  Tm5  1  0.213513  0.211176  0.212932  1
  Tm  Tm6  1  0.503467  0.001086  0.286753  1
  Tm  Tm7  1  0.286487  0.499421  0.997663  1
  Tm  Tm8  1  0.996534  0.283287  0.497621  1
  Th  Th9  1  0.250000  0.689469  0.439470  1
  Al  Al10  1  0.504242  0.006596  0.918151  1
  Al  Al11  1  0.595859  0.589172  0.590265  1
  Al  Al12  1  0.904141  0.494407  0.993312  1
  Al  Al13  1  0.995759  0.913909  0.502356  1
  Ru  Ru14  1  0.250001  0.123022  0.873022  1
  Ru  Ru15  1  0.750000  0.374257  0.624257  1
  Ru  Ru16  1  0.877275  0.249927  0.126460  1
  Ru  Ru17  1  0.126488  0.865708  0.253831  1
  Ru  Ru18  1  0.622724  0.749185  0.372650  1
  Ru  Ru19  1  0.373511  0.627342  0.739220  1
