# generated using pymatgen
data_RbP2OsPd
_symmetry_space_group_name_H-M   'P 1'
_cell_length_a   7.49892940
_cell_length_b   7.49892837
_cell_length_c   7.49893009
_cell_angle_alpha   149.09341927
_cell_angle_beta   149.09341786
_cell_angle_gamma   44.27381839
_symmetry_Int_Tables_number   1
_chemical_formula_structural   RbP2OsPd
_chemical_formula_sum   'Rb1 P2 Os1 Pd1'
_cell_volume   110.92850879
_cell_formula_units_Z   1
loop_
 _symmetry_equiv_pos_site_id
 _symmetry_equiv_pos_as_xyz
  1  'x, y, z'
loop_
 _atom_site_type_symbol
 _atom_site_label
 _atom_site_symmetry_multiplicity
 _atom_site_fract_x
 _atom_site_fract_y
 _atom_site_fract_z
 _atom_site_occupancy
  Rb  Rb0  1  0.000000  0.000000  0.000000  1
  P  P1  1  0.342706  0.342706  0.000000  1
  P  P2  1  0.657294  0.657294  0.000000  1
  Os  Os3  1  0.750000  0.250000  0.500000  1
  Pd  Pd4  1  0.250000  0.750000  0.500000  1
