# generated using pymatgen
data_La8DyHoIr4
_symmetry_space_group_name_H-M   'P 1'
_cell_length_a   6.71421766
_cell_length_b   7.30357126
_cell_length_c   9.12199733
_cell_angle_alpha   95.95348893
_cell_angle_beta   111.59376973
_cell_angle_gamma   90.00000357
_symmetry_Int_Tables_number   1
_chemical_formula_structural   La8DyHoIr4
_chemical_formula_sum   'La8 Dy1 Ho1 Ir4'
_cell_volume   413.33185087
_cell_formula_units_Z   1
loop_
 _symmetry_equiv_pos_site_id
 _symmetry_equiv_pos_as_xyz
  1  'x, y, z'
loop_
 _atom_site_type_symbol
 _atom_site_label
 _atom_site_symmetry_multiplicity
 _atom_site_fract_x
 _atom_site_fract_y
 _atom_site_fract_z
 _atom_site_occupancy
  La  La0  1  0.798832  0.083680  0.818815  1
  La  La1  1  0.980016  0.416320  0.181185  1
  La  La2  1  0.201237  0.916444  0.181216  1
  La  La3  1  0.020022  0.583556  0.818784  1
  La  La4  1  0.216035  0.185081  0.573363  1
  La  La5  1  0.642672  0.314919  0.426637  1
  La  La6  1  0.783959  0.814902  0.426729  1
  La  La7  1  0.357229  0.685098  0.573271  1
  Dy  Dy8  1  0.565952  0.750000  0.000000  1
  Ho  Ho9  1  0.434112  0.250000  0.000000  1
  Ir  Ir10  1  0.596703  0.426046  0.787519  1
  Ir  Ir11  1  0.809183  0.073954  0.212481  1
  Ir  Ir12  1  0.403260  0.573653  0.212472  1
  Ir  Ir13  1  0.190789  0.926347  0.787528  1
