# generated using pymatgen
data_Li4CeSm2Si3Ge
_symmetry_space_group_name_H-M   'P 1'
_cell_length_a   4.38054399
_cell_length_b   6.71298143
_cell_length_c   8.27585617
_cell_angle_alpha   113.92723992
_cell_angle_beta   105.34665214
_cell_angle_gamma   89.99999686
_symmetry_Int_Tables_number   1
_chemical_formula_structural   Li4CeSm2Si3Ge
_chemical_formula_sum   'Li4 Ce1 Sm2 Si3 Ge1'
_cell_volume   212.92114315
_cell_formula_units_Z   1
loop_
 _symmetry_equiv_pos_site_id
 _symmetry_equiv_pos_as_xyz
  1  'x, y, z'
loop_
 _atom_site_type_symbol
 _atom_site_label
 _atom_site_symmetry_multiplicity
 _atom_site_fract_x
 _atom_site_fract_y
 _atom_site_fract_z
 _atom_site_occupancy
  Li  Li0  1  0.669686  0.978232  0.339372  1
  Li  Li1  1  0.330065  0.018244  0.660129  1
  Li  Li2  1  0.330065  0.641886  0.660129  1
  Li  Li3  1  0.669686  0.361139  0.339372  1
  Ce  Ce4  1  0.868567  0.368567  0.737133  1
  Sm  Sm5  1  0.999660  0.999660  0.999321  1
  Sm  Sm6  1  0.131354  0.631354  0.262709  1
  Si  Si7  1  0.498827  0.676675  0.997655  1
  Si  Si8  1  0.498827  0.320980  0.997655  1
  Si  Si9  1  0.787883  0.787883  0.575767  1
  Ge  Ge10  1  0.215379  0.215379  0.430758  1
