# generated using pymatgen
data_Sc2Nb(TcP)3
_symmetry_space_group_name_H-M   'P 1'
_cell_length_a   6.74314529
_cell_length_b   6.74314558
_cell_length_c   3.36847700
_cell_angle_alpha   90.00000000
_cell_angle_beta   90.00000000
_cell_angle_gamma   118.72974111
_symmetry_Int_Tables_number   1
_chemical_formula_structural   Sc2Nb(TcP)3
_chemical_formula_sum   'Sc2 Nb1 Tc3 P3'
_cell_volume   134.30961704
_cell_formula_units_Z   1
loop_
 _symmetry_equiv_pos_site_id
 _symmetry_equiv_pos_as_xyz
  1  'x, y, z'
loop_
 _atom_site_type_symbol
 _atom_site_label
 _atom_site_symmetry_multiplicity
 _atom_site_fract_x
 _atom_site_fract_y
 _atom_site_fract_z
 _atom_site_occupancy
  Sc  Sc0  1  0.594838  0.995609  0.500000  1
  Sc  Sc1  1  0.995609  0.594838  0.500000  1
  Nb  Nb2  1  0.407126  0.407126  0.500000  1
  Tc  Tc3  1  0.000575  0.251675  0.000000  1
  Tc  Tc4  1  0.251675  0.000575  0.000000  1
  Tc  Tc5  1  0.750759  0.750759  0.000000  1
  P  P6  1  0.661701  0.332670  0.000000  1
  P  P7  1  0.332670  0.661701  0.000000  1
  P  P8  1  0.005048  0.005048  0.500000  1
