# generated using pymatgen
data_Zr6Ti4Ga5Ge
_symmetry_space_group_name_H-M   'P 1'
_cell_length_a   7.95009200
_cell_length_b   7.94835773
_cell_length_c   5.48333300
_cell_angle_alpha   90.00000000
_cell_angle_beta   90.00000000
_cell_angle_gamma   120.00721800
_symmetry_Int_Tables_number   1
_chemical_formula_structural   Zr6Ti4Ga5Ge
_chemical_formula_sum   'Zr6 Ti4 Ga5 Ge1'
_cell_volume   300.04971605
_cell_formula_units_Z   1
loop_
 _symmetry_equiv_pos_site_id
 _symmetry_equiv_pos_as_xyz
  1  'x, y, z'
loop_
 _atom_site_type_symbol
 _atom_site_label
 _atom_site_symmetry_multiplicity
 _atom_site_fract_x
 _atom_site_fract_y
 _atom_site_fract_z
 _atom_site_occupancy
  Zr  Zr0  1  0.245261  0.000000  0.250000  1
  Zr  Zr1  1  0.242996  0.243833  0.750000  1
  Zr  Zr2  1  0.999162  0.756167  0.750000  1
  Zr  Zr3  1  0.999920  0.244126  0.250000  1
  Zr  Zr4  1  0.755794  0.755874  0.250000  1
  Zr  Zr5  1  0.754322  0.000000  0.750000  1
  Ti  Ti6  1  0.666709  0.332295  0.000911  1
  Ti  Ti7  1  0.334413  0.667705  0.499089  1
  Ti  Ti8  1  0.666709  0.332295  0.499089  1
  Ti  Ti9  1  0.334413  0.667705  0.000911  1
  Ga  Ga10  1  0.399521  0.000000  0.750000  1
  Ga  Ga11  1  0.000066  0.599361  0.250000  1
  Ga  Ga12  1  0.000226  0.401678  0.750000  1
  Ga  Ga13  1  0.598548  0.598322  0.750000  1
  Ga  Ga14  1  0.400705  0.400639  0.250000  1
  Ge  Ge15  1  0.601235  0.000000  0.250000  1
