# generated using pymatgen
data_ErTm15(InCo)4
_symmetry_space_group_name_H-M   'P 1'
_cell_length_a   9.41993901
_cell_length_b   9.41993874
_cell_length_c   9.41993906
_cell_angle_alpha   60.01086029
_cell_angle_beta   60.01086381
_cell_angle_gamma   60.01085799
_symmetry_Int_Tables_number   1
_chemical_formula_structural   ErTm15(InCo)4
_chemical_formula_sum   'Er1 Tm15 In4 Co4'
_cell_volume   591.20239528
_cell_formula_units_Z   1
loop_
 _symmetry_equiv_pos_site_id
 _symmetry_equiv_pos_as_xyz
  1  'x, y, z'
loop_
 _atom_site_type_symbol
 _atom_site_label
 _atom_site_symmetry_multiplicity
 _atom_site_fract_x
 _atom_site_fract_y
 _atom_site_fract_z
 _atom_site_occupancy
  Er  Er0  1  0.346821  0.346821  0.346821  1
  Tm  Tm1  1  0.346752  0.346752  0.959769  1
  Tm  Tm2  1  0.346752  0.959769  0.346752  1
  Tm  Tm3  1  0.959769  0.346752  0.346752  1
  Tm  Tm4  1  0.811501  0.188633  0.188633  1
  Tm  Tm5  1  0.188742  0.811226  0.811226  1
  Tm  Tm6  1  0.188633  0.811501  0.188633  1
  Tm  Tm7  1  0.811226  0.188742  0.811226  1
  Tm  Tm8  1  0.188633  0.188633  0.811501  1
  Tm  Tm9  1  0.811226  0.811226  0.188742  1
  Tm  Tm10  1  0.939690  0.560285  0.560285  1
  Tm  Tm11  1  0.560080  0.939961  0.939961  1
  Tm  Tm12  1  0.560285  0.939690  0.560285  1
  Tm  Tm13  1  0.939961  0.560080  0.939961  1
  Tm  Tm14  1  0.560285  0.560285  0.939690  1
  Tm  Tm15  1  0.939961  0.939961  0.560080  1
  In  In16  1  0.583123  0.583123  0.583123  1
  In  In17  1  0.583078  0.583078  0.250678  1
  In  In18  1  0.583078  0.250678  0.583078  1
  In  In19  1  0.250678  0.583078  0.583078  1
  Co  Co20  1  0.140735  0.140735  0.140735  1
  Co  Co21  1  0.140386  0.140386  0.578216  1
  Co  Co22  1  0.140386  0.578216  0.140386  1
  Co  Co23  1  0.578216  0.140386  0.140386  1
