# generated using pymatgen
data_HoTm2Co(P3Rh4)2
_symmetry_space_group_name_H-M   'P 1'
_cell_length_a   3.84476900
_cell_length_b   11.10595200
_cell_length_c   12.74299700
_cell_angle_alpha   90.00000000
_cell_angle_beta   90.00000000
_cell_angle_gamma   90.00000000
_symmetry_Int_Tables_number   1
_chemical_formula_structural   HoTm2Co(P3Rh4)2
_chemical_formula_sum   'Ho2 Tm4 Co2 P12 Rh16'
_cell_volume   544.12367772
_cell_formula_units_Z   2
loop_
 _symmetry_equiv_pos_site_id
 _symmetry_equiv_pos_as_xyz
  1  'x, y, z'
loop_
 _atom_site_type_symbol
 _atom_site_label
 _atom_site_symmetry_multiplicity
 _atom_site_fract_x
 _atom_site_fract_y
 _atom_site_fract_z
 _atom_site_occupancy
  Ho  Ho0  1  0.000000  0.500000  0.522073  1
  Ho  Ho1  1  0.500000  0.000000  0.477927  1
  Tm  Tm2  1  0.500000  0.814963  0.201984  1
  Tm  Tm3  1  0.500000  0.185037  0.201984  1
  Tm  Tm4  1  0.000000  0.685037  0.798016  1
  Tm  Tm5  1  0.000000  0.314963  0.798016  1
  Co  Co6  1  0.000000  0.500000  0.978478  1
  Co  Co7  1  0.500000  0.000000  0.021522  1
  P  P8  1  0.500000  0.500000  0.880456  1
  P  P9  1  0.000000  0.000000  0.119544  1
  P  P10  1  0.500000  0.500000  0.352062  1
  P  P11  1  0.000000  0.000000  0.647938  1
  P  P12  1  0.500000  0.315956  0.619857  1
  P  P13  1  0.500000  0.684044  0.619857  1
  P  P14  1  0.000000  0.184044  0.380143  1
  P  P15  1  0.000000  0.815956  0.380143  1
  P  P16  1  0.500000  0.852928  0.895459  1
  P  P17  1  0.500000  0.147072  0.895459  1
  P  P18  1  0.000000  0.647072  0.104541  1
  P  P19  1  0.000000  0.352928  0.104541  1
  Rh  Rh20  1  0.500000  0.500000  0.167941  1
  Rh  Rh21  1  0.000000  0.000000  0.832059  1
  Rh  Rh22  1  0.500000  0.500000  0.702907  1
  Rh  Rh23  1  0.000000  0.000000  0.297093  1
  Rh  Rh24  1  0.500000  0.336650  0.993002  1
  Rh  Rh25  1  0.500000  0.663350  0.993002  1
  Rh  Rh26  1  0.000000  0.163350  0.006998  1
  Rh  Rh27  1  0.000000  0.836650  0.006998  1
  Rh  Rh28  1  0.500000  0.294798  0.430781  1
  Rh  Rh29  1  0.500000  0.705202  0.430781  1
  Rh  Rh30  1  0.000000  0.205202  0.569219  1
  Rh  Rh31  1  0.000000  0.794798  0.569219  1
  Rh  Rh32  1  0.500000  0.872164  0.712346  1
  Rh  Rh33  1  0.500000  0.127836  0.712346  1
  Rh  Rh34  1  0.000000  0.627836  0.287654  1
  Rh  Rh35  1  0.000000  0.372164  0.287654  1
