# generated using pymatgen
data_K2PaTe3
_symmetry_space_group_name_H-M   'P 1'
_cell_length_a   14.87307600
_cell_length_b   7.34865891
_cell_length_c   9.33446762
_cell_angle_alpha   73.58972640
_cell_angle_beta   90.00000000
_cell_angle_gamma   90.00000000
_symmetry_Int_Tables_number   1
_chemical_formula_structural   K2PaTe3
_chemical_formula_sum   'K8 Pa4 Te12'
_cell_volume   978.67002047
_cell_formula_units_Z   4
loop_
 _symmetry_equiv_pos_site_id
 _symmetry_equiv_pos_as_xyz
  1  'x, y, z'
loop_
 _atom_site_type_symbol
 _atom_site_label
 _atom_site_symmetry_multiplicity
 _atom_site_fract_x
 _atom_site_fract_y
 _atom_site_fract_z
 _atom_site_occupancy
  K  K0  1  0.965893  0.660286  0.662358  1
  K  K1  1  0.465893  0.839714  0.337642  1
  K  K2  1  0.034107  0.339714  0.337642  1
  K  K3  1  0.534107  0.160286  0.662358  1
  K  K4  1  0.866548  0.060227  0.895395  1
  K  K5  1  0.366548  0.439773  0.104605  1
  K  K6  1  0.133452  0.939773  0.104605  1
  K  K7  1  0.633452  0.560227  0.895395  1
  Pa  Pa8  1  0.750396  0.678566  0.292755  1
  Pa  Pa9  1  0.250396  0.821434  0.707245  1
  Pa  Pa10  1  0.249604  0.321434  0.707245  1
  Pa  Pa11  1  0.749604  0.178566  0.292755  1
  Te  Te12  1  0.916748  0.932454  0.281158  1
  Te  Te13  1  0.416748  0.567546  0.718842  1
  Te  Te14  1  0.083252  0.067546  0.718842  1
  Te  Te15  1  0.583252  0.432454  0.281158  1
  Te  Te16  1  0.822725  0.341616  0.537792  1
  Te  Te17  1  0.322725  0.158384  0.462208  1
  Te  Te18  1  0.177275  0.658384  0.462208  1
  Te  Te19  1  0.677275  0.841616  0.537792  1
  Te  Te20  1  0.844338  0.512293  0.059631  1
  Te  Te21  1  0.344338  0.987707  0.940369  1
  Te  Te22  1  0.155662  0.487707  0.940369  1
  Te  Te23  1  0.655662  0.012293  0.059631  1
