# generated using pymatgen
data_MnFe8Si3(Mo3N)4
_symmetry_space_group_name_H-M   'P 1'
_cell_length_a   7.84800774
_cell_length_b   7.84424553
_cell_length_c   7.84800700
_cell_angle_alpha   59.98413214
_cell_angle_beta   59.99999892
_cell_angle_gamma   59.98413007
_symmetry_Int_Tables_number   1
_chemical_formula_structural   MnFe8Si3(Mo3N)4
_chemical_formula_sum   'Mn1 Fe8 Si3 Mo12 N4'
_cell_volume   341.54723308
_cell_formula_units_Z   1
loop_
 _symmetry_equiv_pos_site_id
 _symmetry_equiv_pos_as_xyz
  1  'x, y, z'
loop_
 _atom_site_type_symbol
 _atom_site_label
 _atom_site_symmetry_multiplicity
 _atom_site_fract_x
 _atom_site_fract_y
 _atom_site_fract_z
 _atom_site_occupancy
  Mn  Mn0  1  0.125000  0.625000  0.125000  1
  Fe  Fe1  1  0.919294  0.917936  0.243475  1
  Fe  Fe2  1  0.243475  0.917936  0.919294  1
  Fe  Fe3  1  0.919041  0.242876  0.919041  1
  Fe  Fe4  1  0.330959  0.007124  0.330959  1
  Fe  Fe5  1  0.330706  0.332064  0.006525  1
  Fe  Fe6  1  0.330706  0.332064  0.330706  1
  Fe  Fe7  1  0.919294  0.917936  0.919294  1
  Fe  Fe8  1  0.006525  0.332064  0.330706  1
  Si  Si9  1  0.625000  0.125000  0.125000  1
  Si  Si10  1  0.125000  0.125000  0.625000  1
  Si  Si11  1  0.125000  0.125000  0.125000  1
  Mo  Mo12  1  0.554920  0.944858  0.945303  1
  Mo  Mo13  1  0.301585  0.697414  0.301585  1
  Mo  Mo14  1  0.945303  0.944858  0.554920  1
  Mo  Mo15  1  0.948415  0.552586  0.550584  1
  Mo  Mo16  1  0.695080  0.305142  0.695080  1
  Mo  Mo17  1  0.304697  0.305142  0.695080  1
  Mo  Mo18  1  0.695080  0.305142  0.304697  1
  Mo  Mo19  1  0.554920  0.944858  0.554920  1
  Mo  Mo20  1  0.301585  0.697414  0.699416  1
  Mo  Mo21  1  0.948415  0.552586  0.948415  1
  Mo  Mo22  1  0.550584  0.552586  0.948415  1
  Mo  Mo23  1  0.699416  0.697414  0.301585  1
  N  N24  1  0.625000  0.625000  0.625000  1
  N  N25  1  0.125000  0.625000  0.625000  1
  N  N26  1  0.625000  0.125000  0.625000  1
  N  N27  1  0.625000  0.625000  0.125000  1
