# generated using pymatgen
data_YbPrRh4
_symmetry_space_group_name_H-M   'P 1'
_cell_length_a   5.37461328
_cell_length_b   5.37461260
_cell_length_c   5.37461400
_cell_angle_alpha   60.00000369
_cell_angle_beta   60.00000785
_cell_angle_gamma   60.00000463
_symmetry_Int_Tables_number   1
_chemical_formula_structural   YbPrRh4
_chemical_formula_sum   'Yb1 Pr1 Rh4'
_cell_volume   109.78088326
_cell_formula_units_Z   1
loop_
 _symmetry_equiv_pos_site_id
 _symmetry_equiv_pos_as_xyz
  1  'x, y, z'
loop_
 _atom_site_type_symbol
 _atom_site_label
 _atom_site_symmetry_multiplicity
 _atom_site_fract_x
 _atom_site_fract_y
 _atom_site_fract_z
 _atom_site_occupancy
  Yb  Yb0  1  0.750000  0.750000  0.750000  1
  Pr  Pr1  1  0.500000  0.500000  0.500000  1
  Rh  Rh2  1  0.124766  0.124766  0.625702  1
  Rh  Rh3  1  0.124766  0.625702  0.124766  1
  Rh  Rh4  1  0.124766  0.124766  0.124766  1
  Rh  Rh5  1  0.625702  0.124766  0.124766  1
