# generated using pymatgen
data_Sr3Ca4Er(Si3Pd)4
_symmetry_space_group_name_H-M   'P 1'
_cell_length_a   8.31194400
_cell_length_b   8.31194430
_cell_length_c   8.60193300
_cell_angle_alpha   90.00000000
_cell_angle_beta   90.00000000
_cell_angle_gamma   119.99999882
_symmetry_Int_Tables_number   1
_chemical_formula_structural   Sr3Ca4Er(Si3Pd)4
_chemical_formula_sum   'Sr3 Ca4 Er1 Si12 Pd4'
_cell_volume   514.67363929
_cell_formula_units_Z   1
loop_
 _symmetry_equiv_pos_site_id
 _symmetry_equiv_pos_as_xyz
  1  'x, y, z'
loop_
 _atom_site_type_symbol
 _atom_site_label
 _atom_site_symmetry_multiplicity
 _atom_site_fract_x
 _atom_site_fract_y
 _atom_site_fract_z
 _atom_site_occupancy
  Sr  Sr0  1  0.500329  0.000659  0.250000  1
  Sr  Sr1  1  0.999341  0.499671  0.250000  1
  Sr  Sr2  1  0.500329  0.499671  0.250000  1
  Ca  Ca3  1  0.499546  0.999091  0.750000  1
  Ca  Ca4  1  0.000909  0.500454  0.750000  1
  Ca  Ca5  1  0.499546  0.500454  0.750000  1
  Ca  Ca6  1  0.000000  0.000000  0.250000  1
  Er  Er7  1  0.000000  0.000000  0.750000  1
  Si  Si8  1  0.163791  0.327582  0.987186  1
  Si  Si9  1  0.836177  0.672353  0.986573  1
  Si  Si10  1  0.672418  0.836209  0.987186  1
  Si  Si11  1  0.836177  0.672353  0.513427  1
  Si  Si12  1  0.327647  0.163823  0.986573  1
  Si  Si13  1  0.163791  0.327582  0.512814  1
  Si  Si14  1  0.163791  0.836209  0.987186  1
  Si  Si15  1  0.327647  0.163823  0.513427  1
  Si  Si16  1  0.836177  0.163823  0.986573  1
  Si  Si17  1  0.672418  0.836209  0.512814  1
  Si  Si18  1  0.836177  0.163823  0.513427  1
  Si  Si19  1  0.163791  0.836209  0.512814  1
  Pd  Pd20  1  0.333333  0.666667  0.988533  1
  Pd  Pd21  1  0.666667  0.333333  0.986848  1
  Pd  Pd22  1  0.666667  0.333333  0.513152  1
  Pd  Pd23  1  0.333333  0.666667  0.511467  1
