# generated using pymatgen
data_Zr10AlSb5
_symmetry_space_group_name_H-M   'P 1'
_cell_length_a   5.58779490
_cell_length_b   8.42011041
_cell_length_c   8.42011021
_cell_angle_alpha   96.32105678
_cell_angle_beta   109.37882697
_cell_angle_gamma   70.62117472
_symmetry_Int_Tables_number   1
_chemical_formula_structural   Zr10AlSb5
_chemical_formula_sum   'Zr10 Al1 Sb5'
_cell_volume   352.54733851
_cell_formula_units_Z   1
loop_
 _symmetry_equiv_pos_site_id
 _symmetry_equiv_pos_as_xyz
  1  'x, y, z'
loop_
 _atom_site_type_symbol
 _atom_site_label
 _atom_site_symmetry_multiplicity
 _atom_site_fract_x
 _atom_site_fract_y
 _atom_site_fract_z
 _atom_site_occupancy
  Zr  Zr0  1  0.417466  0.858412  0.705875  1
  Zr  Zr1  1  0.570003  0.141588  0.294125  1
  Zr  Zr2  1  0.929997  0.294125  0.141588  1
  Zr  Zr3  1  0.082534  0.705875  0.858412  1
  Zr  Zr4  1  0.711591  0.705875  0.141588  1
  Zr  Zr5  1  0.275878  0.294125  0.858412  1
  Zr  Zr6  1  0.788409  0.141588  0.705875  1
  Zr  Zr7  1  0.224122  0.858412  0.294125  1
  Zr  Zr8  1  0.250000  0.500000  0.500000  1
  Zr  Zr9  1  0.750000  0.500000  0.500000  1
  Al  Al10  1  0.250000  0.000000  0.000000  1
  Sb  Sb11  1  0.336188  0.500000  0.172376  1
  Sb  Sb12  1  0.663812  0.500000  0.827624  1
  Sb  Sb13  1  0.836188  0.827624  0.500000  1
  Sb  Sb14  1  0.163812  0.172376  0.500000  1
  Sb  Sb15  1  0.750000  0.000000  0.000000  1
