# generated using pymatgen
data_Y8Ho4ZnCo4Sn
_symmetry_space_group_name_H-M   'P 1'
_cell_length_a   8.33424565
_cell_length_b   8.33424587
_cell_length_c   8.33424564
_cell_angle_alpha   111.82946931
_cell_angle_beta   109.14977519
_cell_angle_gamma   107.46457295
_symmetry_Int_Tables_number   1
_chemical_formula_structural   Y8Ho4ZnCo4Sn
_chemical_formula_sum   'Y8 Ho4 Zn1 Co4 Sn1'
_cell_volume   444.97165445
_cell_formula_units_Z   1
loop_
 _symmetry_equiv_pos_site_id
 _symmetry_equiv_pos_as_xyz
  1  'x, y, z'
loop_
 _atom_site_type_symbol
 _atom_site_label
 _atom_site_symmetry_multiplicity
 _atom_site_fract_x
 _atom_site_fract_y
 _atom_site_fract_z
 _atom_site_occupancy
  Y  Y0  1  0.428500  0.228437  0.200063  1
  Y  Y1  1  0.571500  0.771563  0.799937  1
  Y  Y2  1  0.028374  0.228437  0.799937  1
  Y  Y3  1  0.971626  0.771563  0.200063  1
  Y  Y4  1  0.182028  0.283658  0.465684  1
  Y  Y5  1  0.817972  0.716342  0.534316  1
  Y  Y6  1  0.182028  0.716342  0.898370  1
  Y  Y7  1  0.817972  0.283658  0.101630  1
  Ho  Ho8  1  0.324046  0.636473  0.312428  1
  Ho  Ho9  1  0.675954  0.363527  0.687572  1
  Ho  Ho10  1  0.324046  0.011617  0.687572  1
  Ho  Ho11  1  0.675954  0.988383  0.312428  1
  Zn  Zn12  1  0.000000  0.000000  0.000000  1
  Co  Co13  1  0.350234  0.000000  0.350234  1
  Co  Co14  1  0.649766  0.000000  0.649766  1
  Co  Co15  1  0.114258  0.614258  0.500000  1
  Co  Co16  1  0.885742  0.385742  0.500000  1
  Sn  Sn17  1  0.500000  0.500000  0.000000  1
