# generated using pymatgen
data_Yb11Pr(ErSi2)8
_symmetry_space_group_name_H-M   'P 1'
_cell_length_a   7.37386884
_cell_length_b   7.80238873
_cell_length_c   15.03780621
_cell_angle_alpha   90.08705662
_cell_angle_beta   90.10950867
_cell_angle_gamma   90.04043007
_symmetry_Int_Tables_number   1
_chemical_formula_structural   Yb11Pr(ErSi2)8
_chemical_formula_sum   'Yb11 Pr1 Er8 Si16'
_cell_volume   865.17920508
_cell_formula_units_Z   1
loop_
 _symmetry_equiv_pos_site_id
 _symmetry_equiv_pos_as_xyz
  1  'x, y, z'
loop_
 _atom_site_type_symbol
 _atom_site_label
 _atom_site_symmetry_multiplicity
 _atom_site_fract_x
 _atom_site_fract_y
 _atom_site_fract_z
 _atom_site_occupancy
  Yb  Yb0  1  0.474227  0.682687  0.095118  1
  Yb  Yb1  1  0.525431  0.316182  0.596599  1
  Yb  Yb2  1  0.026534  0.183012  0.904250  1
  Yb  Yb3  1  0.026579  0.182842  0.596363  1
  Yb  Yb4  1  0.526377  0.316689  0.904190  1
  Yb  Yb5  1  0.473260  0.682055  0.404184  1
  Yb  Yb6  1  0.973595  0.817302  0.096547  1
  Yb  Yb7  1  0.352487  0.020407  0.750216  1
  Yb  Yb8  1  0.852299  0.478923  0.750383  1
  Yb  Yb9  1  0.149653  0.518354  0.248179  1
  Yb  Yb10  1  0.645372  0.981780  0.248119  1
  Pr  Pr11  1  0.973381  0.818565  0.403550  1
  Er  Er12  1  0.315220  0.177418  0.120577  1
  Er  Er13  1  0.815689  0.321787  0.378419  1
  Er  Er14  1  0.185663  0.676740  0.878882  1
  Er  Er15  1  0.684638  0.822234  0.621821  1
  Er  Er16  1  0.316086  0.179850  0.378952  1
  Er  Er17  1  0.813733  0.323679  0.120975  1
  Er  Er18  1  0.185190  0.676441  0.622530  1
  Er  Er19  1  0.685678  0.822959  0.878817  1
  Si  Si20  1  0.855344  0.532875  0.537437  1
  Si  Si21  1  0.356483  0.966301  0.961830  1
  Si  Si22  1  0.643838  0.031638  0.461608  1
  Si  Si23  1  0.143234  0.467056  0.038429  1
  Si  Si24  1  0.142367  0.469477  0.461750  1
  Si  Si25  1  0.643559  0.033226  0.038292  1
  Si  Si26  1  0.353757  0.965241  0.537049  1
  Si  Si27  1  0.856333  0.533278  0.961926  1
  Si  Si28  1  0.977917  0.882403  0.750379  1
  Si  Si29  1  0.478094  0.617528  0.750059  1
  Si  Si30  1  0.524431  0.382503  0.250625  1
  Si  Si31  1  0.022558  0.116576  0.250674  1
  Si  Si32  1  0.248781  0.394910  0.750175  1
  Si  Si33  1  0.748907  0.104224  0.749735  1
  Si  Si34  1  0.250414  0.895192  0.250365  1
  Si  Si35  1  0.752892  0.607666  0.250997  1
