# generated using pymatgen
data_Pa8Si15Pd
_symmetry_space_group_name_H-M   'P 1'
_cell_length_a   8.13870200
_cell_length_b   8.13870450
_cell_length_c   7.86653200
_cell_angle_alpha   90.00000000
_cell_angle_beta   90.00000000
_cell_angle_gamma   119.99999795
_symmetry_Int_Tables_number   1
_chemical_formula_structural   Pa8Si15Pd
_chemical_formula_sum   'Pa8 Si15 Pd1'
_cell_volume   451.25744691
_cell_formula_units_Z   1
loop_
 _symmetry_equiv_pos_site_id
 _symmetry_equiv_pos_as_xyz
  1  'x, y, z'
loop_
 _atom_site_type_symbol
 _atom_site_label
 _atom_site_symmetry_multiplicity
 _atom_site_fract_x
 _atom_site_fract_y
 _atom_site_fract_z
 _atom_site_occupancy
  Pa  Pa0  1  0.496608  0.503392  0.754076  1
  Pa  Pa1  1  0.496599  0.503401  0.245931  1
  Pa  Pa2  1  0.006783  0.503392  0.754076  1
  Pa  Pa3  1  0.006804  0.503401  0.245931  1
  Pa  Pa4  1  0.496608  0.993217  0.754076  1
  Pa  Pa5  1  0.496599  0.993196  0.245931  1
  Pa  Pa6  1  0.000000  0.000000  0.752050  1
  Pa  Pa7  1  0.000000  0.000000  0.247983  1
  Si  Si8  1  0.832856  0.167144  0.999897  1
  Si  Si9  1  0.166542  0.833458  0.000104  1
  Si  Si10  1  0.334288  0.167144  0.999897  1
  Si  Si11  1  0.168351  0.831649  0.499887  1
  Si  Si12  1  0.666917  0.833458  0.000104  1
  Si  Si13  1  0.836422  0.163578  0.500150  1
  Si  Si14  1  0.832856  0.665712  0.999897  1
  Si  Si15  1  0.663297  0.831649  0.499887  1
  Si  Si16  1  0.166542  0.333083  0.000104  1
  Si  Si17  1  0.327155  0.163578  0.500150  1
  Si  Si18  1  0.168351  0.336703  0.499887  1
  Si  Si19  1  0.836422  0.672845  0.500150  1
  Si  Si20  1  0.666667  0.333333  0.000112  1
  Si  Si21  1  0.333333  0.666667  0.999917  1
  Si  Si22  1  0.333333  0.666667  0.500095  1
  Pd  Pd23  1  0.666667  0.333333  0.499704  1
