# generated using pymatgen
data_BaPuO4
_symmetry_space_group_name_H-M   'P 1'
_cell_length_a   5.79422200
_cell_length_b   8.18369200
_cell_length_c   8.25295300
_cell_angle_alpha   90.00000000
_cell_angle_beta   90.00000000
_cell_angle_gamma   90.00000000
_symmetry_Int_Tables_number   1
_chemical_formula_structural   BaPuO4
_chemical_formula_sum   'Ba4 Pu4 O16'
_cell_volume   391.33958361
_cell_formula_units_Z   4
loop_
 _symmetry_equiv_pos_site_id
 _symmetry_equiv_pos_as_xyz
  1  'x, y, z'
loop_
 _atom_site_type_symbol
 _atom_site_label
 _atom_site_symmetry_multiplicity
 _atom_site_fract_x
 _atom_site_fract_y
 _atom_site_fract_z
 _atom_site_occupancy
  Ba  Ba0  1  0.478051  0.195579  0.250000  1
  Ba  Ba1  1  0.478051  0.304421  0.750000  1
  Ba  Ba2  1  0.521949  0.695579  0.250000  1
  Ba  Ba3  1  0.521949  0.804421  0.750000  1
  Pu  Pu4  1  0.000000  0.000000  0.000000  1
  Pu  Pu5  1  0.000000  0.500000  0.000000  1
  Pu  Pu6  1  0.000000  0.500000  0.500000  1
  Pu  Pu7  1  0.000000  0.000000  0.500000  1
  O  O8  1  0.118324  0.974503  0.750000  1
  O  O9  1  0.118324  0.525497  0.250000  1
  O  O10  1  0.881676  0.474503  0.750000  1
  O  O11  1  0.881676  0.025497  0.250000  1
  O  O12  1  0.147002  0.250000  0.500000  1
  O  O13  1  0.852998  0.750000  0.000000  1
  O  O14  1  0.852998  0.750000  0.500000  1
  O  O15  1  0.147002  0.250000  0.000000  1
  O  O16  1  0.292947  0.926003  0.068016  1
  O  O17  1  0.292947  0.573997  0.931984  1
  O  O18  1  0.707053  0.426003  0.431984  1
  O  O19  1  0.707053  0.073997  0.568016  1
  O  O20  1  0.707053  0.073997  0.931984  1
  O  O21  1  0.707053  0.426003  0.068016  1
  O  O22  1  0.292947  0.573997  0.568016  1
  O  O23  1  0.292947  0.926003  0.431984  1
