# generated using pymatgen
data_Sm2Zn2Ga7Pd3
_symmetry_space_group_name_H-M   'P 1'
_cell_length_a   7.67310002
_cell_length_b   7.70526775
_cell_length_c   9.59126600
_cell_angle_alpha   90.00000000
_cell_angle_beta   90.00000000
_cell_angle_gamma   119.35919444
_symmetry_Int_Tables_number   1
_chemical_formula_structural   Sm2Zn2Ga7Pd3
_chemical_formula_sum   'Sm4 Zn4 Ga14 Pd6'
_cell_volume   494.23491008
_cell_formula_units_Z   2
loop_
 _symmetry_equiv_pos_site_id
 _symmetry_equiv_pos_as_xyz
  1  'x, y, z'
loop_
 _atom_site_type_symbol
 _atom_site_label
 _atom_site_symmetry_multiplicity
 _atom_site_fract_x
 _atom_site_fract_y
 _atom_site_fract_z
 _atom_site_occupancy
  Sm  Sm0  1  0.995679  0.670250  0.250000  1
  Sm  Sm1  1  0.004321  0.329750  0.750000  1
  Sm  Sm2  1  0.672725  0.998121  0.250000  1
  Sm  Sm3  1  0.327275  0.001879  0.750000  1
  Zn  Zn4  1  0.138734  0.137994  0.250000  1
  Zn  Zn5  1  0.861266  0.862006  0.750000  1
  Zn  Zn6  1  0.342183  0.543729  0.250000  1
  Zn  Zn7  1  0.657817  0.456271  0.750000  1
  Ga  Ga8  1  0.009742  0.336660  0.084735  1
  Ga  Ga9  1  0.990258  0.663340  0.915265  1
  Ga  Ga10  1  0.990258  0.663340  0.584735  1
  Ga  Ga11  1  0.333027  0.002040  0.416323  1
  Ga  Ga12  1  0.009742  0.336660  0.415265  1
  Ga  Ga13  1  0.666973  0.997960  0.583677  1
  Ga  Ga14  1  0.666973  0.997960  0.916323  1
  Ga  Ga15  1  0.333027  0.002040  0.083677  1
  Ga  Ga16  1  0.336813  0.333760  0.562898  1
  Ga  Ga17  1  0.663187  0.666240  0.437102  1
  Ga  Ga18  1  0.663187  0.666240  0.062898  1
  Ga  Ga19  1  0.336813  0.333760  0.937102  1
  Ga  Ga20  1  0.538528  0.341895  0.250000  1
  Ga  Ga21  1  0.461472  0.658105  0.750000  1
  Pd  Pd22  1  0.674800  0.325847  0.003473  1
  Pd  Pd23  1  0.325200  0.674153  0.996527  1
  Pd  Pd24  1  0.325200  0.674153  0.503473  1
  Pd  Pd25  1  0.674800  0.325847  0.496527  1
  Pd  Pd26  1  0.000000  0.000000  0.000000  1
  Pd  Pd27  1  0.000000  0.000000  0.500000  1
