# generated using pymatgen
data_Zr4Rh2O
_symmetry_space_group_name_H-M   'P 1'
_cell_length_a   8.83614578
_cell_length_b   8.83611086
_cell_length_c   8.83614800
_cell_angle_alpha   60.00028210
_cell_angle_beta   60.00016582
_cell_angle_gamma   59.99983482
_symmetry_Int_Tables_number   1
_chemical_formula_structural   Zr4Rh2O
_chemical_formula_sum   'Zr16 Rh8 O4'
_cell_volume   487.83498188
_cell_formula_units_Z   4
loop_
 _symmetry_equiv_pos_site_id
 _symmetry_equiv_pos_as_xyz
  1  'x, y, z'
loop_
 _atom_site_type_symbol
 _atom_site_label
 _atom_site_symmetry_multiplicity
 _atom_site_fract_x
 _atom_site_fract_y
 _atom_site_fract_z
 _atom_site_occupancy
  Zr  Zr0  1  0.059162  0.690854  0.690870  1
  Zr  Zr1  1  0.309151  0.940881  0.940810  1
  Zr  Zr2  1  0.690848  0.059134  0.690857  1
  Zr  Zr3  1  0.690872  0.690865  0.059167  1
  Zr  Zr4  1  0.059201  0.059126  0.690833  1
  Zr  Zr5  1  0.059136  0.690841  0.059159  1
  Zr  Zr6  1  0.309168  0.940896  0.309163  1
  Zr  Zr7  1  0.940880  0.309144  0.940842  1
  Zr  Zr8  1  0.500007  0.500035  0.500018  1
  Zr  Zr9  1  0.499960  0.499987  0.000005  1
  Zr  Zr10  1  0.000012  0.499981  0.499965  1
  Zr  Zr11  1  0.499971  0.999990  0.499979  1
  Zr  Zr12  1  0.940896  0.309161  0.309141  1
  Zr  Zr13  1  0.309138  0.309153  0.940881  1
  Zr  Zr14  1  0.940824  0.940855  0.309155  1
  Zr  Zr15  1  0.690838  0.059107  0.059204  1
  Rh  Rh16  1  0.719057  0.719102  0.342773  1
  Rh  Rh17  1  0.280918  0.280892  0.280939  1
  Rh  Rh18  1  0.719064  0.342817  0.719044  1
  Rh  Rh19  1  0.342786  0.719103  0.719042  1
  Rh  Rh20  1  0.280909  0.657200  0.280934  1
  Rh  Rh21  1  0.719055  0.719102  0.719040  1
  Rh  Rh22  1  0.280921  0.280892  0.657224  1
  Rh  Rh23  1  0.657208  0.280887  0.280942  1
  O  O24  1  0.000006  0.500001  0.000005  1
  O  O25  1  0.500000  0.000003  0.000006  1
  O  O26  1  0.000007  0.000002  0.500000  1
  O  O27  1  0.000003  0.999997  0.000001  1
