# generated using pymatgen
data_Pa4Tc3Sn2Rh
_symmetry_space_group_name_H-M   'P 1'
_cell_length_a   7.62455293
_cell_length_b   7.62455293
_cell_length_c   3.64206700
_cell_angle_alpha   90.00000000
_cell_angle_beta   90.00000000
_cell_angle_gamma   90.52141269
_symmetry_Int_Tables_number   1
_chemical_formula_structural   Pa4Tc3Sn2Rh
_chemical_formula_sum   'Pa4 Tc3 Sn2 Rh1'
_cell_volume   211.71845423
_cell_formula_units_Z   1
loop_
 _symmetry_equiv_pos_site_id
 _symmetry_equiv_pos_as_xyz
  1  'x, y, z'
loop_
 _atom_site_type_symbol
 _atom_site_label
 _atom_site_symmetry_multiplicity
 _atom_site_fract_x
 _atom_site_fract_y
 _atom_site_fract_z
 _atom_site_occupancy
  Pa  Pa0  1  0.338506  0.161494  0.500000  1
  Pa  Pa1  1  0.667245  0.832755  0.500000  1
  Pa  Pa2  1  0.162690  0.673039  0.500000  1
  Pa  Pa3  1  0.826961  0.337310  0.500000  1
  Tc  Tc4  1  0.639886  0.139938  0.000000  1
  Tc  Tc5  1  0.868330  0.631670  0.000000  1
  Tc  Tc6  1  0.360062  0.860114  0.000000  1
  Sn  Sn7  1  0.999563  0.001913  0.000000  1
  Sn  Sn8  1  0.498087  0.500437  0.000000  1
  Rh  Rh9  1  0.138670  0.361330  0.000000  1
