# generated using pymatgen
data_GdTcCl
_symmetry_space_group_name_H-M   'P 1'
_cell_length_a   4.07763300
_cell_length_b   4.07763345
_cell_length_c   11.10647000
_cell_angle_alpha   90.00000000
_cell_angle_beta   90.00000000
_cell_angle_gamma   120.00000444
_symmetry_Int_Tables_number   1
_chemical_formula_structural   GdTcCl
_chemical_formula_sum   'Gd2 Tc2 Cl2'
_cell_volume   159.92743764
_cell_formula_units_Z   2
loop_
 _symmetry_equiv_pos_site_id
 _symmetry_equiv_pos_as_xyz
  1  'x, y, z'
loop_
 _atom_site_type_symbol
 _atom_site_label
 _atom_site_symmetry_multiplicity
 _atom_site_fract_x
 _atom_site_fract_y
 _atom_site_fract_z
 _atom_site_occupancy
  Gd  Gd0  1  0.000000  0.000000  0.201066  1
  Gd  Gd1  1  0.000000  0.000000  0.798934  1
  Tc  Tc2  1  0.666667  0.333334  0.015110  1
  Tc  Tc3  1  0.333334  0.666667  0.984890  1
  Cl  Cl4  1  0.333334  0.666667  0.349746  1
  Cl  Cl5  1  0.666667  0.333334  0.650254  1
