# generated using pymatgen
data_NbSn2SbPb4O13
_symmetry_space_group_name_H-M   'P 1'
_cell_length_a   7.62274733
_cell_length_b   7.58855606
_cell_length_c   7.58855546
_cell_angle_alpha   120.29126017
_cell_angle_beta   119.70785824
_cell_angle_gamma   89.87413456
_symmetry_Int_Tables_number   1
_chemical_formula_structural   NbSn2SbPb4O13
_chemical_formula_sum   'Nb1 Sn2 Sb1 Pb4 O13'
_cell_volume   310.73034874
_cell_formula_units_Z   1
loop_
 _symmetry_equiv_pos_site_id
 _symmetry_equiv_pos_as_xyz
  1  'x, y, z'
loop_
 _atom_site_type_symbol
 _atom_site_label
 _atom_site_symmetry_multiplicity
 _atom_site_fract_x
 _atom_site_fract_y
 _atom_site_fract_z
 _atom_site_occupancy
  Nb  Nb0  1  0.752162  0.502161  0.250002  1
  Sn  Sn1  1  0.251020  0.500606  0.250805  1
  Sn  Sn2  1  0.251020  0.000215  0.750414  1
  Sb  Sb3  1  0.249317  0.500333  0.748985  1
  Pb  Pb4  1  0.750386  0.004665  0.251551  1
  Pb  Pb5  1  0.750386  0.498835  0.745722  1
  Pb  Pb6  1  0.749855  0.999594  0.750262  1
  Pb  Pb7  1  0.251929  0.001044  0.250883  1
  O  O8  1  0.170775  0.169459  0.001316  1
  O  O9  1  0.562407  0.563770  0.998637  1
  O  O10  1  0.171105  0.571473  0.989368  1
  O  O11  1  0.578858  0.181108  0.009879  1
  O  O12  1  0.171105  0.181737  0.599632  1
  O  O13  1  0.578858  0.568978  0.397750  1
  O  O14  1  0.326312  0.828678  0.497634  1
  O  O15  1  0.936154  0.435618  0.500536  1
  O  O16  1  0.325368  0.429914  0.509350  1
  O  O17  1  0.925282  0.814297  0.490815  1
  O  O18  1  0.325368  0.816019  0.895454  1
  O  O19  1  0.925282  0.434466  0.110984  1
  O  O20  1  0.872052  0.872032  0.000020  1
