# generated using pymatgen
data_Gd2Ge4Ru3
_symmetry_space_group_name_H-M   'P 1'
_cell_length_a   10.45297361
_cell_length_b   10.45297325
_cell_length_c   14.07127100
_cell_angle_alpha   53.11872063
_cell_angle_beta   53.11872210
_cell_angle_gamma   30.81349547
_symmetry_Int_Tables_number   1
_chemical_formula_structural   Gd2Ge4Ru3
_chemical_formula_sum   'Gd8 Ge16 Ru12'
_cell_volume   616.35149548
_cell_formula_units_Z   4
loop_
 _symmetry_equiv_pos_site_id
 _symmetry_equiv_pos_as_xyz
  1  'x, y, z'
loop_
 _atom_site_type_symbol
 _atom_site_label
 _atom_site_symmetry_multiplicity
 _atom_site_fract_x
 _atom_site_fract_y
 _atom_site_fract_z
 _atom_site_occupancy
  Gd  Gd0  1  0.295661  0.564301  0.641319  1
  Gd  Gd1  1  0.713514  0.959479  0.858381  1
  Gd  Gd2  1  0.286486  0.040521  0.141619  1
  Gd  Gd3  1  0.435699  0.704339  0.858681  1
  Gd  Gd4  1  0.040521  0.286486  0.641619  1
  Gd  Gd5  1  0.564301  0.295661  0.141319  1
  Gd  Gd6  1  0.959479  0.713514  0.358381  1
  Gd  Gd7  1  0.704339  0.435699  0.358681  1
  Ge  Ge8  1  0.032323  0.743958  0.102392  1
  Ge  Ge9  1  0.615220  0.856759  0.603098  1
  Ge  Ge10  1  0.967677  0.256042  0.897608  1
  Ge  Ge11  1  0.382102  0.617898  0.250000  1
  Ge  Ge12  1  0.384780  0.143241  0.396902  1
  Ge  Ge13  1  0.564621  0.093802  0.065999  1
  Ge  Ge14  1  0.143241  0.384780  0.896902  1
  Ge  Ge15  1  0.256042  0.967677  0.397608  1
  Ge  Ge16  1  0.093802  0.564621  0.565999  1
  Ge  Ge17  1  0.435379  0.906198  0.934001  1
  Ge  Ge18  1  0.130311  0.869689  0.750000  1
  Ge  Ge19  1  0.743958  0.032323  0.602392  1
  Ge  Ge20  1  0.869689  0.130311  0.250000  1
  Ge  Ge21  1  0.617898  0.382102  0.750000  1
  Ge  Ge22  1  0.906198  0.435379  0.434001  1
  Ge  Ge23  1  0.856759  0.615220  0.103098  1
  Ru  Ru24  1  0.141798  0.895459  0.087525  1
  Ru  Ru25  1  0.159938  0.359733  0.219544  1
  Ru  Ru26  1  0.359733  0.159938  0.719544  1
  Ru  Ru27  1  0.840062  0.640267  0.780456  1
  Ru  Ru28  1  0.513667  0.240366  0.434356  1
  Ru  Ru29  1  0.858202  0.104541  0.912475  1
  Ru  Ru30  1  0.640267  0.840062  0.280456  1
  Ru  Ru31  1  0.240366  0.513667  0.934356  1
  Ru  Ru32  1  0.759634  0.486333  0.065644  1
  Ru  Ru33  1  0.104541  0.858202  0.412475  1
  Ru  Ru34  1  0.895459  0.141798  0.587525  1
  Ru  Ru35  1  0.486333  0.759634  0.565644  1
