# generated using pymatgen
data_Tc5P2W
_symmetry_space_group_name_H-M   'P 1'
_cell_length_a   7.19149360
_cell_length_b   7.21419667
_cell_length_c   7.21419585
_cell_angle_alpha   96.83368772
_cell_angle_beta   96.50368692
_cell_angle_gamma   140.40117755
_symmetry_Int_Tables_number   1
_chemical_formula_structural   Tc5P2W
_chemical_formula_sum   'Tc10 P4 W2'
_cell_volume   224.10889908
_cell_formula_units_Z   2
loop_
 _symmetry_equiv_pos_site_id
 _symmetry_equiv_pos_as_xyz
  1  'x, y, z'
loop_
 _atom_site_type_symbol
 _atom_site_label
 _atom_site_symmetry_multiplicity
 _atom_site_fract_x
 _atom_site_fract_y
 _atom_site_fract_z
 _atom_site_occupancy
  Tc  Tc0  1  0.905293  0.903999  0.410501  1
  Tc  Tc1  1  0.094707  0.505209  0.998707  1
  Tc  Tc2  1  0.496514  0.089159  0.999395  1
  Tc  Tc3  1  0.503486  0.502880  0.592645  1
  Tc  Tc4  1  0.000000  0.347905  0.347905  1
  Tc  Tc5  1  0.645973  0.997797  0.653270  1
  Tc  Tc6  1  0.354027  0.007297  0.351824  1
  Tc  Tc7  1  0.000000  0.650637  0.650637  1
  Tc  Tc8  1  0.108357  0.107280  0.807131  1
  Tc  Tc9  1  0.891643  0.698775  0.998923  1
  P  P10  1  0.500000  0.209011  0.709011  1
  P  P11  1  0.801992  0.505042  0.291173  1
  P  P12  1  0.198008  0.489181  0.703049  1
  P  P13  1  0.500000  0.796572  0.296572  1
  W  W14  1  0.695047  0.887450  0.996854  1
  W  W15  1  0.304953  0.301807  0.192403  1
