# generated using pymatgen
data_GaHgAsO5
_symmetry_space_group_name_H-M   'P 1'
_cell_length_a   6.18066900
_cell_length_b   8.21057600
_cell_length_c   8.57935500
_cell_angle_alpha   90.00000000
_cell_angle_beta   90.00000000
_cell_angle_gamma   90.00000000
_symmetry_Int_Tables_number   1
_chemical_formula_structural   GaHgAsO5
_chemical_formula_sum   'Ga4 Hg4 As4 O20'
_cell_volume   435.37526320
_cell_formula_units_Z   4
loop_
 _symmetry_equiv_pos_site_id
 _symmetry_equiv_pos_as_xyz
  1  'x, y, z'
loop_
 _atom_site_type_symbol
 _atom_site_label
 _atom_site_symmetry_multiplicity
 _atom_site_fract_x
 _atom_site_fract_y
 _atom_site_fract_z
 _atom_site_occupancy
  Ga  Ga0  1  0.248891  0.751153  0.998887  1
  Ga  Ga1  1  0.251109  0.248847  0.498887  1
  Ga  Ga2  1  0.751109  0.251153  0.501113  1
  Ga  Ga3  1  0.748891  0.748847  0.001113  1
  Hg  Hg4  1  0.998630  0.818026  0.660713  1
  Hg  Hg5  1  0.501370  0.181974  0.160713  1
  Hg  Hg6  1  0.001370  0.318026  0.839287  1
  Hg  Hg7  1  0.498630  0.681974  0.339287  1
  As  As8  1  0.498295  0.071358  0.789383  1
  As  As9  1  0.001705  0.928642  0.289383  1
  As  As10  1  0.501705  0.571358  0.710617  1
  As  As11  1  0.998295  0.428642  0.210617  1
  O  O12  1  0.499900  0.888672  0.893569  1
  O  O13  1  0.000100  0.111328  0.393569  1
  O  O14  1  0.500100  0.388672  0.606431  1
  O  O15  1  0.999900  0.611328  0.106431  1
  O  O16  1  0.487571  0.230229  0.923248  1
  O  O17  1  0.012429  0.769771  0.423248  1
  O  O18  1  0.512429  0.730229  0.576752  1
  O  O19  1  0.987571  0.269771  0.076752  1
  O  O20  1  0.731737  0.089678  0.682138  1
  O  O21  1  0.768263  0.910322  0.182138  1
  O  O22  1  0.268263  0.589678  0.817862  1
  O  O23  1  0.231737  0.410322  0.317862  1
  O  O24  1  0.270061  0.084023  0.676082  1
  O  O25  1  0.229939  0.915977  0.176082  1
  O  O26  1  0.729939  0.584023  0.823918  1
  O  O27  1  0.770061  0.415977  0.323918  1
  O  O28  1  0.997050  0.847618  0.902199  1
  O  O29  1  0.502950  0.152382  0.402199  1
  O  O30  1  0.002950  0.347618  0.597801  1
  O  O31  1  0.497050  0.652382  0.097801  1
