# generated using pymatgen
data_Ho7Er5InCo4Pt
_symmetry_space_group_name_H-M   'P 1'
_cell_length_a   8.26387958
_cell_length_b   8.26387974
_cell_length_c   8.26418674
_cell_angle_alpha   111.11564968
_cell_angle_beta   110.49215012
_cell_angle_gamma   106.83657232
_symmetry_Int_Tables_number   1
_chemical_formula_structural   Ho7Er5InCo4Pt
_chemical_formula_sum   'Ho7 Er5 In1 Co4 Pt1'
_cell_volume   433.76683832
_cell_formula_units_Z   1
loop_
 _symmetry_equiv_pos_site_id
 _symmetry_equiv_pos_as_xyz
  1  'x, y, z'
loop_
 _atom_site_type_symbol
 _atom_site_label
 _atom_site_symmetry_multiplicity
 _atom_site_fract_x
 _atom_site_fract_y
 _atom_site_fract_z
 _atom_site_occupancy
  Ho  Ho0  1  0.813782  0.708656  0.522438  1
  Ho  Ho1  1  0.186147  0.708500  0.894649  1
  Ho  Ho2  1  0.813995  0.291406  0.105401  1
  Ho  Ho3  1  0.414038  0.215669  0.198605  1
  Ho  Ho4  1  0.585780  0.784208  0.801365  1
  Ho  Ho5  1  0.017157  0.215585  0.801365  1
  Ho  Ho6  1  0.982936  0.784567  0.198605  1
  Er  Er7  1  0.315350  0.620165  0.304977  1
  Er  Er8  1  0.684474  0.379729  0.695044  1
  Er  Er9  1  0.315314  0.010569  0.695044  1
  Er  Er10  1  0.684813  0.989628  0.304977  1
  Er  Er11  1  0.186079  0.291385  0.477464  1
  In  In12  1  0.499977  0.499988  0.999965  1
  Co  Co13  1  0.112401  0.612178  0.499944  1
  Co  Co14  1  0.887766  0.387543  0.499944  1
  Co  Co15  1  0.379485  0.000065  0.379551  1
  Co  Co16  1  0.620461  0.000027  0.620488  1
  Pt  Pt17  1  0.000044  0.000131  0.000174  1
