# generated using pymatgen
data_TbPrNd4CoBr10
_symmetry_space_group_name_H-M   'P 1'
_cell_length_a   7.56945594
_cell_length_b   9.38249376
_cell_length_c   9.57559001
_cell_angle_alpha   108.50861168
_cell_angle_beta   96.49815489
_cell_angle_gamma   105.40889541
_symmetry_Int_Tables_number   1
_chemical_formula_structural   TbPrNd4CoBr10
_chemical_formula_sum   'Tb1 Pr1 Nd4 Co1 Br10'
_cell_volume   607.02095674
_cell_formula_units_Z   1
loop_
 _symmetry_equiv_pos_site_id
 _symmetry_equiv_pos_as_xyz
  1  'x, y, z'
loop_
 _atom_site_type_symbol
 _atom_site_label
 _atom_site_symmetry_multiplicity
 _atom_site_fract_x
 _atom_site_fract_y
 _atom_site_fract_z
 _atom_site_occupancy
  Tb  Tb0  1  0.645960  0.869069  0.325207  1
  Pr  Pr1  1  0.029969  0.711309  0.408319  1
  Nd  Nd2  1  0.966875  0.286010  0.588850  1
  Nd  Nd3  1  0.868798  0.949482  0.744445  1
  Nd  Nd4  1  0.125866  0.047484  0.253870  1
  Nd  Nd5  1  0.361231  0.136465  0.680611  1
  Co  Co6  1  0.999290  0.000092  0.500524  1
  Br  Br7  1  0.453355  0.820377  0.575565  1
  Br  Br8  1  0.549535  0.173745  0.415695  1
  Br  Br9  1  0.912409  0.629002  0.670413  1
  Br  Br10  1  0.084981  0.367756  0.327578  1
  Br  Br11  1  0.246270  0.080440  0.951551  1
  Br  Br12  1  0.744488  0.914109  0.053169  1
  Br  Br13  1  0.349804  0.455456  0.768345  1
  Br  Br14  1  0.642378  0.553832  0.228012  1
  Br  Br15  1  0.788720  0.255874  0.848683  1
  Br  Br16  1  0.230072  0.749499  0.159162  1
