# generated using pymatgen
data_Tb8Zn(Si4Ir)3
_symmetry_space_group_name_H-M   'P 1'
_cell_length_a   8.19312400
_cell_length_b   8.19312268
_cell_length_c   7.98629100
_cell_angle_alpha   90.00000000
_cell_angle_beta   90.00000000
_cell_angle_gamma   120.00000532
_symmetry_Int_Tables_number   1
_chemical_formula_structural   Tb8Zn(Si4Ir)3
_chemical_formula_sum   'Tb8 Zn1 Si12 Ir3'
_cell_volume   464.27438669
_cell_formula_units_Z   1
loop_
 _symmetry_equiv_pos_site_id
 _symmetry_equiv_pos_as_xyz
  1  'x, y, z'
loop_
 _atom_site_type_symbol
 _atom_site_label
 _atom_site_symmetry_multiplicity
 _atom_site_fract_x
 _atom_site_fract_y
 _atom_site_fract_z
 _atom_site_occupancy
  Tb  Tb0  1  0.510962  0.021922  0.246428  1
  Tb  Tb1  1  0.492877  0.985755  0.753430  1
  Tb  Tb2  1  0.978078  0.489038  0.246428  1
  Tb  Tb3  1  0.014245  0.507123  0.753430  1
  Tb  Tb4  1  0.510962  0.489038  0.246428  1
  Tb  Tb5  1  0.492877  0.507123  0.753430  1
  Tb  Tb6  1  0.000000  0.000000  0.252199  1
  Tb  Tb7  1  0.000000  0.000000  0.751258  1
  Zn  Zn8  1  0.333333  0.666667  0.457223  1
  Si  Si9  1  0.166451  0.332903  0.004331  1
  Si  Si10  1  0.833713  0.667427  0.997652  1
  Si  Si11  1  0.667097  0.833549  0.004331  1
  Si  Si12  1  0.832017  0.664033  0.500562  1
  Si  Si13  1  0.332573  0.166287  0.997652  1
  Si  Si14  1  0.163494  0.326988  0.502284  1
  Si  Si15  1  0.166451  0.833549  0.004331  1
  Si  Si16  1  0.335967  0.167983  0.500562  1
  Si  Si17  1  0.833713  0.166287  0.997652  1
  Si  Si18  1  0.673012  0.836506  0.502284  1
  Si  Si19  1  0.832017  0.167983  0.500562  1
  Si  Si20  1  0.163494  0.836506  0.502284  1
  Ir  Ir21  1  0.333333  0.666667  0.022150  1
  Ir  Ir22  1  0.666667  0.333333  0.967156  1
  Ir  Ir23  1  0.666667  0.333333  0.535948  1
