# generated using pymatgen
data_Lu3Ta3(B2Ru5)2
_symmetry_space_group_name_H-M   'P 1'
_cell_length_a   9.54521078
_cell_length_b   9.54521078
_cell_length_c   3.10835300
_cell_angle_alpha   90.00000000
_cell_angle_beta   90.00000000
_cell_angle_gamma   90.23329598
_symmetry_Int_Tables_number   1
_chemical_formula_structural   Lu3Ta3(B2Ru5)2
_chemical_formula_sum   'Lu3 Ta3 B4 Ru10'
_cell_volume   283.20295440
_cell_formula_units_Z   1
loop_
 _symmetry_equiv_pos_site_id
 _symmetry_equiv_pos_as_xyz
  1  'x, y, z'
loop_
 _atom_site_type_symbol
 _atom_site_label
 _atom_site_symmetry_multiplicity
 _atom_site_fract_x
 _atom_site_fract_y
 _atom_site_fract_z
 _atom_site_occupancy
  Lu  Lu0  1  0.824463  0.674820  0.000000  1
  Lu  Lu1  1  0.174820  0.324463  0.000000  1
  Lu  Lu2  1  0.325749  0.825749  0.000000  1
  Ta  Ta3  1  0.675455  0.175455  0.000000  1
  Ta  Ta4  1  0.497964  0.503313  0.000000  1
  Ta  Ta5  1  0.003313  0.997964  0.000000  1
  B  B6  1  0.623444  0.880189  0.000000  1
  B  B7  1  0.380189  0.123444  0.000000  1
  B  B8  1  0.119264  0.619264  0.000000  1
  B  B9  1  0.876670  0.376670  0.000000  1
  Ru  Ru10  1  0.571920  0.721219  0.500000  1
  Ru  Ru11  1  0.439124  0.281048  0.500000  1
  Ru  Ru12  1  0.069956  0.780576  0.500000  1
  Ru  Ru13  1  0.917010  0.213370  0.500000  1
  Ru  Ru14  1  0.280576  0.569956  0.500000  1
  Ru  Ru15  1  0.713370  0.417010  0.500000  1
  Ru  Ru16  1  0.221219  0.071920  0.500000  1
  Ru  Ru17  1  0.781048  0.939124  0.500000  1
  Ru  Ru18  1  0.508230  0.008230  0.500000  1
  Ru  Ru19  1  0.996215  0.496215  0.500000  1
