# generated using pymatgen
data_DyTa(NbS2)8
_symmetry_space_group_name_H-M   'P 1'
_cell_length_a   6.67177600
_cell_length_b   6.67177239
_cell_length_c   13.09500500
_cell_angle_alpha   89.99965649
_cell_angle_beta   90.00030057
_cell_angle_gamma   119.99986914
_symmetry_Int_Tables_number   1
_chemical_formula_structural   DyTa(NbS2)8
_chemical_formula_sum   'Dy1 Ta1 Nb8 S16'
_cell_volume   504.80023882
_cell_formula_units_Z   1
loop_
 _symmetry_equiv_pos_site_id
 _symmetry_equiv_pos_as_xyz
  1  'x, y, z'
loop_
 _atom_site_type_symbol
 _atom_site_label
 _atom_site_symmetry_multiplicity
 _atom_site_fract_x
 _atom_site_fract_y
 _atom_site_fract_z
 _atom_site_occupancy
  Dy  Dy0  1  0.000000  0.000000  0.500000  1
  Ta  Ta1  1  0.000000  0.000000  0.000000  1
  Nb  Nb2  1  0.504952  0.495057  0.764737  1
  Nb  Nb3  1  0.009894  0.504943  0.235262  1
  Nb  Nb4  1  0.495055  0.990110  0.235260  1
  Nb  Nb5  1  0.504945  0.009890  0.764740  1
  Nb  Nb6  1  0.990106  0.495057  0.764738  1
  Nb  Nb7  1  0.495048  0.504943  0.235263  1
  Nb  Nb8  1  0.000002  0.000006  0.762697  1
  Nb  Nb9  1  0.999998  0.999994  0.237303  1
  S  S10  1  0.830583  0.169422  0.356645  1
  S  S11  1  0.830580  0.661156  0.356646  1
  S  S12  1  0.338842  0.169420  0.356647  1
  S  S13  1  0.665357  0.832679  0.885361  1
  S  S14  1  0.169420  0.338844  0.643354  1
  S  S15  1  0.167326  0.832683  0.885362  1
  S  S16  1  0.167328  0.334650  0.885358  1
  S  S17  1  0.832674  0.167317  0.114638  1
  S  S18  1  0.334643  0.167321  0.114639  1
  S  S19  1  0.661158  0.830580  0.643353  1
  S  S20  1  0.333332  0.666668  0.112888  1
  S  S21  1  0.666667  0.333334  0.641528  1
  S  S22  1  0.666668  0.333332  0.887112  1
  S  S23  1  0.333333  0.666666  0.358472  1
  S  S24  1  0.832672  0.665350  0.114642  1
  S  S25  1  0.169417  0.830578  0.643355  1
