# generated using pymatgen
data_Ac7Ho13Sn16
_symmetry_space_group_name_H-M   'P 1'
_cell_length_a   8.30845856
_cell_length_b   8.39300378
_cell_length_c   15.91683030
_cell_angle_alpha   90.03435142
_cell_angle_beta   90.24146653
_cell_angle_gamma   89.47044956
_symmetry_Int_Tables_number   1
_chemical_formula_structural   Ac7Ho13Sn16
_chemical_formula_sum   'Ac7 Ho13 Sn16'
_cell_volume   1109.86968294
_cell_formula_units_Z   1
loop_
 _symmetry_equiv_pos_site_id
 _symmetry_equiv_pos_as_xyz
  1  'x, y, z'
loop_
 _atom_site_type_symbol
 _atom_site_label
 _atom_site_symmetry_multiplicity
 _atom_site_fract_x
 _atom_site_fract_y
 _atom_site_fract_z
 _atom_site_occupancy
  Ac  Ac0  1  0.014011  0.177409  0.598831  1
  Ac  Ac1  1  0.486854  0.676083  0.405184  1
  Ac  Ac2  1  0.988443  0.822291  0.093213  1
  Ac  Ac3  1  0.485436  0.674749  0.093433  1
  Ac  Ac4  1  0.987168  0.824560  0.404725  1
  Ac  Ac5  1  0.511669  0.325252  0.595113  1
  Ac  Ac6  1  0.013464  0.177649  0.903872  1
  Ho  Ho7  1  0.356466  0.837366  0.875159  1
  Ho  Ho8  1  0.854677  0.661017  0.625119  1
  Ho  Ho9  1  0.644158  0.161577  0.374940  1
  Ho  Ho10  1  0.139875  0.339855  0.121131  1
  Ho  Ho11  1  0.641523  0.162947  0.123347  1
  Ho  Ho12  1  0.143434  0.337854  0.376406  1
  Ho  Ho13  1  0.356397  0.839668  0.627817  1
  Ho  Ho14  1  0.857898  0.659220  0.877997  1
  Ho  Ho15  1  0.519870  0.321765  0.901128  1
  Ho  Ho16  1  0.194084  0.502626  0.752352  1
  Ho  Ho17  1  0.691434  0.996297  0.752178  1
  Ho  Ho18  1  0.806180  0.495653  0.249111  1
  Ho  Ho19  1  0.307483  0.005454  0.249160  1
  Sn  Sn20  1  0.315121  0.048501  0.041219  1
  Sn  Sn21  1  0.812368  0.452850  0.455752  1
  Sn  Sn22  1  0.687227  0.955619  0.545089  1
  Sn  Sn23  1  0.203438  0.535368  0.952546  1
  Sn  Sn24  1  0.683349  0.962767  0.954888  1
  Sn  Sn25  1  0.186724  0.549011  0.545234  1
  Sn  Sn26  1  0.312849  0.044821  0.457107  1
  Sn  Sn27  1  0.800227  0.449406  0.039420  1
  Sn  Sn28  1  0.555624  0.628719  0.752422  1
  Sn  Sn29  1  0.053359  0.866332  0.751575  1
  Sn  Sn30  1  0.443325  0.367179  0.249360  1
  Sn  Sn31  1  0.945711  0.134082  0.248155  1
  Sn  Sn32  1  0.330268  0.144375  0.755423  1
  Sn  Sn33  1  0.813438  0.364215  0.752785  1
  Sn  Sn34  1  0.677928  0.862685  0.249363  1
  Sn  Sn35  1  0.178522  0.634782  0.249447  1
