# generated using pymatgen
data_Ho13Tm(Lu3Pt8)2
_symmetry_space_group_name_H-M   'P 1'
_cell_length_a   7.41497502
_cell_length_b   7.51388166
_cell_length_c   14.59341300
_cell_angle_alpha   90.05695513
_cell_angle_beta   89.99888610
_cell_angle_gamma   90.00799109
_symmetry_Int_Tables_number   1
_chemical_formula_structural   Ho13Tm(Lu3Pt8)2
_chemical_formula_sum   'Ho13 Tm1 Lu6 Pt16'
_cell_volume   813.07516756
_cell_formula_units_Z   1
loop_
 _symmetry_equiv_pos_site_id
 _symmetry_equiv_pos_as_xyz
  1  'x, y, z'
loop_
 _atom_site_type_symbol
 _atom_site_label
 _atom_site_symmetry_multiplicity
 _atom_site_fract_x
 _atom_site_fract_y
 _atom_site_fract_z
 _atom_site_occupancy
  Ho  Ho0  1  0.843076  0.668029  0.377500  1
  Ho  Ho1  1  0.343304  0.832134  0.377446  1
  Ho  Ho2  1  0.843324  0.667959  0.122494  1
  Ho  Ho3  1  0.656800  0.168047  0.877220  1
  Ho  Ho4  1  0.156853  0.331936  0.622790  1
  Ho  Ho5  1  0.501871  0.679901  0.593224  1
  Ho  Ho6  1  0.001920  0.820139  0.906796  1
  Ho  Ho7  1  0.498416  0.320236  0.092994  1
  Ho  Ho8  1  0.998501  0.179732  0.407010  1
  Ho  Ho9  1  0.498657  0.320011  0.407375  1
  Ho  Ho10  1  0.998794  0.179859  0.092624  1
  Ho  Ho11  1  0.500973  0.679062  0.906632  1
  Ho  Ho12  1  0.001073  0.821023  0.593444  1
  Tm  Tm13  1  0.343119  0.832022  0.122543  1
  Lu  Lu14  1  0.656714  0.167968  0.623151  1
  Lu  Lu15  1  0.156733  0.332038  0.876863  1
  Lu  Lu16  1  0.818997  0.511206  0.750003  1
  Lu  Lu17  1  0.319006  0.988771  0.750013  1
  Lu  Lu18  1  0.181342  0.487909  0.249957  1
  Lu  Lu19  1  0.681096  0.012134  0.249904  1
  Pt  Pt20  1  0.683483  0.969080  0.458742  1
  Pt  Pt21  1  0.183717  0.531354  0.041390  1
  Pt  Pt22  1  0.315394  0.033734  0.957640  1
  Pt  Pt23  1  0.815337  0.465956  0.542580  1
  Pt  Pt24  1  0.317854  0.032545  0.542531  1
  Pt  Pt25  1  0.817877  0.467434  0.957477  1
  Pt  Pt26  1  0.682931  0.967806  0.042170  1
  Pt  Pt27  1  0.183268  0.532046  0.457917  1
  Pt  Pt28  1  0.454634  0.386780  0.749977  1
  Pt  Pt29  1  0.954620  0.113233  0.750023  1
  Pt  Pt30  1  0.544786  0.612160  0.249847  1
  Pt  Pt31  1  0.045294  0.887999  0.249854  1
  Pt  Pt32  1  0.682258  0.856327  0.749555  1
  Pt  Pt33  1  0.182265  0.643654  0.750442  1
  Pt  Pt34  1  0.317887  0.144347  0.249922  1
  Pt  Pt35  1  0.817826  0.355430  0.249947  1
