# generated using pymatgen
data_CaSmLu2(B6Os)2
_symmetry_space_group_name_H-M   'P 1'
_cell_length_a   3.63035700
_cell_length_b   9.12577977
_cell_length_c   11.54871200
_cell_angle_alpha   89.85354988
_cell_angle_beta   90.00000000
_cell_angle_gamma   90.00000000
_symmetry_Int_Tables_number   1
_chemical_formula_structural   CaSmLu2(B6Os)2
_chemical_formula_sum   'Ca2 Sm2 Lu4 B24 Os4'
_cell_volume   382.60571325
_cell_formula_units_Z   2
loop_
 _symmetry_equiv_pos_site_id
 _symmetry_equiv_pos_as_xyz
  1  'x, y, z'
loop_
 _atom_site_type_symbol
 _atom_site_label
 _atom_site_symmetry_multiplicity
 _atom_site_fract_x
 _atom_site_fract_y
 _atom_site_fract_z
 _atom_site_occupancy
  Ca  Ca0  1  0.000000  0.323257  0.415099  1
  Ca  Ca1  1  0.000000  0.676743  0.584901  1
  Sm  Sm2  1  0.000000  0.821642  0.086272  1
  Sm  Sm3  1  0.000000  0.178358  0.913728  1
  Lu  Lu4  1  0.000000  0.942630  0.371092  1
  Lu  Lu5  1  0.000000  0.057370  0.628908  1
  Lu  Lu6  1  0.000000  0.443428  0.130465  1
  Lu  Lu7  1  0.000000  0.556572  0.869535  1
  B  B8  1  0.500000  0.554433  0.432137  1
  B  B9  1  0.500000  0.445567  0.567863  1
  B  B10  1  0.500000  0.055164  0.068658  1
  B  B11  1  0.500000  0.944836  0.931342  1
  B  B12  1  0.500000  0.749489  0.417557  1
  B  B13  1  0.500000  0.250511  0.582443  1
  B  B14  1  0.500000  0.250519  0.083243  1
  B  B15  1  0.500000  0.749481  0.916757  1
  B  B16  1  0.500000  0.791537  0.265873  1
  B  B17  1  0.500000  0.208463  0.734126  1
  B  B18  1  0.500000  0.291601  0.235089  1
  B  B19  1  0.500000  0.708399  0.764912  1
  B  B20  1  0.500000  0.629844  0.185527  1
  B  B21  1  0.500000  0.370156  0.814473  1
  B  B22  1  0.500000  0.130349  0.315191  1
  B  B23  1  0.500000  0.869651  0.684809  1
  B  B24  1  0.500000  0.983921  0.213680  1
  B  B25  1  0.500000  0.016079  0.786320  1
  B  B26  1  0.500000  0.483286  0.287620  1
  B  B27  1  0.500000  0.516714  0.712380  1
  B  B28  1  0.500000  0.599014  0.027021  1
  B  B29  1  0.500000  0.400986  0.972979  1
  B  B30  1  0.500000  0.097785  0.473278  1
  B  B31  1  0.500000  0.902215  0.526722  1
  Os  Os32  1  0.000000  0.640354  0.318158  1
  Os  Os33  1  0.000000  0.359646  0.681842  1
  Os  Os34  1  0.000000  0.138672  0.180060  1
  Os  Os35  1  0.000000  0.861328  0.819940  1
