# generated using pymatgen
data_Y4Er4Sc12Si15Hg
_symmetry_space_group_name_H-M   'P 1'
_cell_length_a   7.11850325
_cell_length_b   7.38455733
_cell_length_c   14.06736554
_cell_angle_alpha   89.94348037
_cell_angle_beta   89.54773342
_cell_angle_gamma   90.17656610
_symmetry_Int_Tables_number   1
_chemical_formula_structural   Y4Er4Sc12Si15Hg
_chemical_formula_sum   'Y4 Er4 Sc12 Si15 Hg1'
_cell_volume   739.45221269
_cell_formula_units_Z   1
loop_
 _symmetry_equiv_pos_site_id
 _symmetry_equiv_pos_as_xyz
  1  'x, y, z'
loop_
 _atom_site_type_symbol
 _atom_site_label
 _atom_site_symmetry_multiplicity
 _atom_site_fract_x
 _atom_site_fract_y
 _atom_site_fract_z
 _atom_site_occupancy
  Y  Y0  1  0.011097  0.175506  0.097097  1
  Y  Y1  1  0.988347  0.825519  0.904733  1
  Y  Y2  1  0.488290  0.676533  0.904593  1
  Y  Y3  1  0.989899  0.831808  0.597733  1
  Er  Er4  1  0.511281  0.323238  0.096684  1
  Er  Er5  1  0.007019  0.171373  0.397803  1
  Er  Er6  1  0.510939  0.321523  0.398959  1
  Er  Er7  1  0.496860  0.682140  0.600288  1
  Sc  Sc8  1  0.163495  0.501201  0.754153  1
  Sc  Sc9  1  0.835811  0.498165  0.250144  1
  Sc  Sc10  1  0.336569  0.001106  0.248963  1
  Sc  Sc11  1  0.665666  0.996970  0.751513  1
  Sc  Sc12  1  0.343719  0.168528  0.628852  1
  Sc  Sc13  1  0.663203  0.824328  0.372833  1
  Sc  Sc14  1  0.165875  0.677705  0.370325  1
  Sc  Sc15  1  0.668600  0.823426  0.124618  1
  Sc  Sc16  1  0.826218  0.325166  0.626202  1
  Sc  Sc17  1  0.329866  0.175639  0.876216  1
  Sc  Sc18  1  0.830880  0.322731  0.876150  1
  Sc  Sc19  1  0.168443  0.676567  0.125250  1
  Si  Si20  1  0.036597  0.120833  0.751413  1
  Si  Si21  1  0.963342  0.884278  0.248067  1
  Si  Si22  1  0.465649  0.613951  0.247930  1
  Si  Si23  1  0.534467  0.386711  0.751961  1
  Si  Si24  1  0.286135  0.872087  0.751492  1
  Si  Si25  1  0.711227  0.128554  0.248019  1
  Si  Si26  1  0.213153  0.370452  0.248344  1
  Si  Si27  1  0.788941  0.628199  0.752420  1
  Si  Si28  1  0.831456  0.537228  0.458783  1
  Si  Si29  1  0.337462  0.962622  0.459801  1
  Si  Si30  1  0.842148  0.534932  0.039115  1
  Si  Si31  1  0.660775  0.037740  0.537189  1
  Si  Si32  1  0.156804  0.463780  0.962413  1
  Si  Si33  1  0.656139  0.035972  0.960994  1
  Si  Si34  1  0.342988  0.965582  0.040116  1
  Hg  Hg35  1  0.170640  0.457910  0.538837  1
