# generated using pymatgen
data_NdTm19(GaBi2)4
_symmetry_space_group_name_H-M   'P 1'
_cell_length_a   8.00960625
_cell_length_b   9.22886800
_cell_length_c   11.87130800
_cell_angle_alpha   90.00000000
_cell_angle_beta   89.98577907
_cell_angle_gamma   90.00000000
_symmetry_Int_Tables_number   1
_chemical_formula_structural   NdTm19(GaBi2)4
_chemical_formula_sum   'Nd1 Tm19 Ga4 Bi8'
_cell_volume   877.52229736
_cell_formula_units_Z   1
loop_
 _symmetry_equiv_pos_site_id
 _symmetry_equiv_pos_as_xyz
  1  'x, y, z'
loop_
 _atom_site_type_symbol
 _atom_site_label
 _atom_site_symmetry_multiplicity
 _atom_site_fract_x
 _atom_site_fract_y
 _atom_site_fract_z
 _atom_site_occupancy
  Nd  Nd0  1  0.146351  0.250000  0.205948  1
  Tm  Tm1  1  0.820408  0.554986  0.061593  1
  Tm  Tm2  1  0.679600  0.944438  0.562563  1
  Tm  Tm3  1  0.180413  0.054067  0.936289  1
  Tm  Tm4  1  0.320304  0.446603  0.438874  1
  Tm  Tm5  1  0.180413  0.445933  0.936289  1
  Tm  Tm6  1  0.320304  0.053397  0.438874  1
  Tm  Tm7  1  0.820408  0.945014  0.061593  1
  Tm  Tm8  1  0.679600  0.555562  0.562563  1
  Tm  Tm9  1  0.173709  0.750000  0.216323  1
  Tm  Tm10  1  0.325742  0.750000  0.716194  1
  Tm  Tm11  1  0.825206  0.250000  0.782606  1
  Tm  Tm12  1  0.673268  0.250000  0.283955  1
  Tm  Tm13  1  0.463088  0.750000  0.002815  1
  Tm  Tm14  1  0.036531  0.750000  0.504385  1
  Tm  Tm15  1  0.536954  0.250000  0.996306  1
  Tm  Tm16  1  0.960862  0.250000  0.497692  1
  Tm  Tm17  1  0.645829  0.750000  0.294848  1
  Tm  Tm18  1  0.854679  0.750000  0.794242  1
  Tm  Tm19  1  0.355539  0.250000  0.705747  1
  Ga  Ga20  1  0.405302  0.750000  0.475286  1
  Ga  Ga21  1  0.094903  0.750000  0.974397  1
  Ga  Ga22  1  0.594696  0.250000  0.525699  1
  Ga  Ga23  1  0.900771  0.250000  0.021403  1
  Bi  Bi24  1  0.934911  0.512692  0.326546  1
  Bi  Bi25  1  0.562251  0.989513  0.824250  1
  Bi  Bi26  1  0.062201  0.009403  0.675492  1
  Bi  Bi27  1  0.443201  0.493376  0.175469  1
  Bi  Bi28  1  0.062201  0.490597  0.675492  1
  Bi  Bi29  1  0.443201  0.006624  0.175469  1
  Bi  Bi30  1  0.934911  0.987308  0.326546  1
  Bi  Bi31  1  0.562251  0.510487  0.824250  1
