# generated using pymatgen
data_Dy3Cd13Hg2
_symmetry_space_group_name_H-M   'P 1'
_cell_length_a   16.56311016
_cell_length_b   16.56311074
_cell_length_c   6.91049944
_cell_angle_alpha   93.39560935
_cell_angle_beta   93.39560971
_cell_angle_gamma   13.07600558
_symmetry_Int_Tables_number   1
_chemical_formula_structural   Dy3Cd13Hg2
_chemical_formula_sum   'Dy3 Cd13 Hg2'
_cell_volume   428.15003789
_cell_formula_units_Z   1
loop_
 _symmetry_equiv_pos_site_id
 _symmetry_equiv_pos_as_xyz
  1  'x, y, z'
loop_
 _atom_site_type_symbol
 _atom_site_label
 _atom_site_symmetry_multiplicity
 _atom_site_fract_x
 _atom_site_fract_y
 _atom_site_fract_z
 _atom_site_occupancy
  Dy  Dy0  1  0.000970  0.000970  0.991455  1
  Dy  Dy1  1  0.668469  0.668469  0.347076  1
  Dy  Dy2  1  0.883805  0.883805  0.444097  1
  Cd  Cd3  1  0.105465  0.105465  0.046050  1
  Cd  Cd4  1  0.227692  0.227692  0.108583  1
  Cd  Cd5  1  0.331325  0.331325  0.146720  1
  Cd  Cd6  1  0.443689  0.443689  0.223491  1
  Cd  Cd7  1  0.557204  0.557204  0.289372  1
  Cd  Cd8  1  0.776453  0.776453  0.390508  1
  Cd  Cd9  1  0.996788  0.996788  0.480026  1
  Cd  Cd10  1  0.223037  0.223037  0.632047  1
  Cd  Cd11  1  0.445066  0.445066  0.709489  1
  Cd  Cd12  1  0.556087  0.556087  0.743684  1
  Cd  Cd13  1  0.667200  0.667200  0.870158  1
  Cd  Cd14  1  0.778110  0.778110  0.882181  1
  Cd  Cd15  1  0.893217  0.893217  0.950841  1
  Hg  Hg16  1  0.113516  0.113516  0.567518  1
  Hg  Hg17  1  0.331904  0.331904  0.676704  1
