# generated using pymatgen
data_HoTm11Co5Bi
_symmetry_space_group_name_H-M   'P 1'
_cell_length_a   8.19824862
_cell_length_b   8.19824926
_cell_length_c   8.19368469
_cell_angle_alpha   110.95111218
_cell_angle_beta   110.88137887
_cell_angle_gamma   106.64206648
_symmetry_Int_Tables_number   1
_chemical_formula_structural   HoTm11Co5Bi
_chemical_formula_sum   'Ho1 Tm11 Co5 Bi1'
_cell_volume   423.03391876
_cell_formula_units_Z   1
loop_
 _symmetry_equiv_pos_site_id
 _symmetry_equiv_pos_as_xyz
  1  'x, y, z'
loop_
 _atom_site_type_symbol
 _atom_site_label
 _atom_site_symmetry_multiplicity
 _atom_site_fract_x
 _atom_site_fract_y
 _atom_site_fract_z
 _atom_site_occupancy
  Ho  Ho0  1  0.285829  0.183478  0.469306  1
  Tm  Tm1  1  0.714419  0.817074  0.531493  1
  Tm  Tm2  1  0.285884  0.816360  0.102243  1
  Tm  Tm3  1  0.714488  0.183062  0.897550  1
  Tm  Tm4  1  0.620535  0.311645  0.308661  1
  Tm  Tm5  1  0.379867  0.689118  0.691371  1
  Tm  Tm6  1  0.002253  0.311504  0.691371  1
  Tm  Tm7  1  0.997016  0.688126  0.308661  1
  Tm  Tm8  1  0.209833  0.405996  0.195247  1
  Tm  Tm9  1  0.790552  0.594963  0.804895  1
  Tm  Tm10  1  0.209933  0.014343  0.804895  1
  Tm  Tm11  1  0.789250  0.985415  0.195247  1
  Co  Co12  1  0.999516  0.374336  0.373852  1
  Co  Co13  1  0.000047  0.625701  0.625748  1
  Co  Co14  1  0.388290  0.887192  0.499976  1
  Co  Co15  1  0.612784  0.111686  0.499976  1
  Co  Co16  1  0.999525  0.000052  0.999577  1
  Bi  Bi17  1  0.499981  0.499949  0.999930  1
