# generated using pymatgen
data_U8AsS17
_symmetry_space_group_name_H-M   'P 1'
_cell_length_a   7.85013303
_cell_length_b   7.85013352
_cell_length_c   10.50755941
_cell_angle_alpha   79.92950331
_cell_angle_beta   79.92950044
_cell_angle_gamma   64.82960573
_symmetry_Int_Tables_number   1
_chemical_formula_structural   U8AsS17
_chemical_formula_sum   'U8 As1 S17'
_cell_volume   573.33006943
_cell_formula_units_Z   1
loop_
 _symmetry_equiv_pos_site_id
 _symmetry_equiv_pos_as_xyz
  1  'x, y, z'
loop_
 _atom_site_type_symbol
 _atom_site_label
 _atom_site_symmetry_multiplicity
 _atom_site_fract_x
 _atom_site_fract_y
 _atom_site_fract_z
 _atom_site_occupancy
  U  U0  1  0.818395  0.305590  0.303062  1
  U  U1  1  0.305590  0.818395  0.303062  1
  U  U2  1  0.181605  0.694410  0.696938  1
  U  U3  1  0.694410  0.181605  0.696938  1
  U  U4  1  0.795694  0.795694  0.459099  1
  U  U5  1  0.204306  0.204306  0.540901  1
  U  U6  1  0.323522  0.323522  0.017066  1
  U  U7  1  0.676478  0.676478  0.982934  1
  As  As8  1  0.000000  0.000000  0.000000  1
  S  S9  1  0.178264  0.568027  0.464860  1
  S  S10  1  0.568027  0.178264  0.464860  1
  S  S11  1  0.821736  0.431973  0.535140  1
  S  S12  1  0.431973  0.821736  0.535140  1
  S  S13  1  0.948151  0.327379  0.036914  1
  S  S14  1  0.327379  0.948151  0.036914  1
  S  S15  1  0.051849  0.672621  0.963086  1
  S  S16  1  0.672621  0.051849  0.963086  1
  S  S17  1  0.945486  0.945486  0.235151  1
  S  S18  1  0.054514  0.054514  0.764849  1
  S  S19  1  0.786338  0.786338  0.720101  1
  S  S20  1  0.213662  0.213662  0.279899  1
  S  S21  1  0.698961  0.698961  0.246714  1
  S  S22  1  0.301039  0.301039  0.753286  1
  S  S23  1  0.480059  0.480059  0.170582  1
  S  S24  1  0.519941  0.519941  0.829418  1
  S  S25  1  0.000000  0.000000  0.500000  1
