# generated using pymatgen
data_YHo2Fe2Co9B4
_symmetry_space_group_name_H-M   'P 1'
_cell_length_a   5.04592700
_cell_length_b   5.04629400
_cell_length_c   9.71730800
_cell_angle_alpha   89.99996163
_cell_angle_beta   90.00015853
_cell_angle_gamma   120.03250837
_symmetry_Int_Tables_number   1
_chemical_formula_structural   YHo2Fe2Co9B4
_chemical_formula_sum   'Y1 Ho2 Fe2 Co9 B4'
_cell_volume   214.21395261
_cell_formula_units_Z   1
loop_
 _symmetry_equiv_pos_site_id
 _symmetry_equiv_pos_as_xyz
  1  'x, y, z'
loop_
 _atom_site_type_symbol
 _atom_site_label
 _atom_site_symmetry_multiplicity
 _atom_site_fract_x
 _atom_site_fract_y
 _atom_site_fract_z
 _atom_site_occupancy
  Y  Y0  1  0.999981  0.000000  0.000039  1
  Ho  Ho1  1  0.999995  0.999999  0.341764  1
  Ho  Ho2  1  0.000005  0.000001  0.658244  1
  Fe  Fe3  1  0.333340  0.666665  0.999990  1
  Fe  Fe4  1  0.666622  0.333335  0.999990  1
  Co  Co5  1  0.499999  0.000001  0.499994  1
  Co  Co6  1  0.499999  0.500001  0.500003  1
  Co  Co7  1  0.999997  0.499999  0.499996  1
  Co  Co8  1  0.500013  0.000041  0.202290  1
  Co  Co9  1  0.500010  0.499982  0.202275  1
  Co  Co10  1  0.999948  0.499977  0.202282  1
  Co  Co11  1  0.500023  0.000040  0.797732  1
  Co  Co12  1  0.500023  0.499981  0.797698  1
  Co  Co13  1  0.999961  0.499980  0.797725  1
  B  B14  1  0.333281  0.666696  0.349537  1
  B  B15  1  0.666701  0.333303  0.349535  1
  B  B16  1  0.666707  0.333336  0.650453  1
  B  B17  1  0.333295  0.666663  0.650451  1
