# generated using pymatgen
data_Sm2Tm4MnCo17P12
_symmetry_space_group_name_H-M   'P 1'
_cell_length_a   3.69895400
_cell_length_b   10.53755700
_cell_length_c   12.19891500
_cell_angle_alpha   90.00000000
_cell_angle_beta   90.00000000
_cell_angle_gamma   90.00000000
_symmetry_Int_Tables_number   1
_chemical_formula_structural   Sm2Tm4MnCo17P12
_chemical_formula_sum   'Sm2 Tm4 Mn1 Co17 P12'
_cell_volume   475.48856004
_cell_formula_units_Z   1
loop_
 _symmetry_equiv_pos_site_id
 _symmetry_equiv_pos_as_xyz
  1  'x, y, z'
loop_
 _atom_site_type_symbol
 _atom_site_label
 _atom_site_symmetry_multiplicity
 _atom_site_fract_x
 _atom_site_fract_y
 _atom_site_fract_z
 _atom_site_occupancy
  Sm  Sm0  1  0.000000  0.500000  0.523204  1
  Sm  Sm1  1  0.500000  0.000000  0.477307  1
  Tm  Tm2  1  0.500000  0.818505  0.205210  1
  Tm  Tm3  1  0.500000  0.181495  0.205210  1
  Tm  Tm4  1  0.000000  0.682263  0.795884  1
  Tm  Tm5  1  0.000000  0.317737  0.795884  1
  Mn  Mn6  1  0.500000  0.500000  0.157803  1
  Co  Co7  1  0.000000  0.000000  0.841763  1
  Co  Co8  1  0.500000  0.500000  0.705700  1
  Co  Co9  1  0.000000  0.000000  0.293733  1
  Co  Co10  1  0.000000  0.500000  0.986226  1
  Co  Co11  1  0.500000  0.000000  0.013701  1
  Co  Co12  1  0.500000  0.332996  0.994147  1
  Co  Co13  1  0.500000  0.667004  0.994147  1
  Co  Co14  1  0.000000  0.166833  0.005702  1
  Co  Co15  1  0.000000  0.833167  0.005702  1
  Co  Co16  1  0.500000  0.296326  0.428926  1
  Co  Co17  1  0.500000  0.703674  0.428926  1
  Co  Co18  1  0.000000  0.203698  0.570324  1
  Co  Co19  1  0.000000  0.796302  0.570324  1
  Co  Co20  1  0.500000  0.878886  0.711485  1
  Co  Co21  1  0.500000  0.121114  0.711485  1
  Co  Co22  1  0.000000  0.620979  0.288161  1
  Co  Co23  1  0.000000  0.379021  0.288161  1
  P  P24  1  0.500000  0.500000  0.882841  1
  P  P25  1  0.000000  0.000000  0.116636  1
  P  P26  1  0.500000  0.500000  0.342923  1
  P  P27  1  0.000000  0.000000  0.659082  1
  P  P28  1  0.500000  0.309184  0.618211  1
  P  P29  1  0.500000  0.690816  0.618211  1
  P  P30  1  0.000000  0.190360  0.382107  1
  P  P31  1  0.000000  0.809640  0.382107  1
  P  P32  1  0.500000  0.846966  0.893072  1
  P  P33  1  0.500000  0.153034  0.893072  1
  P  P34  1  0.000000  0.654149  0.106313  1
  P  P35  1  0.000000  0.345851  0.106313  1
