# generated using pymatgen
data_Li2Er16InAgRh4
_symmetry_space_group_name_H-M   'P 1'
_cell_length_a   9.53202810
_cell_length_b   9.54817848
_cell_length_c   9.54817872
_cell_angle_alpha   59.96156182
_cell_angle_beta   59.90938589
_cell_angle_gamma   59.90939363
_symmetry_Int_Tables_number   1
_chemical_formula_structural   Li2Er16InAgRh4
_chemical_formula_sum   'Li2 Er16 In1 Ag1 Rh4'
_cell_volume   613.46424108
_cell_formula_units_Z   1
loop_
 _symmetry_equiv_pos_site_id
 _symmetry_equiv_pos_as_xyz
  1  'x, y, z'
loop_
 _atom_site_type_symbol
 _atom_site_label
 _atom_site_symmetry_multiplicity
 _atom_site_fract_x
 _atom_site_fract_y
 _atom_site_fract_z
 _atom_site_occupancy
  Li  Li0  1  0.429663  0.720126  0.423997  1
  Li  Li1  1  0.429663  0.423997  0.720126  1
  Er  Er2  1  0.188502  0.190111  0.809851  1
  Er  Er3  1  0.436248  0.063006  0.063006  1
  Er  Er4  1  0.433729  0.064915  0.435807  1
  Er  Er5  1  0.059339  0.437338  0.065668  1
  Er  Er6  1  0.649876  0.050537  0.647870  1
  Er  Er7  1  0.184281  0.816990  0.816990  1
  Er  Er8  1  0.059339  0.065668  0.437338  1
  Er  Er9  1  0.808770  0.190773  0.190773  1
  Er  Er10  1  0.812678  0.813626  0.188816  1
  Er  Er11  1  0.649876  0.647870  0.050537  1
  Er  Er12  1  0.653770  0.652377  0.652377  1
  Er  Er13  1  0.058035  0.434611  0.434611  1
  Er  Er14  1  0.043044  0.651379  0.651379  1
  Er  Er15  1  0.812678  0.188816  0.813626  1
  Er  Er16  1  0.433729  0.435807  0.064915  1
  Er  Er17  1  0.188502  0.809851  0.190111  1
  In  In18  1  0.419564  0.420643  0.420643  1
  Ag  Ag19  1  0.750899  0.417158  0.417158  1
  Rh  Rh20  1  0.857118  0.427788  0.859339  1
  Rh  Rh21  1  0.857118  0.859339  0.427788  1
  Rh  Rh22  1  0.428104  0.857928  0.857928  1
  Rh  Rh23  1  0.855474  0.859345  0.859345  1
