# generated using pymatgen
data_TbEu3(ZnRh)4
_symmetry_space_group_name_H-M   'P 1'
_cell_length_a   4.22965800
_cell_length_b   7.12113276
_cell_length_c   8.12677020
_cell_angle_alpha   89.42477894
_cell_angle_beta   90.00000000
_cell_angle_gamma   90.00000000
_symmetry_Int_Tables_number   1
_chemical_formula_structural   TbEu3(ZnRh)4
_chemical_formula_sum   'Tb1 Eu3 Zn4 Rh4'
_cell_volume   244.76562658
_cell_formula_units_Z   1
loop_
 _symmetry_equiv_pos_site_id
 _symmetry_equiv_pos_as_xyz
  1  'x, y, z'
loop_
 _atom_site_type_symbol
 _atom_site_label
 _atom_site_symmetry_multiplicity
 _atom_site_fract_x
 _atom_site_fract_y
 _atom_site_fract_z
 _atom_site_occupancy
  Tb  Tb0  1  0.750000  0.970240  0.683835  1
  Eu  Eu1  1  0.250000  0.527826  0.183777  1
  Eu  Eu2  1  0.750000  0.472542  0.814965  1
  Eu  Eu3  1  0.250000  0.025737  0.317179  1
  Zn  Zn4  1  0.250000  0.144158  0.935106  1
  Zn  Zn5  1  0.750000  0.859889  0.062119  1
  Zn  Zn6  1  0.250000  0.644278  0.565864  1
  Zn  Zn7  1  0.750000  0.353567  0.436824  1
  Rh  Rh8  1  0.750000  0.729109  0.386547  1
  Rh  Rh9  1  0.250000  0.262865  0.621780  1
  Rh  Rh10  1  0.750000  0.226828  0.120662  1
  Rh  Rh11  1  0.250000  0.782962  0.871342  1
