# generated using pymatgen
data_Pr3Si2IrPt
_symmetry_space_group_name_H-M   'P 1'
_cell_length_a   5.82932607
_cell_length_b   5.82932631
_cell_length_c   13.80291800
_cell_angle_alpha   90.00000000
_cell_angle_beta   90.00000000
_cell_angle_gamma   138.06062974
_symmetry_Int_Tables_number   1
_chemical_formula_structural   Pr3Si2IrPt
_chemical_formula_sum   'Pr6 Si4 Ir2 Pt2'
_cell_volume   313.47836712
_cell_formula_units_Z   2
loop_
 _symmetry_equiv_pos_site_id
 _symmetry_equiv_pos_as_xyz
  1  'x, y, z'
loop_
 _atom_site_type_symbol
 _atom_site_label
 _atom_site_symmetry_multiplicity
 _atom_site_fract_x
 _atom_site_fract_y
 _atom_site_fract_z
 _atom_site_occupancy
  Pr  Pr0  1  0.773258  0.226742  0.600978  1
  Pr  Pr1  1  0.519432  0.480568  0.250000  1
  Pr  Pr2  1  0.226742  0.773258  0.399022  1
  Pr  Pr3  1  0.773258  0.226742  0.899022  1
  Pr  Pr4  1  0.480568  0.519432  0.750000  1
  Pr  Pr5  1  0.226742  0.773258  0.100978  1
  Si  Si6  1  0.058447  0.941553  0.585909  1
  Si  Si7  1  0.058447  0.941553  0.914091  1
  Si  Si8  1  0.941553  0.058447  0.414091  1
  Si  Si9  1  0.941553  0.058447  0.085909  1
  Ir  Ir10  1  0.500000  0.500000  0.000000  1
  Ir  Ir11  1  0.500000  0.500000  0.500000  1
  Pt  Pt12  1  0.816049  0.183951  0.250000  1
  Pt  Pt13  1  0.183951  0.816049  0.750000  1
