# generated using pymatgen
data_Y3Er2Bi3O14
_symmetry_space_group_name_H-M   'P 1'
_cell_length_a   6.58425887
_cell_length_b   6.60796737
_cell_length_c   7.72632300
_cell_angle_alpha   106.78307556
_cell_angle_beta   89.67508548
_cell_angle_gamma   98.77656258
_symmetry_Int_Tables_number   1
_chemical_formula_structural   Y3Er2Bi3O14
_chemical_formula_sum   'Y3 Er2 Bi3 O14'
_cell_volume   317.81204260
_cell_formula_units_Z   1
loop_
 _symmetry_equiv_pos_site_id
 _symmetry_equiv_pos_as_xyz
  1  'x, y, z'
loop_
 _atom_site_type_symbol
 _atom_site_label
 _atom_site_symmetry_multiplicity
 _atom_site_fract_x
 _atom_site_fract_y
 _atom_site_fract_z
 _atom_site_occupancy
  Y  Y0  1  0.271919  0.536199  0.882690  1
  Y  Y1  1  0.736894  0.459783  0.112792  1
  Y  Y2  1  0.740526  0.476782  0.618301  1
  Er  Er3  1  0.461882  0.008137  0.253736  1
  Er  Er4  1  0.537624  0.998219  0.750340  1
  Bi  Bi5  1  0.994115  0.999673  0.500664  1
  Bi  Bi6  1  0.999342  0.996256  0.997743  1
  Bi  Bi7  1  0.280738  0.533235  0.387547  1
  O  O8  1  0.453538  0.656445  0.166745  1
  O  O9  1  0.554673  0.349359  0.834243  1
  O  O10  1  0.303643  0.922823  0.950430  1
  O  O11  1  0.697288  0.074701  0.050852  1
  O  O12  1  0.299351  0.934023  0.518297  1
  O  O13  1  0.696245  0.081319  0.490191  1
  O  O14  1  0.548883  0.359972  0.342733  1
  O  O15  1  0.461653  0.642326  0.658511  1
  O  O16  1  0.927665  0.660973  0.950532  1
  O  O17  1  0.069560  0.326716  0.029761  1
  O  O18  1  0.064875  0.342292  0.628619  1
  O  O19  1  0.907148  0.662600  0.379924  1
  O  O20  1  0.868090  0.901198  0.725862  1
  O  O21  1  0.124352  0.076966  0.269486  1
