# generated using pymatgen
data_Y4Al6ReOs
_symmetry_space_group_name_H-M   'P 1'
_cell_length_a   5.51650200
_cell_length_b   5.51650211
_cell_length_c   8.88981300
_cell_angle_alpha   90.00000000
_cell_angle_beta   90.00000000
_cell_angle_gamma   119.99999934
_symmetry_Int_Tables_number   1
_chemical_formula_structural   Y4Al6ReOs
_chemical_formula_sum   'Y4 Al6 Re1 Os1'
_cell_volume   234.28842282
_cell_formula_units_Z   1
loop_
 _symmetry_equiv_pos_site_id
 _symmetry_equiv_pos_as_xyz
  1  'x, y, z'
loop_
 _atom_site_type_symbol
 _atom_site_label
 _atom_site_symmetry_multiplicity
 _atom_site_fract_x
 _atom_site_fract_y
 _atom_site_fract_z
 _atom_site_occupancy
  Y  Y0  1  0.666666  0.333333  0.052126  1
  Y  Y1  1  0.666666  0.333333  0.448237  1
  Y  Y2  1  0.333334  0.666668  0.551762  1
  Y  Y3  1  0.333334  0.666668  0.947874  1
  Al  Al4  1  0.161668  0.323334  0.251628  1
  Al  Al5  1  0.161668  0.838333  0.251628  1
  Al  Al6  1  0.676666  0.838333  0.251628  1
  Al  Al7  1  0.323335  0.161668  0.748372  1
  Al  Al8  1  0.838332  0.161668  0.748372  1
  Al  Al9  1  0.838332  0.676666  0.748372  1
  Re  Re10  1  0.000000  0.000000  0.000000  1
  Os  Os11  1  0.000000  0.000000  0.500000  1
