# generated using pymatgen
data_NaSr2(MnAs)6
_symmetry_space_group_name_H-M   'P 1'
_cell_length_a   8.85026157
_cell_length_b   8.85026138
_cell_length_c   6.99246373
_cell_angle_alpha   64.34635598
_cell_angle_beta   64.34635880
_cell_angle_gamma   35.53152890
_symmetry_Int_Tables_number   1
_chemical_formula_structural   NaSr2(MnAs)6
_chemical_formula_sum   'Na1 Sr2 Mn6 As6'
_cell_volume   283.50344627
_cell_formula_units_Z   1
loop_
 _symmetry_equiv_pos_site_id
 _symmetry_equiv_pos_as_xyz
  1  'x, y, z'
loop_
 _atom_site_type_symbol
 _atom_site_label
 _atom_site_symmetry_multiplicity
 _atom_site_fract_x
 _atom_site_fract_y
 _atom_site_fract_z
 _atom_site_occupancy
  Na  Na0  1  0.000000  0.000000  0.000000  1
  Sr  Sr1  1  0.662432  0.662432  0.675390  1
  Sr  Sr2  1  0.337568  0.337568  0.324610  1
  Mn  Mn3  1  0.082693  0.584257  0.832623  1
  Mn  Mn4  1  0.415743  0.917307  0.167377  1
  Mn  Mn5  1  0.750885  0.249115  0.500000  1
  Mn  Mn6  1  0.249115  0.750885  0.500000  1
  Mn  Mn7  1  0.584257  0.082693  0.832623  1
  Mn  Mn8  1  0.917307  0.415743  0.167377  1
  As  As9  1  0.878831  0.878831  0.513713  1
  As  As10  1  0.212177  0.212177  0.848705  1
  As  As11  1  0.545588  0.545588  0.183059  1
  As  As12  1  0.454412  0.454412  0.816941  1
  As  As13  1  0.787823  0.787823  0.151295  1
  As  As14  1  0.121169  0.121169  0.486287  1
