# generated using pymatgen
data_Tb20Ga3TcBi8
_symmetry_space_group_name_H-M   'P 1'
_cell_length_a   8.10799336
_cell_length_b   9.29957300
_cell_length_c   12.21536438
_cell_angle_alpha   90.00000000
_cell_angle_beta   89.69310867
_cell_angle_gamma   90.00000000
_symmetry_Int_Tables_number   1
_chemical_formula_structural   Tb20Ga3TcBi8
_chemical_formula_sum   'Tb20 Ga3 Tc1 Bi8'
_cell_volume   921.03596450
_cell_formula_units_Z   1
loop_
 _symmetry_equiv_pos_site_id
 _symmetry_equiv_pos_as_xyz
  1  'x, y, z'
loop_
 _atom_site_type_symbol
 _atom_site_label
 _atom_site_symmetry_multiplicity
 _atom_site_fract_x
 _atom_site_fract_y
 _atom_site_fract_z
 _atom_site_occupancy
  Tb  Tb0  1  0.818996  0.552320  0.063226  1
  Tb  Tb1  1  0.676162  0.944296  0.560806  1
  Tb  Tb2  1  0.180287  0.052302  0.936067  1
  Tb  Tb3  1  0.319407  0.466832  0.438649  1
  Tb  Tb4  1  0.180287  0.447698  0.936067  1
  Tb  Tb5  1  0.319407  0.033168  0.438649  1
  Tb  Tb6  1  0.818996  0.947680  0.063226  1
  Tb  Tb7  1  0.676162  0.555704  0.560806  1
  Tb  Tb8  1  0.176611  0.750000  0.218053  1
  Tb  Tb9  1  0.338323  0.750000  0.707278  1
  Tb  Tb10  1  0.833036  0.250000  0.786021  1
  Tb  Tb11  1  0.672573  0.250000  0.284884  1
  Tb  Tb12  1  0.462631  0.750000  0.000394  1
  Tb  Tb13  1  0.047043  0.750000  0.499984  1
  Tb  Tb14  1  0.537208  0.250000  0.998142  1
  Tb  Tb15  1  0.965792  0.250000  0.497891  1
  Tb  Tb16  1  0.630346  0.750000  0.297871  1
  Tb  Tb17  1  0.857290  0.750000  0.796444  1
  Tb  Tb18  1  0.355699  0.250000  0.707450  1
  Tb  Tb19  1  0.141883  0.250000  0.205279  1
  Ga  Ga20  1  0.088033  0.750000  0.980051  1
  Ga  Ga21  1  0.587132  0.250000  0.523364  1
  Ga  Ga22  1  0.908029  0.250000  0.025098  1
  Tc  Tc23  1  0.414852  0.750000  0.479091  1
  Bi  Bi24  1  0.933497  0.508697  0.324518  1
  Bi  Bi25  1  0.565718  0.991882  0.825177  1
  Bi  Bi26  1  0.063735  0.008267  0.675550  1
  Bi  Bi27  1  0.433957  0.488820  0.172358  1
  Bi  Bi28  1  0.063735  0.491733  0.675550  1
  Bi  Bi29  1  0.433957  0.011180  0.172358  1
  Bi  Bi30  1  0.933497  0.991303  0.324518  1
  Bi  Bi31  1  0.565718  0.508118  0.825177  1
