# generated using pymatgen
data_NdTm(Si2Rh3)2
_symmetry_space_group_name_H-M   'P 1'
_cell_length_a   6.65028498
_cell_length_b   6.65028443
_cell_length_c   6.65028394
_cell_angle_alpha   130.40903926
_cell_angle_beta   114.26154477
_cell_angle_gamma   86.60940016
_symmetry_Int_Tables_number   1
_chemical_formula_structural   NdTm(Si2Rh3)2
_chemical_formula_sum   'Nd1 Tm1 Si4 Rh6'
_cell_volume   194.86311997
_cell_formula_units_Z   1
loop_
 _symmetry_equiv_pos_site_id
 _symmetry_equiv_pos_as_xyz
  1  'x, y, z'
loop_
 _atom_site_type_symbol
 _atom_site_label
 _atom_site_symmetry_multiplicity
 _atom_site_fract_x
 _atom_site_fract_y
 _atom_site_fract_z
 _atom_site_occupancy
  Nd  Nd0  1  0.250000  0.965508  0.715508  1
  Tm  Tm1  1  0.750000  0.049564  0.299564  1
  Si  Si2  1  0.579415  0.384672  0.805258  1
  Si  Si3  1  0.422275  0.619125  0.196849  1
  Si  Si4  1  0.077725  0.274574  0.196849  1
  Si  Si5  1  0.920585  0.725843  0.805258  1
  Rh  Rh6  1  0.211385  0.491578  0.709889  1
  Rh  Rh7  1  0.718311  0.998505  0.709889  1
  Rh  Rh8  1  0.781689  0.491578  0.280194  1
  Rh  Rh9  1  0.288615  0.998505  0.280194  1
  Rh  Rh10  1  0.502842  0.500274  0.503116  1
  Rh  Rh11  1  0.997158  0.500274  0.997432  1
