# generated using pymatgen
data_Y2ErAl12CuRu3
_symmetry_space_group_name_H-M   'P 1'
_cell_length_a   8.82881444
_cell_length_b   8.82881255
_cell_length_c   9.46696400
_cell_angle_alpha   90.00000000
_cell_angle_beta   90.00000000
_cell_angle_gamma   119.57594654
_symmetry_Int_Tables_number   1
_chemical_formula_structural   Y2ErAl12CuRu3
_chemical_formula_sum   'Y4 Er2 Al24 Cu2 Ru6'
_cell_volume   641.77971726
_cell_formula_units_Z   2
loop_
 _symmetry_equiv_pos_site_id
 _symmetry_equiv_pos_as_xyz
  1  'x, y, z'
loop_
 _atom_site_type_symbol
 _atom_site_label
 _atom_site_symmetry_multiplicity
 _atom_site_fract_x
 _atom_site_fract_y
 _atom_site_fract_z
 _atom_site_occupancy
  Y  Y0  1  0.188512  0.384168  0.250000  1
  Y  Y1  1  0.811488  0.615832  0.750000  1
  Y  Y2  1  0.615832  0.811488  0.250000  1
  Y  Y3  1  0.384168  0.188512  0.750000  1
  Er  Er4  1  0.194364  0.805636  0.250000  1
  Er  Er5  1  0.805636  0.194364  0.750000  1
  Al  Al6  1  0.332086  0.667914  0.020433  1
  Al  Al7  1  0.667914  0.332086  0.979567  1
  Al  Al8  1  0.667914  0.332086  0.520433  1
  Al  Al9  1  0.332086  0.667914  0.479567  1
  Al  Al10  1  0.157132  0.323987  0.578506  1
  Al  Al11  1  0.842868  0.676013  0.421494  1
  Al  Al12  1  0.676013  0.842868  0.578506  1
  Al  Al13  1  0.842868  0.676013  0.078506  1
  Al  Al14  1  0.323987  0.157132  0.421494  1
  Al  Al15  1  0.157132  0.323987  0.921494  1
  Al  Al16  1  0.163901  0.836099  0.576865  1
  Al  Al17  1  0.323987  0.157132  0.078506  1
  Al  Al18  1  0.836099  0.163901  0.423135  1
  Al  Al19  1  0.676013  0.842868  0.921494  1
  Al  Al20  1  0.836099  0.163901  0.076865  1
  Al  Al21  1  0.163901  0.836099  0.923135  1
  Al  Al22  1  0.559404  0.121854  0.250000  1
  Al  Al23  1  0.440596  0.878146  0.750000  1
  Al  Al24  1  0.878146  0.440596  0.250000  1
  Al  Al25  1  0.121854  0.559404  0.750000  1
  Al  Al26  1  0.560625  0.439375  0.250000  1
  Al  Al27  1  0.439375  0.560625  0.750000  1
  Al  Al28  1  0.998573  0.001427  0.250000  1
  Al  Al29  1  0.001427  0.998573  0.750000  1
  Cu  Cu30  1  0.500000  0.500000  0.000000  1
  Cu  Cu31  1  0.500000  0.500000  0.500000  1
  Ru  Ru32  1  0.500000  0.000000  0.000000  1
  Ru  Ru33  1  0.000000  0.500000  0.000000  1
  Ru  Ru34  1  0.500000  0.000000  0.500000  1
  Ru  Ru35  1  0.000000  0.500000  0.500000  1
  Ru  Ru36  1  0.000000  0.000000  0.000000  1
  Ru  Ru37  1  0.000000  0.000000  0.500000  1
