# generated using pymatgen
data_Pr3DyY4(CdIr)2
_symmetry_space_group_name_H-M   'P 1'
_cell_length_a   9.80684304
_cell_length_b   9.80683506
_cell_length_c   9.81708292
_cell_angle_alpha   59.92482516
_cell_angle_beta   59.92486331
_cell_angle_gamma   59.88997653
_symmetry_Int_Tables_number   1
_chemical_formula_structural   Pr3DyY4(CdIr)2
_chemical_formula_sum   'Pr6 Dy2 Y8 Cd4 Ir4'
_cell_volume   666.29978835
_cell_formula_units_Z   2
loop_
 _symmetry_equiv_pos_site_id
 _symmetry_equiv_pos_as_xyz
  1  'x, y, z'
loop_
 _atom_site_type_symbol
 _atom_site_label
 _atom_site_symmetry_multiplicity
 _atom_site_fract_x
 _atom_site_fract_y
 _atom_site_fract_z
 _atom_site_occupancy
  Pr  Pr0  1  0.940967  0.559013  0.559106  1
  Pr  Pr1  1  0.558177  0.941702  0.941256  1
  Pr  Pr2  1  0.559012  0.940968  0.559106  1
  Pr  Pr3  1  0.941702  0.558178  0.941256  1
  Pr  Pr4  1  0.558861  0.558862  0.940906  1
  Pr  Pr5  1  0.941190  0.941188  0.558500  1
  Dy  Dy6  1  0.346784  0.346782  0.346783  1
  Dy  Dy7  1  0.347586  0.347584  0.958436  1
  Y  Y8  1  0.348164  0.956677  0.348190  1
  Y  Y9  1  0.956676  0.348164  0.348190  1
  Y  Y10  1  0.811135  0.188112  0.188111  1
  Y  Y11  1  0.186720  0.812010  0.812061  1
  Y  Y12  1  0.188111  0.811136  0.188111  1
  Y  Y13  1  0.812009  0.186720  0.812061  1
  Y  Y14  1  0.188167  0.188167  0.811093  1
  Y  Y15  1  0.812128  0.812129  0.186643  1
  Cd  Cd16  1  0.579117  0.579117  0.579104  1
  Cd  Cd17  1  0.579419  0.579420  0.261877  1
  Cd  Cd18  1  0.579390  0.261946  0.579388  1
  Cd  Cd19  1  0.261946  0.579391  0.579388  1
  Ir  Ir20  1  0.141920  0.141920  0.140630  1
  Ir  Ir21  1  0.142426  0.142426  0.576093  1
  Ir  Ir22  1  0.143146  0.575247  0.141856  1
  Ir  Ir23  1  0.575247  0.143145  0.141856  1
