# generated using pymatgen
data_HoTm2Co8P6Os
_symmetry_space_group_name_H-M   'P 1'
_cell_length_a   3.69377700
_cell_length_b   10.44853400
_cell_length_c   12.18459800
_cell_angle_alpha   90.00000000
_cell_angle_beta   90.00000000
_cell_angle_gamma   90.00000000
_symmetry_Int_Tables_number   1
_chemical_formula_structural   HoTm2Co8P6Os
_chemical_formula_sum   'Ho2 Tm4 Co16 P12 Os2'
_cell_volume   470.25913246
_cell_formula_units_Z   2
loop_
 _symmetry_equiv_pos_site_id
 _symmetry_equiv_pos_as_xyz
  1  'x, y, z'
loop_
 _atom_site_type_symbol
 _atom_site_label
 _atom_site_symmetry_multiplicity
 _atom_site_fract_x
 _atom_site_fract_y
 _atom_site_fract_z
 _atom_site_occupancy
  Ho  Ho0  1  0.000000  0.500000  0.525417  1
  Ho  Ho1  1  0.500000  0.000000  0.474583  1
  Tm  Tm2  1  0.500000  0.817732  0.206970  1
  Tm  Tm3  1  0.500000  0.182268  0.206970  1
  Tm  Tm4  1  0.000000  0.682268  0.793030  1
  Tm  Tm5  1  0.000000  0.317732  0.793030  1
  Co  Co6  1  0.500000  0.500000  0.703987  1
  Co  Co7  1  0.000000  0.000000  0.296013  1
  Co  Co8  1  0.000000  0.500000  0.986716  1
  Co  Co9  1  0.500000  0.000000  0.013284  1
  Co  Co10  1  0.500000  0.332578  0.989752  1
  Co  Co11  1  0.500000  0.667422  0.989752  1
  Co  Co12  1  0.000000  0.167422  0.010248  1
  Co  Co13  1  0.000000  0.832578  0.010248  1
  Co  Co14  1  0.500000  0.297408  0.430910  1
  Co  Co15  1  0.500000  0.702592  0.430910  1
  Co  Co16  1  0.000000  0.202592  0.569090  1
  Co  Co17  1  0.000000  0.797408  0.569090  1
  Co  Co18  1  0.500000  0.878693  0.708558  1
  Co  Co19  1  0.500000  0.121307  0.708558  1
  Co  Co20  1  0.000000  0.621307  0.291442  1
  Co  Co21  1  0.000000  0.378693  0.291442  1
  P  P22  1  0.500000  0.500000  0.880069  1
  P  P23  1  0.000000  0.000000  0.119931  1
  P  P24  1  0.500000  0.500000  0.351776  1
  P  P25  1  0.000000  0.000000  0.648224  1
  P  P26  1  0.500000  0.312404  0.616814  1
  P  P27  1  0.500000  0.687596  0.616814  1
  P  P28  1  0.000000  0.187596  0.383186  1
  P  P29  1  0.000000  0.812404  0.383186  1
  P  P30  1  0.500000  0.845712  0.892161  1
  P  P31  1  0.500000  0.154288  0.892161  1
  P  P32  1  0.000000  0.654288  0.107839  1
  P  P33  1  0.000000  0.345712  0.107839  1
  Os  Os34  1  0.500000  0.500000  0.158912  1
  Os  Os35  1  0.000000  0.000000  0.841088  1
