# generated using pymatgen
data_Tb7LuTi11Si16Hg
_symmetry_space_group_name_H-M   'P 1'
_cell_length_a   7.09080788
_cell_length_b   7.09334031
_cell_length_c   12.94969261
_cell_angle_alpha   90.10038932
_cell_angle_beta   89.92621133
_cell_angle_gamma   89.57928344
_symmetry_Int_Tables_number   1
_chemical_formula_structural   Tb7LuTi11Si16Hg
_chemical_formula_sum   'Tb7 Lu1 Ti11 Si16 Hg1'
_cell_volume   651.31822712
_cell_formula_units_Z   1
loop_
 _symmetry_equiv_pos_site_id
 _symmetry_equiv_pos_as_xyz
  1  'x, y, z'
loop_
 _atom_site_type_symbol
 _atom_site_label
 _atom_site_symmetry_multiplicity
 _atom_site_fract_x
 _atom_site_fract_y
 _atom_site_fract_z
 _atom_site_occupancy
  Tb  Tb0  1  0.497305  0.839397  0.715620  1
  Tb  Tb1  1  0.501175  0.157772  0.215284  1
  Tb  Tb2  1  0.838998  0.497546  0.284215  1
  Tb  Tb3  1  0.158010  0.501269  0.784943  1
  Tb  Tb4  1  0.657226  0.000321  0.968397  1
  Tb  Tb5  1  0.002774  0.340387  0.532911  1
  Tb  Tb6  1  0.000370  0.657220  0.031663  1
  Lu  Lu7  1  0.341556  0.000871  0.466652  1
  Ti  Ti8  1  0.173786  0.826750  0.251033  1
  Ti  Ti9  1  0.826681  0.173497  0.749114  1
  Ti  Ti10  1  0.672432  0.673393  0.499970  1
  Ti  Ti11  1  0.148125  0.008999  0.877137  1
  Ti  Ti12  1  0.495030  0.650709  0.124222  1
  Ti  Ti13  1  0.507147  0.350452  0.624380  1
  Ti  Ti14  1  0.650530  0.495052  0.875942  1
  Ti  Ti15  1  0.350599  0.507881  0.375480  1
  Ti  Ti16  1  0.849331  0.991145  0.375091  1
  Ti  Ti17  1  0.009255  0.147817  0.122921  1
  Ti  Ti18  1  0.991322  0.849384  0.624689  1
  Si  Si19  1  0.201751  0.130700  0.684007  1
  Si  Si20  1  0.374647  0.724197  0.928208  1
  Si  Si21  1  0.629057  0.293591  0.433521  1
  Si  Si22  1  0.724097  0.374554  0.071836  1
  Si  Si23  1  0.295142  0.631961  0.565989  1
  Si  Si24  1  0.798702  0.868490  0.183962  1
  Si  Si25  1  0.132088  0.199986  0.316439  1
  Si  Si26  1  0.868328  0.798752  0.816025  1
  Si  Si27  1  0.285698  0.932933  0.067709  1
  Si  Si28  1  0.545278  0.791826  0.315639  1
  Si  Si29  1  0.458783  0.205811  0.805158  1
  Si  Si30  1  0.790717  0.546336  0.685119  1
  Si  Si31  1  0.205920  0.458810  0.194909  1
  Si  Si32  1  0.708182  0.047329  0.563634  1
  Si  Si33  1  0.932974  0.285625  0.932307  1
  Si  Si34  1  0.048849  0.711052  0.435830  1
  Hg  Hg35  1  0.328135  0.328182  0.000045  1
