# generated using pymatgen
data_Nb18CuNi4GePt4
_symmetry_space_group_name_H-M   'P 1'
_cell_length_a   5.12211653
_cell_length_b   9.81793688
_cell_length_c   9.81793671
_cell_angle_alpha   86.08259098
_cell_angle_beta   74.80789649
_cell_angle_gamma   74.80789555
_symmetry_Int_Tables_number   1
_chemical_formula_structural   Nb18CuNi4GePt4
_chemical_formula_sum   'Nb18 Cu1 Ni4 Ge1 Pt4'
_cell_volume   459.82425169
_cell_formula_units_Z   1
loop_
 _symmetry_equiv_pos_site_id
 _symmetry_equiv_pos_as_xyz
  1  'x, y, z'
loop_
 _atom_site_type_symbol
 _atom_site_label
 _atom_site_symmetry_multiplicity
 _atom_site_fract_x
 _atom_site_fract_y
 _atom_site_fract_z
 _atom_site_occupancy
  Nb  Nb0  1  0.750000  0.499904  0.500096  1
  Nb  Nb1  1  0.250000  0.500284  0.499716  1
  Nb  Nb2  1  0.789167  0.781332  0.639010  1
  Nb  Nb3  1  0.209353  0.218463  0.360481  1
  Nb  Nb4  1  0.710833  0.360990  0.218668  1
  Nb  Nb5  1  0.290647  0.639519  0.781537  1
  Nb  Nb6  1  0.570391  0.639328  0.218676  1
  Nb  Nb7  1  0.427516  0.360871  0.781450  1
  Nb  Nb8  1  0.072484  0.218550  0.639129  1
  Nb  Nb9  1  0.929609  0.781324  0.360672  1
  Nb  Nb10  1  0.584340  0.076561  0.754901  1
  Nb  Nb11  1  0.415485  0.922636  0.244868  1
  Nb  Nb12  1  0.915660  0.245099  0.923439  1
  Nb  Nb13  1  0.084515  0.755132  0.077364  1
  Nb  Nb14  1  0.660460  0.754943  0.923198  1
  Nb  Nb15  1  0.339009  0.245134  0.077029  1
  Nb  Nb16  1  0.160991  0.922971  0.754866  1
  Nb  Nb17  1  0.839540  0.076802  0.245057  1
  Cu  Cu18  1  0.250000  0.000054  0.999946  1
  Ni  Ni19  1  0.499638  0.000187  0.500262  1
  Ni  Ni20  1  0.000068  0.000126  0.499872  1
  Ni  Ni21  1  0.499932  0.500128  0.999874  1
  Ni  Ni22  1  0.000362  0.499738  0.999813  1
  Ge  Ge23  1  0.750000  0.000053  0.999947  1
  Pt  Pt24  1  0.131014  0.499890  0.239127  1
  Pt  Pt25  1  0.868866  0.499962  0.760852  1
  Pt  Pt26  1  0.368986  0.760873  0.500110  1
  Pt  Pt27  1  0.631134  0.239148  0.500038  1
