# generated using pymatgen
data_HoTm7In3Os
_symmetry_space_group_name_H-M   'P 1'
_cell_length_a   10.26847122
_cell_length_b   10.26847092
_cell_length_c   7.02179109
_cell_angle_alpha   89.97496902
_cell_angle_beta   90.02503443
_cell_angle_gamma   120.02948318
_symmetry_Int_Tables_number   1
_chemical_formula_structural   HoTm7In3Os
_chemical_formula_sum   'Ho2 Tm14 In6 Os2'
_cell_volume   641.00430537
_cell_formula_units_Z   2
loop_
 _symmetry_equiv_pos_site_id
 _symmetry_equiv_pos_as_xyz
  1  'x, y, z'
loop_
 _atom_site_type_symbol
 _atom_site_label
 _atom_site_symmetry_multiplicity
 _atom_site_fract_x
 _atom_site_fract_y
 _atom_site_fract_z
 _atom_site_occupancy
  Ho  Ho0  1  0.532548  0.065238  0.515107  1
  Ho  Ho1  1  0.934762  0.467452  0.515107  1
  Tm  Tm2  1  0.532817  0.467183  0.515535  1
  Tm  Tm3  1  0.466602  0.933241  0.015441  1
  Tm  Tm4  1  0.066759  0.533398  0.015441  1
  Tm  Tm5  1  0.466882  0.533118  0.015708  1
  Tm  Tm6  1  0.177734  0.354829  0.720373  1
  Tm  Tm7  1  0.645171  0.822266  0.720373  1
  Tm  Tm8  1  0.177158  0.822842  0.720627  1
  Tm  Tm9  1  0.822431  0.645406  0.219430  1
  Tm  Tm10  1  0.354594  0.177569  0.219430  1
  Tm  Tm11  1  0.822851  0.177149  0.219069  1
  Tm  Tm12  1  0.666398  0.333602  0.894774  1
  Tm  Tm13  1  0.333621  0.666379  0.394362  1
  Tm  Tm14  1  0.999977  0.000023  0.499406  1
  Tm  Tm15  1  0.000076  0.999924  0.999554  1
  In  In16  1  0.836586  0.673700  0.762712  1
  In  In17  1  0.326300  0.163414  0.762712  1
  In  In18  1  0.837067  0.162933  0.763114  1
  In  In19  1  0.163403  0.326659  0.262593  1
  In  In20  1  0.673341  0.836597  0.262593  1
  In  In21  1  0.163314  0.836686  0.262750  1
  Os  Os22  1  0.666338  0.333662  0.290487  1
  Os  Os23  1  0.333273  0.666727  0.791306  1
