# generated using pymatgen
data_SrLa6OsBr12
_symmetry_space_group_name_H-M   'P 1'
_cell_length_a   9.55732733
_cell_length_b   9.83309912
_cell_length_c   9.85589314
_cell_angle_alpha   106.56709644
_cell_angle_beta   106.02931067
_cell_angle_gamma   106.52882119
_symmetry_Int_Tables_number   1
_chemical_formula_structural   SrLa6OsBr12
_chemical_formula_sum   'Sr1 La6 Os1 Br12'
_cell_volume   784.14200151
_cell_formula_units_Z   1
loop_
 _symmetry_equiv_pos_site_id
 _symmetry_equiv_pos_as_xyz
  1  'x, y, z'
loop_
 _atom_site_type_symbol
 _atom_site_label
 _atom_site_symmetry_multiplicity
 _atom_site_fract_x
 _atom_site_fract_y
 _atom_site_fract_z
 _atom_site_occupancy
  Sr  Sr0  1  0.500000  0.500000  0.500000  1
  La  La1  1  0.112042  0.319350  0.021209  1
  La  La2  1  0.298369  0.020952  0.100597  1
  La  La3  1  0.018029  0.109580  0.318971  1
  La  La4  1  0.981971  0.890421  0.681029  1
  La  La5  1  0.701631  0.979049  0.899403  1
  La  La6  1  0.887958  0.680650  0.978791  1
  Os  Os7  1  0.000000  0.000000  0.000000  1
  Br  Br8  1  0.214578  0.680558  0.069693  1
  Br  Br9  1  0.456872  0.370388  0.160089  1
  Br  Br10  1  0.675771  0.067287  0.213862  1
  Br  Br11  1  0.928420  0.785698  0.318492  1
  Br  Br12  1  0.151958  0.450242  0.364609  1
  Br  Br13  1  0.367166  0.158235  0.449185  1
  Br  Br14  1  0.632834  0.841765  0.550816  1
  Br  Br15  1  0.848042  0.549758  0.635391  1
  Br  Br16  1  0.071580  0.214302  0.681509  1
  Br  Br17  1  0.324229  0.932713  0.786138  1
  Br  Br18  1  0.543128  0.629612  0.839912  1
  Br  Br19  1  0.785422  0.319443  0.930307  1
