# generated using pymatgen
data_LaTm5Zn4Pt13
_symmetry_space_group_name_H-M   'P 1'
_cell_length_a   8.26355136
_cell_length_b   8.26356083
_cell_length_c   8.26356111
_cell_angle_alpha   109.45267175
_cell_angle_beta   109.48055048
_cell_angle_gamma   109.48054918
_symmetry_Int_Tables_number   1
_chemical_formula_structural   LaTm5Zn4Pt13
_chemical_formula_sum   'La1 Tm5 Zn4 Pt13'
_cell_volume   434.38887926
_cell_formula_units_Z   1
loop_
 _symmetry_equiv_pos_site_id
 _symmetry_equiv_pos_as_xyz
  1  'x, y, z'
loop_
 _atom_site_type_symbol
 _atom_site_label
 _atom_site_symmetry_multiplicity
 _atom_site_fract_x
 _atom_site_fract_y
 _atom_site_fract_z
 _atom_site_occupancy
  La  La0  1  0.000000  0.706158  0.706158  1
  Tm  Tm1  1  0.697057  0.697824  0.000767  1
  Tm  Tm2  1  0.302943  0.000768  0.303710  1
  Tm  Tm3  1  0.000000  0.305573  0.305573  1
  Tm  Tm4  1  0.302943  0.303710  0.000768  1
  Tm  Tm5  1  0.697057  0.000767  0.697824  1
  Zn  Zn6  1  0.000000  0.999419  0.494899  1
  Zn  Zn7  1  0.000000  0.494899  0.999419  1
  Zn  Zn8  1  0.504519  0.999418  0.999418  1
  Zn  Zn9  1  0.495482  0.494900  0.494900  1
  Pt  Pt10  1  0.332578  0.332680  0.665259  1
  Pt  Pt11  1  0.667422  0.000102  0.332680  1
  Pt  Pt12  1  0.000000  0.670724  0.325935  1
  Pt  Pt13  1  0.667422  0.332680  0.000102  1
  Pt  Pt14  1  0.332578  0.665259  0.332680  1
  Pt  Pt15  1  0.000000  0.325935  0.670724  1
  Pt  Pt16  1  0.335988  0.665075  0.001063  1
  Pt  Pt17  1  0.335988  0.001063  0.665075  1
  Pt  Pt18  1  0.655212  0.325937  0.325937  1
  Pt  Pt19  1  0.664012  0.665075  0.329087  1
  Pt  Pt20  1  0.664012  0.329087  0.665075  1
  Pt  Pt21  1  0.344788  0.670724  0.670724  1
  Pt  Pt22  1  0.000000  0.012224  0.012224  1
