# generated using pymatgen
data_Er8Lu2(IrRh)3
_symmetry_space_group_name_H-M   'P 1'
_cell_length_a   10.77438503
_cell_length_b   10.77594701
_cell_length_c   6.31823800
_cell_angle_alpha   90.00063804
_cell_angle_beta   89.99542139
_cell_angle_gamma   90.00199925
_symmetry_Int_Tables_number   1
_chemical_formula_structural   Er8Lu2(IrRh)3
_chemical_formula_sum   'Er16 Lu4 Ir6 Rh6'
_cell_volume   733.57397925
_cell_formula_units_Z   2
loop_
 _symmetry_equiv_pos_site_id
 _symmetry_equiv_pos_as_xyz
  1  'x, y, z'
loop_
 _atom_site_type_symbol
 _atom_site_label
 _atom_site_symmetry_multiplicity
 _atom_site_fract_x
 _atom_site_fract_y
 _atom_site_fract_z
 _atom_site_occupancy
  Er  Er0  1  0.290042  0.088074  0.378177  1
  Er  Er1  1  0.290045  0.911926  0.878196  1
  Er  Er2  1  0.708820  0.089333  0.877856  1
  Er  Er3  1  0.708809  0.910673  0.377870  1
  Er  Er4  1  0.586923  0.789848  0.878559  1
  Er  Er5  1  0.586934  0.210155  0.378545  1
  Er  Er6  1  0.411596  0.790184  0.378295  1
  Er  Er7  1  0.411597  0.209822  0.878301  1
  Er  Er8  1  0.210035  0.411722  0.621560  1
  Er  Er9  1  0.210026  0.588292  0.121529  1
  Er  Er10  1  0.790002  0.413003  0.121830  1
  Er  Er11  1  0.789998  0.586991  0.621817  1
  Er  Er12  1  0.912308  0.709441  0.122302  1
  Er  Er13  1  0.912292  0.290558  0.622278  1
  Er  Er14  1  0.089609  0.709316  0.621602  1
  Er  Er15  1  0.089605  0.290680  0.121611  1
  Lu  Lu16  1  0.000463  0.999907  0.499965  1
  Lu  Lu17  1  0.000469  0.000077  0.999951  1
  Lu  Lu18  1  0.500149  0.499758  0.000026  1
  Lu  Lu19  1  0.500151  0.500253  0.500026  1
  Ir  Ir20  1  0.151566  0.152420  0.749926  1
  Ir  Ir21  1  0.151558  0.847584  0.249933  1
  Ir  Ir22  1  0.653326  0.347071  0.749927  1
  Ir  Ir23  1  0.653322  0.652939  0.249934  1
  Ir  Ir24  1  0.347844  0.347503  0.250251  1
  Ir  Ir25  1  0.347847  0.652506  0.750239  1
  Rh  Rh26  1  0.846831  0.152390  0.249917  1
  Rh  Rh27  1  0.846826  0.847591  0.749926  1
  Rh  Rh28  1  0.500939  0.000075  0.122984  1
  Rh  Rh29  1  0.500951  0.999933  0.622993  1
  Rh  Rh30  1  0.999543  0.500069  0.876826  1
  Rh  Rh31  1  0.999572  0.499909  0.376852  1
