# generated using pymatgen
data_Sc2SiIr3
_symmetry_space_group_name_H-M   'P 1'
_cell_length_a   5.41123300
_cell_length_b   5.41123254
_cell_length_c   7.66903900
_cell_angle_alpha   90.00000000
_cell_angle_beta   90.00000000
_cell_angle_gamma   119.99999671
_symmetry_Int_Tables_number   1
_chemical_formula_structural   Sc2SiIr3
_chemical_formula_sum   'Sc4 Si2 Ir6'
_cell_volume   194.47510933
_cell_formula_units_Z   2
loop_
 _symmetry_equiv_pos_site_id
 _symmetry_equiv_pos_as_xyz
  1  'x, y, z'
loop_
 _atom_site_type_symbol
 _atom_site_label
 _atom_site_symmetry_multiplicity
 _atom_site_fract_x
 _atom_site_fract_y
 _atom_site_fract_z
 _atom_site_occupancy
  Sc  Sc0  1  0.333333  0.666667  0.561432  1
  Sc  Sc1  1  0.666667  0.333333  0.438568  1
  Sc  Sc2  1  0.666667  0.333333  0.061432  1
  Sc  Sc3  1  0.333333  0.666667  0.938568  1
  Si  Si4  1  0.000000  0.000000  0.500000  1
  Si  Si5  1  0.000000  0.000000  0.000000  1
  Ir  Ir6  1  0.830156  0.169844  0.750000  1
  Ir  Ir7  1  0.660314  0.830156  0.250000  1
  Ir  Ir8  1  0.169844  0.830156  0.250000  1
  Ir  Ir9  1  0.830156  0.660314  0.750000  1
  Ir  Ir10  1  0.169844  0.339686  0.250000  1
  Ir  Ir11  1  0.339686  0.169844  0.750000  1
