# generated using pymatgen
data_GdY2RuO7
_symmetry_space_group_name_H-M   'P 1'
_cell_length_a   6.46459797
_cell_length_b   6.46459865
_cell_length_c   7.46597000
_cell_angle_alpha   90.00000000
_cell_angle_beta   90.00000000
_cell_angle_gamma   70.80124645
_symmetry_Int_Tables_number   1
_chemical_formula_structural   GdY2RuO7
_chemical_formula_sum   'Gd2 Y4 Ru2 O14'
_cell_volume   294.65765686
_cell_formula_units_Z   2
loop_
 _symmetry_equiv_pos_site_id
 _symmetry_equiv_pos_as_xyz
  1  'x, y, z'
loop_
 _atom_site_type_symbol
 _atom_site_label
 _atom_site_symmetry_multiplicity
 _atom_site_fract_x
 _atom_site_fract_y
 _atom_site_fract_z
 _atom_site_occupancy
  Gd  Gd0  1  0.496957  0.503042  0.250001  1
  Gd  Gd1  1  0.503042  0.496957  0.750000  1
  Y  Y2  1  0.534506  0.000665  0.000672  1
  Y  Y3  1  0.999335  0.465495  0.499329  1
  Y  Y4  1  0.465495  0.999335  0.500671  1
  Y  Y5  1  0.000665  0.534506  0.999328  1
  Ru  Ru6  1  0.999851  0.000148  0.250001  1
  Ru  Ru7  1  0.000148  0.999851  0.750000  1
  O  O8  1  0.367247  0.367247  0.000000  1
  O  O9  1  0.638345  0.638345  0.000000  1
  O  O10  1  0.937356  0.937356  0.000000  1
  O  O11  1  0.930425  0.319043  0.220410  1
  O  O12  1  0.320696  0.928033  0.221763  1
  O  O13  1  0.071967  0.679304  0.278236  1
  O  O14  1  0.680957  0.069575  0.279590  1
  O  O15  1  0.062644  0.062644  0.500000  1
  O  O16  1  0.361655  0.361655  0.500000  1
  O  O17  1  0.632754  0.632754  0.500000  1
  O  O18  1  0.069575  0.680957  0.720411  1
  O  O19  1  0.679304  0.071967  0.721764  1
  O  O20  1  0.928033  0.320696  0.778236  1
  O  O21  1  0.319043  0.930425  0.779589  1
