# generated using pymatgen
data_GdGa2Pd3
_symmetry_space_group_name_H-M   'P 1'
_cell_length_a   4.41839800
_cell_length_b   9.53512700
_cell_length_c   9.94798900
_cell_angle_alpha   90.00000000
_cell_angle_beta   90.00000000
_cell_angle_gamma   90.00000000
_symmetry_Int_Tables_number   1
_chemical_formula_structural   GdGa2Pd3
_chemical_formula_sum   'Gd4 Ga8 Pd12'
_cell_volume   419.10863796
_cell_formula_units_Z   4
loop_
 _symmetry_equiv_pos_site_id
 _symmetry_equiv_pos_as_xyz
  1  'x, y, z'
loop_
 _atom_site_type_symbol
 _atom_site_label
 _atom_site_symmetry_multiplicity
 _atom_site_fract_x
 _atom_site_fract_y
 _atom_site_fract_z
 _atom_site_occupancy
  Gd  Gd0  1  0.250000  0.442898  0.740439  1
  Gd  Gd1  1  0.250000  0.057102  0.240439  1
  Gd  Gd2  1  0.750000  0.557102  0.259561  1
  Gd  Gd3  1  0.750000  0.942898  0.759561  1
  Ga  Ga4  1  0.250000  0.884161  0.513770  1
  Ga  Ga5  1  0.250000  0.615839  0.013770  1
  Ga  Ga6  1  0.750000  0.115839  0.486230  1
  Ga  Ga7  1  0.750000  0.384161  0.986230  1
  Ga  Ga8  1  0.250000  0.150086  0.889864  1
  Ga  Ga9  1  0.250000  0.349914  0.389864  1
  Ga  Ga10  1  0.750000  0.849914  0.110136  1
  Ga  Ga11  1  0.750000  0.650086  0.610136  1
  Pd  Pd12  1  0.250000  0.141340  0.611804  1
  Pd  Pd13  1  0.250000  0.358660  0.111804  1
  Pd  Pd14  1  0.750000  0.858660  0.388196  1
  Pd  Pd15  1  0.750000  0.641340  0.888196  1
  Pd  Pd16  1  0.250000  0.742121  0.732946  1
  Pd  Pd17  1  0.250000  0.757879  0.232946  1
  Pd  Pd18  1  0.750000  0.257879  0.267054  1
  Pd  Pd19  1  0.750000  0.242121  0.767054  1
  Pd  Pd20  1  0.250000  0.891979  0.975150  1
  Pd  Pd21  1  0.250000  0.608021  0.475150  1
  Pd  Pd22  1  0.750000  0.108021  0.024850  1
  Pd  Pd23  1  0.750000  0.391979  0.524850  1
