# generated using pymatgen
data_Ag2BiRu4PbO14
_symmetry_space_group_name_H-M   'P 1'
_cell_length_a   7.21719823
_cell_length_b   7.27471083
_cell_length_c   7.27349537
_cell_angle_alpha   60.91192717
_cell_angle_beta   60.25571362
_cell_angle_gamma   60.26118122
_symmetry_Int_Tables_number   1
_chemical_formula_structural   Ag2BiRu4PbO14
_chemical_formula_sum   'Ag2 Bi1 Ru4 Pb1 O14'
_cell_volume   272.91387435
_cell_formula_units_Z   1
loop_
 _symmetry_equiv_pos_site_id
 _symmetry_equiv_pos_as_xyz
  1  'x, y, z'
loop_
 _atom_site_type_symbol
 _atom_site_label
 _atom_site_symmetry_multiplicity
 _atom_site_fract_x
 _atom_site_fract_y
 _atom_site_fract_z
 _atom_site_occupancy
  Ag  Ag0  1  0.625000  0.125000  0.125000  1
  Ag  Ag1  1  0.125000  0.125000  0.125000  1
  Bi  Bi2  1  0.125000  0.125000  0.625000  1
  Ru  Ru3  1  0.625000  0.625000  0.125000  1
  Ru  Ru4  1  0.625000  0.125000  0.625000  1
  Ru  Ru5  1  0.125000  0.625000  0.625000  1
  Ru  Ru6  1  0.625000  0.625000  0.625000  1
  Pb  Pb7  1  0.125000  0.625000  0.125000  1
  O  O8  1  0.264692  0.229122  0.241494  1
  O  O9  1  0.985308  0.020878  0.008506  1
  O  O10  1  0.540610  0.945999  0.564003  1
  O  O11  1  0.303415  0.687959  0.308522  1
  O  O12  1  0.549897  0.562041  0.941478  1
  O  O13  1  0.953524  0.540937  0.552015  1
  O  O14  1  0.559976  0.941092  0.938956  1
  O  O15  1  0.949388  0.945999  0.564003  1
  O  O16  1  0.946585  0.562041  0.941478  1
  O  O17  1  0.690024  0.308908  0.311044  1
  O  O18  1  0.296476  0.709063  0.697985  1
  O  O19  1  0.709390  0.304001  0.685997  1
  O  O20  1  0.300612  0.304001  0.685997  1
  O  O21  1  0.700103  0.687959  0.308522  1
