# generated using pymatgen
data_La5Pr15(Ir2Ru)4
_symmetry_space_group_name_H-M   'P 1'
_cell_length_a   11.32848248
_cell_length_b   11.33836979
_cell_length_c   6.67584704
_cell_angle_alpha   89.72637504
_cell_angle_beta   90.00202917
_cell_angle_gamma   89.92417056
_symmetry_Int_Tables_number   1
_chemical_formula_structural   La5Pr15(Ir2Ru)4
_chemical_formula_sum   'La5 Pr15 Ir8 Ru4'
_cell_volume   857.47881438
_cell_formula_units_Z   1
loop_
 _symmetry_equiv_pos_site_id
 _symmetry_equiv_pos_as_xyz
  1  'x, y, z'
loop_
 _atom_site_type_symbol
 _atom_site_label
 _atom_site_symmetry_multiplicity
 _atom_site_fract_x
 _atom_site_fract_y
 _atom_site_fract_z
 _atom_site_occupancy
  La  La0  1  0.294915  0.090270  0.387086  1
  La  La1  1  0.293734  0.910716  0.886870  1
  La  La2  1  0.706002  0.091433  0.886940  1
  La  La3  1  0.706150  0.910726  0.387343  1
  La  La4  1  0.589544  0.793465  0.885845  1
  Pr  Pr5  1  0.588981  0.207774  0.384223  1
  Pr  Pr6  1  0.409682  0.791757  0.384588  1
  Pr  Pr7  1  0.410350  0.208523  0.884210  1
  Pr  Pr8  1  0.205993  0.411946  0.616078  1
  Pr  Pr9  1  0.206050  0.587711  0.116069  1
  Pr  Pr10  1  0.794042  0.411743  0.115308  1
  Pr  Pr11  1  0.794283  0.587440  0.614790  1
  Pr  Pr12  1  0.911826  0.705590  0.115247  1
  Pr  Pr13  1  0.911542  0.294107  0.614387  1
  Pr  Pr14  1  0.088673  0.705685  0.614992  1
  Pr  Pr15  1  0.088623  0.294108  0.114640  1
  Pr  Pr16  1  0.999964  0.999976  0.499677  1
  Pr  Pr17  1  0.999943  0.000418  0.999528  1
  Pr  Pr18  1  0.499483  0.499384  0.001388  1
  Pr  Pr19  1  0.500248  0.499757  0.501025  1
  Ir  Ir20  1  0.846492  0.152494  0.247396  1
  Ir  Ir21  1  0.846228  0.847316  0.747629  1
  Ir  Ir22  1  0.153847  0.152253  0.746913  1
  Ir  Ir23  1  0.153519  0.847850  0.247507  1
  Ir  Ir24  1  0.652585  0.347024  0.750338  1
  Ir  Ir25  1  0.651810  0.653981  0.248209  1
  Ir  Ir26  1  0.347567  0.347122  0.251056  1
  Ir  Ir27  1  0.346744  0.652255  0.750183  1
  Ru  Ru28  1  0.500478  0.999040  0.116699  1
  Ru  Ru29  1  0.500588  0.997989  0.621005  1
  Ru  Ru30  1  0.000270  0.500009  0.881595  1
  Ru  Ru31  1  0.999845  0.500138  0.381235  1
