# generated using pymatgen
data_Ba4LuSc2ReO12
_symmetry_space_group_name_H-M   'P 1'
_cell_length_a   7.28466736
_cell_length_b   7.28466681
_cell_length_c   7.28466746
_cell_angle_alpha   109.33233172
_cell_angle_beta   109.33233475
_cell_angle_gamma   109.74935370
_symmetry_Int_Tables_number   1
_chemical_formula_structural   Ba4LuSc2ReO12
_chemical_formula_sum   'Ba4 Lu1 Sc2 Re1 O12'
_cell_volume   297.57714999
_cell_formula_units_Z   1
loop_
 _symmetry_equiv_pos_site_id
 _symmetry_equiv_pos_as_xyz
  1  'x, y, z'
loop_
 _atom_site_type_symbol
 _atom_site_label
 _atom_site_symmetry_multiplicity
 _atom_site_fract_x
 _atom_site_fract_y
 _atom_site_fract_z
 _atom_site_occupancy
  Ba  Ba0  1  0.000000  0.500000  0.000000  1
  Ba  Ba1  1  0.500000  0.000000  0.000000  1
  Ba  Ba2  1  0.000000  0.000000  0.500000  1
  Ba  Ba3  1  0.500000  0.500000  0.500000  1
  Lu  Lu4  1  0.500000  0.500000  0.000000  1
  Sc  Sc5  1  0.500000  0.000000  0.500000  1
  Sc  Sc6  1  0.000000  0.500000  0.500000  1
  Re  Re7  1  0.000000  0.000000  0.000000  1
  O  O8  1  0.250000  0.750000  0.500000  1
  O  O9  1  0.773728  0.000000  0.773728  1
  O  O10  1  0.000000  0.773728  0.773728  1
  O  O11  1  0.000000  0.226272  0.226272  1
  O  O12  1  0.228093  0.228093  0.000000  1
  O  O13  1  0.226272  0.000000  0.226272  1
  O  O14  1  0.771907  0.771907  0.000000  1
  O  O15  1  0.750000  0.250000  0.500000  1
  O  O16  1  0.500000  0.244401  0.744401  1
  O  O17  1  0.500000  0.755599  0.255599  1
  O  O18  1  0.244401  0.500000  0.744401  1
  O  O19  1  0.755599  0.500000  0.255599  1
