# generated using pymatgen
data_Pr5Mo3(P3Ir4)4
_symmetry_space_group_name_H-M   'P 1'
_cell_length_a   12.78814700
_cell_length_b   12.78814710
_cell_length_c   4.03671200
_cell_angle_alpha   90.00000000
_cell_angle_beta   90.00000000
_cell_angle_gamma   120.00000232
_symmetry_Int_Tables_number   1
_chemical_formula_structural   Pr5Mo3(P3Ir4)4
_chemical_formula_sum   'Pr5 Mo3 P12 Ir16'
_cell_volume   571.70715887
_cell_formula_units_Z   1
loop_
 _symmetry_equiv_pos_site_id
 _symmetry_equiv_pos_as_xyz
  1  'x, y, z'
loop_
 _atom_site_type_symbol
 _atom_site_label
 _atom_site_symmetry_multiplicity
 _atom_site_fract_x
 _atom_site_fract_y
 _atom_site_fract_z
 _atom_site_occupancy
  Pr  Pr0  1  0.333333  0.666667  0.500000  1
  Pr  Pr1  1  0.666667  0.333333  0.500000  1
  Pr  Pr2  1  0.000000  0.812596  0.000000  1
  Pr  Pr3  1  0.187404  0.187404  0.000000  1
  Pr  Pr4  1  0.812596  0.000000  0.000000  1
  Mo  Mo5  1  0.000000  0.452832  0.500000  1
  Mo  Mo6  1  0.547168  0.547168  0.500000  1
  Mo  Mo7  1  0.452832  0.000000  0.500000  1
  P  P8  1  0.000000  0.635658  0.500000  1
  P  P9  1  0.364342  0.364342  0.500000  1
  P  P10  1  0.635658  0.000000  0.500000  1
  P  P11  1  0.517632  0.684745  0.000000  1
  P  P12  1  0.315255  0.832887  0.000000  1
  P  P13  1  0.167113  0.482368  0.000000  1
  P  P14  1  0.482368  0.167113  0.000000  1
  P  P15  1  0.684745  0.517632  0.000000  1
  P  P16  1  0.832887  0.315255  0.000000  1
  P  P17  1  0.000000  0.178699  0.500000  1
  P  P18  1  0.821301  0.821301  0.500000  1
  P  P19  1  0.178699  0.000000  0.500000  1
  Ir  Ir20  1  0.510399  0.868939  0.000000  1
  Ir  Ir21  1  0.131061  0.641461  0.000000  1
  Ir  Ir22  1  0.358539  0.489601  0.000000  1
  Ir  Ir23  1  0.489601  0.358539  0.000000  1
  Ir  Ir24  1  0.868939  0.510399  0.000000  1
  Ir  Ir25  1  0.641461  0.131061  0.000000  1
  Ir  Ir26  1  0.000000  0.288145  0.000000  1
  Ir  Ir27  1  0.711855  0.711855  0.000000  1
  Ir  Ir28  1  0.288145  0.000000  0.000000  1
  Ir  Ir29  1  0.623349  0.801326  0.500000  1
  Ir  Ir30  1  0.198674  0.822022  0.500000  1
  Ir  Ir31  1  0.177978  0.376651  0.500000  1
  Ir  Ir32  1  0.376651  0.177978  0.500000  1
  Ir  Ir33  1  0.801326  0.623349  0.500000  1
  Ir  Ir34  1  0.822022  0.198674  0.500000  1
  Ir  Ir35  1  0.000000  0.000000  0.500000  1
