# generated using pymatgen
data_Dy8Hg2IrPt
_symmetry_space_group_name_H-M   'P 1'
_cell_length_a   9.61776886
_cell_length_b   9.61777982
_cell_length_c   9.59245200
_cell_angle_alpha   60.08709340
_cell_angle_beta   60.08703077
_cell_angle_gamma   60.22413704
_symmetry_Int_Tables_number   1
_chemical_formula_structural   Dy8Hg2IrPt
_chemical_formula_sum   'Dy16 Hg4 Ir2 Pt2'
_cell_volume   629.31235505
_cell_formula_units_Z   2
loop_
 _symmetry_equiv_pos_site_id
 _symmetry_equiv_pos_as_xyz
  1  'x, y, z'
loop_
 _atom_site_type_symbol
 _atom_site_label
 _atom_site_symmetry_multiplicity
 _atom_site_fract_x
 _atom_site_fract_y
 _atom_site_fract_z
 _atom_site_occupancy
  Dy  Dy0  1  0.602643  0.602640  0.598185  1
  Dy  Dy1  1  0.602642  0.602640  0.196532  1
  Dy  Dy2  1  0.608265  0.187568  0.602084  1
  Dy  Dy3  1  0.187565  0.608264  0.602085  1
  Dy  Dy4  1  0.056783  0.440232  0.440673  1
  Dy  Dy5  1  0.440233  0.056784  0.062311  1
  Dy  Dy6  1  0.440233  0.056784  0.440673  1
  Dy  Dy7  1  0.056783  0.440232  0.062312  1
  Dy  Dy8  1  0.441387  0.441386  0.058614  1
  Dy  Dy9  1  0.061335  0.061339  0.438663  1
  Dy  Dy10  1  0.188345  0.813883  0.811185  1
  Dy  Dy11  1  0.813882  0.188345  0.186589  1
  Dy  Dy12  1  0.813883  0.188345  0.811184  1
  Dy  Dy13  1  0.188345  0.813882  0.186588  1
  Dy  Dy14  1  0.812675  0.812673  0.187326  1
  Dy  Dy15  1  0.187672  0.187673  0.812328  1
  Hg  Hg16  1  0.835238  0.835237  0.835872  1
  Hg  Hg17  1  0.835238  0.835238  0.493653  1
  Hg  Hg18  1  0.835160  0.492802  0.836019  1
  Hg  Hg19  1  0.492801  0.835160  0.836020  1
  Ir  Ir20  1  0.391003  0.822712  0.393143  1
  Ir  Ir21  1  0.822712  0.391004  0.393143  1
  Pt  Pt22  1  0.392589  0.392589  0.396022  1
  Pt  Pt23  1  0.392589  0.392589  0.818800  1
