# generated using pymatgen
data_Tb2Y8GaBi5
_symmetry_space_group_name_H-M   'P 1'
_cell_length_a   9.10353523
_cell_length_b   9.10353406
_cell_length_c   6.44144203
_cell_angle_alpha   90.00597356
_cell_angle_beta   90.00597046
_cell_angle_gamma   119.74853294
_symmetry_Int_Tables_number   1
_chemical_formula_structural   Tb2Y8GaBi5
_chemical_formula_sum   'Tb2 Y8 Ga1 Bi5'
_cell_volume   463.47758606
_cell_formula_units_Z   1
loop_
 _symmetry_equiv_pos_site_id
 _symmetry_equiv_pos_as_xyz
  1  'x, y, z'
loop_
 _atom_site_type_symbol
 _atom_site_label
 _atom_site_symmetry_multiplicity
 _atom_site_fract_x
 _atom_site_fract_y
 _atom_site_fract_z
 _atom_site_occupancy
  Tb  Tb0  1  0.335716  0.657521  0.503392  1
  Tb  Tb1  1  0.657521  0.335716  0.503392  1
  Y  Y2  1  0.657676  0.335644  0.996666  1
  Y  Y3  1  0.335644  0.657676  0.996666  1
  Y  Y4  1  0.749213  0.749213  0.750024  1
  Y  Y5  1  0.244953  0.014570  0.750045  1
  Y  Y6  1  0.014570  0.244953  0.750045  1
  Y  Y7  1  0.242386  0.242386  0.249876  1
  Y  Y8  1  0.758622  0.000742  0.249971  1
  Y  Y9  1  0.000742  0.758622  0.249971  1
  Ga  Ga10  1  0.392890  0.392890  0.750097  1
  Bi  Bi11  1  0.612173  0.002749  0.750126  1
  Bi  Bi12  1  0.002749  0.612173  0.750126  1
  Bi  Bi13  1  0.609548  0.609548  0.249785  1
  Bi  Bi14  1  0.390290  0.995308  0.249908  1
  Bi  Bi15  1  0.995308  0.390290  0.249908  1
