# generated using pymatgen
data_PrDy7(P7Ir8)2
_symmetry_space_group_name_H-M   'P 1'
_cell_length_a   3.94399200
_cell_length_b   12.71867578
_cell_length_c   13.16878755
_cell_angle_alpha   80.69970926
_cell_angle_beta   90.00000000
_cell_angle_gamma   90.00000000
_symmetry_Int_Tables_number   1
_chemical_formula_structural   PrDy7(P7Ir8)2
_chemical_formula_sum   'Pr1 Dy7 P14 Ir16'
_cell_volume   651.89404451
_cell_formula_units_Z   1
loop_
 _symmetry_equiv_pos_site_id
 _symmetry_equiv_pos_as_xyz
  1  'x, y, z'
loop_
 _atom_site_type_symbol
 _atom_site_label
 _atom_site_symmetry_multiplicity
 _atom_site_fract_x
 _atom_site_fract_y
 _atom_site_fract_z
 _atom_site_occupancy
  Pr  Pr0  1  0.250000  0.278497  0.102909  1
  Dy  Dy1  1  0.750000  0.791411  0.561060  1
  Dy  Dy2  1  0.250000  0.208646  0.439538  1
  Dy  Dy3  1  0.750000  0.479186  0.705227  1
  Dy  Dy4  1  0.250000  0.521493  0.295092  1
  Dy  Dy5  1  0.750000  0.720468  0.897273  1
  Dy  Dy6  1  0.250000  0.102624  0.787993  1
  Dy  Dy7  1  0.750000  0.897369  0.212448  1
  P  P8  1  0.250000  0.906699  0.411772  1
  P  P9  1  0.750000  0.473854  0.129764  1
  P  P10  1  0.250000  0.527521  0.870150  1
  P  P11  1  0.750000  0.093019  0.588659  1
  P  P12  1  0.250000  0.741608  0.079101  1
  P  P13  1  0.750000  0.256563  0.917171  1
  P  P14  1  0.750000  0.157668  0.284504  1
  P  P15  1  0.250000  0.842736  0.717209  1
  P  P16  1  0.250000  0.047826  0.101324  1
  P  P17  1  0.750000  0.947753  0.898876  1
  P  P18  1  0.250000  0.312256  0.689171  1
  P  P19  1  0.750000  0.687967  0.310384  1
  P  P20  1  0.250000  0.607755  0.566699  1
  P  P21  1  0.750000  0.393099  0.434562  1
  Ir  Ir22  1  0.250000  0.990814  0.576588  1
  Ir  Ir23  1  0.750000  0.008896  0.424199  1
  Ir  Ir24  1  0.250000  0.662339  0.730620  1
  Ir  Ir25  1  0.750000  0.339673  0.272269  1
  Ir  Ir26  1  0.250000  0.554281  0.046097  1
  Ir  Ir27  1  0.750000  0.450049  0.951076  1
  Ir  Ir28  1  0.250000  0.059997  0.273340  1
  Ir  Ir29  1  0.750000  0.938705  0.727378  1
  Ir  Ir30  1  0.250000  0.422072  0.524701  1
  Ir  Ir31  1  0.750000  0.578710  0.475827  1
  Ir  Ir32  1  0.250000  0.914095  0.996676  1
  Ir  Ir33  1  0.750000  0.083520  0.001496  1
  Ir  Ir34  1  0.250000  0.729622  0.394308  1
  Ir  Ir35  1  0.750000  0.270321  0.605678  1
  Ir  Ir36  1  0.250000  0.341642  0.856945  1
  Ir  Ir37  1  0.750000  0.659244  0.141917  1
