# generated using pymatgen
data_TaTiMn4(NbP2)2
_symmetry_space_group_name_H-M   'P 1'
_cell_length_a   3.54099700
_cell_length_b   6.18701279
_cell_length_c   7.20871100
_cell_angle_alpha   89.86056585
_cell_angle_beta   90.00000000
_cell_angle_gamma   90.00000000
_symmetry_Int_Tables_number   1
_chemical_formula_structural   TaTiMn4(NbP2)2
_chemical_formula_sum   'Ta1 Ti1 Mn4 Nb2 P4'
_cell_volume   157.92936953
_cell_formula_units_Z   1
loop_
 _symmetry_equiv_pos_site_id
 _symmetry_equiv_pos_as_xyz
  1  'x, y, z'
loop_
 _atom_site_type_symbol
 _atom_site_label
 _atom_site_symmetry_multiplicity
 _atom_site_fract_x
 _atom_site_fract_y
 _atom_site_fract_z
 _atom_site_occupancy
  Ta  Ta0  1  0.250000  0.029477  0.826243  1
  Ti  Ti1  1  0.250000  0.529681  0.674314  1
  Mn  Mn2  1  0.750000  0.861730  0.560642  1
  Mn  Mn3  1  0.250000  0.138889  0.443090  1
  Mn  Mn4  1  0.750000  0.360279  0.939147  1
  Mn  Mn5  1  0.250000  0.641054  0.057297  1
  Nb  Nb6  1  0.750000  0.469747  0.328522  1
  Nb  Nb7  1  0.750000  0.967497  0.172075  1
  P  P8  1  0.250000  0.270630  0.128406  1
  P  P9  1  0.750000  0.726914  0.863780  1
  P  P10  1  0.250000  0.767903  0.374687  1
  P  P11  1  0.750000  0.236199  0.631798  1
