# generated using pymatgen
data_Pr8Ga(Pd11Au)2
_symmetry_space_group_name_H-M   'P 1'
_cell_length_a   8.61257800
_cell_length_b   8.57627915
_cell_length_c   8.51920716
_cell_angle_alpha   89.97815438
_cell_angle_beta   90.00000000
_cell_angle_gamma   90.00000000
_symmetry_Int_Tables_number   1
_chemical_formula_structural   Pr8Ga(Pd11Au)2
_chemical_formula_sum   'Pr8 Ga1 Pd22 Au2'
_cell_volume   629.26159113
_cell_formula_units_Z   1
loop_
 _symmetry_equiv_pos_site_id
 _symmetry_equiv_pos_as_xyz
  1  'x, y, z'
loop_
 _atom_site_type_symbol
 _atom_site_label
 _atom_site_symmetry_multiplicity
 _atom_site_fract_x
 _atom_site_fract_y
 _atom_site_fract_z
 _atom_site_occupancy
  Pr  Pr0  1  0.251747  0.247053  0.745443  1
  Pr  Pr1  1  0.251124  0.748435  0.250365  1
  Pr  Pr2  1  0.752630  0.251089  0.254685  1
  Pr  Pr3  1  0.744519  0.752345  0.750033  1
  Pr  Pr4  1  0.748876  0.748435  0.250365  1
  Pr  Pr5  1  0.748253  0.247053  0.745443  1
  Pr  Pr6  1  0.255481  0.752345  0.750033  1
  Pr  Pr7  1  0.247370  0.251089  0.254685  1
  Ga  Ga8  1  0.000000  0.999510  0.999739  1
  Pd  Pd9  1  0.500000  0.499293  0.745801  1
  Pd  Pd10  1  0.500000  0.253091  0.499200  1
  Pd  Pd11  1  0.254399  0.500697  0.500813  1
  Pd  Pd12  1  0.500000  0.499183  0.254361  1
  Pd  Pd13  1  0.500000  0.746823  0.499229  1
  Pd  Pd14  1  0.745601  0.500697  0.500813  1
  Pd  Pd15  1  0.000000  0.998964  0.705204  1
  Pd  Pd16  1  0.000000  0.293271  0.998929  1
  Pd  Pd17  1  0.293035  0.001023  0.001036  1
  Pd  Pd18  1  0.000000  0.999226  0.295524  1
  Pd  Pd19  1  0.000000  0.705824  0.999378  1
  Pd  Pd20  1  0.706965  0.001023  0.001036  1
  Pd  Pd21  1  0.260646  0.999018  0.499259  1
  Pd  Pd22  1  0.000000  0.260078  0.500676  1
  Pd  Pd23  1  0.500000  0.000700  0.738600  1
  Pd  Pd24  1  0.260100  0.499522  0.999262  1
  Pd  Pd25  1  0.000000  0.500605  0.260120  1
  Pd  Pd26  1  0.500000  0.739855  0.000873  1
  Pd  Pd27  1  0.000000  0.739939  0.500629  1
  Pd  Pd28  1  0.500000  0.000777  0.261281  1
  Pd  Pd29  1  0.739354  0.999018  0.499259  1
  Pd  Pd30  1  0.739900  0.499522  0.999262  1
  Au  Au31  1  0.000000  0.501083  0.737342  1
  Au  Au32  1  0.500000  0.263411  0.001322  1
