# generated using pymatgen
data_Tb3GaGeRu2
_symmetry_space_group_name_H-M   'P 1'
_cell_length_a   5.62004400
_cell_length_b   7.76637200
_cell_length_c   13.67657400
_cell_angle_alpha   90.00000000
_cell_angle_beta   90.00000000
_cell_angle_gamma   90.00000000
_symmetry_Int_Tables_number   1
_chemical_formula_structural   Tb3GaGeRu2
_chemical_formula_sum   'Tb12 Ga4 Ge4 Ru8'
_cell_volume   596.94624446
_cell_formula_units_Z   4
loop_
 _symmetry_equiv_pos_site_id
 _symmetry_equiv_pos_as_xyz
  1  'x, y, z'
loop_
 _atom_site_type_symbol
 _atom_site_label
 _atom_site_symmetry_multiplicity
 _atom_site_fract_x
 _atom_site_fract_y
 _atom_site_fract_z
 _atom_site_occupancy
  Tb  Tb0  1  0.151391  0.903730  0.597918  1
  Tb  Tb1  1  0.848609  0.096270  0.097918  1
  Tb  Tb2  1  0.151391  0.596270  0.402082  1
  Tb  Tb3  1  0.848609  0.403730  0.902082  1
  Tb  Tb4  1  0.848609  0.096270  0.402082  1
  Tb  Tb5  1  0.151391  0.903730  0.902082  1
  Tb  Tb6  1  0.848609  0.403730  0.597918  1
  Tb  Tb7  1  0.151391  0.596270  0.097918  1
  Tb  Tb8  1  0.371835  0.267610  0.750000  1
  Tb  Tb9  1  0.628165  0.732390  0.250000  1
  Tb  Tb10  1  0.371835  0.232390  0.250000  1
  Tb  Tb11  1  0.628165  0.767610  0.750000  1
  Ga  Ga12  1  0.372130  0.250000  0.500000  1
  Ga  Ga13  1  0.627870  0.750000  0.000000  1
  Ga  Ga14  1  0.627870  0.750000  0.500000  1
  Ga  Ga15  1  0.372130  0.250000  0.000000  1
  Ge  Ge16  1  0.874341  0.115664  0.750000  1
  Ge  Ge17  1  0.125659  0.884336  0.250000  1
  Ge  Ge18  1  0.874341  0.384336  0.250000  1
  Ge  Ge19  1  0.125659  0.615664  0.750000  1
  Ru  Ru20  1  0.645391  0.032503  0.594846  1
  Ru  Ru21  1  0.354609  0.967497  0.094846  1
  Ru  Ru22  1  0.645391  0.467497  0.405154  1
  Ru  Ru23  1  0.354609  0.532503  0.905154  1
  Ru  Ru24  1  0.354609  0.967497  0.405154  1
  Ru  Ru25  1  0.645391  0.032503  0.905154  1
  Ru  Ru26  1  0.354609  0.532503  0.594846  1
  Ru  Ru27  1  0.645391  0.467497  0.094846  1
