# generated using pymatgen
data_Na2(TiS2)3
_symmetry_space_group_name_H-M   'P 1'
_cell_length_a   6.03080778
_cell_length_b   6.03080754
_cell_length_c   7.16868543
_cell_angle_alpha   81.93293573
_cell_angle_beta   81.93293521
_cell_angle_gamma   120.00410161
_symmetry_Int_Tables_number   1
_chemical_formula_structural   Na2(TiS2)3
_chemical_formula_sum   'Na2 Ti3 S6'
_cell_volume   216.71268162
_cell_formula_units_Z   1
loop_
 _symmetry_equiv_pos_site_id
 _symmetry_equiv_pos_as_xyz
  1  'x, y, z'
loop_
 _atom_site_type_symbol
 _atom_site_label
 _atom_site_symmetry_multiplicity
 _atom_site_fract_x
 _atom_site_fract_y
 _atom_site_fract_z
 _atom_site_occupancy
  Na  Na0  1  0.166601  0.833399  0.500000  1
  Na  Na1  1  0.833399  0.166601  0.500000  1
  Ti  Ti2  1  0.000000  0.000000  0.000000  1
  Ti  Ti3  1  0.333039  0.666961  0.000000  1
  Ti  Ti4  1  0.666961  0.333039  0.000000  1
  S  S5  1  0.929215  0.597164  0.208082  1
  S  S6  1  0.265198  0.265198  0.207903  1
  S  S7  1  0.597164  0.929215  0.208082  1
  S  S8  1  0.734802  0.734802  0.792097  1
  S  S9  1  0.070785  0.402836  0.791918  1
  S  S10  1  0.402836  0.070785  0.791918  1
