# generated using pymatgen
data_Tm8Re3B24Rh
_symmetry_space_group_name_H-M   'P 1'
_cell_length_a   3.64026300
_cell_length_b   9.09794852
_cell_length_c   11.46473578
_cell_angle_alpha   90.15698155
_cell_angle_beta   90.00000000
_cell_angle_gamma   90.00000000
_symmetry_Int_Tables_number   1
_chemical_formula_structural   Tm8Re3B24Rh
_chemical_formula_sum   'Tm8 Re3 B24 Rh1'
_cell_volume   379.69830354
_cell_formula_units_Z   1
loop_
 _symmetry_equiv_pos_site_id
 _symmetry_equiv_pos_as_xyz
  1  'x, y, z'
loop_
 _atom_site_type_symbol
 _atom_site_label
 _atom_site_symmetry_multiplicity
 _atom_site_fract_x
 _atom_site_fract_y
 _atom_site_fract_z
 _atom_site_occupancy
  Tm  Tm0  1  0.000000  0.317807  0.415578  1
  Tm  Tm1  1  0.000000  0.678669  0.591353  1
  Tm  Tm2  1  0.000000  0.826878  0.081181  1
  Tm  Tm3  1  0.000000  0.177572  0.912755  1
  Tm  Tm4  1  0.000000  0.943534  0.370380  1
  Tm  Tm5  1  0.000000  0.055771  0.628792  1
  Tm  Tm6  1  0.000000  0.441442  0.128654  1
  Tm  Tm7  1  0.000000  0.556452  0.871777  1
  Re  Re8  1  0.000000  0.362492  0.677577  1
  Re  Re9  1  0.000000  0.138428  0.180113  1
  Re  Re10  1  0.000000  0.861320  0.820814  1
  B  B11  1  0.500000  0.553983  0.434101  1
  B  B12  1  0.500000  0.446906  0.565993  1
  B  B13  1  0.500000  0.053270  0.066190  1
  B  B14  1  0.500000  0.947170  0.933168  1
  B  B15  1  0.500000  0.749746  0.420655  1
  B  B16  1  0.500000  0.249743  0.580418  1
  B  B17  1  0.500000  0.250025  0.080720  1
  B  B18  1  0.500000  0.750821  0.919417  1
  B  B19  1  0.500000  0.791876  0.264667  1
  B  B20  1  0.500000  0.207638  0.734551  1
  B  B21  1  0.500000  0.292782  0.235595  1
  B  B22  1  0.500000  0.707375  0.765422  1
  B  B23  1  0.500000  0.631929  0.183528  1
  B  B24  1  0.500000  0.369371  0.814876  1
  B  B25  1  0.500000  0.130805  0.315565  1
  B  B26  1  0.500000  0.868545  0.684737  1
  B  B27  1  0.500000  0.982065  0.212100  1
  B  B28  1  0.500000  0.018049  0.787065  1
  B  B29  1  0.500000  0.482731  0.287944  1
  B  B30  1  0.500000  0.518860  0.712403  1
  B  B31  1  0.500000  0.603235  0.029128  1
  B  B32  1  0.500000  0.397929  0.972218  1
  B  B33  1  0.500000  0.101225  0.471305  1
  B  B34  1  0.500000  0.895683  0.528074  1
  Rh  Rh35  1  0.000000  0.637873  0.321187  1
