# generated using pymatgen
data_TbGa2Ni2Ir
_symmetry_space_group_name_H-M   'P 1'
_cell_length_a   4.15526800
_cell_length_b   8.87523839
_cell_length_c   8.87523734
_cell_angle_alpha   60.52137656
_cell_angle_beta   90.00000000
_cell_angle_gamma   90.00000000
_symmetry_Int_Tables_number   1
_chemical_formula_structural   TbGa2Ni2Ir
_chemical_formula_sum   'Tb3 Ga6 Ni6 Ir3'
_cell_volume   284.93608400
_cell_formula_units_Z   3
loop_
 _symmetry_equiv_pos_site_id
 _symmetry_equiv_pos_as_xyz
  1  'x, y, z'
loop_
 _atom_site_type_symbol
 _atom_site_label
 _atom_site_symmetry_multiplicity
 _atom_site_fract_x
 _atom_site_fract_y
 _atom_site_fract_z
 _atom_site_occupancy
  Tb  Tb0  1  0.500000  0.334034  0.334414  1
  Tb  Tb1  1  0.500000  0.665586  0.665966  1
  Tb  Tb2  1  0.000000  0.997640  0.002360  1
  Ga  Ga3  1  0.500000  0.721568  0.278432  1
  Ga  Ga4  1  0.500000  0.278991  0.000761  1
  Ga  Ga5  1  0.500000  0.999239  0.721009  1
  Ga  Ga6  1  0.000000  0.472531  0.527469  1
  Ga  Ga7  1  0.000000  0.528834  0.998293  1
  Ga  Ga8  1  0.000000  0.001707  0.471166  1
  Ni  Ni9  1  0.000000  0.214632  0.167350  1
  Ni  Ni10  1  0.000000  0.166657  0.623285  1
  Ni  Ni11  1  0.000000  0.619934  0.212866  1
  Ni  Ni12  1  0.000000  0.832649  0.785368  1
  Ni  Ni13  1  0.000000  0.376715  0.833343  1
  Ni  Ni14  1  0.000000  0.787134  0.380066  1
  Ir  Ir15  1  0.500000  0.291575  0.708425  1
  Ir  Ir16  1  0.500000  0.709296  0.998821  1
  Ir  Ir17  1  0.500000  0.001179  0.290704  1
