# generated using pymatgen
data_Dy2MnCo16
_symmetry_space_group_name_H-M   'P 1'
_cell_length_a   6.28354725
_cell_length_b   6.28354531
_cell_length_c   6.28354648
_cell_angle_alpha   83.10619874
_cell_angle_beta   83.10620204
_cell_angle_gamma   83.10619716
_symmetry_Int_Tables_number   1
_chemical_formula_structural   Dy2MnCo16
_chemical_formula_sum   'Dy2 Mn1 Co16'
_cell_volume   243.11052792
_cell_formula_units_Z   1
loop_
 _symmetry_equiv_pos_site_id
 _symmetry_equiv_pos_as_xyz
  1  'x, y, z'
loop_
 _atom_site_type_symbol
 _atom_site_label
 _atom_site_symmetry_multiplicity
 _atom_site_fract_x
 _atom_site_fract_y
 _atom_site_fract_z
 _atom_site_occupancy
  Dy  Dy0  1  0.655775  0.655775  0.655775  1
  Dy  Dy1  1  0.346710  0.346710  0.346710  1
  Mn  Mn2  1  0.097588  0.097588  0.097588  1
  Co  Co3  1  0.710897  0.288942  0.998828  1
  Co  Co4  1  0.998828  0.710897  0.288942  1
  Co  Co5  1  0.288942  0.998828  0.710897  1
  Co  Co6  1  0.998828  0.288942  0.710897  1
  Co  Co7  1  0.710897  0.998828  0.288942  1
  Co  Co8  1  0.288942  0.710897  0.998828  1
  Co  Co9  1  0.348309  0.348309  0.848533  1
  Co  Co10  1  0.848533  0.348309  0.348309  1
  Co  Co11  1  0.348309  0.848533  0.348309  1
  Co  Co12  1  0.654100  0.654100  0.151462  1
  Co  Co13  1  0.151462  0.654100  0.654100  1
  Co  Co14  1  0.654100  0.151462  0.654100  1
  Co  Co15  1  0.997403  0.997403  0.504529  1
  Co  Co16  1  0.504529  0.997403  0.997403  1
  Co  Co17  1  0.997403  0.504529  0.997403  1
  Co  Co18  1  0.898447  0.898447  0.898447  1
