# generated using pymatgen
data_Nd2LuRuBr3
_symmetry_space_group_name_H-M   'P 1'
_cell_length_a   4.21770800
_cell_length_b   8.60744461
_cell_length_c   12.03323150
_cell_angle_alpha   86.09845805
_cell_angle_beta   90.00000000
_cell_angle_gamma   90.00000000
_symmetry_Int_Tables_number   1
_chemical_formula_structural   Nd2LuRuBr3
_chemical_formula_sum   'Nd4 Lu2 Ru2 Br6'
_cell_volume   435.83825801
_cell_formula_units_Z   2
loop_
 _symmetry_equiv_pos_site_id
 _symmetry_equiv_pos_as_xyz
  1  'x, y, z'
loop_
 _atom_site_type_symbol
 _atom_site_label
 _atom_site_symmetry_multiplicity
 _atom_site_fract_x
 _atom_site_fract_y
 _atom_site_fract_z
 _atom_site_occupancy
  Nd  Nd0  1  0.750000  0.099196  0.671517  1
  Nd  Nd1  1  0.250000  0.900804  0.328483  1
  Nd  Nd2  1  0.250000  0.281431  0.898918  1
  Nd  Nd3  1  0.750000  0.718569  0.101082  1
  Lu  Lu4  1  0.750000  0.128884  0.127130  1
  Lu  Lu5  1  0.250000  0.871116  0.872870  1
  Ru  Ru6  1  0.750000  0.053818  0.905723  1
  Ru  Ru7  1  0.250000  0.946182  0.094277  1
  Br  Br8  1  0.250000  0.345757  0.641608  1
  Br  Br9  1  0.750000  0.654243  0.358392  1
  Br  Br10  1  0.750000  0.141446  0.387312  1
  Br  Br11  1  0.250000  0.858554  0.612688  1
  Br  Br12  1  0.250000  0.420551  0.133035  1
  Br  Br13  1  0.750000  0.579449  0.866965  1
