# generated using pymatgen
data_Sm(TaOs)2
_symmetry_space_group_name_H-M   'P 1'
_cell_length_a   4.39024467
_cell_length_b   4.39024384
_cell_length_c   6.24583752
_cell_angle_alpha   110.57626438
_cell_angle_beta   110.57625929
_cell_angle_gamma   89.99998642
_symmetry_Int_Tables_number   1
_chemical_formula_structural   Sm(TaOs)2
_chemical_formula_sum   'Sm1 Ta2 Os2'
_cell_volume   104.46099263
_cell_formula_units_Z   1
loop_
 _symmetry_equiv_pos_site_id
 _symmetry_equiv_pos_as_xyz
  1  'x, y, z'
loop_
 _atom_site_type_symbol
 _atom_site_label
 _atom_site_symmetry_multiplicity
 _atom_site_fract_x
 _atom_site_fract_y
 _atom_site_fract_z
 _atom_site_occupancy
  Sm  Sm0  1  0.000000  0.000000  0.000000  1
  Ta  Ta1  1  0.750001  0.249998  0.500000  1
  Ta  Ta2  1  0.249998  0.750001  0.500000  1
  Os  Os3  1  0.618886  0.618886  0.237773  1
  Os  Os4  1  0.381113  0.381113  0.762225  1
