# generated using pymatgen
data_Dy3Y5(SiI6)2
_symmetry_space_group_name_H-M   'P 1'
_cell_length_a   4.21461700
_cell_length_b   14.02500500
_cell_length_c   14.80093300
_cell_angle_alpha   90.00170137
_cell_angle_beta   90.00000000
_cell_angle_gamma   90.00000000
_symmetry_Int_Tables_number   1
_chemical_formula_structural   Dy3Y5(SiI6)2
_chemical_formula_sum   'Dy3 Y5 Si2 I12'
_cell_volume   874.88351203
_cell_formula_units_Z   1
loop_
 _symmetry_equiv_pos_site_id
 _symmetry_equiv_pos_as_xyz
  1  'x, y, z'
loop_
 _atom_site_type_symbol
 _atom_site_label
 _atom_site_symmetry_multiplicity
 _atom_site_fract_x
 _atom_site_fract_y
 _atom_site_fract_z
 _atom_site_occupancy
  Dy  Dy0  1  0.000000  0.888737  0.425489  1
  Dy  Dy1  1  0.000000  0.611180  0.925546  1
  Dy  Dy2  1  0.000000  0.388826  0.074455  1
  Y  Y3  1  0.500000  0.114096  0.347750  1
  Y  Y4  1  0.500000  0.885956  0.652277  1
  Y  Y5  1  0.500000  0.614039  0.152217  1
  Y  Y6  1  0.500000  0.385969  0.847800  1
  Y  Y7  1  0.000000  0.111211  0.574499  1
  Si  Si8  1  0.500000  0.999773  0.499846  1
  Si  Si9  1  0.500000  0.500007  0.000007  1
  I  I10  1  0.500000  0.245268  0.161448  1
  I  I11  1  0.500000  0.754718  0.838547  1
  I  I12  1  0.500000  0.745282  0.338546  1
  I  I13  1  0.500000  0.254939  0.661558  1
  I  I14  1  0.000000  0.258692  0.414175  1
  I  I15  1  0.000000  0.741428  0.585641  1
  I  I16  1  0.000000  0.758588  0.085645  1
  I  I17  1  0.000000  0.241425  0.914366  1
  I  I18  1  0.000000  0.999089  0.240632  1
  I  I19  1  0.000000  0.000759  0.759550  1
  I  I20  1  0.000000  0.499091  0.259380  1
  I  I21  1  0.000000  0.500924  0.740626  1
