# generated using pymatgen
data_Tm(ZnAu)6
_symmetry_space_group_name_H-M   'P 1'
_cell_length_a   7.04885855
_cell_length_b   7.04885822
_cell_length_c   7.04885797
_cell_angle_alpha   95.89929138
_cell_angle_beta   100.15247417
_cell_angle_gamma   136.13308729
_symmetry_Int_Tables_number   1
_chemical_formula_structural   Tm(ZnAu)6
_chemical_formula_sum   'Tm1 Zn6 Au6'
_cell_volume   224.93318984
_cell_formula_units_Z   1
loop_
 _symmetry_equiv_pos_site_id
 _symmetry_equiv_pos_as_xyz
  1  'x, y, z'
loop_
 _atom_site_type_symbol
 _atom_site_label
 _atom_site_symmetry_multiplicity
 _atom_site_fract_x
 _atom_site_fract_y
 _atom_site_fract_z
 _atom_site_occupancy
  Tm  Tm0  1  0.000000  0.000000  0.000000  1
  Zn  Zn1  1  0.000000  0.000000  0.500000  1
  Zn  Zn2  1  0.500000  0.500000  0.500000  1
  Zn  Zn3  1  0.500000  0.000000  0.000000  1
  Zn  Zn4  1  0.000000  0.500000  0.000000  1
  Zn  Zn5  1  0.741209  0.500000  0.241209  1
  Zn  Zn6  1  0.258791  0.500000  0.758791  1
  Au  Au7  1  0.000000  0.337025  0.337025  1
  Au  Au8  1  0.000000  0.662975  0.662975  1
  Au  Au9  1  0.669003  0.000000  0.669003  1
  Au  Au10  1  0.330997  0.000000  0.330997  1
  Au  Au11  1  0.500000  0.325861  0.825861  1
  Au  Au12  1  0.500000  0.674139  0.174139  1
