# generated using pymatgen
data_Tb2Y4ScCo17P12
_symmetry_space_group_name_H-M   'P 1'
_cell_length_a   3.71522400
_cell_length_b   10.59110600
_cell_length_c   12.28645700
_cell_angle_alpha   90.00000000
_cell_angle_beta   90.00000000
_cell_angle_gamma   90.00000000
_symmetry_Int_Tables_number   1
_chemical_formula_structural   Tb2Y4ScCo17P12
_chemical_formula_sum   'Tb2 Y4 Sc1 Co17 P12'
_cell_volume   483.45157928
_cell_formula_units_Z   1
loop_
 _symmetry_equiv_pos_site_id
 _symmetry_equiv_pos_as_xyz
  1  'x, y, z'
loop_
 _atom_site_type_symbol
 _atom_site_label
 _atom_site_symmetry_multiplicity
 _atom_site_fract_x
 _atom_site_fract_y
 _atom_site_fract_z
 _atom_site_occupancy
  Tb  Tb0  1  0.000000  0.500000  0.527897  1
  Tb  Tb1  1  0.500000  0.000000  0.477672  1
  Y  Y2  1  0.500000  0.821259  0.207335  1
  Y  Y3  1  0.500000  0.178741  0.207335  1
  Y  Y4  1  0.000000  0.682707  0.795625  1
  Y  Y5  1  0.000000  0.317293  0.795625  1
  Sc  Sc6  1  0.500000  0.500000  0.152450  1
  Co  Co7  1  0.000000  0.000000  0.837132  1
  Co  Co8  1  0.500000  0.500000  0.703704  1
  Co  Co9  1  0.000000  0.000000  0.295761  1
  Co  Co10  1  0.000000  0.500000  0.984676  1
  Co  Co11  1  0.500000  0.000000  0.013034  1
  Co  Co12  1  0.500000  0.326673  0.989851  1
  Co  Co13  1  0.500000  0.673327  0.989851  1
  Co  Co14  1  0.000000  0.162085  0.001283  1
  Co  Co15  1  0.000000  0.837915  0.001283  1
  Co  Co16  1  0.500000  0.294718  0.434183  1
  Co  Co17  1  0.500000  0.705282  0.434183  1
  Co  Co18  1  0.000000  0.201928  0.570710  1
  Co  Co19  1  0.000000  0.798072  0.570710  1
  Co  Co20  1  0.500000  0.880589  0.707979  1
  Co  Co21  1  0.500000  0.119411  0.707979  1
  Co  Co22  1  0.000000  0.622331  0.296622  1
  Co  Co23  1  0.000000  0.377669  0.296622  1
  P  P24  1  0.500000  0.500000  0.883426  1
  P  P25  1  0.000000  0.000000  0.115848  1
  P  P26  1  0.500000  0.500000  0.357597  1
  P  P27  1  0.000000  0.000000  0.655407  1
  P  P28  1  0.500000  0.308606  0.617749  1
  P  P29  1  0.500000  0.691394  0.617749  1
  P  P30  1  0.000000  0.189392  0.386378  1
  P  P31  1  0.000000  0.810608  0.386378  1
  P  P32  1  0.500000  0.852047  0.889076  1
  P  P33  1  0.500000  0.147953  0.889076  1
  P  P34  1  0.000000  0.663310  0.100908  1
  P  P35  1  0.000000  0.336690  0.100908  1
