# generated using pymatgen
data_CeGa4Co
_symmetry_space_group_name_H-M   'P 1'
_cell_length_a   8.07749173
_cell_length_b   8.07749093
_cell_length_c   6.53616600
_cell_angle_alpha   90.00000000
_cell_angle_beta   90.00000000
_cell_angle_gamma   149.79770945
_symmetry_Int_Tables_number   1
_chemical_formula_structural   CeGa4Co
_chemical_formula_sum   'Ce2 Ga8 Co2'
_cell_volume   214.53152069
_cell_formula_units_Z   2
loop_
 _symmetry_equiv_pos_site_id
 _symmetry_equiv_pos_as_xyz
  1  'x, y, z'
loop_
 _atom_site_type_symbol
 _atom_site_label
 _atom_site_symmetry_multiplicity
 _atom_site_fract_x
 _atom_site_fract_y
 _atom_site_fract_z
 _atom_site_occupancy
  Ce  Ce0  1  0.882040  0.117960  0.750000  1
  Ce  Ce1  1  0.117960  0.882040  0.250000  1
  Ga  Ga2  1  0.688776  0.311224  0.946791  1
  Ga  Ga3  1  0.311224  0.688776  0.053209  1
  Ga  Ga4  1  0.311224  0.688776  0.446791  1
  Ga  Ga5  1  0.688776  0.311224  0.553209  1
  Ga  Ga6  1  0.925511  0.074489  0.250000  1
  Ga  Ga7  1  0.074489  0.925511  0.750000  1
  Ga  Ga8  1  0.500000  0.500000  0.500000  1
  Ga  Ga9  1  0.500000  0.500000  0.000000  1
  Co  Co10  1  0.775277  0.224723  0.250000  1
  Co  Co11  1  0.224723  0.775277  0.750000  1
