# generated using pymatgen
data_La10C4Br15
_symmetry_space_group_name_H-M   'P 1'
_cell_length_a   9.37559669
_cell_length_b   10.46028959
_cell_length_c   11.33109962
_cell_angle_alpha   70.39852029
_cell_angle_beta   66.38811638
_cell_angle_gamma   70.64694504
_symmetry_Int_Tables_number   1
_chemical_formula_structural   La10C4Br15
_chemical_formula_sum   'La10 C4 Br15'
_cell_volume   933.89555389
_cell_formula_units_Z   1
loop_
 _symmetry_equiv_pos_site_id
 _symmetry_equiv_pos_as_xyz
  1  'x, y, z'
loop_
 _atom_site_type_symbol
 _atom_site_label
 _atom_site_symmetry_multiplicity
 _atom_site_fract_x
 _atom_site_fract_y
 _atom_site_fract_z
 _atom_site_occupancy
  La  La0  1  0.334657  0.750869  0.831064  1
  La  La1  1  0.665343  0.249131  0.168936  1
  La  La2  1  0.170845  0.430069  0.045846  1
  La  La3  1  0.829155  0.569931  0.954154  1
  La  La4  1  0.078173  0.181834  0.888510  1
  La  La5  1  0.921827  0.818166  0.111490  1
  La  La6  1  0.246415  0.540301  0.645347  1
  La  La7  1  0.753585  0.459699  0.354653  1
  La  La8  1  0.029150  0.104230  0.265038  1
  La  La9  1  0.970850  0.895770  0.734962  1
  C  C10  1  0.879647  0.358436  0.172148  1
  C  C11  1  0.120353  0.641564  0.827852  1
  C  C12  1  0.955509  0.296261  0.062601  1
  C  C13  1  0.044491  0.703739  0.937399  1
  Br  Br14  1  0.500000  0.500000  0.000000  1
  Br  Br15  1  0.133657  0.814256  0.468391  1
  Br  Br16  1  0.866343  0.185744  0.531609  1
  Br  Br17  1  0.254152  0.027310  0.646360  1
  Br  Br18  1  0.745848  0.972690  0.353640  1
  Br  Br19  1  0.336054  0.167438  0.221556  1
  Br  Br20  1  0.663946  0.832562  0.778444  1
  Br  Br21  1  0.454354  0.367959  0.413322  1
  Br  Br22  1  0.545646  0.632041  0.586678  1
  Br  Br23  1  0.947860  0.444187  0.704401  1
  Br  Br24  1  0.052140  0.555813  0.295599  1
  Br  Br25  1  0.230324  0.908646  0.060821  1
  Br  Br26  1  0.769676  0.091354  0.939179  1
  Br  Br27  1  0.385026  0.272498  0.818167  1
  Br  Br28  1  0.614974  0.727502  0.181833  1
