# generated using pymatgen
data_Hf3Zr2CoAs3
_symmetry_space_group_name_H-M   'P 1'
_cell_length_a   3.70771900
_cell_length_b   10.51913900
_cell_length_c   17.48863800
_cell_angle_alpha   90.00000000
_cell_angle_beta   90.00000000
_cell_angle_gamma   90.00000000
_symmetry_Int_Tables_number   1
_chemical_formula_structural   Hf3Zr2CoAs3
_chemical_formula_sum   'Hf12 Zr8 Co4 As12'
_cell_volume   682.09206099
_cell_formula_units_Z   4
loop_
 _symmetry_equiv_pos_site_id
 _symmetry_equiv_pos_as_xyz
  1  'x, y, z'
loop_
 _atom_site_type_symbol
 _atom_site_label
 _atom_site_symmetry_multiplicity
 _atom_site_fract_x
 _atom_site_fract_y
 _atom_site_fract_z
 _atom_site_occupancy
  Hf  Hf0  1  0.250000  0.943921  0.077007  1
  Hf  Hf1  1  0.750000  0.056079  0.922993  1
  Hf  Hf2  1  0.750000  0.443921  0.422993  1
  Hf  Hf3  1  0.250000  0.556079  0.577007  1
  Hf  Hf4  1  0.250000  0.241645  0.166691  1
  Hf  Hf5  1  0.750000  0.758355  0.833309  1
  Hf  Hf6  1  0.750000  0.741645  0.333309  1
  Hf  Hf7  1  0.250000  0.258355  0.666691  1
  Hf  Hf8  1  0.250000  0.515511  0.276608  1
  Hf  Hf9  1  0.750000  0.484489  0.723392  1
  Hf  Hf10  1  0.750000  0.015511  0.223392  1
  Hf  Hf11  1  0.250000  0.984489  0.776608  1
  Zr  Zr12  1  0.250000  0.184864  0.367228  1
  Zr  Zr13  1  0.750000  0.815136  0.632772  1
  Zr  Zr14  1  0.750000  0.684864  0.132772  1
  Zr  Zr15  1  0.250000  0.315136  0.867228  1
  Zr  Zr16  1  0.250000  0.878921  0.477330  1
  Zr  Zr17  1  0.750000  0.121079  0.522670  1
  Zr  Zr18  1  0.750000  0.378921  0.022670  1
  Zr  Zr19  1  0.250000  0.621079  0.977330  1
  Co  Co20  1  0.250000  0.629777  0.407637  1
  Co  Co21  1  0.750000  0.370223  0.592363  1
  Co  Co22  1  0.750000  0.129777  0.092363  1
  Co  Co23  1  0.250000  0.870223  0.907637  1
  As  As24  1  0.250000  0.490962  0.119716  1
  As  As25  1  0.750000  0.509038  0.880284  1
  As  As26  1  0.750000  0.990962  0.380284  1
  As  As27  1  0.250000  0.009038  0.619716  1
  As  As28  1  0.250000  0.816162  0.219676  1
  As  As29  1  0.750000  0.183838  0.780324  1
  As  As30  1  0.750000  0.316162  0.280324  1
  As  As31  1  0.250000  0.683838  0.719676  1
  As  As32  1  0.250000  0.187245  0.008018  1
  As  As33  1  0.750000  0.812755  0.991982  1
  As  As34  1  0.750000  0.687245  0.491982  1
  As  As35  1  0.250000  0.312755  0.508018  1
