# generated using pymatgen
data_Ho2LuCdAg3Ge2
_symmetry_space_group_name_H-M   'P 1'
_cell_length_a   7.27468990
_cell_length_b   7.27469052
_cell_length_c   4.17129400
_cell_angle_alpha   90.00000000
_cell_angle_beta   90.00000000
_cell_angle_gamma   119.94456310
_symmetry_Int_Tables_number   1
_chemical_formula_structural   Ho2LuCdAg3Ge2
_chemical_formula_sum   'Ho2 Lu1 Cd1 Ag3 Ge2'
_cell_volume   191.28141431
_cell_formula_units_Z   1
loop_
 _symmetry_equiv_pos_site_id
 _symmetry_equiv_pos_as_xyz
  1  'x, y, z'
loop_
 _atom_site_type_symbol
 _atom_site_label
 _atom_site_symmetry_multiplicity
 _atom_site_fract_x
 _atom_site_fract_y
 _atom_site_fract_z
 _atom_site_occupancy
  Ho  Ho0  1  0.575458  0.999513  0.000000  1
  Ho  Ho1  1  0.999513  0.575458  0.000000  1
  Lu  Lu2  1  0.424636  0.424636  0.000000  1
  Cd  Cd3  1  0.001777  0.001777  0.000000  1
  Ag  Ag4  1  0.259530  0.000421  0.500000  1
  Ag  Ag5  1  0.000421  0.259530  0.500000  1
  Ag  Ag6  1  0.739913  0.739913  0.500000  1
  Ge  Ge7  1  0.333819  0.664932  0.500000  1
  Ge  Ge8  1  0.664932  0.333819  0.500000  1
