# generated using pymatgen
data_Tb4Al16Ga2(IrPt)3
_symmetry_space_group_name_H-M   'P 1'
_cell_length_a   7.58920460
_cell_length_b   7.58920310
_cell_length_c   9.47108942
_cell_angle_alpha   89.98288159
_cell_angle_beta   89.98288298
_cell_angle_gamma   119.52566734
_symmetry_Int_Tables_number   1
_chemical_formula_structural   Tb4Al16Ga2(IrPt)3
_chemical_formula_sum   'Tb4 Al16 Ga2 Ir3 Pt3'
_cell_volume   474.65596395
_cell_formula_units_Z   1
loop_
 _symmetry_equiv_pos_site_id
 _symmetry_equiv_pos_as_xyz
  1  'x, y, z'
loop_
 _atom_site_type_symbol
 _atom_site_label
 _atom_site_symmetry_multiplicity
 _atom_site_fract_x
 _atom_site_fract_y
 _atom_site_fract_z
 _atom_site_occupancy
  Tb  Tb0  1  0.994710  0.673595  0.250441  1
  Tb  Tb1  1  0.004414  0.325687  0.749563  1
  Tb  Tb2  1  0.674313  0.995586  0.250437  1
  Tb  Tb3  1  0.326405  0.005290  0.749559  1
  Al  Al4  1  0.004310  0.339028  0.076418  1
  Al  Al5  1  0.001905  0.664369  0.923782  1
  Al  Al6  1  0.999568  0.660732  0.574296  1
  Al  Al7  1  0.339268  0.000432  0.425704  1
  Al  Al8  1  0.000870  0.338985  0.425130  1
  Al  Al9  1  0.661015  0.999130  0.574870  1
  Al  Al10  1  0.660972  0.995690  0.923582  1
  Al  Al11  1  0.335631  0.998095  0.076218  1
  Al  Al12  1  0.336441  0.336441  0.555195  1
  Al  Al13  1  0.663559  0.663559  0.444805  1
  Al  Al14  1  0.662755  0.665987  0.058348  1
  Al  Al15  1  0.334013  0.337245  0.941652  1
  Al  Al16  1  0.338064  0.551169  0.250534  1
  Al  Al17  1  0.662549  0.451229  0.747387  1
  Al  Al18  1  0.548771  0.337451  0.252613  1
  Al  Al19  1  0.448831  0.661936  0.749466  1
  Ga  Ga20  1  0.138958  0.137937  0.250464  1
  Ga  Ga21  1  0.862063  0.861042  0.749536  1
  Ir  Ir22  1  0.328653  0.671347  0.000000  1
  Ir  Ir23  1  0.328811  0.671189  0.500000  1
  Ir  Ir24  1  0.671585  0.328415  0.500000  1
  Pt  Pt25  1  0.671713  0.328287  0.000000  1
  Pt  Pt26  1  0.999767  0.000233  0.000000  1
  Pt  Pt27  1  0.000086  0.999914  0.500000  1
