# generated using pymatgen
data_Ho2HgRhPb
_symmetry_space_group_name_H-M   'P 1'
_cell_length_a   8.11821100
_cell_length_b   8.11820993
_cell_length_c   3.60237500
_cell_angle_alpha   90.00000000
_cell_angle_beta   90.00000000
_cell_angle_gamma   89.13463123
_symmetry_Int_Tables_number   1
_chemical_formula_structural   Ho2HgRhPb
_chemical_formula_sum   'Ho4 Hg2 Rh2 Pb2'
_cell_volume   237.38867466
_cell_formula_units_Z   2
loop_
 _symmetry_equiv_pos_site_id
 _symmetry_equiv_pos_as_xyz
  1  'x, y, z'
loop_
 _atom_site_type_symbol
 _atom_site_label
 _atom_site_symmetry_multiplicity
 _atom_site_fract_x
 _atom_site_fract_y
 _atom_site_fract_z
 _atom_site_occupancy
  Ho  Ho0  1  0.651246  0.151246  0.500000  1
  Ho  Ho1  1  0.348754  0.848754  0.500000  1
  Ho  Ho2  1  0.193611  0.306389  0.500000  1
  Ho  Ho3  1  0.806389  0.693611  0.500000  1
  Hg  Hg4  1  0.126003  0.626003  0.000000  1
  Hg  Hg5  1  0.873997  0.373997  0.000000  1
  Rh  Rh6  1  0.626419  0.873581  0.000000  1
  Rh  Rh7  1  0.373581  0.126419  0.000000  1
  Pb  Pb8  1  0.000000  0.000000  0.000000  1
  Pb  Pb9  1  0.500000  0.500000  0.000000  1
