# generated using pymatgen
data_Ta6Be2SiAs
_symmetry_space_group_name_H-M   'P 1'
_cell_length_a   6.63708524
_cell_length_b   6.63187155
_cell_length_c   3.44785900
_cell_angle_alpha   90.00000000
_cell_angle_beta   90.00000000
_cell_angle_gamma   89.89806654
_symmetry_Int_Tables_number   1
_chemical_formula_structural   Ta6Be2SiAs
_chemical_formula_sum   'Ta6 Be2 Si1 As1'
_cell_volume   151.76174478
_cell_formula_units_Z   1
loop_
 _symmetry_equiv_pos_site_id
 _symmetry_equiv_pos_as_xyz
  1  'x, y, z'
loop_
 _atom_site_type_symbol
 _atom_site_label
 _atom_site_symmetry_multiplicity
 _atom_site_fract_x
 _atom_site_fract_y
 _atom_site_fract_z
 _atom_site_occupancy
  Ta  Ta0  1  0.505765  0.495087  0.000000  1
  Ta  Ta1  1  0.003086  0.007588  0.000000  1
  Ta  Ta2  1  0.675740  0.183965  0.500000  1
  Ta  Ta3  1  0.327022  0.835180  0.500000  1
  Ta  Ta4  1  0.176693  0.309964  0.500000  1
  Ta  Ta5  1  0.816336  0.669551  0.500000  1
  Be  Be6  1  0.875648  0.373143  0.000000  1
  Be  Be7  1  0.380666  0.123806  0.000000  1
  Si  Si8  1  0.620146  0.888176  0.000000  1
  As  As9  1  0.118898  0.613539  0.000000  1
