# generated using pymatgen
data_TbErZn2PdRh
_symmetry_space_group_name_H-M   'P 1'
_cell_length_a   4.02853600
_cell_length_b   7.03727391
_cell_length_c   8.21559732
_cell_angle_alpha   89.99013544
_cell_angle_beta   90.00000000
_cell_angle_gamma   90.00000000
_symmetry_Int_Tables_number   1
_chemical_formula_structural   TbErZn2PdRh
_chemical_formula_sum   'Tb2 Er2 Zn4 Pd2 Rh2'
_cell_volume   232.91145166
_cell_formula_units_Z   2
loop_
 _symmetry_equiv_pos_site_id
 _symmetry_equiv_pos_as_xyz
  1  'x, y, z'
loop_
 _atom_site_type_symbol
 _atom_site_label
 _atom_site_symmetry_multiplicity
 _atom_site_fract_x
 _atom_site_fract_y
 _atom_site_fract_z
 _atom_site_occupancy
  Tb  Tb0  1  0.250000  0.048478  0.306775  1
  Tb  Tb1  1  0.750000  0.951522  0.693225  1
  Er  Er2  1  0.250000  0.541521  0.180741  1
  Er  Er3  1  0.750000  0.458479  0.819259  1
  Zn  Zn4  1  0.250000  0.135338  0.936715  1
  Zn  Zn5  1  0.750000  0.864662  0.063285  1
  Zn  Zn6  1  0.250000  0.637970  0.567836  1
  Zn  Zn7  1  0.750000  0.362030  0.432164  1
  Pd  Pd8  1  0.750000  0.744646  0.379073  1
  Pd  Pd9  1  0.250000  0.255354  0.620927  1
  Rh  Rh10  1  0.750000  0.253165  0.119894  1
  Rh  Rh11  1  0.250000  0.746835  0.880106  1
