# generated using pymatgen
data_Dy4ReOsRu6
_symmetry_space_group_name_H-M   'P 1'
_cell_length_a   5.16055890
_cell_length_b   5.37962813
_cell_length_c   8.98013400
_cell_angle_alpha   90.00000000
_cell_angle_beta   90.00000000
_cell_angle_gamma   119.58307162
_symmetry_Int_Tables_number   1
_chemical_formula_structural   Dy4ReOsRu6
_chemical_formula_sum   'Dy4 Re1 Os1 Ru6'
_cell_volume   216.80621804
_cell_formula_units_Z   1
loop_
 _symmetry_equiv_pos_site_id
 _symmetry_equiv_pos_as_xyz
  1  'x, y, z'
loop_
 _atom_site_type_symbol
 _atom_site_label
 _atom_site_symmetry_multiplicity
 _atom_site_fract_x
 _atom_site_fract_y
 _atom_site_fract_z
 _atom_site_occupancy
  Dy  Dy0  1  0.327968  0.667414  0.433147  1
  Dy  Dy1  1  0.657145  0.327792  0.564695  1
  Dy  Dy2  1  0.657145  0.327792  0.935305  1
  Dy  Dy3  1  0.327968  0.667414  0.066853  1
  Re  Re4  1  0.686734  0.842881  0.750000  1
  Os  Os5  1  0.839343  0.161979  0.250000  1
  Ru  Ru6  1  0.976372  0.995797  0.499539  1
  Ru  Ru7  1  0.976372  0.995797  0.000461  1
  Ru  Ru8  1  0.831607  0.656325  0.250000  1
  Ru  Ru9  1  0.352962  0.173121  0.250000  1
  Ru  Ru10  1  0.184523  0.830560  0.750000  1
  Ru  Ru11  1  0.181858  0.353130  0.750000  1
