# generated using pymatgen
data_Li2TbCu9
_symmetry_space_group_name_H-M   'P 1'
_cell_length_a   4.97949200
_cell_length_b   4.97949287
_cell_length_c   16.15033600
_cell_angle_alpha   90.00000000
_cell_angle_beta   90.00000000
_cell_angle_gamma   120.00000749
_symmetry_Int_Tables_number   1
_chemical_formula_structural   Li2TbCu9
_chemical_formula_sum   'Li4 Tb2 Cu18'
_cell_volume   346.80257625
_cell_formula_units_Z   2
loop_
 _symmetry_equiv_pos_site_id
 _symmetry_equiv_pos_as_xyz
  1  'x, y, z'
loop_
 _atom_site_type_symbol
 _atom_site_label
 _atom_site_symmetry_multiplicity
 _atom_site_fract_x
 _atom_site_fract_y
 _atom_site_fract_z
 _atom_site_occupancy
  Li  Li0  1  0.333333  0.666667  0.530005  1
  Li  Li1  1  0.666667  0.333333  0.030005  1
  Li  Li2  1  0.666667  0.333333  0.469995  1
  Li  Li3  1  0.333333  0.666667  0.969995  1
  Tb  Tb4  1  0.333333  0.666667  0.750000  1
  Tb  Tb5  1  0.666667  0.333333  0.250000  1
  Cu  Cu6  1  0.000000  0.000000  0.000000  1
  Cu  Cu7  1  0.000000  0.000000  0.500000  1
  Cu  Cu8  1  0.000000  0.000000  0.250000  1
  Cu  Cu9  1  0.000000  0.000000  0.750000  1
  Cu  Cu10  1  0.333333  0.666667  0.250000  1
  Cu  Cu11  1  0.666667  0.333333  0.750000  1
  Cu  Cu12  1  0.168067  0.336134  0.122533  1
  Cu  Cu13  1  0.831933  0.168067  0.622533  1
  Cu  Cu14  1  0.336134  0.168067  0.622533  1
  Cu  Cu15  1  0.663866  0.831933  0.122533  1
  Cu  Cu16  1  0.168067  0.831933  0.122533  1
  Cu  Cu17  1  0.831933  0.663866  0.877467  1
  Cu  Cu18  1  0.831933  0.168067  0.877467  1
  Cu  Cu19  1  0.831933  0.663866  0.622533  1
  Cu  Cu20  1  0.336134  0.168067  0.877467  1
  Cu  Cu21  1  0.663866  0.831933  0.377467  1
  Cu  Cu22  1  0.168067  0.336134  0.377467  1
  Cu  Cu23  1  0.168067  0.831933  0.377467  1
