# generated using pymatgen
data_Yb3DyAs3
_symmetry_space_group_name_H-M   'P 1'
_cell_length_a   8.84456500
_cell_length_b   8.84456500
_cell_length_c   8.84456500
_cell_angle_alpha   90.00000000
_cell_angle_beta   90.00000000
_cell_angle_gamma   90.00000000
_symmetry_Int_Tables_number   1
_chemical_formula_structural   Yb3DyAs3
_chemical_formula_sum   'Yb12 Dy4 As12'
_cell_volume   691.87786074
_cell_formula_units_Z   4
loop_
 _symmetry_equiv_pos_site_id
 _symmetry_equiv_pos_as_xyz
  1  'x, y, z'
loop_
 _atom_site_type_symbol
 _atom_site_label
 _atom_site_symmetry_multiplicity
 _atom_site_fract_x
 _atom_site_fract_y
 _atom_site_fract_z
 _atom_site_occupancy
  Yb  Yb0  1  0.818471  0.318471  0.181529  1
  Yb  Yb1  1  0.934219  0.934219  0.934219  1
  Yb  Yb2  1  0.822407  0.677593  0.322407  1
  Yb  Yb3  1  0.181529  0.818471  0.318471  1
  Yb  Yb4  1  0.177593  0.177593  0.177593  1
  Yb  Yb5  1  0.322407  0.822407  0.677593  1
  Yb  Yb6  1  0.065781  0.434219  0.565781  1
  Yb  Yb7  1  0.318471  0.181529  0.818471  1
  Yb  Yb8  1  0.677593  0.322407  0.822407  1
  Yb  Yb9  1  0.681529  0.681529  0.681529  1
  Yb  Yb10  1  0.565781  0.065781  0.434219  1
  Yb  Yb11  1  0.434219  0.565781  0.065781  1
  Dy  Dy12  1  0.066210  0.566210  0.933790  1
  Dy  Dy13  1  0.933790  0.066210  0.566210  1
  Dy  Dy14  1  0.433790  0.433790  0.433790  1
  Dy  Dy15  1  0.566210  0.933790  0.066210  1
  As  As16  1  0.744595  0.370576  0.500501  1
  As  As17  1  0.870576  0.999499  0.255405  1
  As  As18  1  0.000501  0.755405  0.629424  1
  As  As19  1  0.244595  0.129424  0.499499  1
  As  As20  1  0.129424  0.499499  0.244595  1
  As  As21  1  0.999499  0.255405  0.870576  1
  As  As22  1  0.255405  0.870576  0.999499  1
  As  As23  1  0.370576  0.500501  0.744595  1
  As  As24  1  0.499499  0.244595  0.129424  1
  As  As25  1  0.755405  0.629424  0.000501  1
  As  As26  1  0.629424  0.000501  0.755405  1
  As  As27  1  0.500501  0.744595  0.370576  1
