# generated using pymatgen
data_Hf3Ga3NiIrPt
_symmetry_space_group_name_H-M   'P 1'
_cell_length_a   7.21918100
_cell_length_b   7.21918063
_cell_length_c   3.34039400
_cell_angle_alpha   90.00000000
_cell_angle_beta   90.00000000
_cell_angle_gamma   119.99999712
_symmetry_Int_Tables_number   1
_chemical_formula_structural   Hf3Ga3NiIrPt
_chemical_formula_sum   'Hf3 Ga3 Ni1 Ir1 Pt1'
_cell_volume   150.76626574
_cell_formula_units_Z   1
loop_
 _symmetry_equiv_pos_site_id
 _symmetry_equiv_pos_as_xyz
  1  'x, y, z'
loop_
 _atom_site_type_symbol
 _atom_site_label
 _atom_site_symmetry_multiplicity
 _atom_site_fract_x
 _atom_site_fract_y
 _atom_site_fract_z
 _atom_site_occupancy
  Hf  Hf0  1  0.388270  0.393120  0.500000  1
  Hf  Hf1  1  0.606880  0.995150  0.500000  1
  Hf  Hf2  1  0.004850  0.611730  0.500000  1
  Ga  Ga3  1  0.742390  0.742141  0.000000  1
  Ga  Ga4  1  0.257859  0.000249  0.000000  1
  Ga  Ga5  1  0.999751  0.257610  0.000000  1
  Ni  Ni6  1  0.000000  0.000000  0.500000  1
  Ir  Ir7  1  0.333333  0.666667  0.000000  1
  Pt  Pt8  1  0.666667  0.333333  0.000000  1
