# generated using pymatgen
data_Ho3Hf4ScPt4
_symmetry_space_group_name_H-M   'P 1'
_cell_length_a   4.64064800
_cell_length_b   6.99712696
_cell_length_c   8.18604797
_cell_angle_alpha   89.71863179
_cell_angle_beta   90.00000000
_cell_angle_gamma   90.00000000
_symmetry_Int_Tables_number   1
_chemical_formula_structural   Ho3Hf4ScPt4
_chemical_formula_sum   'Ho3 Hf4 Sc1 Pt4'
_cell_volume   265.80762212
_cell_formula_units_Z   1
loop_
 _symmetry_equiv_pos_site_id
 _symmetry_equiv_pos_as_xyz
  1  'x, y, z'
loop_
 _atom_site_type_symbol
 _atom_site_label
 _atom_site_symmetry_multiplicity
 _atom_site_fract_x
 _atom_site_fract_y
 _atom_site_fract_z
 _atom_site_occupancy
  Ho  Ho0  1  0.250000  0.481251  0.180090  1
  Ho  Ho1  1  0.750000  0.017182  0.677034  1
  Ho  Ho2  1  0.750000  0.515370  0.820796  1
  Hf  Hf3  1  0.250000  0.853430  0.925552  1
  Hf  Hf4  1  0.250000  0.353931  0.574831  1
  Hf  Hf5  1  0.750000  0.141314  0.083187  1
  Hf  Hf6  1  0.750000  0.651291  0.421329  1
  Sc  Sc7  1  0.250000  0.983220  0.324418  1
  Pt  Pt8  1  0.250000  0.231867  0.902905  1
  Pt  Pt9  1  0.250000  0.737352  0.591732  1
  Pt  Pt10  1  0.750000  0.765872  0.096262  1
  Pt  Pt11  1  0.750000  0.267921  0.401864  1
