# generated using pymatgen
data_Er2NbB2Ir2Ru3
_symmetry_space_group_name_H-M   'P 1'
_cell_length_a   9.67597300
_cell_length_b   9.70166400
_cell_length_c   3.12285800
_cell_angle_alpha   90.00000000
_cell_angle_beta   90.00000000
_cell_angle_gamma   90.00000000
_symmetry_Int_Tables_number   1
_chemical_formula_structural   Er2NbB2Ir2Ru3
_chemical_formula_sum   'Er4 Nb2 B4 Ir4 Ru6'
_cell_volume   293.15217057
_cell_formula_units_Z   2
loop_
 _symmetry_equiv_pos_site_id
 _symmetry_equiv_pos_as_xyz
  1  'x, y, z'
loop_
 _atom_site_type_symbol
 _atom_site_label
 _atom_site_symmetry_multiplicity
 _atom_site_fract_x
 _atom_site_fract_y
 _atom_site_fract_z
 _atom_site_occupancy
  Er  Er0  1  0.825489  0.674687  0.000000  1
  Er  Er1  1  0.174511  0.325313  0.000000  1
  Er  Er2  1  0.325489  0.825313  0.000000  1
  Er  Er3  1  0.674511  0.174687  0.000000  1
  Nb  Nb4  1  0.500000  0.500000  0.000000  1
  Nb  Nb5  1  0.000000  0.000000  0.000000  1
  B  B6  1  0.623822  0.885528  0.000000  1
  B  B7  1  0.376178  0.114472  0.000000  1
  B  B8  1  0.123822  0.614472  0.000000  1
  B  B9  1  0.876178  0.385528  0.000000  1
  Ir  Ir10  1  0.571353  0.721133  0.500000  1
  Ir  Ir11  1  0.428647  0.278867  0.500000  1
  Ir  Ir12  1  0.071353  0.778867  0.500000  1
  Ir  Ir13  1  0.928647  0.221133  0.500000  1
  Ru  Ru14  1  0.282556  0.569671  0.500000  1
  Ru  Ru15  1  0.717444  0.430329  0.500000  1
  Ru  Ru16  1  0.217444  0.069671  0.500000  1
  Ru  Ru17  1  0.782556  0.930329  0.500000  1
  Ru  Ru18  1  0.500000  0.000000  0.500000  1
  Ru  Ru19  1  0.000000  0.500000  0.500000  1
