# generated using pymatgen
data_Li8B3P(Pd5Pt)2
_symmetry_space_group_name_H-M   'P 1'
_cell_length_a   6.92636874
_cell_length_b   6.92636842
_cell_length_c   6.89214519
_cell_angle_alpha   90.60505172
_cell_angle_beta   90.60505326
_cell_angle_gamma   88.82926685
_symmetry_Int_Tables_number   1
_chemical_formula_structural   Li8B3P(Pd5Pt)2
_chemical_formula_sum   'Li8 B3 P1 Pd10 Pt2'
_cell_volume   330.54263237
_cell_formula_units_Z   1
loop_
 _symmetry_equiv_pos_site_id
 _symmetry_equiv_pos_as_xyz
  1  'x, y, z'
loop_
 _atom_site_type_symbol
 _atom_site_label
 _atom_site_symmetry_multiplicity
 _atom_site_fract_x
 _atom_site_fract_y
 _atom_site_fract_z
 _atom_site_occupancy
  Li  Li0  1  0.302757  0.308712  0.307120  1
  Li  Li1  1  0.060490  0.446157  0.552025  1
  Li  Li2  1  0.545421  0.041972  0.456550  1
  Li  Li3  1  0.449247  0.560253  0.054631  1
  Li  Li4  1  0.208028  0.704579  0.793450  1
  Li  Li5  1  0.941288  0.947243  0.942880  1
  Li  Li6  1  0.803843  0.189510  0.697975  1
  Li  Li7  1  0.689747  0.800753  0.195369  1
  B  B8  1  0.379730  0.114005  0.862282  1
  B  B9  1  0.604087  0.645913  0.625000  1
  B  B10  1  0.135995  0.870270  0.387718  1
  P  P11  1  0.875194  0.374806  0.125000  1
  Pd  Pd12  1  0.186251  0.063749  0.625000  1
  Pd  Pd13  1  0.444399  0.373971  0.694060  1
  Pd  Pd14  1  0.053026  0.648083  0.181462  1
  Pd  Pd15  1  0.939049  0.101337  0.305896  1
  Pd  Pd16  1  0.303876  0.946124  0.125000  1
  Pd  Pd17  1  0.699270  0.438940  0.402215  1
  Pd  Pd18  1  0.601917  0.196974  0.068538  1
  Pd  Pd19  1  0.876029  0.805601  0.555940  1
  Pd  Pd20  1  0.148663  0.310951  0.944104  1
  Pd  Pd21  1  0.811060  0.550730  0.847785  1
  Pt  Pt22  1  0.569385  0.878754  0.819236  1
  Pt  Pt23  1  0.371246  0.680615  0.430764  1
