# generated using pymatgen
data_Tb2DyHo3Ni2
_symmetry_space_group_name_H-M   'P 1'
_cell_length_a   6.34263600
_cell_length_b   6.82578700
_cell_length_c   9.50874963
_cell_angle_alpha   90.00000000
_cell_angle_beta   90.07569484
_cell_angle_gamma   90.00000000
_symmetry_Int_Tables_number   1
_chemical_formula_structural   Tb2DyHo3Ni2
_chemical_formula_sum   'Tb4 Dy2 Ho6 Ni4'
_cell_volume   411.66652513
_cell_formula_units_Z   2
loop_
 _symmetry_equiv_pos_site_id
 _symmetry_equiv_pos_as_xyz
  1  'x, y, z'
loop_
 _atom_site_type_symbol
 _atom_site_label
 _atom_site_symmetry_multiplicity
 _atom_site_fract_x
 _atom_site_fract_y
 _atom_site_fract_z
 _atom_site_occupancy
  Tb  Tb0  1  0.860139  0.532896  0.250317  1
  Tb  Tb1  1  0.639861  0.032896  0.249683  1
  Tb  Tb2  1  0.139340  0.466993  0.749825  1
  Tb  Tb3  1  0.360660  0.966993  0.750175  1
  Dy  Dy4  1  0.321175  0.678018  0.066198  1
  Dy  Dy5  1  0.178825  0.178018  0.433802  1
  Ho  Ho6  1  0.678315  0.321877  0.566834  1
  Ho  Ho7  1  0.821685  0.821877  0.933166  1
  Ho  Ho8  1  0.678669  0.322053  0.933321  1
  Ho  Ho9  1  0.821331  0.822053  0.566679  1
  Ho  Ho10  1  0.321720  0.678090  0.433849  1
  Ho  Ho11  1  0.178280  0.178090  0.066151  1
  Ni  Ni12  1  0.055428  0.891489  0.249899  1
  Ni  Ni13  1  0.444572  0.391489  0.250101  1
  Ni  Ni14  1  0.943760  0.108583  0.750538  1
  Ni  Ni15  1  0.556240  0.608583  0.749462  1
