# generated using pymatgen
data_Y6Ga4Pd3Pt10
_symmetry_space_group_name_H-M   'P 1'
_cell_length_a   8.27595982
_cell_length_b   8.27596035
_cell_length_c   8.27596000
_cell_angle_alpha   109.44815423
_cell_angle_beta   109.44814818
_cell_angle_gamma   109.44815777
_symmetry_Int_Tables_number   1
_chemical_formula_structural   Y6Ga4Pd3Pt10
_chemical_formula_sum   'Y6 Ga4 Pd3 Pt10'
_cell_volume   436.72054116
_cell_formula_units_Z   1
loop_
 _symmetry_equiv_pos_site_id
 _symmetry_equiv_pos_as_xyz
  1  'x, y, z'
loop_
 _atom_site_type_symbol
 _atom_site_label
 _atom_site_symmetry_multiplicity
 _atom_site_fract_x
 _atom_site_fract_y
 _atom_site_fract_z
 _atom_site_occupancy
  Y  Y0  1  0.699097  0.699097  0.000876  1
  Y  Y1  1  0.300212  0.000439  0.300212  1
  Y  Y2  1  0.000439  0.300212  0.300212  1
  Y  Y3  1  0.300212  0.300212  0.000439  1
  Y  Y4  1  0.699097  0.000876  0.699097  1
  Y  Y5  1  0.000876  0.699097  0.699097  1
  Ga  Ga6  1  0.998741  0.998741  0.499704  1
  Ga  Ga7  1  0.998741  0.499704  0.998741  1
  Ga  Ga8  1  0.499704  0.998741  0.998741  1
  Ga  Ga9  1  0.500466  0.500466  0.500466  1
  Pd  Pd10  1  0.674655  0.674655  0.348512  1
  Pd  Pd11  1  0.674655  0.348512  0.674655  1
  Pd  Pd12  1  0.348512  0.674655  0.674655  1
  Pt  Pt13  1  0.324102  0.324102  0.644916  1
  Pt  Pt14  1  0.679035  0.002567  0.325737  1
  Pt  Pt15  1  0.002567  0.679035  0.325737  1
  Pt  Pt16  1  0.679035  0.325737  0.002567  1
  Pt  Pt17  1  0.324102  0.644916  0.324102  1
  Pt  Pt18  1  0.002567  0.325737  0.679035  1
  Pt  Pt19  1  0.325737  0.679035  0.002567  1
  Pt  Pt20  1  0.325737  0.002567  0.679035  1
  Pt  Pt21  1  0.644916  0.324102  0.324102  1
  Pt  Pt22  1  0.996797  0.996797  0.996797  1
