# generated using pymatgen
data_Rb2TbU(Te3Au)2
_symmetry_space_group_name_H-M   'P 1'
_cell_length_a   4.37304000
_cell_length_b   8.70369239
_cell_length_c   11.44697522
_cell_angle_alpha   89.84262994
_cell_angle_beta   90.00000000
_cell_angle_gamma   75.45042968
_symmetry_Int_Tables_number   1
_chemical_formula_structural   Rb2TbU(Te3Au)2
_chemical_formula_sum   'Rb2 Tb1 U1 Te6 Au2'
_cell_volume   421.71614077
_cell_formula_units_Z   1
loop_
 _symmetry_equiv_pos_site_id
 _symmetry_equiv_pos_as_xyz
  1  'x, y, z'
loop_
 _atom_site_type_symbol
 _atom_site_label
 _atom_site_symmetry_multiplicity
 _atom_site_fract_x
 _atom_site_fract_y
 _atom_site_fract_z
 _atom_site_occupancy
  Rb  Rb0  1  0.244743  0.510516  0.247422  1
  Rb  Rb1  1  0.755257  0.489484  0.752578  1
  Tb  Tb2  1  0.000000  0.000000  0.000000  1
  U  U3  1  0.000000  0.000000  0.500000  1
  Te  Te4  1  0.626998  0.746003  0.049138  1
  Te  Te5  1  0.931391  0.137219  0.255677  1
  Te  Te6  1  0.623994  0.752010  0.454550  1
  Te  Te7  1  0.376005  0.247990  0.545449  1
  Te  Te8  1  0.068608  0.862781  0.744323  1
  Te  Te9  1  0.373001  0.253997  0.950863  1
  Au  Au10  1  0.536941  0.926117  0.247961  1
  Au  Au11  1  0.463059  0.073882  0.752039  1
