# generated using pymatgen
data_Nb2Cr(Co10B3)2
_symmetry_space_group_name_H-M   'P 1'
_cell_length_a   7.42862168
_cell_length_b   7.42862178
_cell_length_c   7.42862200
_cell_angle_alpha   59.99999901
_cell_angle_beta   59.99999858
_cell_angle_gamma   59.99999434
_symmetry_Int_Tables_number   1
_chemical_formula_structural   Nb2Cr(Co10B3)2
_chemical_formula_sum   'Nb2 Cr1 Co20 B6'
_cell_volume   289.87430783
_cell_formula_units_Z   1
loop_
 _symmetry_equiv_pos_site_id
 _symmetry_equiv_pos_as_xyz
  1  'x, y, z'
loop_
 _atom_site_type_symbol
 _atom_site_label
 _atom_site_symmetry_multiplicity
 _atom_site_fract_x
 _atom_site_fract_y
 _atom_site_fract_z
 _atom_site_occupancy
  Nb  Nb0  1  0.250000  0.250000  0.250000  1
  Nb  Nb1  1  0.750000  0.750000  0.750000  1
  Cr  Cr2  1  0.000000  0.000000  0.000000  1
  Co  Co3  1  0.849591  0.383470  0.383470  1
  Co  Co4  1  0.383470  0.849591  0.383470  1
  Co  Co5  1  0.383470  0.383470  0.849591  1
  Co  Co6  1  0.383470  0.383470  0.383470  1
  Co  Co7  1  0.150409  0.616530  0.616530  1
  Co  Co8  1  0.616530  0.150409  0.616530  1
  Co  Co9  1  0.616530  0.616530  0.150409  1
  Co  Co10  1  0.616530  0.616530  0.616530  1
  Co  Co11  1  0.661647  0.000000  0.000000  1
  Co  Co12  1  0.661647  0.000000  0.338353  1
  Co  Co13  1  0.661647  0.338353  0.000000  1
  Co  Co14  1  0.000000  0.661647  0.338353  1
  Co  Co15  1  0.000000  0.661647  0.000000  1
  Co  Co16  1  0.338353  0.661647  0.000000  1
  Co  Co17  1  0.000000  0.338353  0.661647  1
  Co  Co18  1  0.338353  0.000000  0.661647  1
  Co  Co19  1  0.000000  0.000000  0.661647  1
  Co  Co20  1  0.338353  0.000000  0.000000  1
  Co  Co21  1  0.000000  0.338353  0.000000  1
  Co  Co22  1  0.000000  0.000000  0.338353  1
  B  B23  1  0.726427  0.273573  0.273573  1
  B  B24  1  0.726427  0.273573  0.726427  1
  B  B25  1  0.726427  0.726427  0.273573  1
  B  B26  1  0.273573  0.726427  0.726427  1
  B  B27  1  0.273573  0.726427  0.273573  1
  B  B28  1  0.273573  0.273573  0.726427  1
