# generated using pymatgen
data_Tb2Zn2Ga7Pt3
_symmetry_space_group_name_H-M   'P 1'
_cell_length_a   7.63226600
_cell_length_b   7.66784259
_cell_length_c   9.54227300
_cell_angle_alpha   90.00000000
_cell_angle_beta   90.00000000
_cell_angle_gamma   119.34917197
_symmetry_Int_Tables_number   1
_chemical_formula_structural   Tb2Zn2Ga7Pt3
_chemical_formula_sum   'Tb4 Zn4 Ga14 Pt6'
_cell_volume   486.76589197
_cell_formula_units_Z   2
loop_
 _symmetry_equiv_pos_site_id
 _symmetry_equiv_pos_as_xyz
  1  'x, y, z'
loop_
 _atom_site_type_symbol
 _atom_site_label
 _atom_site_symmetry_multiplicity
 _atom_site_fract_x
 _atom_site_fract_y
 _atom_site_fract_z
 _atom_site_occupancy
  Tb  Tb0  1  0.996090  0.670405  0.250000  1
  Tb  Tb1  1  0.003910  0.329595  0.750000  1
  Tb  Tb2  1  0.673834  0.998919  0.250000  1
  Tb  Tb3  1  0.326166  0.001081  0.750000  1
  Zn  Zn4  1  0.139066  0.138473  0.250000  1
  Zn  Zn5  1  0.860934  0.861527  0.750000  1
  Zn  Zn6  1  0.341915  0.544730  0.250000  1
  Zn  Zn7  1  0.658085  0.455270  0.750000  1
  Ga  Ga8  1  0.008314  0.337117  0.085984  1
  Ga  Ga9  1  0.991686  0.662883  0.914016  1
  Ga  Ga10  1  0.991686  0.662883  0.585984  1
  Ga  Ga11  1  0.332854  0.000090  0.415420  1
  Ga  Ga12  1  0.008314  0.337117  0.414016  1
  Ga  Ga13  1  0.667146  0.999910  0.584580  1
  Ga  Ga14  1  0.667146  0.999910  0.915420  1
  Ga  Ga15  1  0.332854  0.000090  0.084580  1
  Ga  Ga16  1  0.335738  0.331782  0.566964  1
  Ga  Ga17  1  0.664262  0.668218  0.433036  1
  Ga  Ga18  1  0.664262  0.668218  0.066964  1
  Ga  Ga19  1  0.335738  0.331782  0.933036  1
  Ga  Ga20  1  0.536509  0.342190  0.250000  1
  Ga  Ga21  1  0.463491  0.657810  0.750000  1
  Pt  Pt22  1  0.674905  0.326201  0.004212  1
  Pt  Pt23  1  0.325095  0.673799  0.995788  1
  Pt  Pt24  1  0.325095  0.673799  0.504212  1
  Pt  Pt25  1  0.674905  0.326201  0.495788  1
  Pt  Pt26  1  0.000000  0.000000  0.000000  1
  Pt  Pt27  1  0.000000  0.000000  0.500000  1
