# generated using pymatgen
data_Nb6Os5W4
_symmetry_space_group_name_H-M   'P 1'
_cell_length_a   9.87039600
_cell_length_b   9.87039600
_cell_length_c   5.07510000
_cell_angle_alpha   90.00000000
_cell_angle_beta   90.00000000
_cell_angle_gamma   90.00000000
_symmetry_Int_Tables_number   1
_chemical_formula_structural   Nb6Os5W4
_chemical_formula_sum   'Nb12 Os10 W8'
_cell_volume   494.44018225
_cell_formula_units_Z   2
loop_
 _symmetry_equiv_pos_site_id
 _symmetry_equiv_pos_as_xyz
  1  'x, y, z'
loop_
 _atom_site_type_symbol
 _atom_site_label
 _atom_site_symmetry_multiplicity
 _atom_site_fract_x
 _atom_site_fract_y
 _atom_site_fract_z
 _atom_site_occupancy
  Nb  Nb0  1  0.103088  0.896912  0.500000  1
  Nb  Nb1  1  0.896912  0.103088  0.500000  1
  Nb  Nb2  1  0.396912  0.396912  0.000000  1
  Nb  Nb3  1  0.603088  0.603088  0.000000  1
  Nb  Nb4  1  0.369993  0.962263  0.500000  1
  Nb  Nb5  1  0.630007  0.037737  0.500000  1
  Nb  Nb6  1  0.130007  0.462263  0.000000  1
  Nb  Nb7  1  0.869993  0.537737  0.000000  1
  Nb  Nb8  1  0.962263  0.369993  0.500000  1
  Nb  Nb9  1  0.037737  0.630007  0.500000  1
  Nb  Nb10  1  0.462263  0.130007  0.000000  1
  Nb  Nb11  1  0.537737  0.869993  0.000000  1
  Os  Os12  1  0.500000  0.500000  0.500000  1
  Os  Os13  1  0.000000  0.000000  0.000000  1
  Os  Os14  1  0.431277  0.241183  0.500000  1
  Os  Os15  1  0.568723  0.758817  0.500000  1
  Os  Os16  1  0.068723  0.741183  0.000000  1
  Os  Os17  1  0.931277  0.258817  0.000000  1
  Os  Os18  1  0.241183  0.431277  0.500000  1
  Os  Os19  1  0.758817  0.568723  0.500000  1
  Os  Os20  1  0.741183  0.068723  0.000000  1
  Os  Os21  1  0.258817  0.931277  0.000000  1
  W  W22  1  0.319162  0.680838  0.249776  1
  W  W23  1  0.680838  0.319162  0.249776  1
  W  W24  1  0.180838  0.180838  0.749776  1
  W  W25  1  0.819162  0.819162  0.749776  1
  W  W26  1  0.680838  0.319162  0.750224  1
  W  W27  1  0.319162  0.680838  0.750224  1
  W  W28  1  0.819162  0.819162  0.250224  1
  W  W29  1  0.180838  0.180838  0.250224  1
