# generated using pymatgen
data_Cd4(HgPd3)3
_symmetry_space_group_name_H-M   'P 1'
_cell_length_a   7.16388338
_cell_length_b   7.16388340
_cell_length_c   7.16388285
_cell_angle_alpha   106.29246383
_cell_angle_beta   106.29246074
_cell_angle_gamma   116.03493894
_symmetry_Int_Tables_number   1
_chemical_formula_structural   Cd4(HgPd3)3
_chemical_formula_sum   'Cd4 Hg3 Pd9'
_cell_volume   280.20740131
_cell_formula_units_Z   1
loop_
 _symmetry_equiv_pos_site_id
 _symmetry_equiv_pos_as_xyz
  1  'x, y, z'
loop_
 _atom_site_type_symbol
 _atom_site_label
 _atom_site_symmetry_multiplicity
 _atom_site_fract_x
 _atom_site_fract_y
 _atom_site_fract_z
 _atom_site_occupancy
  Cd  Cd0  1  0.240225  0.240225  0.480452  1
  Cd  Cd1  1  0.759775  0.759775  0.519548  1
  Cd  Cd2  1  0.240225  0.759775  0.000000  1
  Cd  Cd3  1  0.759775  0.240225  0.000000  1
  Hg  Hg4  1  0.500000  0.000000  0.500000  1
  Hg  Hg5  1  0.000000  0.500000  0.500000  1
  Hg  Hg6  1  0.500000  0.500000  0.000000  1
  Pd  Pd7  1  0.504728  0.256114  0.248612  1
  Pd  Pd8  1  0.495272  0.743886  0.751388  1
  Pd  Pd9  1  0.007501  0.256114  0.751388  1
  Pd  Pd10  1  0.256114  0.007501  0.751388  1
  Pd  Pd11  1  0.992499  0.743886  0.248612  1
  Pd  Pd12  1  0.743886  0.992499  0.248612  1
  Pd  Pd13  1  0.256114  0.504728  0.248612  1
  Pd  Pd14  1  0.743886  0.495272  0.751388  1
  Pd  Pd15  1  0.000000  0.000000  0.000000  1
