# generated using pymatgen
data_La10Pr6Cd4Os3Pt
_symmetry_space_group_name_H-M   'P 1'
_cell_length_a   10.04132010
_cell_length_b   10.10276406
_cell_length_c   10.10276300
_cell_angle_alpha   60.00000018
_cell_angle_beta   59.79737434
_cell_angle_gamma   59.79737858
_symmetry_Int_Tables_number   1
_chemical_formula_structural   La10Pr6Cd4Os3Pt
_chemical_formula_sum   'La10 Pr6 Cd4 Os3 Pt1'
_cell_volume   722.46911299
_cell_formula_units_Z   1
loop_
 _symmetry_equiv_pos_site_id
 _symmetry_equiv_pos_as_xyz
  1  'x, y, z'
loop_
 _atom_site_type_symbol
 _atom_site_label
 _atom_site_symmetry_multiplicity
 _atom_site_fract_x
 _atom_site_fract_y
 _atom_site_fract_z
 _atom_site_occupancy
  La  La0  1  0.343084  0.349575  0.349575  1
  La  La1  1  0.343084  0.349575  0.957768  1
  La  La2  1  0.343084  0.957768  0.349575  1
  La  La3  1  0.964347  0.345217  0.345217  1
  La  La4  1  0.816164  0.190689  0.190689  1
  La  La5  1  0.188846  0.811402  0.811402  1
  La  La6  1  0.188846  0.811402  0.188350  1
  La  La7  1  0.816164  0.190689  0.802458  1
  La  La8  1  0.188846  0.188350  0.811402  1
  La  La9  1  0.816164  0.802458  0.190689  1
  Pr  Pr10  1  0.937064  0.562537  0.562537  1
  Pr  Pr11  1  0.558807  0.937699  0.937699  1
  Pr  Pr12  1  0.558807  0.937699  0.565796  1
  Pr  Pr13  1  0.937064  0.562537  0.937862  1
  Pr  Pr14  1  0.558807  0.565796  0.937699  1
  Pr  Pr15  1  0.937064  0.937862  0.562537  1
  Cd  Cd16  1  0.579912  0.580253  0.580253  1
  Cd  Cd17  1  0.579912  0.580253  0.259581  1
  Cd  Cd18  1  0.579912  0.259581  0.580253  1
  Cd  Cd19  1  0.259704  0.580099  0.580099  1
  Os  Os20  1  0.141734  0.137365  0.137365  1
  Os  Os21  1  0.141734  0.137365  0.583537  1
  Os  Os22  1  0.141734  0.583537  0.137365  1
  Pt  Pt23  1  0.579117  0.140294  0.140294  1
