# generated using pymatgen
data_RbLu2CuS4
_symmetry_space_group_name_H-M   'P 1'
_cell_length_a   3.92015800
_cell_length_b   7.05205684
_cell_length_c   13.63512000
_cell_angle_alpha   90.00000000
_cell_angle_beta   90.00000000
_cell_angle_gamma   73.86244766
_symmetry_Int_Tables_number   1
_chemical_formula_structural   RbLu2CuS4
_chemical_formula_sum   'Rb2 Lu4 Cu2 S8'
_cell_volume   362.09260289
_cell_formula_units_Z   2
loop_
 _symmetry_equiv_pos_site_id
 _symmetry_equiv_pos_as_xyz
  1  'x, y, z'
loop_
 _atom_site_type_symbol
 _atom_site_label
 _atom_site_symmetry_multiplicity
 _atom_site_fract_x
 _atom_site_fract_y
 _atom_site_fract_z
 _atom_site_occupancy
  Rb  Rb0  1  0.892569  0.214862  0.250000  1
  Rb  Rb1  1  0.107431  0.785137  0.750000  1
  Lu  Lu2  1  0.634172  0.731657  0.062455  1
  Lu  Lu3  1  0.634172  0.731657  0.437545  1
  Lu  Lu4  1  0.365827  0.268343  0.562455  1
  Lu  Lu5  1  0.365827  0.268343  0.937545  1
  Cu  Cu6  1  0.165654  0.668690  0.250000  1
  Cu  Cu7  1  0.834345  0.331311  0.750000  1
  S  S8  1  0.000000  0.000000  0.000000  1
  S  S9  1  0.259201  0.481595  0.105874  1
  S  S10  1  0.575503  0.848995  0.250000  1
  S  S11  1  0.259201  0.481595  0.394126  1
  S  S12  1  0.000000  0.000000  0.500000  1
  S  S13  1  0.740798  0.518405  0.605874  1
  S  S14  1  0.424496  0.151005  0.750000  1
  S  S15  1  0.740798  0.518405  0.894126  1
