# generated using pymatgen
data_FePCl14
_symmetry_space_group_name_H-M   'P 1'
_cell_length_a   10.21229102
_cell_length_b   10.39062629
_cell_length_c   11.19476099
_cell_angle_alpha   81.45406423
_cell_angle_beta   90.00512759
_cell_angle_gamma   89.99574090
_symmetry_Int_Tables_number   1
_chemical_formula_structural   FePCl14
_chemical_formula_sum   'Fe2 P2 Cl28'
_cell_volume   1174.71038359
_cell_formula_units_Z   2
loop_
 _symmetry_equiv_pos_site_id
 _symmetry_equiv_pos_as_xyz
  1  'x, y, z'
loop_
 _atom_site_type_symbol
 _atom_site_label
 _atom_site_symmetry_multiplicity
 _atom_site_fract_x
 _atom_site_fract_y
 _atom_site_fract_z
 _atom_site_occupancy
  Fe  Fe0  1  0.244159  0.328863  0.079407  1
  Fe  Fe1  1  0.744141  0.671140  0.420591  1
  P  P2  1  0.757315  0.676714  0.913893  1
  P  P3  1  0.257315  0.323273  0.586102  1
  Cl  Cl4  1  0.234707  0.757932  0.362090  1
  Cl  Cl5  1  0.734694  0.242064  0.137896  1
  Cl  Cl6  1  0.745539  0.253220  0.636420  1
  Cl  Cl7  1  0.245520  0.746780  0.863597  1
  Cl  Cl8  1  0.571862  0.053748  0.037470  1
  Cl  Cl9  1  0.071865  0.946255  0.462526  1
  Cl  Cl10  1  0.440223  0.939328  0.965320  1
  Cl  Cl11  1  0.940234  0.060680  0.534685  1
  Cl  Cl12  1  0.812977  0.169654  0.298105  1
  Cl  Cl13  1  0.312981  0.830340  0.201899  1
  Cl  Cl14  1  0.185117  0.830076  0.697921  1
  Cl  Cl15  1  0.685141  0.169915  0.802076  1
  Cl  Cl16  1  0.345253  0.220334  0.235052  1
  Cl  Cl17  1  0.845228  0.779659  0.264981  1
  Cl  Cl18  1  0.666947  0.729789  0.759092  1
  Cl  Cl19  1  0.166968  0.270208  0.740894  1
  Cl  Cl20  1  0.388663  0.410407  0.940859  1
  Cl  Cl21  1  0.888662  0.589580  0.559147  1
  Cl  Cl22  1  0.636615  0.630188  0.048915  1
  Cl  Cl23  1  0.136600  0.369812  0.451065  1
  Cl  Cl24  1  0.867604  0.524881  0.900607  1
  Cl  Cl25  1  0.367583  0.475101  0.599411  1
  Cl  Cl26  1  0.126665  0.487230  0.136890  1
  Cl  Cl27  1  0.626625  0.512805  0.363109  1
  Cl  Cl28  1  0.106955  0.195406  0.001024  1
  Cl  Cl29  1  0.606963  0.804630  0.498951  1
  Cl  Cl30  1  0.869428  0.821107  0.946331  1
  Cl  Cl31  1  0.369450  0.178881  0.553677  1
