# generated using pymatgen
data_Sr(PtO2)2
_symmetry_space_group_name_H-M   'P 1'
_cell_length_a   6.79954460
_cell_length_b   6.79954453
_cell_length_c   6.79954466
_cell_angle_alpha   126.64031865
_cell_angle_beta   126.64031936
_cell_angle_gamma   78.83824646
_symmetry_Int_Tables_number   1
_chemical_formula_structural   Sr(PtO2)2
_chemical_formula_sum   'Sr2 Pt4 O8'
_cell_volume   195.84469086
_cell_formula_units_Z   2
loop_
 _symmetry_equiv_pos_site_id
 _symmetry_equiv_pos_as_xyz
  1  'x, y, z'
loop_
 _atom_site_type_symbol
 _atom_site_label
 _atom_site_symmetry_multiplicity
 _atom_site_fract_x
 _atom_site_fract_y
 _atom_site_fract_z
 _atom_site_occupancy
  Sr  Sr0  1  0.750000  0.250000  0.500000  1
  Sr  Sr1  1  0.000000  0.000000  0.000000  1
  Pt  Pt2  1  0.375000  0.625000  0.250000  1
  Pt  Pt3  1  0.875000  0.625000  0.250000  1
  Pt  Pt4  1  0.375000  0.125000  0.750000  1
  Pt  Pt5  1  0.375000  0.625000  0.750000  1
  O  O6  1  0.570001  0.948656  0.935452  1
  O  O7  1  0.698656  0.263204  0.878655  1
  O  O8  1  0.384549  0.820001  0.121345  1
  O  O9  1  0.013204  0.634549  0.064548  1
  O  O10  1  0.179999  0.301344  0.564548  1
  O  O11  1  0.051344  0.986796  0.621345  1
  O  O12  1  0.736796  0.615451  0.435452  1
  O  O13  1  0.365451  0.429999  0.378655  1
