# generated using pymatgen
data_Ba9Sr(Si2Pb)2
_symmetry_space_group_name_H-M   'P 1'
_cell_length_a   8.56650900
_cell_length_b   8.56650900
_cell_length_c   17.49444500
_cell_angle_alpha   90.00000000
_cell_angle_beta   90.00000000
_cell_angle_gamma   90.00000000
_symmetry_Int_Tables_number   1
_chemical_formula_structural   Ba9Sr(Si2Pb)2
_chemical_formula_sum   'Ba18 Sr2 Si8 Pb4'
_cell_volume   1283.83118372
_cell_formula_units_Z   2
loop_
 _symmetry_equiv_pos_site_id
 _symmetry_equiv_pos_as_xyz
  1  'x, y, z'
loop_
 _atom_site_type_symbol
 _atom_site_label
 _atom_site_symmetry_multiplicity
 _atom_site_fract_x
 _atom_site_fract_y
 _atom_site_fract_z
 _atom_site_occupancy
  Ba  Ba0  1  0.314193  0.672740  0.113458  1
  Ba  Ba1  1  0.172740  0.185807  0.113458  1
  Ba  Ba2  1  0.331219  0.689799  0.386326  1
  Ba  Ba3  1  0.668781  0.689799  0.886326  1
  Ba  Ba4  1  0.189799  0.168781  0.386326  1
  Ba  Ba5  1  0.668781  0.310201  0.386326  1
  Ba  Ba6  1  0.172740  0.814193  0.613458  1
  Ba  Ba7  1  0.331219  0.310201  0.886326  1
  Ba  Ba8  1  0.189799  0.831219  0.886326  1
  Ba  Ba9  1  0.827260  0.185807  0.613458  1
  Ba  Ba10  1  0.314193  0.327260  0.613458  1
  Ba  Ba11  1  0.810201  0.831219  0.386326  1
  Ba  Ba12  1  0.810201  0.168781  0.886326  1
  Ba  Ba13  1  0.827260  0.814193  0.113458  1
  Ba  Ba14  1  0.000000  0.500000  0.266747  1
  Ba  Ba15  1  0.000000  0.500000  0.766747  1
  Ba  Ba16  1  0.685807  0.327260  0.113458  1
  Ba  Ba17  1  0.685807  0.672740  0.613458  1
  Sr  Sr18  1  0.500000  0.000000  0.734489  1
  Sr  Sr19  1  0.500000  0.000000  0.234489  1
  Si  Si20  1  0.102727  0.100196  0.749694  1
  Si  Si21  1  0.399804  0.602727  0.749694  1
  Si  Si22  1  0.600196  0.602727  0.249694  1
  Si  Si23  1  0.102727  0.899804  0.249694  1
  Si  Si24  1  0.600196  0.397273  0.749694  1
  Si  Si25  1  0.897273  0.899804  0.749694  1
  Si  Si26  1  0.399804  0.397273  0.249694  1
  Si  Si27  1  0.897273  0.100196  0.249694  1
  Pb  Pb28  1  0.000000  0.500000  0.989072  1
  Pb  Pb29  1  0.500000  0.000000  0.011781  1
  Pb  Pb30  1  0.500000  0.000000  0.511781  1
  Pb  Pb31  1  0.000000  0.500000  0.489072  1
