# generated using pymatgen
data_Y7Th(Nb3Si4)4
_symmetry_space_group_name_H-M   'P 1'
_cell_length_a   7.09556597
_cell_length_b   7.09645045
_cell_length_c   13.13152826
_cell_angle_alpha   89.91727455
_cell_angle_beta   89.97199529
_cell_angle_gamma   90.06388741
_symmetry_Int_Tables_number   1
_chemical_formula_structural   Y7Th(Nb3Si4)4
_chemical_formula_sum   'Y7 Th1 Nb12 Si16'
_cell_volume   661.21502696
_cell_formula_units_Z   1
loop_
 _symmetry_equiv_pos_site_id
 _symmetry_equiv_pos_as_xyz
  1  'x, y, z'
loop_
 _atom_site_type_symbol
 _atom_site_label
 _atom_site_symmetry_multiplicity
 _atom_site_fract_x
 _atom_site_fract_y
 _atom_site_fract_z
 _atom_site_occupancy
  Y  Y0  1  0.001578  0.658776  0.718014  1
  Y  Y1  1  0.159927  0.500121  0.468656  1
  Y  Y2  1  0.499964  0.839957  0.030756  1
  Y  Y3  1  0.840157  0.500561  0.967617  1
  Y  Y4  1  0.498656  0.159255  0.532778  1
  Y  Y5  1  0.340345  0.998792  0.781963  1
  Y  Y6  1  0.658713  0.001044  0.282931  1
  Th  Th7  1  0.996027  0.338999  0.217926  1
  Nb  Nb8  1  0.170463  0.169698  0.999540  1
  Nb  Nb9  1  0.829371  0.829744  0.501134  1
  Nb  Nb10  1  0.328109  0.669263  0.249600  1
  Nb  Nb11  1  0.671151  0.328895  0.749769  1
  Nb  Nb12  1  0.155324  0.995905  0.376740  1
  Nb  Nb13  1  0.845017  0.007366  0.874850  1
  Nb  Nb14  1  0.507680  0.654156  0.626056  1
  Nb  Nb15  1  0.346537  0.492803  0.873214  1
  Nb  Nb16  1  0.493141  0.344688  0.125164  1
  Nb  Nb17  1  0.656161  0.509320  0.375161  1
  Nb  Nb18  1  0.991998  0.154207  0.625118  1
  Nb  Nb19  1  0.007793  0.845185  0.123650  1
  Si  Si20  1  0.297229  0.040682  0.186403  1
  Si  Si21  1  0.706022  0.954737  0.686557  1
  Si  Si22  1  0.454369  0.793307  0.437123  1
  Si  Si23  1  0.208840  0.546394  0.060527  1
  Si  Si24  1  0.542626  0.205562  0.935604  1
  Si  Si25  1  0.793866  0.455514  0.563863  1
  Si  Si26  1  0.044824  0.293450  0.813548  1
  Si  Si27  1  0.956043  0.712492  0.315609  1
  Si  Si28  1  0.373181  0.296226  0.319026  1
  Si  Si29  1  0.632344  0.703941  0.817167  1
  Si  Si30  1  0.204150  0.868481  0.567728  1
  Si  Si31  1  0.131447  0.796077  0.931786  1
  Si  Si32  1  0.792216  0.127381  0.064025  1
  Si  Si33  1  0.867634  0.203662  0.435203  1
  Si  Si34  1  0.296230  0.367761  0.682503  1
  Si  Si35  1  0.700864  0.635601  0.182688  1
