# generated using pymatgen
data_Pr4Dy3PaSe12
_symmetry_space_group_name_H-M   'P 1'
_cell_length_a   4.16837200
_cell_length_b   10.99435923
_cell_length_c   11.37002700
_cell_angle_alpha   90.08887490
_cell_angle_beta   90.00000000
_cell_angle_gamma   90.00000000
_symmetry_Int_Tables_number   1
_chemical_formula_structural   Pr4Dy3PaSe12
_chemical_formula_sum   'Pr4 Dy3 Pa1 Se12'
_cell_volume   521.07155553
_cell_formula_units_Z   1
loop_
 _symmetry_equiv_pos_site_id
 _symmetry_equiv_pos_as_xyz
  1  'x, y, z'
loop_
 _atom_site_type_symbol
 _atom_site_label
 _atom_site_symmetry_multiplicity
 _atom_site_fract_x
 _atom_site_fract_y
 _atom_site_fract_z
 _atom_site_occupancy
  Pr  Pr0  1  0.750000  0.502603  0.695591  1
  Pr  Pr1  1  0.750000  0.998978  0.197659  1
  Pr  Pr2  1  0.250000  0.503986  0.302138  1
  Pr  Pr3  1  0.250000  0.996473  0.807140  1
  Dy  Dy4  1  0.250000  0.311868  0.989921  1
  Dy  Dy5  1  0.750000  0.811100  0.511058  1
  Dy  Dy6  1  0.750000  0.688040  0.010643  1
  Pa  Pa7  1  0.250000  0.187711  0.489233  1
  Se  Se8  1  0.250000  0.295544  0.726185  1
  Se  Se9  1  0.250000  0.205043  0.233156  1
  Se  Se10  1  0.750000  0.706480  0.269168  1
  Se  Se11  1  0.750000  0.794732  0.768321  1
  Se  Se12  1  0.750000  0.055198  0.615994  1
  Se  Se13  1  0.750000  0.445823  0.113580  1
  Se  Se14  1  0.250000  0.944030  0.387015  1
  Se  Se15  1  0.250000  0.551933  0.885908  1
  Se  Se16  1  0.250000  0.631341  0.542343  1
  Se  Se17  1  0.250000  0.867456  0.043877  1
  Se  Se18  1  0.750000  0.369150  0.453913  1
  Se  Se19  1  0.750000  0.132512  0.957157  1
