# generated using pymatgen
data_YbSc(BiPt)2
_symmetry_space_group_name_H-M   'P 1'
_cell_length_a   8.15929435
_cell_length_b   8.15929528
_cell_length_c   6.64549200
_cell_angle_alpha   114.03123199
_cell_angle_beta   114.03123489
_cell_angle_gamma   109.67230607
_symmetry_Int_Tables_number   1
_chemical_formula_structural   YbSc(BiPt)2
_chemical_formula_sum   'Yb2 Sc2 Bi4 Pt4'
_cell_volume   294.57723206
_cell_formula_units_Z   2
loop_
 _symmetry_equiv_pos_site_id
 _symmetry_equiv_pos_as_xyz
  1  'x, y, z'
loop_
 _atom_site_type_symbol
 _atom_site_label
 _atom_site_symmetry_multiplicity
 _atom_site_fract_x
 _atom_site_fract_y
 _atom_site_fract_z
 _atom_site_occupancy
  Yb  Yb0  1  0.000011  0.000228  0.000075  1
  Yb  Yb1  1  0.249847  0.750064  0.500075  1
  Sc  Sc2  1  0.500069  0.500219  0.000196  1
  Sc  Sc3  1  0.749976  0.250127  0.500196  1
  Bi  Bi4  1  0.753312  0.246846  0.000092  1
  Bi  Bi5  1  0.246251  0.753645  0.000214  1
  Bi  Bi6  1  0.496568  0.503962  0.500214  1
  Bi  Bi7  1  0.003247  0.996779  0.500092  1
  Pt  Pt8  1  0.625460  0.874780  0.021164  1
  Pt  Pt9  1  0.853806  0.603190  0.478261  1
  Pt  Pt10  1  0.396384  0.145704  0.521162  1
  Pt  Pt11  1  0.125071  0.374455  0.978261  1
