# generated using pymatgen
data_YHoGa9CuRu2
_symmetry_space_group_name_H-M   'P 1'
_cell_length_a   7.56002909
_cell_length_b   7.56106123
_cell_length_c   9.56278700
_cell_angle_alpha   90.00000000
_cell_angle_beta   90.00000000
_cell_angle_gamma   119.91020350
_symmetry_Int_Tables_number   1
_chemical_formula_structural   YHoGa9CuRu2
_chemical_formula_sum   'Y2 Ho2 Ga18 Cu2 Ru4'
_cell_volume   473.82022636
_cell_formula_units_Z   2
loop_
 _symmetry_equiv_pos_site_id
 _symmetry_equiv_pos_as_xyz
  1  'x, y, z'
loop_
 _atom_site_type_symbol
 _atom_site_label
 _atom_site_symmetry_multiplicity
 _atom_site_fract_x
 _atom_site_fract_y
 _atom_site_fract_z
 _atom_site_occupancy
  Y  Y0  1  0.669406  0.996180  0.250000  1
  Y  Y1  1  0.330594  0.003820  0.750000  1
  Ho  Ho2  1  0.996293  0.669231  0.250000  1
  Ho  Ho3  1  0.003707  0.330769  0.750000  1
  Ga  Ga4  1  0.125842  0.125592  0.250000  1
  Ga  Ga5  1  0.874158  0.874408  0.750000  1
  Ga  Ga6  1  0.002265  0.337096  0.077127  1
  Ga  Ga7  1  0.997735  0.662904  0.922873  1
  Ga  Ga8  1  0.997735  0.662904  0.577127  1
  Ga  Ga9  1  0.336595  0.001981  0.422708  1
  Ga  Ga10  1  0.002265  0.337096  0.422873  1
  Ga  Ga11  1  0.663405  0.998019  0.577292  1
  Ga  Ga12  1  0.663405  0.998019  0.922708  1
  Ga  Ga13  1  0.336595  0.001981  0.077292  1
  Ga  Ga14  1  0.338771  0.339013  0.563189  1
  Ga  Ga15  1  0.661229  0.660987  0.436811  1
  Ga  Ga16  1  0.661229  0.660987  0.063189  1
  Ga  Ga17  1  0.338771  0.339013  0.936811  1
  Ga  Ga18  1  0.334600  0.549142  0.250000  1
  Ga  Ga19  1  0.665400  0.450858  0.750000  1
  Ga  Ga20  1  0.549447  0.335123  0.250000  1
  Ga  Ga21  1  0.450553  0.664877  0.750000  1
  Cu  Cu22  1  0.000000  0.000000  0.000000  1
  Cu  Cu23  1  0.000000  0.000000  0.500000  1
  Ru  Ru24  1  0.673296  0.326967  0.000013  1
  Ru  Ru25  1  0.326704  0.673033  0.999987  1
  Ru  Ru26  1  0.326704  0.673033  0.500013  1
  Ru  Ru27  1  0.673296  0.326967  0.499987  1
