# generated using pymatgen
data_La6Pr3Nd7(CdIr)4
_symmetry_space_group_name_H-M   'P 1'
_cell_length_a   9.99052993
_cell_length_b   10.04031556
_cell_length_c   10.05319293
_cell_angle_alpha   59.63082947
_cell_angle_beta   60.29022054
_cell_angle_gamma   60.24878181
_symmetry_Int_Tables_number   1
_chemical_formula_structural   La6Pr3Nd7(CdIr)4
_chemical_formula_sum   'La6 Pr3 Nd7 Cd4 Ir4'
_cell_volume   713.91398979
_cell_formula_units_Z   1
loop_
 _symmetry_equiv_pos_site_id
 _symmetry_equiv_pos_as_xyz
  1  'x, y, z'
loop_
 _atom_site_type_symbol
 _atom_site_label
 _atom_site_symmetry_multiplicity
 _atom_site_fract_x
 _atom_site_fract_y
 _atom_site_fract_z
 _atom_site_occupancy
  La  La0  1  0.345041  0.348499  0.348814  1
  La  La1  1  0.349053  0.345257  0.956786  1
  La  La2  1  0.348793  0.957652  0.345067  1
  La  La3  1  0.956805  0.348940  0.349019  1
  La  La4  1  0.812206  0.187888  0.187487  1
  La  La5  1  0.187473  0.812406  0.812259  1
  Pr  Pr6  1  0.938434  0.561560  0.938437  1
  Pr  Pr7  1  0.561670  0.562005  0.938312  1
  Pr  Pr8  1  0.938314  0.938000  0.561665  1
  Nd  Nd9  1  0.191353  0.808639  0.191360  1
  Nd  Nd10  1  0.808148  0.191848  0.808153  1
  Nd  Nd11  1  0.191517  0.191813  0.808115  1
  Nd  Nd12  1  0.808135  0.808535  0.191525  1
  Nd  Nd13  1  0.936595  0.563973  0.563179  1
  Nd  Nd14  1  0.563174  0.936253  0.936597  1
  Nd  Nd15  1  0.561841  0.938172  0.561826  1
  Cd  Cd16  1  0.580903  0.579617  0.579394  1
  Cd  Cd17  1  0.579531  0.581012  0.259965  1
  Cd  Cd18  1  0.579396  0.260085  0.580897  1
  Cd  Cd19  1  0.259968  0.579482  0.579528  1
  Ir  Ir20  1  0.137022  0.142872  0.143866  1
  Ir  Ir21  1  0.144426  0.136225  0.576316  1
  Ir  Ir22  1  0.143882  0.576233  0.137012  1
  Ir  Ir23  1  0.576317  0.143031  0.144417  1
