# generated using pymatgen
data_Ho10Al(ZnRh2)3
_symmetry_space_group_name_H-M   'P 1'
_cell_length_a   8.26423055
_cell_length_b   8.34766899
_cell_length_c   8.26423100
_cell_angle_alpha   109.67587330
_cell_angle_beta   109.26579310
_cell_angle_gamma   109.67587565
_symmetry_Int_Tables_number   1
_chemical_formula_structural   Ho10Al(ZnRh2)3
_chemical_formula_sum   'Ho10 Al1 Zn3 Rh6'
_cell_volume   437.76906286
_cell_formula_units_Z   1
loop_
 _symmetry_equiv_pos_site_id
 _symmetry_equiv_pos_as_xyz
  1  'x, y, z'
loop_
 _atom_site_type_symbol
 _atom_site_label
 _atom_site_symmetry_multiplicity
 _atom_site_fract_x
 _atom_site_fract_y
 _atom_site_fract_z
 _atom_site_occupancy
  Ho  Ho0  1  0.249431  0.682381  0.434757  1
  Ho  Ho1  1  0.749138  0.816944  0.063955  1
  Ho  Ho2  1  0.436046  0.252988  0.685183  1
  Ho  Ho3  1  0.685325  0.432952  0.250569  1
  Ho  Ho4  1  0.065244  0.747625  0.814675  1
  Ho  Ho5  1  0.814817  0.067806  0.750862  1
  Ho  Ho6  1  0.225517  0.224260  0.225178  1
  Ho  Ho7  1  0.499662  0.998742  0.274483  1
  Ho  Ho8  1  0.274822  0.499084  0.000339  1
  Ho  Ho9  1  0.000000  0.276137  0.500001  1
  Al  Al10  1  0.000000  0.901553  0.500001  1
  Zn  Zn11  1  0.497089  0.999492  0.904189  1
  Zn  Zn12  1  0.595811  0.595303  0.592898  1
  Zn  Zn13  1  0.907102  0.502404  0.002912  1
  Rh  Rh14  1  0.242717  0.130415  0.875727  1
  Rh  Rh15  1  0.749175  0.364584  0.615049  1
  Rh  Rh16  1  0.884950  0.249536  0.134124  1
  Rh  Rh17  1  0.133011  0.887699  0.257285  1
  Rh  Rh18  1  0.624272  0.754689  0.366988  1
  Rh  Rh19  1  0.365875  0.615409  0.750825  1
