# generated using pymatgen
data_Ce4NdTcPb3
_symmetry_space_group_name_H-M   'P 1'
_cell_length_a   9.62477700
_cell_length_b   9.62477865
_cell_length_c   6.51484000
_cell_angle_alpha   90.00000000
_cell_angle_beta   90.00000000
_cell_angle_gamma   119.99999778
_symmetry_Int_Tables_number   1
_chemical_formula_structural   Ce4NdTcPb3
_chemical_formula_sum   'Ce8 Nd2 Tc2 Pb6'
_cell_volume   522.65585734
_cell_formula_units_Z   2
loop_
 _symmetry_equiv_pos_site_id
 _symmetry_equiv_pos_as_xyz
  1  'x, y, z'
loop_
 _atom_site_type_symbol
 _atom_site_label
 _atom_site_symmetry_multiplicity
 _atom_site_fract_x
 _atom_site_fract_y
 _atom_site_fract_z
 _atom_site_occupancy
  Ce  Ce0  1  0.237956  0.237956  0.750087  1
  Ce  Ce1  1  0.762044  0.762044  0.249913  1
  Ce  Ce2  1  0.237956  0.000000  0.249913  1
  Ce  Ce3  1  0.762044  0.000000  0.750087  1
  Ce  Ce4  1  0.000000  0.237956  0.249913  1
  Ce  Ce5  1  0.000000  0.762044  0.750087  1
  Ce  Ce6  1  0.333333  0.666667  0.000000  1
  Ce  Ce7  1  0.666667  0.333333  0.000000  1
  Nd  Nd8  1  0.333333  0.666667  0.500000  1
  Nd  Nd9  1  0.666667  0.333333  0.500000  1
  Tc  Tc10  1  0.000000  0.000000  0.000000  1
  Tc  Tc11  1  0.000000  0.000000  0.500000  1
  Pb  Pb12  1  0.396975  0.396975  0.248651  1
  Pb  Pb13  1  0.603025  0.603025  0.751349  1
  Pb  Pb14  1  0.000000  0.396975  0.751349  1
  Pb  Pb15  1  0.603025  0.000000  0.248651  1
  Pb  Pb16  1  0.396975  0.000000  0.751349  1
  Pb  Pb17  1  0.000000  0.603025  0.248651  1
