# generated using pymatgen
data_Lu3Cu2Ni7
_symmetry_space_group_name_H-M   'P 1'
_cell_length_a   4.93890400
_cell_length_b   4.93890458
_cell_length_c   16.05638000
_cell_angle_alpha   90.00000000
_cell_angle_beta   90.00000000
_cell_angle_gamma   119.99999612
_symmetry_Int_Tables_number   1
_chemical_formula_structural   Lu3Cu2Ni7
_chemical_formula_sum   'Lu6 Cu4 Ni14'
_cell_volume   339.18724061
_cell_formula_units_Z   2
loop_
 _symmetry_equiv_pos_site_id
 _symmetry_equiv_pos_as_xyz
  1  'x, y, z'
loop_
 _atom_site_type_symbol
 _atom_site_label
 _atom_site_symmetry_multiplicity
 _atom_site_fract_x
 _atom_site_fract_y
 _atom_site_fract_z
 _atom_site_occupancy
  Lu  Lu0  1  0.333333  0.666667  0.541014  1
  Lu  Lu1  1  0.666667  0.333333  0.041014  1
  Lu  Lu2  1  0.666667  0.333333  0.458986  1
  Lu  Lu3  1  0.333333  0.666667  0.958986  1
  Lu  Lu4  1  0.333333  0.666667  0.750000  1
  Lu  Lu5  1  0.666667  0.333333  0.250000  1
  Cu  Cu6  1  0.333333  0.666667  0.250000  1
  Cu  Cu7  1  0.666667  0.333333  0.750000  1
  Cu  Cu8  1  0.000000  0.000000  0.250000  1
  Cu  Cu9  1  0.000000  0.000000  0.750000  1
  Ni  Ni10  1  0.000000  0.000000  0.000000  1
  Ni  Ni11  1  0.000000  0.000000  0.500000  1
  Ni  Ni12  1  0.167405  0.334811  0.124528  1
  Ni  Ni13  1  0.832595  0.665189  0.624528  1
  Ni  Ni14  1  0.665189  0.832595  0.124528  1
  Ni  Ni15  1  0.167405  0.832595  0.124528  1
  Ni  Ni16  1  0.832595  0.167405  0.624528  1
  Ni  Ni17  1  0.334811  0.167405  0.624528  1
  Ni  Ni18  1  0.832595  0.665189  0.875472  1
  Ni  Ni19  1  0.832595  0.167405  0.875472  1
  Ni  Ni20  1  0.334811  0.167405  0.875472  1
  Ni  Ni21  1  0.665189  0.832595  0.375472  1
  Ni  Ni22  1  0.167405  0.832595  0.375472  1
  Ni  Ni23  1  0.167405  0.334811  0.375472  1
