# generated using pymatgen
data_PrHo2Ga8Ag3
_symmetry_space_group_name_H-M   'P 1'
_cell_length_a   4.36884268
_cell_length_b   8.41736037
_cell_length_c   8.41736124
_cell_angle_alpha   69.05390384
_cell_angle_beta   74.95878238
_cell_angle_gamma   74.95878040
_symmetry_Int_Tables_number   1
_chemical_formula_structural   PrHo2Ga8Ag3
_chemical_formula_sum   'Pr1 Ho2 Ga8 Ag3'
_cell_volume   274.36908099
_cell_formula_units_Z   1
loop_
 _symmetry_equiv_pos_site_id
 _symmetry_equiv_pos_as_xyz
  1  'x, y, z'
loop_
 _atom_site_type_symbol
 _atom_site_label
 _atom_site_symmetry_multiplicity
 _atom_site_fract_x
 _atom_site_fract_y
 _atom_site_fract_z
 _atom_site_occupancy
  Pr  Pr0  1  0.500000  0.500000  0.500000  1
  Ho  Ho1  1  0.200337  0.799663  0.799663  1
  Ho  Ho2  1  0.799663  0.200337  0.200337  1
  Ga  Ga3  1  0.355300  0.361036  0.928364  1
  Ga  Ga4  1  0.644700  0.638964  0.071636  1
  Ga  Ga5  1  0.355300  0.928364  0.361036  1
  Ga  Ga6  1  0.644700  0.071636  0.638964  1
  Ga  Ga7  1  0.160313  0.472374  0.206999  1
  Ga  Ga8  1  0.839687  0.527626  0.793001  1
  Ga  Ga9  1  0.160313  0.206999  0.472374  1
  Ga  Ga10  1  0.839687  0.793001  0.527626  1
  Ag  Ag11  1  0.500000  0.000000  0.000000  1
  Ag  Ag12  1  0.000000  0.807769  0.192231  1
  Ag  Ag13  1  0.000000  0.192231  0.807769  1
