# generated using pymatgen
data_LiScMn4Ni8P7
_symmetry_space_group_name_H-M   'P 1'
_cell_length_a   9.05866503
_cell_length_b   9.08615969
_cell_length_c   3.56164400
_cell_angle_alpha   90.00000000
_cell_angle_beta   90.00000000
_cell_angle_gamma   120.05369802
_symmetry_Int_Tables_number   1
_chemical_formula_structural   LiScMn4Ni8P7
_chemical_formula_sum   'Li1 Sc1 Mn4 Ni8 P7'
_cell_volume   253.74088818
_cell_formula_units_Z   1
loop_
 _symmetry_equiv_pos_site_id
 _symmetry_equiv_pos_as_xyz
  1  'x, y, z'
loop_
 _atom_site_type_symbol
 _atom_site_label
 _atom_site_symmetry_multiplicity
 _atom_site_fract_x
 _atom_site_fract_y
 _atom_site_fract_z
 _atom_site_occupancy
  Li  Li0  1  0.666433  0.333673  0.500000  1
  Sc  Sc1  1  0.000725  0.998353  0.000000  1
  Mn  Mn2  1  0.215356  0.828047  0.000000  1
  Mn  Mn3  1  0.428871  0.539849  0.500000  1
  Mn  Mn4  1  0.109382  0.568928  0.500000  1
  Mn  Mn5  1  0.463002  0.894497  0.500000  1
  Ni  Ni6  1  0.393165  0.290275  0.000000  1
  Ni  Ni7  1  0.893805  0.601658  0.000000  1
  Ni  Ni8  1  0.708966  0.102181  0.000000  1
  Ni  Ni9  1  0.612505  0.785321  0.000000  1
  Ni  Ni10  1  0.172876  0.386388  0.000000  1
  Ni  Ni11  1  0.773198  0.721108  0.500000  1
  Ni  Ni12  1  0.947074  0.228113  0.500000  1
  Ni  Ni13  1  0.281782  0.054754  0.500000  1
  P  P14  1  0.625976  0.543419  0.000000  1
  P  P15  1  0.917325  0.373134  0.000000  1
  P  P16  1  0.455030  0.081542  0.000000  1
  P  P17  1  0.745560  0.956952  0.500000  1
  P  P18  1  0.212215  0.255855  0.500000  1
  P  P19  1  0.046025  0.788070  0.500000  1
  P  P20  1  0.330731  0.667879  0.000000  1
