# generated using pymatgen
data_Na4NdUTe6
_symmetry_space_group_name_H-M   'P 1'
_cell_length_a   7.86519485
_cell_length_b   7.86537478
_cell_length_c   7.93986865
_cell_angle_alpha   80.41860525
_cell_angle_beta   80.40456295
_cell_angle_gamma   120.02961248
_symmetry_Int_Tables_number   1
_chemical_formula_structural   Na4NdUTe6
_chemical_formula_sum   'Na4 Nd1 U1 Te6'
_cell_volume   400.93531341
_cell_formula_units_Z   1
loop_
 _symmetry_equiv_pos_site_id
 _symmetry_equiv_pos_as_xyz
  1  'x, y, z'
loop_
 _atom_site_type_symbol
 _atom_site_label
 _atom_site_symmetry_multiplicity
 _atom_site_fract_x
 _atom_site_fract_y
 _atom_site_fract_z
 _atom_site_occupancy
  Na  Na0  1  0.339648  0.660329  0.500005  1
  Na  Na1  1  0.659017  0.340991  0.499992  1
  Na  Na2  1  0.000168  0.999871  0.499993  1
  Na  Na3  1  0.500105  0.499900  0.000005  1
  Nd  Nd4  1  0.167396  0.832456  0.000045  1
  U  U5  1  0.832771  0.167297  0.999997  1
  Te  Te6  1  0.765162  0.779708  0.234726  1
  Te  Te7  1  0.436131  0.076456  0.235719  1
  Te  Te8  1  0.061077  0.405323  0.233161  1
  Te  Te9  1  0.594680  0.938976  0.766887  1
  Te  Te10  1  0.923509  0.563845  0.764249  1
  Te  Te11  1  0.220337  0.234847  0.765221  1
