# generated using pymatgen
data_Dy3ErFe16(ReP3)4
_symmetry_space_group_name_H-M   'P 1'
_cell_length_a   3.72728200
_cell_length_b   10.39996102
_cell_length_c   11.82002803
_cell_angle_alpha   89.99246045
_cell_angle_beta   90.00000000
_cell_angle_gamma   90.00000000
_symmetry_Int_Tables_number   1
_chemical_formula_structural   Dy3ErFe16(ReP3)4
_chemical_formula_sum   'Dy3 Er1 Fe16 Re4 P12'
_cell_volume   458.18668689
_cell_formula_units_Z   1
loop_
 _symmetry_equiv_pos_site_id
 _symmetry_equiv_pos_as_xyz
  1  'x, y, z'
loop_
 _atom_site_type_symbol
 _atom_site_label
 _atom_site_symmetry_multiplicity
 _atom_site_fract_x
 _atom_site_fract_y
 _atom_site_fract_z
 _atom_site_occupancy
  Dy  Dy0  1  0.250000  0.917786  0.204202  1
  Dy  Dy1  1  0.750000  0.417897  0.295802  1
  Dy  Dy2  1  0.750000  0.082184  0.795835  1
  Er  Er3  1  0.250000  0.582116  0.704135  1
  Fe  Fe4  1  0.250000  0.404974  0.490174  1
  Fe  Fe5  1  0.250000  0.095136  0.990049  1
  Fe  Fe6  1  0.750000  0.595141  0.510296  1
  Fe  Fe7  1  0.750000  0.904839  0.009928  1
  Fe  Fe8  1  0.250000  0.216963  0.177779  1
  Fe  Fe9  1  0.250000  0.283216  0.677817  1
  Fe  Fe10  1  0.750000  0.782748  0.822140  1
  Fe  Fe11  1  0.750000  0.716958  0.322227  1
  Fe  Fe12  1  0.250000  0.877255  0.702020  1
  Fe  Fe13  1  0.250000  0.622505  0.202001  1
  Fe  Fe14  1  0.750000  0.122487  0.298000  1
  Fe  Fe15  1  0.750000  0.377801  0.797835  1
  Fe  Fe16  1  0.250000  0.463130  0.933419  1
  Fe  Fe17  1  0.250000  0.036967  0.433669  1
  Fe  Fe18  1  0.750000  0.537002  0.066272  1
  Fe  Fe19  1  0.750000  0.962935  0.566373  1
  Re  Re20  1  0.250000  0.705197  0.987043  1
  Re  Re21  1  0.250000  0.794704  0.487050  1
  Re  Re22  1  0.750000  0.294832  0.012916  1
  Re  Re23  1  0.750000  0.205259  0.513024  1
  P  P24  1  0.250000  0.422806  0.114661  1
  P  P25  1  0.250000  0.077250  0.614693  1
  P  P26  1  0.750000  0.577310  0.884910  1
  P  P27  1  0.750000  0.922736  0.385298  1
  P  P28  1  0.250000  0.265431  0.870138  1
  P  P29  1  0.250000  0.234535  0.370120  1
  P  P30  1  0.750000  0.734516  0.129930  1
  P  P31  1  0.750000  0.764951  0.630078  1
  P  P32  1  0.250000  0.594661  0.394838  1
  P  P33  1  0.250000  0.905395  0.894897  1
  P  P34  1  0.750000  0.405771  0.605318  1
  P  P35  1  0.750000  0.094604  0.105113  1
