# generated using pymatgen
data_Ho8Ga(Pd5Pt3)3
_symmetry_space_group_name_H-M   'P 1'
_cell_length_a   8.33138703
_cell_length_b   8.33138703
_cell_length_c   8.33138703
_cell_angle_alpha   90.00702861
_cell_angle_beta   90.00702861
_cell_angle_gamma   89.99297139
_symmetry_Int_Tables_number   1
_chemical_formula_structural   Ho8Ga(Pd5Pt3)3
_chemical_formula_sum   'Ho8 Ga1 Pd15 Pt9'
_cell_volume   578.29830576
_cell_formula_units_Z   1
loop_
 _symmetry_equiv_pos_site_id
 _symmetry_equiv_pos_as_xyz
  1  'x, y, z'
loop_
 _atom_site_type_symbol
 _atom_site_label
 _atom_site_symmetry_multiplicity
 _atom_site_fract_x
 _atom_site_fract_y
 _atom_site_fract_z
 _atom_site_occupancy
  Ho  Ho0  1  0.252018  0.252018  0.747982  1
  Ho  Ho1  1  0.252192  0.748163  0.252404  1
  Ho  Ho2  1  0.747596  0.252192  0.251837  1
  Ho  Ho3  1  0.748163  0.747596  0.747808  1
  Ho  Ho4  1  0.747795  0.747795  0.252205  1
  Ho  Ho5  1  0.747970  0.252394  0.748186  1
  Ho  Ho6  1  0.251814  0.747970  0.747606  1
  Ho  Ho7  1  0.252394  0.251814  0.252030  1
  Ga  Ga8  1  0.000145  0.000145  0.999855  1
  Pd  Pd9  1  0.999827  0.999938  0.708211  1
  Pd  Pd10  1  0.999938  0.291789  0.000173  1
  Pd  Pd11  1  0.291789  0.999827  0.000062  1
  Pd  Pd12  1  0.999821  0.999958  0.291744  1
  Pd  Pd13  1  0.999958  0.708256  0.000179  1
  Pd  Pd14  1  0.708256  0.999821  0.000042  1
  Pd  Pd15  1  0.000134  0.260092  0.499859  1
  Pd  Pd16  1  0.500141  0.000134  0.739908  1
  Pd  Pd17  1  0.260092  0.500141  0.999866  1
  Pd  Pd18  1  0.999940  0.500059  0.260275  1
  Pd  Pd19  1  0.500059  0.739725  0.000060  1
  Pd  Pd20  1  0.000106  0.740009  0.499833  1
  Pd  Pd21  1  0.500167  0.000106  0.259991  1
  Pd  Pd22  1  0.739725  0.999940  0.499941  1
  Pd  Pd23  1  0.740009  0.500167  0.999894  1
  Pt  Pt24  1  0.500100  0.499911  0.747519  1
  Pt  Pt25  1  0.499911  0.252481  0.499900  1
  Pt  Pt26  1  0.252481  0.500100  0.500089  1
  Pt  Pt27  1  0.500106  0.499900  0.252654  1
  Pt  Pt28  1  0.499900  0.747346  0.499894  1
  Pt  Pt29  1  0.747346  0.500106  0.500100  1
  Pt  Pt30  1  0.999935  0.500074  0.739904  1
  Pt  Pt31  1  0.500074  0.260096  0.000065  1
  Pt  Pt32  1  0.260096  0.999935  0.499926  1
