# generated using pymatgen
data_Sc2Mn5(PRh)7
_symmetry_space_group_name_H-M   'P 1'
_cell_length_a   9.37308045
_cell_length_b   9.38741607
_cell_length_c   3.73923300
_cell_angle_alpha   90.00000000
_cell_angle_beta   90.00000000
_cell_angle_gamma   119.98520769
_symmetry_Int_Tables_number   1
_chemical_formula_structural   Sc2Mn5(PRh)7
_chemical_formula_sum   'Sc2 Mn5 P7 Rh7'
_cell_volume   284.97468799
_cell_formula_units_Z   1
loop_
 _symmetry_equiv_pos_site_id
 _symmetry_equiv_pos_as_xyz
  1  'x, y, z'
loop_
 _atom_site_type_symbol
 _atom_site_label
 _atom_site_symmetry_multiplicity
 _atom_site_fract_x
 _atom_site_fract_y
 _atom_site_fract_z
 _atom_site_occupancy
  Sc  Sc0  1  0.000344  0.000361  0.000000  1
  Sc  Sc1  1  0.667041  0.332241  0.500000  1
  Mn  Mn2  1  0.605950  0.782813  0.000000  1
  Mn  Mn3  1  0.175435  0.395246  0.000000  1
  Mn  Mn4  1  0.221187  0.824975  0.000000  1
  Mn  Mn5  1  0.107797  0.563147  0.500000  1
  Mn  Mn6  1  0.456771  0.893652  0.500000  1
  P  P7  1  0.632589  0.555809  0.000000  1
  P  P8  1  0.924149  0.368463  0.000000  1
  P  P9  1  0.445856  0.078041  0.000000  1
  P  P10  1  0.734791  0.944550  0.500000  1
  P  P11  1  0.209013  0.266254  0.500000  1
  P  P12  1  0.056388  0.787456  0.500000  1
  P  P13  1  0.331990  0.665361  0.000000  1
  Rh  Rh14  1  0.401281  0.302718  0.000000  1
  Rh  Rh15  1  0.901864  0.597906  0.000000  1
  Rh  Rh16  1  0.696769  0.099356  0.000000  1
  Rh  Rh17  1  0.780713  0.724899  0.500000  1
  Rh  Rh18  1  0.944947  0.220479  0.500000  1
  Rh  Rh19  1  0.274808  0.055735  0.500000  1
  Rh  Rh20  1  0.430317  0.540537  0.500000  1
