# generated using pymatgen
data_La10FeCoI15
_symmetry_space_group_name_H-M   'P 1'
_cell_length_a   9.95256564
_cell_length_b   11.18359403
_cell_length_c   11.99559902
_cell_angle_alpha   92.45969761
_cell_angle_beta   113.28684454
_cell_angle_gamma   109.62847193
_symmetry_Int_Tables_number   1
_chemical_formula_structural   La10FeCoI15
_chemical_formula_sum   'La10 Fe1 Co1 I15'
_cell_volume   1131.06630088
_cell_formula_units_Z   1
loop_
 _symmetry_equiv_pos_site_id
 _symmetry_equiv_pos_as_xyz
  1  'x, y, z'
loop_
 _atom_site_type_symbol
 _atom_site_label
 _atom_site_symmetry_multiplicity
 _atom_site_fract_x
 _atom_site_fract_y
 _atom_site_fract_z
 _atom_site_occupancy
  La  La0  1  0.212577  0.585217  0.054956  1
  La  La1  1  0.780695  0.413313  0.943933  1
  La  La2  1  0.307257  0.906364  0.274117  1
  La  La3  1  0.698069  0.094744  0.726849  1
  La  La4  1  0.092428  0.544448  0.333457  1
  La  La5  1  0.906703  0.453372  0.666725  1
  La  La6  1  0.846100  0.741473  0.169755  1
  La  La7  1  0.149516  0.261998  0.832592  1
  La  La8  1  0.974214  0.794757  0.899952  1
  La  La9  1  0.024713  0.204069  0.097634  1
  Fe  Fe10  1  0.971131  0.322270  0.878286  1
  Co  Co11  1  0.034246  0.678080  0.121915  1
  I  I12  1  0.342337  0.441762  0.298321  1
  I  I13  1  0.656974  0.557823  0.702143  1
  I  I14  1  0.212945  0.734069  0.814512  1
  I  I15  1  0.786938  0.266291  0.184681  1
  I  I16  1  0.142919  0.384958  0.582075  1
  I  I17  1  0.856728  0.616015  0.416794  1
  I  I18  1  0.388961  0.801690  0.529399  1
  I  I19  1  0.608297  0.197268  0.469185  1
  I  I20  1  0.265544  0.085535  0.052591  1
  I  I21  1  0.733619  0.912288  0.946981  1
  I  I22  1  0.569774  0.839711  0.224986  1
  I  I23  1  0.434135  0.160949  0.776208  1
  I  I24  1  0.089120  0.034101  0.333441  1
  I  I25  1  0.913311  0.965164  0.666766  1
  I  I26  1  0.500750  0.502270  0.001743  1
