# generated using pymatgen
data_Tb3YCdSnAu4
_symmetry_space_group_name_H-M   'P 1'
_cell_length_a   8.03349033
_cell_length_b   8.03349033
_cell_length_c   7.40055000
_cell_angle_alpha   90.00000000
_cell_angle_beta   90.00000000
_cell_angle_gamma   89.96702110
_symmetry_Int_Tables_number   1
_chemical_formula_structural   Tb3YCdSnAu4
_chemical_formula_sum   'Tb6 Y2 Cd2 Sn2 Au8'
_cell_volume   477.60897146
_cell_formula_units_Z   2
loop_
 _symmetry_equiv_pos_site_id
 _symmetry_equiv_pos_as_xyz
  1  'x, y, z'
loop_
 _atom_site_type_symbol
 _atom_site_label
 _atom_site_symmetry_multiplicity
 _atom_site_fract_x
 _atom_site_fract_y
 _atom_site_fract_z
 _atom_site_occupancy
  Tb  Tb0  1  0.840091  0.159909  0.500000  1
  Tb  Tb1  1  0.159909  0.840091  0.500000  1
  Tb  Tb2  1  0.682206  0.682206  0.500000  1
  Tb  Tb3  1  0.317794  0.317794  0.500000  1
  Tb  Tb4  1  0.182251  0.817749  0.000000  1
  Tb  Tb5  1  0.817749  0.182251  0.000000  1
  Y  Y6  1  0.340017  0.340017  0.000000  1
  Y  Y7  1  0.659983  0.659983  0.000000  1
  Cd  Cd8  1  0.500000  0.000000  0.249864  1
  Cd  Cd9  1  0.000000  0.500000  0.750136  1
  Sn  Sn10  1  0.500000  0.000000  0.749830  1
  Sn  Sn11  1  0.000000  0.500000  0.250170  1
  Au  Au12  1  0.624379  0.368486  0.272432  1
  Au  Au13  1  0.375621  0.631514  0.272432  1
  Au  Au14  1  0.124352  0.131577  0.772417  1
  Au  Au15  1  0.875648  0.868423  0.772417  1
  Au  Au16  1  0.368486  0.624379  0.727568  1
  Au  Au17  1  0.631514  0.375621  0.727568  1
  Au  Au18  1  0.868423  0.875648  0.227583  1
  Au  Au19  1  0.131577  0.124352  0.227583  1
