# generated using pymatgen
data_Tm3MnCo9GeB4
_symmetry_space_group_name_H-M   'P 1'
_cell_length_a   5.08420100
_cell_length_b   5.08420106
_cell_length_c   9.54273700
_cell_angle_alpha   90.00000000
_cell_angle_beta   90.00000000
_cell_angle_gamma   120.00000614
_symmetry_Int_Tables_number   1
_chemical_formula_structural   Tm3MnCo9GeB4
_chemical_formula_sum   'Tm3 Mn1 Co9 Ge1 B4'
_cell_volume   213.62348108
_cell_formula_units_Z   1
loop_
 _symmetry_equiv_pos_site_id
 _symmetry_equiv_pos_as_xyz
  1  'x, y, z'
loop_
 _atom_site_type_symbol
 _atom_site_label
 _atom_site_symmetry_multiplicity
 _atom_site_fract_x
 _atom_site_fract_y
 _atom_site_fract_z
 _atom_site_occupancy
  Tm  Tm0  1  0.000000  0.000000  0.000000  1
  Tm  Tm1  1  0.000000  0.000000  0.660227  1
  Tm  Tm2  1  0.000000  0.000000  0.339773  1
  Mn  Mn3  1  0.666667  0.333333  0.000000  1
  Co  Co4  1  0.500289  0.499711  0.500000  1
  Co  Co5  1  0.500289  0.000579  0.500000  1
  Co  Co6  1  0.999421  0.499711  0.500000  1
  Co  Co7  1  0.499944  0.500056  0.794868  1
  Co  Co8  1  0.499944  0.999887  0.794868  1
  Co  Co9  1  0.000113  0.500056  0.794868  1
  Co  Co10  1  0.499944  0.500056  0.205132  1
  Co  Co11  1  0.499944  0.999887  0.205132  1
  Co  Co12  1  0.000113  0.500056  0.205132  1
  Ge  Ge13  1  0.333333  0.666667  0.000000  1
  B  B14  1  0.666667  0.333333  0.651640  1
  B  B15  1  0.333333  0.666667  0.650482  1
  B  B16  1  0.333333  0.666667  0.349518  1
  B  B17  1  0.666667  0.333333  0.348360  1
