# generated using pymatgen
data_Zr2Nb4C5
_symmetry_space_group_name_H-M   'P 1'
_cell_length_a   5.61639156
_cell_length_b   5.61639196
_cell_length_c   5.56016477
_cell_angle_alpha   80.94206756
_cell_angle_beta   80.94206805
_cell_angle_gamma   120.52793807
_symmetry_Int_Tables_number   1
_chemical_formula_structural   Zr2Nb4C5
_chemical_formula_sum   'Zr2 Nb4 C5'
_cell_volume   143.26485153
_cell_formula_units_Z   1
loop_
 _symmetry_equiv_pos_site_id
 _symmetry_equiv_pos_as_xyz
  1  'x, y, z'
loop_
 _atom_site_type_symbol
 _atom_site_label
 _atom_site_symmetry_multiplicity
 _atom_site_fract_x
 _atom_site_fract_y
 _atom_site_fract_z
 _atom_site_occupancy
  Zr  Zr0  1  0.744484  0.744484  0.743141  1
  Zr  Zr1  1  0.255516  0.255516  0.256859  1
  Nb  Nb2  1  0.087814  0.443191  0.745042  1
  Nb  Nb3  1  0.556809  0.912186  0.254958  1
  Nb  Nb4  1  0.912186  0.556809  0.254958  1
  Nb  Nb5  1  0.443191  0.087814  0.745042  1
  C  C6  1  0.500000  0.500000  0.500000  1
  C  C7  1  0.671097  0.328903  0.000000  1
  C  C8  1  0.328903  0.671097  0.000000  1
  C  C9  1  0.828175  0.171825  0.500000  1
  C  C10  1  0.171825  0.828175  0.500000  1
