# generated using pymatgen
data_Ho8CuP12Pd11
_symmetry_space_group_name_H-M   'P 1'
_cell_length_a   3.92904000
_cell_length_b   10.82994444
_cell_length_c   13.26307090
_cell_angle_alpha   90.13354082
_cell_angle_beta   90.00000000
_cell_angle_gamma   90.00000000
_symmetry_Int_Tables_number   1
_chemical_formula_structural   Ho8CuP12Pd11
_chemical_formula_sum   'Ho8 Cu1 P12 Pd11'
_cell_volume   564.35917572
_cell_formula_units_Z   1
loop_
 _symmetry_equiv_pos_site_id
 _symmetry_equiv_pos_as_xyz
  1  'x, y, z'
loop_
 _atom_site_type_symbol
 _atom_site_label
 _atom_site_symmetry_multiplicity
 _atom_site_fract_x
 _atom_site_fract_y
 _atom_site_fract_z
 _atom_site_occupancy
  Ho  Ho0  1  0.250000  0.928485  0.787852  1
  Ho  Ho1  1  0.750000  0.428278  0.712992  1
  Ho  Ho2  1  0.250000  0.572518  0.285662  1
  Ho  Ho3  1  0.750000  0.073029  0.213772  1
  Ho  Ho4  1  0.250000  0.844435  0.506172  1
  Ho  Ho5  1  0.750000  0.340265  0.994275  1
  Ho  Ho6  1  0.250000  0.658248  0.004491  1
  Ho  Ho7  1  0.750000  0.158452  0.499039  1
  Cu  Cu8  1  0.750000  0.133420  0.717627  1
  P  P9  1  0.250000  0.237096  0.643367  1
  P  P10  1  0.750000  0.736984  0.858542  1
  P  P11  1  0.250000  0.262541  0.141553  1
  P  P12  1  0.750000  0.762978  0.358346  1
  P  P13  1  0.250000  0.603484  0.603453  1
  P  P14  1  0.750000  0.101824  0.894195  1
  P  P15  1  0.250000  0.898019  0.103407  1
  P  P16  1  0.750000  0.396691  0.396417  1
  P  P17  1  0.250000  0.053852  0.377323  1
  P  P18  1  0.750000  0.552638  0.123193  1
  P  P19  1  0.250000  0.443668  0.874646  1
  P  P20  1  0.750000  0.950763  0.628029  1
  Pd  Pd21  1  0.250000  0.406722  0.522768  1
  Pd  Pd22  1  0.750000  0.906351  0.979366  1
  Pd  Pd23  1  0.250000  0.094434  0.020355  1
  Pd  Pd24  1  0.750000  0.593100  0.476639  1
  Pd  Pd25  1  0.250000  0.268553  0.338151  1
  Pd  Pd26  1  0.750000  0.768457  0.163572  1
  Pd  Pd27  1  0.250000  0.227386  0.828930  1
  Pd  Pd28  1  0.750000  0.732600  0.662931  1
  Pd  Pd29  1  0.250000  0.866413  0.283175  1
  Pd  Pd30  1  0.750000  0.365643  0.217455  1
  Pd  Pd31  1  0.250000  0.632673  0.782304  1
