# generated using pymatgen
data_Er5Tm15Sn7Pb9
_symmetry_space_group_name_H-M   'P 1'
_cell_length_a   8.07200829
_cell_length_b   8.11478817
_cell_length_c   15.38807710
_cell_angle_alpha   90.00501361
_cell_angle_beta   89.98780288
_cell_angle_gamma   90.02554870
_symmetry_Int_Tables_number   1
_chemical_formula_structural   Er5Tm15Sn7Pb9
_chemical_formula_sum   'Er5 Tm15 Sn7 Pb9'
_cell_volume   1007.95950735
_cell_formula_units_Z   1
loop_
 _symmetry_equiv_pos_site_id
 _symmetry_equiv_pos_as_xyz
  1  'x, y, z'
loop_
 _atom_site_type_symbol
 _atom_site_label
 _atom_site_symmetry_multiplicity
 _atom_site_fract_x
 _atom_site_fract_y
 _atom_site_fract_z
 _atom_site_occupancy
  Er  Er0  1  0.959735  0.827127  0.101534  1
  Er  Er1  1  0.464542  0.675170  0.102765  1
  Er  Er2  1  0.959729  0.827108  0.398498  1
  Er  Er3  1  0.537971  0.324909  0.604178  1
  Er  Er4  1  0.038453  0.174594  0.895607  1
  Tm  Tm5  1  0.380113  0.838539  0.876550  1
  Tm  Tm6  1  0.880427  0.661062  0.623576  1
  Tm  Tm7  1  0.619735  0.161152  0.377093  1
  Tm  Tm8  1  0.119592  0.337366  0.123080  1
  Tm  Tm9  1  0.619743  0.161173  0.122888  1
  Tm  Tm10  1  0.119608  0.337393  0.376956  1
  Tm  Tm11  1  0.380117  0.838521  0.623435  1
  Tm  Tm12  1  0.880392  0.661035  0.876419  1
  Tm  Tm13  1  0.538027  0.324917  0.895791  1
  Tm  Tm14  1  0.038514  0.174544  0.604438  1
  Tm  Tm15  1  0.464535  0.675122  0.397117  1
  Tm  Tm16  1  0.210863  0.503649  0.750009  1
  Tm  Tm17  1  0.710804  0.996266  0.749985  1
  Tm  Tm18  1  0.787255  0.494651  0.250044  1
  Tm  Tm19  1  0.291236  0.006774  0.250015  1
  Sn  Sn20  1  0.575631  0.623574  0.750019  1
  Sn  Sn21  1  0.075676  0.876032  0.749990  1
  Sn  Sn22  1  0.424883  0.375568  0.250010  1
  Sn  Sn23  1  0.924218  0.122764  0.250019  1
  Sn  Sn24  1  0.346604  0.149260  0.750120  1
  Sn  Sn25  1  0.846528  0.350566  0.749880  1
  Sn  Sn26  1  0.654364  0.850224  0.250153  1
  Pb  Pb27  1  0.280951  0.031834  0.041039  1
  Pb  Pb28  1  0.781147  0.467279  0.458919  1
  Pb  Pb29  1  0.718795  0.968299  0.542068  1
  Pb  Pb30  1  0.219647  0.531903  0.958859  1
  Pb  Pb31  1  0.718062  0.968261  0.958023  1
  Pb  Pb32  1  0.219254  0.532136  0.540902  1
  Pb  Pb33  1  0.280940  0.031850  0.459165  1
  Pb  Pb34  1  0.781300  0.466668  0.040773  1
  Pb  Pb35  1  0.150604  0.652709  0.250082  1
