# generated using pymatgen
data_Hf6Be14AlPd8
_symmetry_space_group_name_H-M   'P 1'
_cell_length_a   8.11193047
_cell_length_b   8.11193088
_cell_length_c   8.11193100
_cell_angle_alpha   60.00000357
_cell_angle_beta   60.00000193
_cell_angle_gamma   60.00000057
_symmetry_Int_Tables_number   1
_chemical_formula_structural   Hf6Be14AlPd8
_chemical_formula_sum   'Hf6 Be14 Al1 Pd8'
_cell_volume   377.44852359
_cell_formula_units_Z   1
loop_
 _symmetry_equiv_pos_site_id
 _symmetry_equiv_pos_as_xyz
  1  'x, y, z'
loop_
 _atom_site_type_symbol
 _atom_site_label
 _atom_site_symmetry_multiplicity
 _atom_site_fract_x
 _atom_site_fract_y
 _atom_site_fract_z
 _atom_site_occupancy
  Hf  Hf0  1  0.699160  0.300840  0.300840  1
  Hf  Hf1  1  0.300840  0.699160  0.699160  1
  Hf  Hf2  1  0.300840  0.699160  0.300840  1
  Hf  Hf3  1  0.699160  0.300840  0.699160  1
  Hf  Hf4  1  0.300840  0.300840  0.699160  1
  Hf  Hf5  1  0.699160  0.699160  0.300840  1
  Be  Be6  1  0.327572  0.327572  0.327572  1
  Be  Be7  1  0.672428  0.672428  0.672428  1
  Be  Be8  1  0.327572  0.327572  0.017285  1
  Be  Be9  1  0.327572  0.017285  0.327572  1
  Be  Be10  1  0.672428  0.672428  0.982715  1
  Be  Be11  1  0.672428  0.982715  0.672428  1
  Be  Be12  1  0.017285  0.327572  0.327572  1
  Be  Be13  1  0.982715  0.672428  0.672428  1
  Be  Be14  1  0.500000  0.000000  0.000000  1
  Be  Be15  1  0.000000  0.500000  0.500000  1
  Be  Be16  1  0.000000  0.500000  0.000000  1
  Be  Be17  1  0.500000  0.000000  0.500000  1
  Be  Be18  1  0.000000  0.000000  0.500000  1
  Be  Be19  1  0.500000  0.500000  0.000000  1
  Al  Al20  1  0.000000  0.000000  0.000000  1
  Pd  Pd21  1  0.128147  0.128147  0.128147  1
  Pd  Pd22  1  0.871853  0.871853  0.871853  1
  Pd  Pd23  1  0.128147  0.128147  0.615560  1
  Pd  Pd24  1  0.128147  0.615560  0.128147  1
  Pd  Pd25  1  0.871853  0.871853  0.384440  1
  Pd  Pd26  1  0.871853  0.384440  0.871853  1
  Pd  Pd27  1  0.615560  0.128147  0.128147  1
  Pd  Pd28  1  0.384440  0.871853  0.871853  1
