# generated using pymatgen
data_Pr4Zn(Sb4Pd)2
_symmetry_space_group_name_H-M   'P 1'
_cell_length_a   11.04237518
_cell_length_b   11.04237534
_cell_length_c   11.04237500
_cell_angle_alpha   147.15162289
_cell_angle_beta   147.15162414
_cell_angle_gamma   47.13933239
_symmetry_Int_Tables_number   1
_chemical_formula_structural   Pr4Zn(Sb4Pd)2
_chemical_formula_sum   'Pr4 Zn1 Sb8 Pd2'
_cell_volume   394.64764320
_cell_formula_units_Z   1
loop_
 _symmetry_equiv_pos_site_id
 _symmetry_equiv_pos_as_xyz
  1  'x, y, z'
loop_
 _atom_site_type_symbol
 _atom_site_label
 _atom_site_symmetry_multiplicity
 _atom_site_fract_x
 _atom_site_fract_y
 _atom_site_fract_z
 _atom_site_occupancy
  Pr  Pr0  1  0.630322  0.124644  0.000000  1
  Pr  Pr1  1  0.124644  0.630322  0.000000  1
  Pr  Pr2  1  0.875356  0.875356  0.505679  1
  Pr  Pr3  1  0.369678  0.369678  0.494321  1
  Zn  Zn4  1  0.000000  0.000000  0.000000  1
  Sb  Sb5  1  0.250252  0.250252  0.000000  1
  Sb  Sb6  1  0.749748  0.749748  0.000000  1
  Sb  Sb7  1  0.250000  0.750000  0.500000  1
  Sb  Sb8  1  0.750000  0.250000  0.500000  1
  Sb  Sb9  1  0.333524  0.818679  0.000000  1
  Sb  Sb10  1  0.818679  0.333524  0.000000  1
  Sb  Sb11  1  0.181321  0.181321  0.514843  1
  Sb  Sb12  1  0.666476  0.666476  0.485157  1
  Pd  Pd13  1  0.500000  0.000000  0.500000  1
  Pd  Pd14  1  0.000000  0.500000  0.500000  1
