# generated using pymatgen
data_Dy5TmSi24Os5Ru3
_symmetry_space_group_name_H-M   'P 1'
_cell_length_a   10.11979171
_cell_length_b   10.11979097
_cell_length_c   8.15305211
_cell_angle_alpha   90.00839983
_cell_angle_beta   90.00839792
_cell_angle_gamma   132.48699135
_symmetry_Int_Tables_number   1
_chemical_formula_structural   Dy5TmSi24Os5Ru3
_chemical_formula_sum   'Dy5 Tm1 Si24 Os5 Ru3'
_cell_volume   615.72178906
_cell_formula_units_Z   1
loop_
 _symmetry_equiv_pos_site_id
 _symmetry_equiv_pos_as_xyz
  1  'x, y, z'
loop_
 _atom_site_type_symbol
 _atom_site_label
 _atom_site_symmetry_multiplicity
 _atom_site_fract_x
 _atom_site_fract_y
 _atom_site_fract_z
 _atom_site_occupancy
  Dy  Dy0  1  0.999965  0.999965  0.999429  1
  Dy  Dy1  1  0.501556  0.001499  0.749415  1
  Dy  Dy2  1  0.998340  0.498589  0.250604  1
  Dy  Dy3  1  0.498589  0.998340  0.250604  1
  Dy  Dy4  1  0.001499  0.501556  0.749415  1
  Tm  Tm5  1  0.499312  0.499312  0.500099  1
  Si  Si6  1  0.795591  0.204621  0.500163  1
  Si  Si7  1  0.296146  0.703844  0.000199  1
  Si  Si8  1  0.204621  0.795591  0.500163  1
  Si  Si9  1  0.703844  0.296146  0.000199  1
  Si  Si10  1  0.333085  0.333085  0.833191  1
  Si  Si11  1  0.667447  0.667447  0.167299  1
  Si  Si12  1  0.166530  0.166530  0.331259  1
  Si  Si13  1  0.830922  0.830922  0.665972  1
  Si  Si14  1  0.120302  0.885948  0.727847  1
  Si  Si15  1  0.114441  0.880771  0.272279  1
  Si  Si16  1  0.610970  0.378346  0.228650  1
  Si  Si17  1  0.622349  0.389157  0.771597  1
  Si  Si18  1  0.880771  0.114441  0.272279  1
  Si  Si19  1  0.885948  0.120302  0.727847  1
  Si  Si20  1  0.389157  0.622349  0.771597  1
  Si  Si21  1  0.378346  0.610970  0.228650  1
  Si  Si22  1  0.345178  0.111740  0.503727  1
  Si  Si23  1  0.888039  0.655313  0.496804  1
  Si  Si24  1  0.388111  0.154955  0.005676  1
  Si  Si25  1  0.844974  0.612406  0.994845  1
  Si  Si26  1  0.655313  0.888039  0.496804  1
  Si  Si27  1  0.111740  0.345178  0.503727  1
  Si  Si28  1  0.612406  0.844974  0.994845  1
  Si  Si29  1  0.154955  0.388111  0.005676  1
  Os  Os30  1  0.668959  0.331100  0.499919  1
  Os  Os31  1  0.170086  0.829750  0.000026  1
  Os  Os32  1  0.331100  0.668959  0.499919  1
  Os  Os33  1  0.829750  0.170086  0.000026  1
  Os  Os34  1  0.127287  0.127287  0.625740  1
  Ru  Ru35  1  0.872567  0.872567  0.373802  1
  Ru  Ru36  1  0.373288  0.373288  0.128949  1
  Ru  Ru37  1  0.626512  0.626512  0.870757  1
