# generated using pymatgen
data_Pr4SmHo3(Si3Rh)4
_symmetry_space_group_name_H-M   'P 1'
_cell_length_a   8.25068300
_cell_length_b   8.25068318
_cell_length_c   8.19258400
_cell_angle_alpha   90.00000000
_cell_angle_beta   90.00000000
_cell_angle_gamma   120.00000327
_symmetry_Int_Tables_number   1
_chemical_formula_structural   Pr4SmHo3(Si3Rh)4
_chemical_formula_sum   'Pr4 Sm1 Ho3 Si12 Rh4'
_cell_volume   482.98243063
_cell_formula_units_Z   1
loop_
 _symmetry_equiv_pos_site_id
 _symmetry_equiv_pos_as_xyz
  1  'x, y, z'
loop_
 _atom_site_type_symbol
 _atom_site_label
 _atom_site_symmetry_multiplicity
 _atom_site_fract_x
 _atom_site_fract_y
 _atom_site_fract_z
 _atom_site_occupancy
  Pr  Pr0  1  0.000000  0.000000  0.250000  1
  Pr  Pr1  1  0.504233  0.495767  0.250000  1
  Pr  Pr2  1  0.504233  0.008468  0.250000  1
  Pr  Pr3  1  0.991532  0.495767  0.250000  1
  Sm  Sm4  1  0.000000  0.000000  0.750000  1
  Ho  Ho5  1  0.492663  0.507337  0.750000  1
  Ho  Ho6  1  0.492663  0.985328  0.750000  1
  Ho  Ho7  1  0.014672  0.507337  0.750000  1
  Si  Si8  1  0.166286  0.833714  0.508910  1
  Si  Si9  1  0.166286  0.332571  0.508910  1
  Si  Si10  1  0.667429  0.833714  0.508910  1
  Si  Si11  1  0.831890  0.168110  0.507960  1
  Si  Si12  1  0.831890  0.663782  0.507960  1
  Si  Si13  1  0.336218  0.168110  0.507960  1
  Si  Si14  1  0.831890  0.168110  0.992040  1
  Si  Si15  1  0.831890  0.663782  0.992040  1
  Si  Si16  1  0.336218  0.168110  0.992040  1
  Si  Si17  1  0.166286  0.833714  0.991090  1
  Si  Si18  1  0.166286  0.332571  0.991090  1
  Si  Si19  1  0.667429  0.833714  0.991090  1
  Rh  Rh20  1  0.333333  0.666667  0.498036  1
  Rh  Rh21  1  0.666667  0.333333  0.546683  1
  Rh  Rh22  1  0.666667  0.333333  0.953317  1
  Rh  Rh23  1  0.333333  0.666667  0.001964  1
