# generated using pymatgen
data_Hf6Nb3Al13FeCo6
_symmetry_space_group_name_H-M   'P 1'
_cell_length_a   8.58312964
_cell_length_b   8.58312879
_cell_length_c   8.58313046
_cell_angle_alpha   59.68548176
_cell_angle_beta   59.68548972
_cell_angle_gamma   59.68548444
_symmetry_Int_Tables_number   1
_chemical_formula_structural   Hf6Nb3Al13FeCo6
_chemical_formula_sum   'Hf6 Nb3 Al13 Fe1 Co6'
_cell_volume   443.92328842
_cell_formula_units_Z   1
loop_
 _symmetry_equiv_pos_site_id
 _symmetry_equiv_pos_as_xyz
  1  'x, y, z'
loop_
 _atom_site_type_symbol
 _atom_site_label
 _atom_site_symmetry_multiplicity
 _atom_site_fract_x
 _atom_site_fract_y
 _atom_site_fract_z
 _atom_site_occupancy
  Hf  Hf0  1  0.690660  0.690660  0.307518  1
  Hf  Hf1  1  0.310317  0.689141  0.310317  1
  Hf  Hf2  1  0.689141  0.310317  0.310317  1
  Hf  Hf3  1  0.310317  0.310317  0.689141  1
  Hf  Hf4  1  0.690660  0.307518  0.690660  1
  Hf  Hf5  1  0.307518  0.690660  0.690660  1
  Nb  Nb6  1  0.880921  0.880921  0.356592  1
  Nb  Nb7  1  0.880921  0.356592  0.880921  1
  Nb  Nb8  1  0.356592  0.880921  0.880921  1
  Al  Al9  1  0.882665  0.882665  0.882665  1
  Al  Al10  1  0.117839  0.117839  0.641071  1
  Al  Al11  1  0.117839  0.641071  0.117839  1
  Al  Al12  1  0.641071  0.117839  0.117839  1
  Al  Al13  1  0.120940  0.120940  0.120940  1
  Al  Al14  1  0.667543  0.667543  0.005697  1
  Al  Al15  1  0.667543  0.005697  0.667543  1
  Al  Al16  1  0.005697  0.667543  0.667543  1
  Al  Al17  1  0.662185  0.662185  0.662185  1
  Al  Al18  1  0.335174  0.335174  0.995349  1
  Al  Al19  1  0.335174  0.995349  0.335174  1
  Al  Al20  1  0.995349  0.335174  0.335174  1
  Al  Al21  1  0.335008  0.335008  0.335008  1
  Fe  Fe22  1  0.002298  0.002298  0.002298  1
  Co  Co23  1  0.998736  0.998736  0.495770  1
  Co  Co24  1  0.503019  0.997345  0.503019  1
  Co  Co25  1  0.997345  0.503019  0.503019  1
  Co  Co26  1  0.503019  0.503019  0.997345  1
  Co  Co27  1  0.998736  0.495770  0.998736  1
  Co  Co28  1  0.495770  0.998736  0.998736  1
