# generated using pymatgen
data_TmNb8CoSe16
_symmetry_space_group_name_H-M   'P 1'
_cell_length_a   6.99761200
_cell_length_b   6.99761221
_cell_length_c   13.43992100
_cell_angle_alpha   90.00000000
_cell_angle_beta   90.00000000
_cell_angle_gamma   119.99999901
_symmetry_Int_Tables_number   1
_chemical_formula_structural   TmNb8CoSe16
_chemical_formula_sum   'Tm1 Nb8 Co1 Se16'
_cell_volume   569.93730117
_cell_formula_units_Z   1
loop_
 _symmetry_equiv_pos_site_id
 _symmetry_equiv_pos_as_xyz
  1  'x, y, z'
loop_
 _atom_site_type_symbol
 _atom_site_label
 _atom_site_symmetry_multiplicity
 _atom_site_fract_x
 _atom_site_fract_y
 _atom_site_fract_z
 _atom_site_occupancy
  Tm  Tm0  1  0.000000  0.000000  0.500000  1
  Nb  Nb1  1  0.000000  0.000000  0.235461  1
  Nb  Nb2  1  0.000000  0.000000  0.764539  1
  Nb  Nb3  1  0.507485  0.014970  0.234100  1
  Nb  Nb4  1  0.985030  0.492515  0.234100  1
  Nb  Nb5  1  0.507485  0.492515  0.234100  1
  Nb  Nb6  1  0.492515  0.985030  0.765900  1
  Nb  Nb7  1  0.014970  0.507485  0.765900  1
  Nb  Nb8  1  0.492515  0.507485  0.765900  1
  Co  Co9  1  0.000000  0.000000  0.000000  1
  Se  Se10  1  0.333333  0.666667  0.893842  1
  Se  Se11  1  0.666667  0.333333  0.106158  1
  Se  Se12  1  0.666667  0.333333  0.364301  1
  Se  Se13  1  0.333333  0.666667  0.635699  1
  Se  Se14  1  0.169861  0.830139  0.359408  1
  Se  Se15  1  0.169861  0.339723  0.359408  1
  Se  Se16  1  0.660277  0.830139  0.359408  1
  Se  Se17  1  0.830139  0.169861  0.640592  1
  Se  Se18  1  0.830139  0.660277  0.640592  1
  Se  Se19  1  0.339723  0.169861  0.640592  1
  Se  Se20  1  0.832644  0.167356  0.887832  1
  Se  Se21  1  0.832644  0.665288  0.887832  1
  Se  Se22  1  0.334712  0.167356  0.887832  1
  Se  Se23  1  0.167356  0.832644  0.112168  1
  Se  Se24  1  0.167356  0.334712  0.112168  1
  Se  Se25  1  0.665288  0.832644  0.112168  1
