# generated using pymatgen
data_GaNi2Mo6RhN2
_symmetry_space_group_name_H-M   'P 1'
_cell_length_a   6.75528500
_cell_length_b   6.74635695
_cell_length_c   6.75305885
_cell_angle_alpha   90.23825342
_cell_angle_beta   90.00000000
_cell_angle_gamma   90.00000000
_symmetry_Int_Tables_number   1
_chemical_formula_structural   GaNi2Mo6RhN2
_chemical_formula_sum   'Ga2 Ni4 Mo12 Rh2 N4'
_cell_volume   307.75829806
_cell_formula_units_Z   2
loop_
 _symmetry_equiv_pos_site_id
 _symmetry_equiv_pos_as_xyz
  1  'x, y, z'
loop_
 _atom_site_type_symbol
 _atom_site_label
 _atom_site_symmetry_multiplicity
 _atom_site_fract_x
 _atom_site_fract_y
 _atom_site_fract_z
 _atom_site_occupancy
  Ga  Ga0  1  0.319926  0.824933  0.930905  1
  Ga  Ga1  1  0.819926  0.175067  0.069095  1
  Ni  Ni2  1  0.935231  0.428355  0.303779  1
  Ni  Ni3  1  0.565951  0.935285  0.176517  1
  Ni  Ni4  1  0.435231  0.571645  0.696221  1
  Ni  Ni5  1  0.065951  0.064715  0.823483  1
  Mo  Mo6  1  0.380315  0.948115  0.539461  1
  Mo  Mo7  1  0.880315  0.051885  0.460539  1
  Mo  Mo8  1  0.128021  0.456627  0.949650  1
  Mo  Mo9  1  0.628021  0.543373  0.050350  1
  Mo  Mo10  1  0.793526  0.376736  0.695102  1
  Mo  Mo11  1  0.704408  0.876776  0.791542  1
  Mo  Mo12  1  0.204408  0.123224  0.208458  1
  Mo  Mo13  1  0.293526  0.623264  0.304898  1
  Mo  Mo14  1  0.948937  0.788822  0.130315  1
  Mo  Mo15  1  0.044567  0.702254  0.625888  1
  Mo  Mo16  1  0.448937  0.211178  0.869685  1
  Mo  Mo17  1  0.544567  0.297746  0.374112  1
  Rh  Rh18  1  0.185788  0.318489  0.567647  1
  Rh  Rh19  1  0.685788  0.681511  0.432353  1
  N  N20  1  0.623057  0.126484  0.620087  1
  N  N21  1  0.123057  0.873516  0.379913  1
  N  N22  1  0.870272  0.624799  0.874422  1
  N  N23  1  0.370272  0.375201  0.125578  1
