# generated using pymatgen
data_Tb3Mg3IrRuPt
_symmetry_space_group_name_H-M   'P 1'
_cell_length_a   7.31280700
_cell_length_b   7.31280620
_cell_length_c   4.07575900
_cell_angle_alpha   90.00000000
_cell_angle_beta   90.00000000
_cell_angle_gamma   119.99999909
_symmetry_Int_Tables_number   1
_chemical_formula_structural   Tb3Mg3IrRuPt
_chemical_formula_sum   'Tb3 Mg3 Ir1 Ru1 Pt1'
_cell_volume   188.75884344
_cell_formula_units_Z   1
loop_
 _symmetry_equiv_pos_site_id
 _symmetry_equiv_pos_as_xyz
  1  'x, y, z'
loop_
 _atom_site_type_symbol
 _atom_site_label
 _atom_site_symmetry_multiplicity
 _atom_site_fract_x
 _atom_site_fract_y
 _atom_site_fract_z
 _atom_site_occupancy
  Tb  Tb0  1  0.584214  0.002501  0.000000  1
  Tb  Tb1  1  0.997499  0.581712  0.000000  1
  Tb  Tb2  1  0.418288  0.415786  0.000000  1
  Mg  Mg3  1  0.245527  0.999401  0.500000  1
  Mg  Mg4  1  0.000599  0.246127  0.500000  1
  Mg  Mg5  1  0.753873  0.754473  0.500000  1
  Ir  Ir6  1  0.333333  0.666667  0.500000  1
  Ru  Ru7  1  0.666667  0.333333  0.500000  1
  Pt  Pt8  1  0.000000  0.000000  0.000000  1
