# generated using pymatgen
data_TbPrDyIrO7
_symmetry_space_group_name_H-M   'P 1'
_cell_length_a   6.49715397
_cell_length_b   6.48819710
_cell_length_c   7.52600500
_cell_angle_alpha   90.00000000
_cell_angle_beta   90.00000000
_cell_angle_gamma   109.77331058
_symmetry_Int_Tables_number   1
_chemical_formula_structural   TbPrDyIrO7
_chemical_formula_sum   'Tb2 Pr2 Dy2 Ir2 O14'
_cell_volume   298.55136986
_cell_formula_units_Z   2
loop_
 _symmetry_equiv_pos_site_id
 _symmetry_equiv_pos_as_xyz
  1  'x, y, z'
loop_
 _atom_site_type_symbol
 _atom_site_label
 _atom_site_symmetry_multiplicity
 _atom_site_fract_x
 _atom_site_fract_y
 _atom_site_fract_z
 _atom_site_occupancy
  Tb  Tb0  1  0.937259  0.484757  0.750000  1
  Tb  Tb1  1  0.062741  0.515243  0.250000  1
  Pr  Pr2  1  0.000000  0.000000  0.000000  1
  Pr  Pr3  1  0.000000  0.000000  0.500000  1
  Dy  Dy4  1  0.485789  0.937137  0.750000  1
  Dy  Dy5  1  0.514211  0.062863  0.250000  1
  Ir  Ir6  1  0.500000  0.500000  0.000000  1
  Ir  Ir7  1  0.500000  0.500000  0.500000  1
  O  O8  1  0.588669  0.591891  0.750000  1
  O  O9  1  0.411331  0.408109  0.250000  1
  O  O10  1  0.840045  0.119510  0.750000  1
  O  O11  1  0.159955  0.880490  0.250000  1
  O  O12  1  0.124151  0.841367  0.750000  1
  O  O13  1  0.875849  0.158633  0.250000  1
  O  O14  1  0.442659  0.181961  0.965284  1
  O  O15  1  0.557341  0.818039  0.465284  1
  O  O16  1  0.180104  0.436709  0.966700  1
  O  O17  1  0.819896  0.563291  0.466700  1
  O  O18  1  0.442659  0.181961  0.534716  1
  O  O19  1  0.557341  0.818039  0.034716  1
  O  O20  1  0.819896  0.563291  0.033300  1
  O  O21  1  0.180104  0.436709  0.533300  1
