# generated using pymatgen
data_Ho5In4AgPt
_symmetry_space_group_name_H-M   'P 1'
_cell_length_a   3.67194700
_cell_length_b   8.14436715
_cell_length_c   18.28439234
_cell_angle_alpha   89.97773542
_cell_angle_beta   90.00000000
_cell_angle_gamma   90.00000000
_symmetry_Int_Tables_number   1
_chemical_formula_structural   Ho5In4AgPt
_chemical_formula_sum   'Ho10 In8 Ag2 Pt2'
_cell_volume   546.80722814
_cell_formula_units_Z   2
loop_
 _symmetry_equiv_pos_site_id
 _symmetry_equiv_pos_as_xyz
  1  'x, y, z'
loop_
 _atom_site_type_symbol
 _atom_site_label
 _atom_site_symmetry_multiplicity
 _atom_site_fract_x
 _atom_site_fract_y
 _atom_site_fract_z
 _atom_site_occupancy
  Ho  Ho0  1  0.000000  0.121579  0.420723  1
  Ho  Ho1  1  0.000000  0.878421  0.579277  1
  Ho  Ho2  1  0.000000  0.383393  0.915726  1
  Ho  Ho3  1  0.000000  0.616607  0.084274  1
  Ho  Ho4  1  0.000000  0.257408  0.215657  1
  Ho  Ho5  1  0.000000  0.742592  0.784343  1
  Ho  Ho6  1  0.000000  0.274707  0.720999  1
  Ho  Ho7  1  0.000000  0.725293  0.279001  1
  Ho  Ho8  1  0.000000  0.000000  0.000000  1
  Ho  Ho9  1  0.000000  0.500000  0.500000  1
  In  In10  1  0.500000  0.420533  0.352612  1
  In  In11  1  0.500000  0.579467  0.647388  1
  In  In12  1  0.500000  0.076259  0.852092  1
  In  In13  1  0.500000  0.923741  0.147908  1
  In  In14  1  0.500000  0.292419  0.065494  1
  In  In15  1  0.500000  0.707581  0.934506  1
  In  In16  1  0.500000  0.208334  0.567734  1
  In  In17  1  0.500000  0.791666  0.432266  1
  Ag  Ag18  1  0.500000  0.025974  0.301628  1
  Ag  Ag19  1  0.500000  0.974026  0.698372  1
  Pt  Pt20  1  0.500000  0.473530  0.804039  1
  Pt  Pt21  1  0.500000  0.526470  0.195961  1
