# generated using pymatgen
data_Cs4Al3In(GeSe4)4
_symmetry_space_group_name_H-M   'P 1'
_cell_length_a   17.61701840
_cell_length_b   7.37931135
_cell_length_c   8.22599072
_cell_angle_alpha   69.98111501
_cell_angle_beta   90.70732449
_cell_angle_gamma   90.38422584
_symmetry_Int_Tables_number   1
_chemical_formula_structural   Cs4Al3In(GeSe4)4
_chemical_formula_sum   'Cs4 Al3 In1 Ge4 Se16'
_cell_volume   1004.69800267
_cell_formula_units_Z   1
loop_
 _symmetry_equiv_pos_site_id
 _symmetry_equiv_pos_as_xyz
  1  'x, y, z'
loop_
 _atom_site_type_symbol
 _atom_site_label
 _atom_site_symmetry_multiplicity
 _atom_site_fract_x
 _atom_site_fract_y
 _atom_site_fract_z
 _atom_site_occupancy
  Cs  Cs0  1  0.394577  0.959470  0.177679  1
  Cs  Cs1  1  0.898607  0.042537  0.823620  1
  Cs  Cs2  1  0.601280  0.519293  0.827272  1
  Cs  Cs3  1  0.103849  0.477950  0.174550  1
  Al  Al4  1  0.082896  0.825959  0.528099  1
  Al  Al5  1  0.271115  0.593041  0.702686  1
  Al  Al6  1  0.775778  0.407903  0.298291  1
  In  In7  1  0.585947  0.171143  0.470536  1
  Ge  Ge8  1  0.415838  0.329137  0.538188  1
  Ge  Ge9  1  0.920972  0.675870  0.462005  1
  Ge  Ge10  1  0.727360  0.906862  0.278431  1
  Ge  Ge11  1  0.224966  0.086205  0.719020  1
  Se  Se12  1  0.598468  0.872933  0.369578  1
  Se  Se13  1  0.096294  0.102274  0.621285  1
  Se  Se14  1  0.404580  0.601958  0.629137  1
  Se  Se15  1  0.909744  0.404612  0.368349  1
  Se  Se16  1  0.803187  0.786984  0.540376  1
  Se  Se17  1  0.298238  0.213087  0.457620  1
  Se  Se18  1  0.198540  0.722609  0.444555  1
  Se  Se19  1  0.710780  0.286502  0.564757  1
  Se  Se20  1  0.763637  0.226174  0.101386  1
  Se  Se21  1  0.265234  0.772388  0.901169  1
  Se  Se22  1  0.236543  0.275837  0.902008  1
  Se  Se23  1  0.739287  0.721187  0.093325  1
  Se  Se24  1  0.000382  0.917138  0.270352  1
  Se  Se25  1  0.493060  0.088640  0.740694  1
  Se  Se26  1  0.994549  0.597445  0.723927  1
  Se  Se27  1  0.484289  0.414864  0.271107  1
