# generated using pymatgen
data_Tb5Dy11(In3Ru)2
_symmetry_space_group_name_H-M   'P 1'
_cell_length_a   10.43344747
_cell_length_b   10.43344639
_cell_length_c   7.07952700
_cell_angle_alpha   89.98014193
_cell_angle_beta   90.01985501
_cell_angle_gamma   119.99542956
_symmetry_Int_Tables_number   1
_chemical_formula_structural   Tb5Dy11(In3Ru)2
_chemical_formula_sum   'Tb5 Dy11 In6 Ru2'
_cell_volume   667.43728125
_cell_formula_units_Z   1
loop_
 _symmetry_equiv_pos_site_id
 _symmetry_equiv_pos_as_xyz
  1  'x, y, z'
loop_
 _atom_site_type_symbol
 _atom_site_label
 _atom_site_symmetry_multiplicity
 _atom_site_fract_x
 _atom_site_fract_y
 _atom_site_fract_z
 _atom_site_occupancy
  Tb  Tb0  1  0.533587  0.067377  0.515292  1
  Tb  Tb1  1  0.932623  0.466413  0.515292  1
  Tb  Tb2  1  0.533655  0.466345  0.515650  1
  Tb  Tb3  1  0.466344  0.932436  0.015395  1
  Tb  Tb4  1  0.067564  0.533656  0.015395  1
  Dy  Dy5  1  0.466125  0.533875  0.015710  1
  Dy  Dy6  1  0.177133  0.353881  0.719700  1
  Dy  Dy7  1  0.646119  0.822867  0.719700  1
  Dy  Dy8  1  0.176868  0.823132  0.719903  1
  Dy  Dy9  1  0.822944  0.646234  0.219324  1
  Dy  Dy10  1  0.353766  0.177056  0.219324  1
  Dy  Dy11  1  0.823154  0.176846  0.219625  1
  Dy  Dy12  1  0.666574  0.333426  0.893247  1
  Dy  Dy13  1  0.333483  0.666517  0.393216  1
  Dy  Dy14  1  0.000007  0.999993  0.500348  1
  Dy  Dy15  1  0.999887  0.000113  0.000406  1
  In  In16  1  0.837277  0.674702  0.761986  1
  In  In17  1  0.325298  0.162723  0.761986  1
  In  In18  1  0.837259  0.162741  0.762140  1
  In  In19  1  0.162909  0.325587  0.261775  1
  In  In20  1  0.674413  0.837091  0.261775  1
  In  In21  1  0.162740  0.837260  0.262100  1
  Ru  Ru22  1  0.666684  0.333316  0.287360  1
  Ru  Ru23  1  0.333590  0.666410  0.787554  1
