# generated using pymatgen
data_Pa6NiSb8Os5
_symmetry_space_group_name_H-M   'P 1'
_cell_length_a   8.34091479
_cell_length_b   8.34091484
_cell_length_c   8.34091404
_cell_angle_alpha   109.18038401
_cell_angle_beta   109.18037541
_cell_angle_gamma   110.05447610
_symmetry_Int_Tables_number   1
_chemical_formula_structural   Pa6NiSb8Os5
_chemical_formula_sum   'Pa6 Ni1 Sb8 Os5'
_cell_volume   446.66853583
_cell_formula_units_Z   1
loop_
 _symmetry_equiv_pos_site_id
 _symmetry_equiv_pos_as_xyz
  1  'x, y, z'
loop_
 _atom_site_type_symbol
 _atom_site_label
 _atom_site_symmetry_multiplicity
 _atom_site_fract_x
 _atom_site_fract_y
 _atom_site_fract_z
 _atom_site_occupancy
  Pa  Pa0  1  0.625000  0.375000  0.250000  1
  Pa  Pa1  1  0.378406  0.253369  0.628175  1
  Pa  Pa2  1  0.125194  0.750231  0.871825  1
  Pa  Pa3  1  0.746631  0.874806  0.125037  1
  Pa  Pa4  1  0.249769  0.621594  0.374963  1
  Pa  Pa5  1  0.875000  0.125000  0.750000  1
  Ni  Ni6  1  0.125000  0.875000  0.250000  1
  Sb  Sb7  1  0.500249  0.000229  0.824130  1
  Sb  Sb8  1  0.169787  0.165303  0.174726  1
  Sb  Sb9  1  0.834697  0.509424  0.004485  1
  Sb  Sb10  1  0.004939  0.830213  0.495515  1
  Sb  Sb11  1  0.323880  0.499751  0.999980  1
  Sb  Sb12  1  0.999771  0.323900  0.500020  1
  Sb  Sb13  1  0.490576  0.995061  0.325274  1
  Sb  Sb14  1  0.676100  0.676120  0.675870  1
  Os  Os15  1  0.876443  0.251609  0.126294  1
  Os  Os16  1  0.375000  0.625000  0.750000  1
  Os  Os17  1  0.625314  0.750148  0.373706  1
  Os  Os18  1  0.748391  0.374686  0.624834  1
  Os  Os19  1  0.249852  0.123557  0.875166  1
