# generated using pymatgen
data_Yb6Ni12B4PdPt
_symmetry_space_group_name_H-M   'P 1'
_cell_length_a   5.07082024
_cell_length_b   5.07236903
_cell_length_c   14.43696919
_cell_angle_alpha   90.00093340
_cell_angle_beta   89.98353639
_cell_angle_gamma   120.02078670
_symmetry_Int_Tables_number   1
_chemical_formula_structural   Yb6Ni12B4PdPt
_chemical_formula_sum   'Yb6 Ni12 B4 Pd1 Pt1'
_cell_volume   321.51755485
_cell_formula_units_Z   1
loop_
 _symmetry_equiv_pos_site_id
 _symmetry_equiv_pos_as_xyz
  1  'x, y, z'
loop_
 _atom_site_type_symbol
 _atom_site_label
 _atom_site_symmetry_multiplicity
 _atom_site_fract_x
 _atom_site_fract_y
 _atom_site_fract_z
 _atom_site_occupancy
  Yb  Yb0  1  0.666638  0.333327  0.537769  1
  Yb  Yb1  1  0.333362  0.666673  0.462231  1
  Yb  Yb2  1  0.333315  0.666659  0.036787  1
  Yb  Yb3  1  0.666662  0.333331  0.750077  1
  Yb  Yb4  1  0.666685  0.333341  0.963213  1
  Yb  Yb5  1  0.333338  0.666669  0.249923  1
  Ni  Ni6  1  0.167338  0.334673  0.654329  1
  Ni  Ni7  1  0.334678  0.167338  0.345760  1
  Ni  Ni8  1  0.333053  0.166528  0.154132  1
  Ni  Ni9  1  0.166514  0.833492  0.845897  1
  Ni  Ni10  1  0.832662  0.665327  0.345671  1
  Ni  Ni11  1  0.833486  0.166508  0.154103  1
  Ni  Ni12  1  0.665322  0.832662  0.654240  1
  Ni  Ni13  1  0.666947  0.833472  0.845868  1
  Ni  Ni14  1  0.167336  0.832668  0.654344  1
  Ni  Ni15  1  0.833475  0.666958  0.154102  1
  Ni  Ni16  1  0.166525  0.333042  0.845898  1
  Ni  Ni17  1  0.832664  0.167332  0.345656  1
  B  B18  1  0.666661  0.333324  0.249671  1
  B  B19  1  0.000018  0.999999  0.749398  1
  B  B20  1  0.333339  0.666676  0.750329  1
  B  B21  1  0.999982  0.000001  0.250602  1
  Pd  Pd22  1  0.000000  0.000000  0.500000  1
  Pt  Pt23  1  0.000000  0.000000  0.000000  1
