# generated using pymatgen
data_Pa2AlCuTc2
_symmetry_space_group_name_H-M   'P 1'
_cell_length_a   5.48075219
_cell_length_b   5.48075301
_cell_length_c   4.64052209
_cell_angle_alpha   63.53989446
_cell_angle_beta   63.53988934
_cell_angle_gamma   63.46600556
_symmetry_Int_Tables_number   1
_chemical_formula_structural   Pa2AlCuTc2
_chemical_formula_sum   'Pa2 Al1 Cu1 Tc2'
_cell_volume   106.22815732
_cell_formula_units_Z   1
loop_
 _symmetry_equiv_pos_site_id
 _symmetry_equiv_pos_as_xyz
  1  'x, y, z'
loop_
 _atom_site_type_symbol
 _atom_site_label
 _atom_site_symmetry_multiplicity
 _atom_site_fract_x
 _atom_site_fract_y
 _atom_site_fract_z
 _atom_site_occupancy
  Pa  Pa0  1  0.623885  0.623885  0.624137  1
  Pa  Pa1  1  0.376115  0.376115  0.375863  1
  Al  Al2  1  0.000000  0.000000  0.500000  1
  Cu  Cu3  1  0.000000  0.000000  0.000000  1
  Tc  Tc4  1  0.000000  0.500000  0.000000  1
  Tc  Tc5  1  0.500000  0.000000  0.000000  1
