# generated using pymatgen
data_Y2GaCoIr
_symmetry_space_group_name_H-M   'P 1'
_cell_length_a   4.15611947
_cell_length_b   5.58353629
_cell_length_c   5.45954795
_cell_angle_alpha   120.75412691
_cell_angle_beta   112.37262406
_cell_angle_gamma   90.00000281
_symmetry_Int_Tables_number   1
_chemical_formula_structural   Y2GaCoIr
_chemical_formula_sum   'Y2 Ga1 Co1 Ir1'
_cell_volume   97.61462174
_cell_formula_units_Z   1
loop_
 _symmetry_equiv_pos_site_id
 _symmetry_equiv_pos_as_xyz
  1  'x, y, z'
loop_
 _atom_site_type_symbol
 _atom_site_label
 _atom_site_symmetry_multiplicity
 _atom_site_fract_x
 _atom_site_fract_y
 _atom_site_fract_z
 _atom_site_occupancy
  Y  Y0  1  0.794855  0.292370  0.589710  1
  Y  Y1  1  0.205145  0.702661  0.410290  1
  Ga  Ga2  1  0.000000  0.985258  0.000000  1
  Co  Co3  1  0.500000  0.734386  0.000000  1
  Ir  Ir4  1  0.500000  0.285325  0.000000  1
