# generated using pymatgen
data_Sr6Zr(CoO4)3
_symmetry_space_group_name_H-M   'P 1'
_cell_length_a   6.68781946
_cell_length_b   6.67775198
_cell_length_c   6.68272168
_cell_angle_alpha   93.01169585
_cell_angle_beta   93.02195345
_cell_angle_gamma   93.00937487
_symmetry_Int_Tables_number   1
_chemical_formula_structural   Sr6Zr(CoO4)3
_chemical_formula_sum   'Sr6 Zr1 Co3 O12'
_cell_volume   297.16357330
_cell_formula_units_Z   1
loop_
 _symmetry_equiv_pos_site_id
 _symmetry_equiv_pos_as_xyz
  1  'x, y, z'
loop_
 _atom_site_type_symbol
 _atom_site_label
 _atom_site_symmetry_multiplicity
 _atom_site_fract_x
 _atom_site_fract_y
 _atom_site_fract_z
 _atom_site_occupancy
  Sr  Sr0  1  0.623942  0.875915  0.252347  1
  Sr  Sr1  1  0.876409  0.248952  0.623669  1
  Sr  Sr2  1  0.248704  0.624413  0.875661  1
  Sr  Sr3  1  0.108873  0.750126  0.391139  1
  Sr  Sr4  1  0.750148  0.390033  0.110063  1
  Sr  Sr5  1  0.390475  0.109427  0.749728  1
  Zr  Zr6  1  0.250034  0.250031  0.249935  1
  Co  Co7  1  0.500807  0.501189  0.500173  1
  Co  Co8  1  0.999760  0.999313  0.998712  1
  Co  Co9  1  0.747753  0.748032  0.754126  1
  O  O10  1  0.533831  0.212873  0.401562  1
  O  O11  1  0.212826  0.401311  0.533693  1
  O  O12  1  0.401567  0.533313  0.212147  1
  O  O13  1  0.042914  0.915114  0.723957  1
  O  O14  1  0.914725  0.723577  0.040356  1
  O  O15  1  0.724346  0.039893  0.912298  1
  O  O16  1  0.457915  0.776480  0.584331  1
  O  O17  1  0.775639  0.586358  0.458137  1
  O  O18  1  0.587218  0.460817  0.776000  1
  O  O19  1  0.966100  0.098623  0.286933  1
  O  O20  1  0.098342  0.287569  0.966429  1
  O  O21  1  0.287670  0.966641  0.098604  1
