# generated using pymatgen
data_TlCl13
_symmetry_space_group_name_H-M   'P 1'
_cell_length_a   12.11266577
_cell_length_b   16.81452479
_cell_length_c   9.75013000
_cell_angle_alpha   96.67910940
_cell_angle_beta   109.29021521
_cell_angle_gamma   132.70658093
_symmetry_Int_Tables_number   1
_chemical_formula_structural   TlCl13
_chemical_formula_sum   'Tl2 Cl26'
_cell_volume   1200.05839798
_cell_formula_units_Z   2
loop_
 _symmetry_equiv_pos_site_id
 _symmetry_equiv_pos_as_xyz
  1  'x, y, z'
loop_
 _atom_site_type_symbol
 _atom_site_label
 _atom_site_symmetry_multiplicity
 _atom_site_fract_x
 _atom_site_fract_y
 _atom_site_fract_z
 _atom_site_occupancy
  Tl  Tl0  1  0.829472  0.010915  0.973245  1
  Tl  Tl1  1  0.420528  0.739085  0.526755  1
  Cl  Cl2  1  0.246481  0.410529  0.639703  1
  Cl  Cl3  1  0.744722  0.375464  0.026606  1
  Cl  Cl4  1  0.936091  0.070403  0.483722  1
  Cl  Cl5  1  0.003519  0.339471  0.860297  1
  Cl  Cl6  1  0.558613  0.143392  0.229901  1
  Cl  Cl7  1  0.691387  0.606608  0.270099  1
  Cl  Cl8  1  0.313909  0.679597  0.016278  1
  Cl  Cl9  1  0.505278  0.374536  0.473394  1
  Cl  Cl10  1  0.019658  0.786214  0.721095  1
  Cl  Cl11  1  0.499561  0.706277  0.350067  1
  Cl  Cl12  1  0.045017  0.097648  0.716791  1
  Cl  Cl13  1  0.727010  0.196667  0.459406  1
  Cl  Cl14  1  0.128449  0.117455  0.069775  1
  Cl  Cl15  1  0.725830  0.523754  0.698256  1
  Cl  Cl16  1  0.225658  0.938961  0.236829  1
  Cl  Cl17  1  0.263038  0.455371  0.460523  1
  Cl  Cl18  1  0.230342  0.963786  0.778905  1
  Cl  Cl19  1  0.750439  0.043723  0.149933  1
  Cl  Cl20  1  0.614538  0.774370  0.808173  1
  Cl  Cl21  1  0.635462  0.975630  0.691827  1
  Cl  Cl22  1  0.024342  0.811039  0.263171  1
  Cl  Cl23  1  0.986962  0.294629  0.039477  1
  Cl  Cl24  1  0.204983  0.652352  0.783209  1
  Cl  Cl25  1  0.524170  0.226246  0.801744  1
  Cl  Cl26  1  0.121551  0.632545  0.430225  1
  Cl  Cl27  1  0.522990  0.553333  0.040594  1
