# generated using pymatgen
data_Er3Mg2ScIr3
_symmetry_space_group_name_H-M   'P 1'
_cell_length_a   7.27514401
_cell_length_b   7.27514366
_cell_length_c   4.08811100
_cell_angle_alpha   90.00000000
_cell_angle_beta   90.00000000
_cell_angle_gamma   120.34388743
_symmetry_Int_Tables_number   1
_chemical_formula_structural   Er3Mg2ScIr3
_chemical_formula_sum   'Er3 Mg2 Sc1 Ir3'
_cell_volume   186.73300726
_cell_formula_units_Z   1
loop_
 _symmetry_equiv_pos_site_id
 _symmetry_equiv_pos_as_xyz
  1  'x, y, z'
loop_
 _atom_site_type_symbol
 _atom_site_label
 _atom_site_symmetry_multiplicity
 _atom_site_fract_x
 _atom_site_fract_y
 _atom_site_fract_z
 _atom_site_occupancy
  Er  Er0  1  0.400494  0.400494  0.500000  1
  Er  Er1  1  0.586818  0.007735  0.500000  1
  Er  Er2  1  0.007735  0.586818  0.500000  1
  Mg  Mg3  1  0.246265  0.996125  0.000000  1
  Mg  Mg4  1  0.996125  0.246265  0.000000  1
  Sc  Sc5  1  0.755052  0.755052  0.000000  1
  Ir  Ir6  1  0.670416  0.345350  0.000000  1
  Ir  Ir7  1  0.345350  0.670416  0.000000  1
  Ir  Ir8  1  0.991748  0.991748  0.500000  1
