# generated using pymatgen
data_Tb3ZnSn3IrRh
_symmetry_space_group_name_H-M   'P 1'
_cell_length_a   7.58876000
_cell_length_b   7.58875818
_cell_length_c   3.94030800
_cell_angle_alpha   90.00000000
_cell_angle_beta   90.00000000
_cell_angle_gamma   119.99999048
_symmetry_Int_Tables_number   1
_chemical_formula_structural   Tb3ZnSn3IrRh
_chemical_formula_sum   'Tb3 Zn1 Sn3 Ir1 Rh1'
_cell_volume   196.51801834
_cell_formula_units_Z   1
loop_
 _symmetry_equiv_pos_site_id
 _symmetry_equiv_pos_as_xyz
  1  'x, y, z'
loop_
 _atom_site_type_symbol
 _atom_site_label
 _atom_site_symmetry_multiplicity
 _atom_site_fract_x
 _atom_site_fract_y
 _atom_site_fract_z
 _atom_site_occupancy
  Tb  Tb0  1  0.410049  0.015100  0.500000  1
  Tb  Tb1  1  0.984900  0.394949  0.500000  1
  Tb  Tb2  1  0.605051  0.589951  0.500000  1
  Zn  Zn3  1  0.333333  0.666667  0.000000  1
  Sn  Sn4  1  0.742128  0.999083  0.000000  1
  Sn  Sn5  1  0.000917  0.743045  0.000000  1
  Sn  Sn6  1  0.256955  0.257872  0.000000  1
  Ir  Ir7  1  0.666667  0.333333  0.000000  1
  Rh  Rh8  1  0.000000  0.000000  0.500000  1
