# generated using pymatgen
data_YbV2O4
_symmetry_space_group_name_H-M   'P 1'
_cell_length_a   3.06938700
_cell_length_b   9.21511400
_cell_length_c   10.72739100
_cell_angle_alpha   90.00000000
_cell_angle_beta   90.00000000
_cell_angle_gamma   90.00000000
_symmetry_Int_Tables_number   1
_chemical_formula_structural   YbV2O4
_chemical_formula_sum   'Yb4 V8 O16'
_cell_volume   303.42158455
_cell_formula_units_Z   4
loop_
 _symmetry_equiv_pos_site_id
 _symmetry_equiv_pos_as_xyz
  1  'x, y, z'
loop_
 _atom_site_type_symbol
 _atom_site_label
 _atom_site_symmetry_multiplicity
 _atom_site_fract_x
 _atom_site_fract_y
 _atom_site_fract_z
 _atom_site_occupancy
  Yb  Yb0  1  0.250000  0.754967  0.653137  1
  Yb  Yb1  1  0.250000  0.254967  0.846863  1
  Yb  Yb2  1  0.750000  0.745033  0.153137  1
  Yb  Yb3  1  0.750000  0.245033  0.346863  1
  V  V4  1  0.250000  0.434145  0.613466  1
  V  V5  1  0.750000  0.082621  0.604249  1
  V  V6  1  0.250000  0.934145  0.886534  1
  V  V7  1  0.750000  0.582621  0.895751  1
  V  V8  1  0.250000  0.417379  0.104249  1
  V  V9  1  0.750000  0.065855  0.113466  1
  V  V10  1  0.250000  0.917379  0.395751  1
  V  V11  1  0.750000  0.565855  0.386534  1
  O  O12  1  0.250000  0.120949  0.473464  1
  O  O13  1  0.750000  0.879051  0.526536  1
  O  O14  1  0.750000  0.581873  0.573812  1
  O  O15  1  0.750000  0.292044  0.670894  1
  O  O16  1  0.250000  0.025147  0.716900  1
  O  O17  1  0.250000  0.525147  0.783100  1
  O  O18  1  0.750000  0.792044  0.829106  1
  O  O19  1  0.750000  0.081873  0.926188  1
  O  O20  1  0.750000  0.379051  0.973464  1
  O  O21  1  0.250000  0.620949  0.026536  1
  O  O22  1  0.250000  0.918127  0.073812  1
  O  O23  1  0.250000  0.207956  0.170894  1
  O  O24  1  0.750000  0.474853  0.216900  1
  O  O25  1  0.750000  0.974853  0.283100  1
  O  O26  1  0.250000  0.707956  0.329106  1
  O  O27  1  0.250000  0.418127  0.426188  1
