# generated using pymatgen
data_Zr3UMnIn2Ir3
_symmetry_space_group_name_H-M   'P 1'
_cell_length_a   7.64749272
_cell_length_b   7.64769461
_cell_length_c   3.26479200
_cell_angle_alpha   90.00000000
_cell_angle_beta   90.00000000
_cell_angle_gamma   85.80700445
_symmetry_Int_Tables_number   1
_chemical_formula_structural   Zr3UMnIn2Ir3
_chemical_formula_sum   'Zr3 U1 Mn1 In2 Ir3'
_cell_volume   190.43253386
_cell_formula_units_Z   1
loop_
 _symmetry_equiv_pos_site_id
 _symmetry_equiv_pos_as_xyz
  1  'x, y, z'
loop_
 _atom_site_type_symbol
 _atom_site_label
 _atom_site_symmetry_multiplicity
 _atom_site_fract_x
 _atom_site_fract_y
 _atom_site_fract_z
 _atom_site_occupancy
  Zr  Zr0  1  0.669602  0.171674  0.500000  1
  Zr  Zr1  1  0.328328  0.830399  0.500000  1
  Zr  Zr2  1  0.168566  0.331430  0.500000  1
  U  U3  1  0.807610  0.692389  0.500000  1
  Mn  Mn4  1  0.661402  0.838600  0.000000  1
  In  In5  1  0.488824  0.497602  0.000000  1
  In  In6  1  0.002399  0.011173  0.000000  1
  Ir  Ir7  1  0.119686  0.635827  0.000000  1
  Ir  Ir8  1  0.864174  0.380319  0.000000  1
  Ir  Ir9  1  0.389412  0.110587  0.000000  1
