# generated using pymatgen
data_NdTm2(TaSn)18
_symmetry_space_group_name_H-M   'P 1'
_cell_length_a   5.79382235
_cell_length_b   9.62698068
_cell_length_c   16.00188948
_cell_angle_alpha   107.50325119
_cell_angle_beta   100.32290857
_cell_angle_gamma   90.05247240
_symmetry_Int_Tables_number   1
_chemical_formula_structural   NdTm2(TaSn)18
_chemical_formula_sum   'Nd1 Tm2 Ta18 Sn18'
_cell_volume   836.00473883
_cell_formula_units_Z   1
loop_
 _symmetry_equiv_pos_site_id
 _symmetry_equiv_pos_as_xyz
  1  'x, y, z'
loop_
 _atom_site_type_symbol
 _atom_site_label
 _atom_site_symmetry_multiplicity
 _atom_site_fract_x
 _atom_site_fract_y
 _atom_site_fract_z
 _atom_site_occupancy
  Nd  Nd0  1  0.667596  0.167437  0.336053  1
  Tm  Tm1  1  0.331468  0.830642  0.664281  1
  Tm  Tm2  1  0.999460  0.998932  0.000074  1
  Ta  Ta3  1  0.166005  0.415658  0.333769  1
  Ta  Ta4  1  0.332414  0.833094  0.166743  1
  Ta  Ta5  1  0.666521  0.667532  0.834236  1
  Ta  Ta6  1  0.500036  0.750742  0.000150  1
  Ta  Ta7  1  0.166391  0.165209  0.833806  1
  Ta  Ta8  1  0.833998  0.331411  0.166503  1
  Ta  Ta9  1  0.832547  0.082171  0.667130  1
  Ta  Ta10  1  0.165743  0.667104  0.833756  1
  Ta  Ta11  1  0.499167  0.998505  0.500762  1
  Ta  Ta12  1  0.499283  0.247741  0.000312  1
  Ta  Ta13  1  0.000151  0.998514  0.500787  1
  Ta  Ta14  1  0.000330  0.499873  0.500716  1
  Ta  Ta15  1  0.833072  0.832706  0.166411  1
  Ta  Ta16  1  0.833487  0.583327  0.667056  1
  Ta  Ta17  1  0.332319  0.331050  0.166039  1
  Ta  Ta18  1  0.166438  0.915119  0.333605  1
  Ta  Ta19  1  0.666103  0.164784  0.833463  1
  Ta  Ta20  1  0.499468  0.499827  0.500711  1
  Sn  Sn21  1  0.999067  0.327956  0.999799  1
  Sn  Sn22  1  0.888069  0.887554  0.776999  1
  Sn  Sn23  1  0.110751  0.110313  0.222760  1
  Sn  Sn24  1  0.222620  0.221880  0.446233  1
  Sn  Sn25  1  0.443537  0.443911  0.889501  1
  Sn  Sn26  1  0.109786  0.609127  0.220715  1
  Sn  Sn27  1  0.778792  0.278546  0.558888  1
  Sn  Sn28  1  0.889463  0.389321  0.780080  1
  Sn  Sn29  1  0.220998  0.719979  0.442795  1
  Sn  Sn30  1  0.334207  0.500042  0.667648  1
  Sn  Sn31  1  0.556223  0.054785  0.111543  1
  Sn  Sn32  1  0.665263  0.502567  0.333163  1
  Sn  Sn33  1  0.442557  0.943182  0.887979  1
  Sn  Sn34  1  0.331879  0.165656  0.667388  1
  Sn  Sn35  1  0.776931  0.776519  0.555350  1
  Sn  Sn36  1  0.666997  0.828391  0.333250  1
  Sn  Sn37  1  0.555790  0.554790  0.111427  1
  Sn  Sn38  1  0.000330  0.670150  0.000485  1
