# generated using pymatgen
data_Yb6Hf(CoO4)3
_symmetry_space_group_name_H-M   'P 1'
_cell_length_a   6.26746822
_cell_length_b   6.26746787
_cell_length_c   6.26746833
_cell_angle_alpha   91.69543648
_cell_angle_beta   91.69543259
_cell_angle_gamma   91.69545886
_symmetry_Int_Tables_number   1
_chemical_formula_structural   Yb6Hf(CoO4)3
_chemical_formula_sum   'Yb6 Hf1 Co3 O12'
_cell_volume   245.86353468
_cell_formula_units_Z   1
loop_
 _symmetry_equiv_pos_site_id
 _symmetry_equiv_pos_as_xyz
  1  'x, y, z'
loop_
 _atom_site_type_symbol
 _atom_site_label
 _atom_site_symmetry_multiplicity
 _atom_site_fract_x
 _atom_site_fract_y
 _atom_site_fract_z
 _atom_site_occupancy
  Yb  Yb0  1  0.872444  0.627556  0.250000  1
  Yb  Yb1  1  0.627556  0.250000  0.872444  1
  Yb  Yb2  1  0.250000  0.872444  0.627556  1
  Yb  Yb3  1  0.112556  0.387444  0.750000  1
  Yb  Yb4  1  0.750000  0.112556  0.387444  1
  Yb  Yb5  1  0.387444  0.750000  0.112556  1
  Hf  Hf6  1  0.250000  0.250000  0.250000  1
  Co  Co7  1  0.999103  0.999103  0.999103  1
  Co  Co8  1  0.500897  0.500897  0.500897  1
  Co  Co9  1  0.750000  0.750000  0.750000  1
  O  O10  1  0.576241  0.791821  0.451672  1
  O  O11  1  0.451672  0.576241  0.791821  1
  O  O12  1  0.791821  0.451672  0.576241  1
  O  O13  1  0.923759  0.048328  0.708179  1
  O  O14  1  0.708179  0.923759  0.048328  1
  O  O15  1  0.048328  0.708179  0.923759  1
  O  O16  1  0.408403  0.201731  0.541706  1
  O  O17  1  0.541706  0.408403  0.201731  1
  O  O18  1  0.201731  0.541706  0.408403  1
  O  O19  1  0.091597  0.958294  0.298269  1
  O  O20  1  0.958294  0.298269  0.091597  1
  O  O21  1  0.298269  0.091597  0.958294  1
