# generated using pymatgen
data_NaMnF5
_symmetry_space_group_name_H-M   'P 1'
_cell_length_a   5.57048406
_cell_length_b   5.57048441
_cell_length_c   5.57048309
_cell_angle_alpha   140.19264234
_cell_angle_beta   106.90448635
_cell_angle_gamma   86.61881944
_symmetry_Int_Tables_number   1
_chemical_formula_structural   NaMnF5
_chemical_formula_sum   'Na1 Mn1 F5'
_cell_volume   101.99624391
_cell_formula_units_Z   1
loop_
 _symmetry_equiv_pos_site_id
 _symmetry_equiv_pos_as_xyz
  1  'x, y, z'
loop_
 _atom_site_type_symbol
 _atom_site_label
 _atom_site_symmetry_multiplicity
 _atom_site_fract_x
 _atom_site_fract_y
 _atom_site_fract_z
 _atom_site_occupancy
  Na  Na0  1  0.000000  0.000000  0.000000  1
  Mn  Mn1  1  0.500000  0.500000  0.000000  1
  F  F2  1  0.775691  0.500000  0.275691  1
  F  F3  1  0.224309  0.500000  0.724309  1
  F  F4  1  0.277714  0.277714  0.000000  1
  F  F5  1  0.722286  0.722286  0.000000  1
  F  F6  1  0.500000  0.000000  0.500000  1
