# generated using pymatgen
data_Ho2Er3Cd2(InPd)2
_symmetry_space_group_name_H-M   'P 1'
_cell_length_a   3.62191800
_cell_length_b   8.00853075
_cell_length_c   18.28791471
_cell_angle_alpha   89.95042248
_cell_angle_beta   90.00000000
_cell_angle_gamma   90.00000000
_symmetry_Int_Tables_number   1
_chemical_formula_structural   Ho2Er3Cd2(InPd)2
_chemical_formula_sum   'Ho4 Er6 Cd4 In4 Pd4'
_cell_volume   530.46347527
_cell_formula_units_Z   2
loop_
 _symmetry_equiv_pos_site_id
 _symmetry_equiv_pos_as_xyz
  1  'x, y, z'
loop_
 _atom_site_type_symbol
 _atom_site_label
 _atom_site_symmetry_multiplicity
 _atom_site_fract_x
 _atom_site_fract_y
 _atom_site_fract_z
 _atom_site_occupancy
  Ho  Ho0  1  0.000000  0.500000  0.500000  1
  Ho  Ho1  1  0.000000  0.000000  0.000000  1
  Ho  Ho2  1  0.000000  0.745096  0.279985  1
  Ho  Ho3  1  0.000000  0.254904  0.720015  1
  Er  Er4  1  0.000000  0.754784  0.779913  1
  Er  Er5  1  0.000000  0.245216  0.220087  1
  Er  Er6  1  0.000000  0.615542  0.084401  1
  Er  Er7  1  0.000000  0.384458  0.915599  1
  Er  Er8  1  0.000000  0.884303  0.584377  1
  Er  Er9  1  0.000000  0.115697  0.415623  1
  Cd  Cd10  1  0.500000  0.710624  0.931719  1
  Cd  Cd11  1  0.500000  0.289376  0.068281  1
  Cd  Cd12  1  0.500000  0.789865  0.431961  1
  Cd  Cd13  1  0.500000  0.210135  0.568039  1
  In  In14  1  0.500000  0.572581  0.647405  1
  In  In15  1  0.500000  0.427419  0.352595  1
  In  In16  1  0.500000  0.927955  0.147387  1
  In  In17  1  0.500000  0.072045  0.852613  1
  Pd  Pd18  1  0.500000  0.526778  0.196286  1
  Pd  Pd19  1  0.500000  0.473222  0.803714  1
  Pd  Pd20  1  0.500000  0.971246  0.696525  1
  Pd  Pd21  1  0.500000  0.028754  0.303475  1
