# generated using pymatgen
data_Ho4ZnSi6Rh
_symmetry_space_group_name_H-M   'P 1'
_cell_length_a   8.12580600
_cell_length_b   8.12580613
_cell_length_c   7.98392700
_cell_angle_alpha   90.00000000
_cell_angle_beta   90.00000000
_cell_angle_gamma   120.00000759
_symmetry_Int_Tables_number   1
_chemical_formula_structural   Ho4ZnSi6Rh
_chemical_formula_sum   'Ho8 Zn2 Si12 Rh2'
_cell_volume   456.54129047
_cell_formula_units_Z   2
loop_
 _symmetry_equiv_pos_site_id
 _symmetry_equiv_pos_as_xyz
  1  'x, y, z'
loop_
 _atom_site_type_symbol
 _atom_site_label
 _atom_site_symmetry_multiplicity
 _atom_site_fract_x
 _atom_site_fract_y
 _atom_site_fract_z
 _atom_site_occupancy
  Ho  Ho0  1  0.000000  0.000000  0.249345  1
  Ho  Ho1  1  0.000000  0.000000  0.750655  1
  Ho  Ho2  1  0.507107  0.492893  0.243593  1
  Ho  Ho3  1  0.507107  0.014215  0.243593  1
  Ho  Ho4  1  0.985785  0.492893  0.243593  1
  Ho  Ho5  1  0.492893  0.507107  0.756407  1
  Ho  Ho6  1  0.492893  0.985785  0.756407  1
  Ho  Ho7  1  0.014215  0.507107  0.756407  1
  Zn  Zn8  1  0.333333  0.666667  0.462931  1
  Zn  Zn9  1  0.666667  0.333333  0.537069  1
  Si  Si10  1  0.166474  0.833526  0.505716  1
  Si  Si11  1  0.166474  0.332947  0.505716  1
  Si  Si12  1  0.667053  0.833526  0.505716  1
  Si  Si13  1  0.833526  0.166474  0.494284  1
  Si  Si14  1  0.833526  0.667053  0.494284  1
  Si  Si15  1  0.332947  0.166474  0.494284  1
  Si  Si16  1  0.833215  0.166785  0.993409  1
  Si  Si17  1  0.833215  0.666430  0.993409  1
  Si  Si18  1  0.333570  0.166785  0.993409  1
  Si  Si19  1  0.166785  0.833215  0.006591  1
  Si  Si20  1  0.166785  0.333570  0.006591  1
  Si  Si21  1  0.666430  0.833215  0.006591  1
  Rh  Rh22  1  0.666667  0.333333  0.982884  1
  Rh  Rh23  1  0.333333  0.666667  0.017116  1
