# generated using pymatgen
data_Sr2Al(SiIr)4
_symmetry_space_group_name_H-M   'P 1'
_cell_length_a   6.44964379
_cell_length_b   6.44964336
_cell_length_c   11.22944700
_cell_angle_alpha   90.00000000
_cell_angle_beta   90.00000000
_cell_angle_gamma   116.39091321
_symmetry_Int_Tables_number   1
_chemical_formula_structural   Sr2Al(SiIr)4
_chemical_formula_sum   'Sr4 Al2 Si8 Ir8'
_cell_volume   418.43910073
_cell_formula_units_Z   2
loop_
 _symmetry_equiv_pos_site_id
 _symmetry_equiv_pos_as_xyz
  1  'x, y, z'
loop_
 _atom_site_type_symbol
 _atom_site_label
 _atom_site_symmetry_multiplicity
 _atom_site_fract_x
 _atom_site_fract_y
 _atom_site_fract_z
 _atom_site_occupancy
  Sr  Sr0  1  0.199659  0.800341  0.500000  1
  Sr  Sr1  1  0.199659  0.800341  0.000000  1
  Sr  Sr2  1  0.800341  0.199659  0.500000  1
  Sr  Sr3  1  0.800341  0.199659  0.000000  1
  Al  Al4  1  0.027157  0.027157  0.250000  1
  Al  Al5  1  0.972843  0.972843  0.750000  1
  Si  Si6  1  0.522511  0.893845  0.250000  1
  Si  Si7  1  0.106155  0.477489  0.750000  1
  Si  Si8  1  0.477489  0.106155  0.750000  1
  Si  Si9  1  0.893845  0.522511  0.250000  1
  Si  Si10  1  0.343902  0.343902  0.424244  1
  Si  Si11  1  0.656098  0.656098  0.575756  1
  Si  Si12  1  0.343902  0.343902  0.075756  1
  Si  Si13  1  0.656098  0.656098  0.924244  1
  Ir  Ir14  1  0.490383  0.234187  0.250000  1
  Ir  Ir15  1  0.765813  0.509617  0.750000  1
  Ir  Ir16  1  0.509617  0.765813  0.750000  1
  Ir  Ir17  1  0.234187  0.490383  0.250000  1
  Ir  Ir18  1  0.697114  0.697114  0.371869  1
  Ir  Ir19  1  0.302886  0.302886  0.628131  1
  Ir  Ir20  1  0.697114  0.697114  0.128131  1
  Ir  Ir21  1  0.302886  0.302886  0.871869  1
