# generated using pymatgen
data_NdGd3(HoB5)4
_symmetry_space_group_name_H-M   'P 1'
_cell_length_a   7.13814162
_cell_length_b   7.12682991
_cell_length_c   7.14991804
_cell_angle_alpha   76.48613398
_cell_angle_beta   90.15522238
_cell_angle_gamma   89.77766940
_symmetry_Int_Tables_number   1
_chemical_formula_structural   NdGd3(HoB5)4
_chemical_formula_sum   'Nd1 Gd3 Ho4 B20'
_cell_volume   353.65728916
_cell_formula_units_Z   1
loop_
 _symmetry_equiv_pos_site_id
 _symmetry_equiv_pos_as_xyz
  1  'x, y, z'
loop_
 _atom_site_type_symbol
 _atom_site_label
 _atom_site_symmetry_multiplicity
 _atom_site_fract_x
 _atom_site_fract_y
 _atom_site_fract_z
 _atom_site_occupancy
  Nd  Nd0  1  0.687633  0.779887  0.620009  1
  Gd  Gd1  1  0.193184  0.227859  0.874670  1
  Gd  Gd2  1  0.308512  0.227936  0.375449  1
  Gd  Gd3  1  0.807486  0.771231  0.124156  1
  Ho  Ho4  1  0.314192  0.753914  0.252913  1
  Ho  Ho5  1  0.816262  0.246048  0.246536  1
  Ho  Ho6  1  0.685604  0.247082  0.748019  1
  Ho  Ho7  1  0.183494  0.753970  0.753607  1
  B  B8  1  0.503017  0.313474  0.042423  1
  B  B9  1  0.004457  0.686437  0.457292  1
  B  B10  1  0.495393  0.685963  0.960113  1
  B  B11  1  0.997892  0.314151  0.541342  1
  B  B12  1  0.485689  0.926607  0.927403  1
  B  B13  1  0.990706  0.074898  0.573051  1
  B  B14  1  0.513382  0.072757  0.078354  1
  B  B15  1  0.016912  0.927353  0.423116  1
  B  B16  1  0.325850  0.495393  0.040188  1
  B  B17  1  0.826779  0.503520  0.459185  1
  B  B18  1  0.672830  0.503528  0.960630  1
  B  B19  1  0.173511  0.495336  0.540049  1
  B  B20  1  0.910453  0.498631  0.910850  1
  B  B21  1  0.410066  0.498480  0.589851  1
  B  B22  1  0.088986  0.499736  0.089342  1
  B  B23  1  0.588993  0.497583  0.411029  1
  B  B24  1  0.962168  0.496634  0.673668  1
  B  B25  1  0.460372  0.502283  0.826724  1
  B  B26  1  0.038344  0.503301  0.325566  1
  B  B27  1  0.537832  0.496006  0.174465  1
