# generated using pymatgen
data_Nd4SeI6
_symmetry_space_group_name_H-M   'P 1'
_cell_length_a   4.38593200
_cell_length_b   14.48347600
_cell_length_c   15.06980800
_cell_angle_alpha   90.00000000
_cell_angle_beta   90.00000000
_cell_angle_gamma   90.00000000
_symmetry_Int_Tables_number   1
_chemical_formula_structural   Nd4SeI6
_chemical_formula_sum   'Nd8 Se2 I12'
_cell_volume   957.28756423
_cell_formula_units_Z   2
loop_
 _symmetry_equiv_pos_site_id
 _symmetry_equiv_pos_as_xyz
  1  'x, y, z'
loop_
 _atom_site_type_symbol
 _atom_site_label
 _atom_site_symmetry_multiplicity
 _atom_site_fract_x
 _atom_site_fract_y
 _atom_site_fract_z
 _atom_site_occupancy
  Nd  Nd0  1  0.000000  0.103963  0.080052  1
  Nd  Nd1  1  0.000000  0.896037  0.919948  1
  Nd  Nd2  1  0.000000  0.603963  0.419948  1
  Nd  Nd3  1  0.000000  0.396037  0.580052  1
  Nd  Nd4  1  0.500000  0.124108  0.852620  1
  Nd  Nd5  1  0.500000  0.875892  0.147380  1
  Nd  Nd6  1  0.500000  0.624108  0.647380  1
  Nd  Nd7  1  0.500000  0.375892  0.352620  1
  Se  Se8  1  0.500000  0.000000  0.000000  1
  Se  Se9  1  0.500000  0.500000  0.500000  1
  I  I10  1  0.500000  0.262773  0.678272  1
  I  I11  1  0.500000  0.737227  0.321728  1
  I  I12  1  0.500000  0.762773  0.821728  1
  I  I13  1  0.500000  0.237227  0.178272  1
  I  I14  1  0.000000  0.262073  0.929954  1
  I  I15  1  0.000000  0.737927  0.070046  1
  I  I16  1  0.000000  0.485187  0.239709  1
  I  I17  1  0.000000  0.514813  0.760291  1
  I  I18  1  0.000000  0.985187  0.260291  1
  I  I19  1  0.000000  0.014813  0.739709  1
  I  I20  1  0.000000  0.237927  0.429954  1
  I  I21  1  0.000000  0.762073  0.570046  1
