# generated using pymatgen
data_Gd3(ZnAu)4
_symmetry_space_group_name_H-M   'P 1'
_cell_length_a   8.51486168
_cell_length_b   8.51486264
_cell_length_c   8.51486000
_cell_angle_alpha   150.02433591
_cell_angle_beta   129.85491461
_cell_angle_gamma   59.53025728
_symmetry_Int_Tables_number   1
_chemical_formula_structural   Gd3(ZnAu)4
_chemical_formula_sum   'Gd3 Zn4 Au4'
_cell_volume   234.92203119
_cell_formula_units_Z   1
loop_
 _symmetry_equiv_pos_site_id
 _symmetry_equiv_pos_as_xyz
  1  'x, y, z'
loop_
 _atom_site_type_symbol
 _atom_site_label
 _atom_site_symmetry_multiplicity
 _atom_site_fract_x
 _atom_site_fract_y
 _atom_site_fract_z
 _atom_site_occupancy
  Gd  Gd0  1  0.500000  0.000000  0.500000  1
  Gd  Gd1  1  0.869319  0.869318  0.000000  1
  Gd  Gd2  1  0.130681  0.130682  0.000000  1
  Zn  Zn3  1  0.481776  0.671435  0.810342  1
  Zn  Zn4  1  0.861093  0.671434  0.189658  1
  Zn  Zn5  1  0.138907  0.328566  0.810342  1
  Zn  Zn6  1  0.518224  0.328565  0.189658  1
  Au  Au7  1  0.282714  0.782715  0.500000  1
  Au  Au8  1  0.717286  0.217285  0.500000  1
  Au  Au9  1  0.800908  0.500001  0.300909  1
  Au  Au10  1  0.199092  0.499999  0.699091  1
