# generated using pymatgen
data_HoLu5(AlNi2)6
_symmetry_space_group_name_H-M   'P 1'
_cell_length_a   5.15007800
_cell_length_b   5.15007667
_cell_length_c   15.75499100
_cell_angle_alpha   90.00000000
_cell_angle_beta   90.00000000
_cell_angle_gamma   119.99998284
_symmetry_Int_Tables_number   1
_chemical_formula_structural   HoLu5(AlNi2)6
_chemical_formula_sum   'Ho1 Lu5 Al6 Ni12'
_cell_volume   361.88982079
_cell_formula_units_Z   1
loop_
 _symmetry_equiv_pos_site_id
 _symmetry_equiv_pos_as_xyz
  1  'x, y, z'
loop_
 _atom_site_type_symbol
 _atom_site_label
 _atom_site_symmetry_multiplicity
 _atom_site_fract_x
 _atom_site_fract_y
 _atom_site_fract_z
 _atom_site_occupancy
  Ho  Ho0  1  0.333333  0.666667  0.750000  1
  Lu  Lu1  1  0.333333  0.666667  0.542137  1
  Lu  Lu2  1  0.666667  0.333333  0.456897  1
  Lu  Lu3  1  0.666667  0.333333  0.043103  1
  Lu  Lu4  1  0.333333  0.666667  0.957863  1
  Lu  Lu5  1  0.666667  0.333333  0.250000  1
  Al  Al6  1  0.000000  0.000000  0.250000  1
  Al  Al7  1  0.000000  0.000000  0.750000  1
  Al  Al8  1  0.333333  0.666667  0.250000  1
  Al  Al9  1  0.666667  0.333333  0.750000  1
  Al  Al10  1  0.000000  0.000000  0.000297  1
  Al  Al11  1  0.000000  0.000000  0.499703  1
  Ni  Ni12  1  0.168275  0.336550  0.125495  1
  Ni  Ni13  1  0.831718  0.663438  0.875191  1
  Ni  Ni14  1  0.663450  0.831725  0.125495  1
  Ni  Ni15  1  0.831718  0.663438  0.624809  1
  Ni  Ni16  1  0.336562  0.168282  0.875191  1
  Ni  Ni17  1  0.168275  0.336550  0.374505  1
  Ni  Ni18  1  0.168275  0.831725  0.125495  1
  Ni  Ni19  1  0.336562  0.168282  0.624809  1
  Ni  Ni20  1  0.831718  0.168282  0.875191  1
  Ni  Ni21  1  0.663450  0.831725  0.374505  1
  Ni  Ni22  1  0.831718  0.168282  0.624809  1
  Ni  Ni23  1  0.168275  0.831725  0.374505  1
