# generated using pymatgen
data_Ca4Tb4Al4Si11Ge
_symmetry_space_group_name_H-M   'P 1'
_cell_length_a   4.21042600
_cell_length_b   6.73663151
_cell_length_c   17.93017449
_cell_angle_alpha   89.62425175
_cell_angle_beta   90.00000000
_cell_angle_gamma   90.00000000
_symmetry_Int_Tables_number   1
_chemical_formula_structural   Ca4Tb4Al4Si11Ge
_chemical_formula_sum   'Ca4 Tb4 Al4 Si11 Ge1'
_cell_volume   508.56211932
_cell_formula_units_Z   1
loop_
 _symmetry_equiv_pos_site_id
 _symmetry_equiv_pos_as_xyz
  1  'x, y, z'
loop_
 _atom_site_type_symbol
 _atom_site_label
 _atom_site_symmetry_multiplicity
 _atom_site_fract_x
 _atom_site_fract_y
 _atom_site_fract_z
 _atom_site_occupancy
  Ca  Ca0  1  0.750000  0.313394  0.299645  1
  Ca  Ca1  1  0.750000  0.331740  0.081396  1
  Ca  Ca2  1  0.250000  0.666227  0.917094  1
  Ca  Ca3  1  0.750000  0.841537  0.418465  1
  Tb  Tb4  1  0.250000  0.183524  0.796659  1
  Tb  Tb5  1  0.750000  0.812559  0.200867  1
  Tb  Tb6  1  0.250000  0.170733  0.583864  1
  Tb  Tb7  1  0.250000  0.682747  0.701301  1
  Al  Al8  1  0.750000  0.549514  0.564622  1
  Al  Al9  1  0.250000  0.951975  0.065350  1
  Al  Al10  1  0.750000  0.037564  0.934442  1
  Al  Al11  1  0.250000  0.463101  0.440411  1
  Si  Si12  1  0.750000  0.269620  0.469359  1
  Si  Si13  1  0.250000  0.138399  0.189497  1
  Si  Si14  1  0.750000  0.856681  0.807177  1
  Si  Si15  1  0.750000  0.359852  0.689252  1
  Si  Si16  1  0.750000  0.499972  0.810385  1
  Si  Si17  1  0.250000  0.990022  0.309039  1
  Si  Si18  1  0.750000  0.002808  0.685174  1
  Si  Si19  1  0.250000  0.638093  0.309951  1
  Si  Si20  1  0.250000  0.743566  0.538735  1
  Si  Si21  1  0.250000  0.497147  0.189177  1
  Si  Si22  1  0.750000  0.764802  0.035797  1
  Ge  Ge23  1  0.250000  0.234426  0.962335  1
