# generated using pymatgen
data_Y2Zn14Cu3
_symmetry_space_group_name_H-M   'P 1'
_cell_length_a   6.72501204
_cell_length_b   6.72501193
_cell_length_c   6.72501134
_cell_angle_alpha   82.97213723
_cell_angle_beta   82.97213757
_cell_angle_gamma   82.97213275
_symmetry_Int_Tables_number   1
_chemical_formula_structural   Y2Zn14Cu3
_chemical_formula_sum   'Y2 Zn14 Cu3'
_cell_volume   297.80538940
_cell_formula_units_Z   1
loop_
 _symmetry_equiv_pos_site_id
 _symmetry_equiv_pos_as_xyz
  1  'x, y, z'
loop_
 _atom_site_type_symbol
 _atom_site_label
 _atom_site_symmetry_multiplicity
 _atom_site_fract_x
 _atom_site_fract_y
 _atom_site_fract_z
 _atom_site_occupancy
  Y  Y0  1  0.661910  0.661910  0.661910  1
  Y  Y1  1  0.338090  0.338090  0.338090  1
  Zn  Zn2  1  0.349719  0.349719  0.847399  1
  Zn  Zn3  1  0.847399  0.349719  0.349719  1
  Zn  Zn4  1  0.105022  0.105022  0.105022  1
  Zn  Zn5  1  0.894978  0.894978  0.894978  1
  Zn  Zn6  1  0.295619  0.704381  0.000000  1
  Zn  Zn7  1  0.704381  0.000000  0.295619  1
  Zn  Zn8  1  0.000000  0.295619  0.704381  1
  Zn  Zn9  1  0.704381  0.295619  0.000000  1
  Zn  Zn10  1  0.295619  0.000000  0.704381  1
  Zn  Zn11  1  0.000000  0.704381  0.295619  1
  Zn  Zn12  1  0.152601  0.650281  0.650281  1
  Zn  Zn13  1  0.650281  0.650281  0.152601  1
  Zn  Zn14  1  0.650281  0.152601  0.650281  1
  Zn  Zn15  1  0.349719  0.847399  0.349719  1
  Cu  Cu16  1  0.000000  0.000000  0.500000  1
  Cu  Cu17  1  0.000000  0.500000  0.000000  1
  Cu  Cu18  1  0.500000  0.000000  0.000000  1
