# generated using pymatgen
data_Nd4SeN2Cl
_symmetry_space_group_name_H-M   'P 1'
_cell_length_a   3.77978000
_cell_length_b   6.47626804
_cell_length_c   7.26239776
_cell_angle_alpha   72.46461767
_cell_angle_beta   90.00000000
_cell_angle_gamma   90.00000000
_symmetry_Int_Tables_number   1
_chemical_formula_structural   Nd4SeN2Cl
_chemical_formula_sum   'Nd4 Se1 N2 Cl1'
_cell_volume   169.51425256
_cell_formula_units_Z   1
loop_
 _symmetry_equiv_pos_site_id
 _symmetry_equiv_pos_as_xyz
  1  'x, y, z'
loop_
 _atom_site_type_symbol
 _atom_site_label
 _atom_site_symmetry_multiplicity
 _atom_site_fract_x
 _atom_site_fract_y
 _atom_site_fract_z
 _atom_site_occupancy
  Nd  Nd0  1  0.500000  0.729098  0.307343  1
  Nd  Nd1  1  0.000000  0.235289  0.306687  1
  Nd  Nd2  1  0.500000  0.270902  0.692657  1
  Nd  Nd3  1  0.000000  0.764711  0.693313  1
  Se  Se4  1  0.500000  0.500000  0.000000  1
  N  N5  1  0.000000  0.500000  0.500000  1
  N  N6  1  0.500000  0.000000  0.500000  1
  Cl  Cl7  1  0.000000  0.000000  0.000000  1
