# generated using pymatgen
data_Lu4Sc6Ga7Si
_symmetry_space_group_name_H-M   'P 1'
_cell_length_a   7.19014230
_cell_length_b   7.42826973
_cell_length_c   14.38497500
_cell_angle_alpha   90.00000000
_cell_angle_beta   90.00000000
_cell_angle_gamma   90.24439191
_symmetry_Int_Tables_number   1
_chemical_formula_structural   Lu4Sc6Ga7Si
_chemical_formula_sum   'Lu8 Sc12 Ga14 Si2'
_cell_volume   768.29907712
_cell_formula_units_Z   2
loop_
 _symmetry_equiv_pos_site_id
 _symmetry_equiv_pos_as_xyz
  1  'x, y, z'
loop_
 _atom_site_type_symbol
 _atom_site_label
 _atom_site_symmetry_multiplicity
 _atom_site_fract_x
 _atom_site_fract_y
 _atom_site_fract_z
 _atom_site_occupancy
  Lu  Lu0  1  0.012975  0.179213  0.096289  1
  Lu  Lu1  1  0.987025  0.820787  0.903711  1
  Lu  Lu2  1  0.489192  0.678088  0.904508  1
  Lu  Lu3  1  0.987025  0.820787  0.596289  1
  Lu  Lu4  1  0.510808  0.321912  0.095492  1
  Lu  Lu5  1  0.012975  0.179213  0.403711  1
  Lu  Lu6  1  0.510808  0.321912  0.404508  1
  Lu  Lu7  1  0.489192  0.678088  0.595492  1
  Sc  Sc8  1  0.161012  0.504695  0.750000  1
  Sc  Sc9  1  0.838988  0.495305  0.250000  1
  Sc  Sc10  1  0.336655  0.006703  0.250000  1
  Sc  Sc11  1  0.663345  0.993297  0.750000  1
  Sc  Sc12  1  0.331253  0.174400  0.622931  1
  Sc  Sc13  1  0.668747  0.825600  0.377069  1
  Sc  Sc14  1  0.170755  0.671534  0.376192  1
  Sc  Sc15  1  0.668747  0.825600  0.122931  1
  Sc  Sc16  1  0.829245  0.328466  0.623808  1
  Sc  Sc17  1  0.331253  0.174400  0.877069  1
  Sc  Sc18  1  0.829245  0.328466  0.876192  1
  Sc  Sc19  1  0.170755  0.671534  0.123808  1
  Ga  Ga20  1  0.032428  0.117023  0.750000  1
  Ga  Ga21  1  0.967572  0.882977  0.250000  1
  Ga  Ga22  1  0.467458  0.611577  0.250000  1
  Ga  Ga23  1  0.532542  0.388423  0.750000  1
  Ga  Ga24  1  0.285536  0.870126  0.750000  1
  Ga  Ga25  1  0.714464  0.129874  0.250000  1
  Ga  Ga26  1  0.160389  0.465928  0.540599  1
  Ga  Ga27  1  0.839611  0.534072  0.459401  1
  Ga  Ga28  1  0.338054  0.965188  0.459072  1
  Ga  Ga29  1  0.839611  0.534072  0.040599  1
  Ga  Ga30  1  0.661946  0.034812  0.540928  1
  Ga  Ga31  1  0.160389  0.465928  0.959401  1
  Ga  Ga32  1  0.661946  0.034812  0.959072  1
  Ga  Ga33  1  0.338054  0.965188  0.040928  1
  Si  Si34  1  0.215032  0.372383  0.250000  1
  Si  Si35  1  0.784968  0.627617  0.750000  1
