# generated using pymatgen
data_Ba4Pr7BiSe16
_symmetry_space_group_name_H-M   'P 1'
_cell_length_a   4.37819600
_cell_length_b   13.05752353
_cell_length_c   15.69188233
_cell_angle_alpha   89.82107123
_cell_angle_beta   90.00000000
_cell_angle_gamma   90.00000000
_symmetry_Int_Tables_number   1
_chemical_formula_structural   Ba4Pr7BiSe16
_chemical_formula_sum   'Ba4 Pr7 Bi1 Se16'
_cell_volume   897.07538932
_cell_formula_units_Z   1
loop_
 _symmetry_equiv_pos_site_id
 _symmetry_equiv_pos_as_xyz
  1  'x, y, z'
loop_
 _atom_site_type_symbol
 _atom_site_label
 _atom_site_symmetry_multiplicity
 _atom_site_fract_x
 _atom_site_fract_y
 _atom_site_fract_z
 _atom_site_occupancy
  Ba  Ba0  1  0.250000  0.755371  0.339237  1
  Ba  Ba1  1  0.250000  0.256837  0.162672  1
  Ba  Ba2  1  0.750000  0.242036  0.659179  1
  Ba  Ba3  1  0.750000  0.743518  0.838251  1
  Pr  Pr4  1  0.250000  0.426016  0.393404  1
  Pr  Pr5  1  0.250000  0.928539  0.108759  1
  Pr  Pr6  1  0.750000  0.571962  0.608481  1
  Pr  Pr7  1  0.750000  0.072584  0.891855  1
  Pr  Pr8  1  0.250000  0.420494  0.898343  1
  Pr  Pr9  1  0.250000  0.923484  0.600511  1
  Pr  Pr10  1  0.750000  0.578769  0.102199  1
  Bi  Bi11  1  0.750000  0.077607  0.397049  1
  Se  Se12  1  0.250000  0.207987  0.822533  1
  Se  Se13  1  0.250000  0.709053  0.675168  1
  Se  Se14  1  0.750000  0.792271  0.177057  1
  Se  Se15  1  0.750000  0.291098  0.326187  1
  Se  Se16  1  0.250000  0.132507  0.523002  1
  Se  Se17  1  0.250000  0.631352  0.975433  1
  Se  Se18  1  0.750000  0.868976  0.472287  1
  Se  Se19  1  0.750000  0.367956  0.024968  1
  Se  Se20  1  0.250000  0.520493  0.217673  1
  Se  Se21  1  0.250000  0.023721  0.283619  1
  Se  Se22  1  0.750000  0.477869  0.782868  1
  Se  Se23  1  0.750000  0.978814  0.716838  1
  Se  Se24  1  0.250000  0.417311  0.580867  1
  Se  Se25  1  0.250000  0.917678  0.921148  1
  Se  Se26  1  0.750000  0.582433  0.419692  1
  Se  Se27  1  0.750000  0.083263  0.080720  1
