# generated using pymatgen
data_Sm5YOsI10
_symmetry_space_group_name_H-M   'P 1'
_cell_length_a   7.87436035
_cell_length_b   9.88191032
_cell_length_c   9.90366988
_cell_angle_alpha   107.04953645
_cell_angle_beta   96.67305894
_cell_angle_gamma   104.54994181
_symmetry_Int_Tables_number   1
_chemical_formula_structural   Sm5YOsI10
_chemical_formula_sum   'Sm5 Y1 Os1 I10'
_cell_volume   697.97280794
_cell_formula_units_Z   1
loop_
 _symmetry_equiv_pos_site_id
 _symmetry_equiv_pos_as_xyz
  1  'x, y, z'
loop_
 _atom_site_type_symbol
 _atom_site_label
 _atom_site_symmetry_multiplicity
 _atom_site_fract_x
 _atom_site_fract_y
 _atom_site_fract_z
 _atom_site_occupancy
  Sm  Sm0  1  0.114765  0.042312  0.760227  1
  Sm  Sm1  1  0.882230  0.956556  0.238741  1
  Sm  Sm2  1  0.965814  0.280362  0.081992  1
  Sm  Sm3  1  0.032086  0.719044  0.916925  1
  Sm  Sm4  1  0.353379  0.126646  0.169325  1
  Y  Y5  1  0.649715  0.874882  0.832544  1
  Os  Os6  1  0.999929  0.999929  0.000207  1
  I  I7  1  0.347267  0.449649  0.271063  1
  I  I8  1  0.649602  0.554604  0.728749  1
  I  I9  1  0.255731  0.085809  0.458468  1
  I  I10  1  0.740417  0.912562  0.544064  1
  I  I11  1  0.086717  0.369799  0.818863  1
  I  I12  1  0.912989  0.630265  0.180871  1
  I  I13  1  0.455383  0.814927  0.087979  1
  I  I14  1  0.545628  0.180209  0.906382  1
  I  I15  1  0.783885  0.257516  0.347780  1
  I  I16  1  0.224463  0.744929  0.655819  1
