# generated using pymatgen
data_Tm3FeSi3Pd
_symmetry_space_group_name_H-M   'P 1'
_cell_length_a   5.61414174
_cell_length_b   5.61414232
_cell_length_c   13.63813184
_cell_angle_alpha   89.81910648
_cell_angle_beta   90.18089294
_cell_angle_gamma   136.87274387
_symmetry_Int_Tables_number   1
_chemical_formula_structural   Tm3FeSi3Pd
_chemical_formula_sum   'Tm6 Fe2 Si6 Pd2'
_cell_volume   293.85602146
_cell_formula_units_Z   2
loop_
 _symmetry_equiv_pos_site_id
 _symmetry_equiv_pos_as_xyz
  1  'x, y, z'
loop_
 _atom_site_type_symbol
 _atom_site_label
 _atom_site_symmetry_multiplicity
 _atom_site_fract_x
 _atom_site_fract_y
 _atom_site_fract_z
 _atom_site_occupancy
  Tm  Tm0  1  0.640825  0.359175  0.245368  1
  Tm  Tm1  1  0.359175  0.640825  0.754632  1
  Tm  Tm2  1  0.921935  0.078065  0.108068  1
  Tm  Tm3  1  0.078065  0.921935  0.891932  1
  Tm  Tm4  1  0.081785  0.918215  0.617426  1
  Tm  Tm5  1  0.918215  0.081785  0.382574  1
  Fe  Fe6  1  0.212546  0.787454  0.079995  1
  Fe  Fe7  1  0.787454  0.212546  0.920005  1
  Si  Si8  1  0.335125  0.664875  0.238973  1
  Si  Si9  1  0.664875  0.335125  0.761027  1
  Si  Si10  1  0.624236  0.375764  0.038657  1
  Si  Si11  1  0.375764  0.624236  0.961343  1
  Si  Si12  1  0.399190  0.600810  0.540728  1
  Si  Si13  1  0.600810  0.399190  0.459272  1
  Pd  Pd14  1  0.787138  0.212862  0.590391  1
  Pd  Pd15  1  0.212862  0.787138  0.409609  1
