# generated using pymatgen
data_BaAs12Os3Pd
_symmetry_space_group_name_H-M   'P 1'
_cell_length_a   7.53748231
_cell_length_b   7.53748141
_cell_length_c   7.53748203
_cell_angle_alpha   109.50604699
_cell_angle_beta   109.50604092
_cell_angle_gamma   109.50605318
_symmetry_Int_Tables_number   1
_chemical_formula_structural   BaAs12Os3Pd
_chemical_formula_sum   'Ba1 As12 Os3 Pd1'
_cell_volume   329.22719918
_cell_formula_units_Z   1
loop_
 _symmetry_equiv_pos_site_id
 _symmetry_equiv_pos_as_xyz
  1  'x, y, z'
loop_
 _atom_site_type_symbol
 _atom_site_label
 _atom_site_symmetry_multiplicity
 _atom_site_fract_x
 _atom_site_fract_y
 _atom_site_fract_z
 _atom_site_occupancy
  Ba  Ba0  1  0.000000  0.000000  0.000000  1
  As  As1  1  0.857342  0.651504  0.498165  1
  As  As2  1  0.142658  0.348496  0.501835  1
  As  As3  1  0.151660  0.651359  0.802597  1
  As  As4  1  0.848340  0.348641  0.197403  1
  As  As5  1  0.651504  0.498165  0.857342  1
  As  As6  1  0.348496  0.501835  0.142658  1
  As  As7  1  0.651359  0.802597  0.151660  1
  As  As8  1  0.348641  0.197403  0.848340  1
  As  As9  1  0.498165  0.857342  0.651504  1
  As  As10  1  0.501835  0.142658  0.348496  1
  As  As11  1  0.197403  0.848340  0.348641  1
  As  As12  1  0.802597  0.151660  0.651359  1
  Os  Os13  1  0.500000  0.000000  0.000000  1
  Os  Os14  1  0.000000  0.500000  0.000000  1
  Os  Os15  1  0.000000  0.000000  0.500000  1
  Pd  Pd16  1  0.500000  0.500000  0.500000  1
