# generated using pymatgen
data_Yb2Ho2Ga18(IrPd)3
_symmetry_space_group_name_H-M   'P 1'
_cell_length_a   7.63723381
_cell_length_b   7.63682225
_cell_length_c   9.49326525
_cell_angle_alpha   89.97273698
_cell_angle_beta   90.01538890
_cell_angle_gamma   119.95291528
_symmetry_Int_Tables_number   1
_chemical_formula_structural   Yb2Ho2Ga18(IrPd)3
_chemical_formula_sum   'Yb2 Ho2 Ga18 Ir3 Pd3'
_cell_volume   479.73435989
_cell_formula_units_Z   1
loop_
 _symmetry_equiv_pos_site_id
 _symmetry_equiv_pos_as_xyz
  1  'x, y, z'
loop_
 _atom_site_type_symbol
 _atom_site_label
 _atom_site_symmetry_multiplicity
 _atom_site_fract_x
 _atom_site_fract_y
 _atom_site_fract_z
 _atom_site_occupancy
  Yb  Yb0  1  0.995605  0.666905  0.251087  1
  Yb  Yb1  1  0.003162  0.332219  0.748778  1
  Ho  Ho2  1  0.670110  0.999115  0.251582  1
  Ho  Ho3  1  0.330644  0.001984  0.748575  1
  Ga  Ga4  1  0.127469  0.127548  0.250373  1
  Ga  Ga5  1  0.873762  0.871202  0.749903  1
  Ga  Ga6  1  0.001875  0.337714  0.081165  1
  Ga  Ga7  1  0.003611  0.663868  0.918591  1
  Ga  Ga8  1  0.001189  0.661200  0.579489  1
  Ga  Ga9  1  0.334888  0.997164  0.417648  1
  Ga  Ga10  1  0.998733  0.339250  0.420437  1
  Ga  Ga11  1  0.664873  0.003341  0.583235  1
  Ga  Ga12  1  0.665601  0.000314  0.915707  1
  Ga  Ga13  1  0.332721  0.994380  0.084335  1
  Ga  Ga14  1  0.332912  0.334758  0.566166  1
  Ga  Ga15  1  0.666838  0.665451  0.433905  1
  Ga  Ga16  1  0.666115  0.667364  0.070058  1
  Ga  Ga17  1  0.331090  0.334705  0.929142  1
  Ga  Ga18  1  0.336890  0.548363  0.250714  1
  Ga  Ga19  1  0.663565  0.453885  0.748202  1
  Ga  Ga20  1  0.544705  0.337979  0.251697  1
  Ga  Ga21  1  0.452214  0.661019  0.749074  1
  Ir  Ir22  1  0.332201  0.672604  0.999708  1
  Ir  Ir23  1  0.331146  0.674130  0.500009  1
  Ir  Ir24  1  0.668552  0.326273  0.499909  1
  Pd  Pd25  1  0.669303  0.327450  0.000192  1
  Pd  Pd26  1  0.000754  0.999022  0.000201  1
  Pd  Pd27  1  0.999474  0.000793  0.500116  1
