# generated using pymatgen
data_TmLu3V2(CoB8)2
_symmetry_space_group_name_H-M   'P 1'
_cell_length_a   3.36309000
_cell_length_b   5.90427294
_cell_length_c   11.40930919
_cell_angle_alpha   90.08361000
_cell_angle_beta   90.00000000
_cell_angle_gamma   90.00000000
_symmetry_Int_Tables_number   1
_chemical_formula_structural   TmLu3V2(CoB8)2
_chemical_formula_sum   'Tm1 Lu3 V2 Co2 B16'
_cell_volume   226.54986220
_cell_formula_units_Z   1
loop_
 _symmetry_equiv_pos_site_id
 _symmetry_equiv_pos_as_xyz
  1  'x, y, z'
loop_
 _atom_site_type_symbol
 _atom_site_label
 _atom_site_symmetry_multiplicity
 _atom_site_fract_x
 _atom_site_fract_y
 _atom_site_fract_z
 _atom_site_occupancy
  Tm  Tm0  1  0.500000  0.371225  0.147984  1
  Lu  Lu1  1  0.500000  0.628833  0.852046  1
  Lu  Lu2  1  0.500000  0.125181  0.652652  1
  Lu  Lu3  1  0.500000  0.874826  0.347385  1
  V  V4  1  0.500000  0.371972  0.413926  1
  V  V5  1  0.500000  0.628036  0.586271  1
  Co  Co6  1  0.500000  0.136262  0.912267  1
  Co  Co7  1  0.500000  0.863740  0.087547  1
  B  B8  1  0.000000  0.111442  0.046224  1
  B  B9  1  0.000000  0.887853  0.953402  1
  B  B10  1  0.000000  0.383976  0.547784  1
  B  B11  1  0.000000  0.616064  0.452258  1
  B  B12  1  0.000000  0.132747  0.466927  1
  B  B13  1  0.000000  0.867229  0.533096  1
  B  B14  1  0.000000  0.362181  0.969049  1
  B  B15  1  0.000000  0.638107  0.030456  1
  B  B16  1  0.000000  0.019586  0.190252  1
  B  B17  1  0.000000  0.980039  0.809767  1
  B  B18  1  0.000000  0.473989  0.695892  1
  B  B19  1  0.000000  0.526311  0.304489  1
  B  B20  1  0.000000  0.209909  0.311198  1
  B  B21  1  0.000000  0.789954  0.689099  1
  B  B22  1  0.000000  0.282951  0.816900  1
  B  B23  1  0.000000  0.717589  0.183129  1
