# generated using pymatgen
data_Hf3U(Tc3Sn)2
_symmetry_space_group_name_H-M   'P 1'
_cell_length_a   4.66574000
_cell_length_b   6.59381400
_cell_length_c   13.68673500
_cell_angle_alpha   90.00000000
_cell_angle_beta   89.99924702
_cell_angle_gamma   90.00000000
_symmetry_Int_Tables_number   1
_chemical_formula_structural   Hf3U(Tc3Sn)2
_chemical_formula_sum   'Hf6 U2 Tc12 Sn4'
_cell_volume   421.07269970
_cell_formula_units_Z   2
loop_
 _symmetry_equiv_pos_site_id
 _symmetry_equiv_pos_as_xyz
  1  'x, y, z'
loop_
 _atom_site_type_symbol
 _atom_site_label
 _atom_site_symmetry_multiplicity
 _atom_site_fract_x
 _atom_site_fract_y
 _atom_site_fract_z
 _atom_site_occupancy
  Hf  Hf0  1  0.999988  0.000000  0.992510  1
  Hf  Hf1  1  0.499971  0.500000  0.174028  1
  Hf  Hf2  1  0.999961  0.000000  0.342727  1
  Hf  Hf3  1  0.500008  0.500000  0.499489  1
  Hf  Hf4  1  0.000052  0.000000  0.667319  1
  Hf  Hf5  1  0.500029  0.500000  0.824003  1
  U  U6  1  0.999997  0.500000  0.995637  1
  U  U7  1  0.499967  0.000000  0.170906  1
  Tc  Tc8  1  0.499987  0.252390  0.006474  1
  Tc  Tc9  1  0.499987  0.747610  0.006474  1
  Tc  Tc10  1  0.999971  0.247869  0.159924  1
  Tc  Tc11  1  0.999971  0.752131  0.159924  1
  Tc  Tc12  1  0.499956  0.236665  0.324563  1
  Tc  Tc13  1  0.499956  0.763335  0.324563  1
  Tc  Tc14  1  0.000011  0.250970  0.499599  1
  Tc  Tc15  1  0.000011  0.749030  0.499599  1
  Tc  Tc16  1  0.500040  0.249078  0.667242  1
  Tc  Tc17  1  0.500040  0.750922  0.667242  1
  Tc  Tc18  1  0.000034  0.263390  0.842099  1
  Tc  Tc19  1  0.000034  0.736610  0.842099  1
  Sn  Sn20  1  0.999965  0.500000  0.334822  1
  Sn  Sn21  1  0.500006  0.000000  0.503267  1
  Sn  Sn22  1  0.000027  0.500000  0.663627  1
  Sn  Sn23  1  0.500035  0.000000  0.831863  1
