# generated using pymatgen
data_YPa3Ge4Ir3Pt
_symmetry_space_group_name_H-M   'P 1'
_cell_length_a   4.33612800
_cell_length_b   6.99784424
_cell_length_c   7.70963752
_cell_angle_alpha   89.87445224
_cell_angle_beta   90.00000000
_cell_angle_gamma   90.00000000
_symmetry_Int_Tables_number   1
_chemical_formula_structural   YPa3Ge4Ir3Pt
_chemical_formula_sum   'Y1 Pa3 Ge4 Ir3 Pt1'
_cell_volume   233.93719723
_cell_formula_units_Z   1
loop_
 _symmetry_equiv_pos_site_id
 _symmetry_equiv_pos_as_xyz
  1  'x, y, z'
loop_
 _atom_site_type_symbol
 _atom_site_label
 _atom_site_symmetry_multiplicity
 _atom_site_fract_x
 _atom_site_fract_y
 _atom_site_fract_z
 _atom_site_occupancy
  Y  Y0  1  0.750000  0.509340  0.797435  1
  Pa  Pa1  1  0.250000  0.992516  0.297499  1
  Pa  Pa2  1  0.250000  0.500357  0.207278  1
  Pa  Pa3  1  0.750000  0.002831  0.696329  1
  Ge  Ge4  1  0.250000  0.320201  0.587514  1
  Ge  Ge5  1  0.250000  0.812542  0.912313  1
  Ge  Ge6  1  0.750000  0.678818  0.418171  1
  Ge  Ge7  1  0.750000  0.185086  0.084649  1
  Ir  Ir8  1  0.250000  0.733794  0.581136  1
  Ir  Ir9  1  0.750000  0.779738  0.094088  1
  Ir  Ir10  1  0.750000  0.271417  0.410658  1
  Pt  Pt11  1  0.250000  0.213358  0.912932  1
