# generated using pymatgen
data_LaTm2TaO7
_symmetry_space_group_name_H-M   'P 1'
_cell_length_a   6.48155845
_cell_length_b   6.48155904
_cell_length_c   7.57884400
_cell_angle_alpha   90.00000000
_cell_angle_beta   90.00000000
_cell_angle_gamma   109.80318984
_symmetry_Int_Tables_number   1
_chemical_formula_structural   LaTm2TaO7
_chemical_formula_sum   'La2 Tm4 Ta2 O14'
_cell_volume   299.56272833
_cell_formula_units_Z   2
loop_
 _symmetry_equiv_pos_site_id
 _symmetry_equiv_pos_as_xyz
  1  'x, y, z'
loop_
 _atom_site_type_symbol
 _atom_site_label
 _atom_site_symmetry_multiplicity
 _atom_site_fract_x
 _atom_site_fract_y
 _atom_site_fract_z
 _atom_site_occupancy
  La  La0  1  0.000000  0.000000  0.000000  1
  La  La1  1  0.000000  0.000000  0.500000  1
  Tm  Tm2  1  0.514662  0.049903  0.250000  1
  Tm  Tm3  1  0.950097  0.485338  0.750000  1
  Tm  Tm4  1  0.485338  0.950097  0.750000  1
  Tm  Tm5  1  0.049903  0.514662  0.250000  1
  Ta  Ta6  1  0.500000  0.500000  0.000000  1
  Ta  Ta7  1  0.500000  0.500000  0.500000  1
  O  O8  1  0.876925  0.163676  0.250000  1
  O  O9  1  0.836324  0.123075  0.750000  1
  O  O10  1  0.820661  0.557847  0.036182  1
  O  O11  1  0.820661  0.557847  0.463818  1
  O  O12  1  0.442153  0.179339  0.963818  1
  O  O13  1  0.442153  0.179339  0.536182  1
  O  O14  1  0.581383  0.581383  0.750000  1
  O  O15  1  0.418617  0.418617  0.250000  1
  O  O16  1  0.557847  0.820661  0.036182  1
  O  O17  1  0.179339  0.442153  0.536182  1
  O  O18  1  0.179339  0.442153  0.963818  1
  O  O19  1  0.557847  0.820661  0.463818  1
  O  O20  1  0.123075  0.836324  0.750000  1
  O  O21  1  0.163676  0.876925  0.250000  1
