# generated using pymatgen
data_Ac2Lu3Ga4
_symmetry_space_group_name_H-M   'P 1'
_cell_length_a   7.75878200
_cell_length_b   8.08179000
_cell_length_c   15.56550300
_cell_angle_alpha   90.00000000
_cell_angle_beta   90.00000000
_cell_angle_gamma   90.00000000
_symmetry_Int_Tables_number   1
_chemical_formula_structural   Ac2Lu3Ga4
_chemical_formula_sum   'Ac8 Lu12 Ga16'
_cell_volume   976.03248067
_cell_formula_units_Z   4
loop_
 _symmetry_equiv_pos_site_id
 _symmetry_equiv_pos_as_xyz
  1  'x, y, z'
loop_
 _atom_site_type_symbol
 _atom_site_label
 _atom_site_symmetry_multiplicity
 _atom_site_fract_x
 _atom_site_fract_y
 _atom_site_fract_z
 _atom_site_occupancy
  Ac  Ac0  1  0.013156  0.174435  0.404541  1
  Ac  Ac1  1  0.513156  0.325565  0.404541  1
  Ac  Ac2  1  0.486844  0.674435  0.904541  1
  Ac  Ac3  1  0.486844  0.674435  0.595459  1
  Ac  Ac4  1  0.986844  0.825565  0.595459  1
  Ac  Ac5  1  0.986844  0.825565  0.904541  1
  Ac  Ac6  1  0.513156  0.325565  0.095459  1
  Ac  Ac7  1  0.013156  0.174435  0.095459  1
  Lu  Lu8  1  0.327227  0.173909  0.624684  1
  Lu  Lu9  1  0.672773  0.826091  0.375316  1
  Lu  Lu10  1  0.659974  0.002776  0.750000  1
  Lu  Lu11  1  0.172773  0.673909  0.375316  1
  Lu  Lu12  1  0.827227  0.326091  0.875316  1
  Lu  Lu13  1  0.827227  0.326091  0.624684  1
  Lu  Lu14  1  0.840026  0.502776  0.250000  1
  Lu  Lu15  1  0.340026  0.997224  0.250000  1
  Lu  Lu16  1  0.327227  0.173909  0.875316  1
  Lu  Lu17  1  0.172773  0.673909  0.124684  1
  Lu  Lu18  1  0.672773  0.826091  0.124684  1
  Lu  Lu19  1  0.159974  0.497224  0.750000  1
  Ga  Ga20  1  0.283092  0.886395  0.750000  1
  Ga  Ga21  1  0.468855  0.623388  0.250000  1
  Ga  Ga22  1  0.031145  0.123388  0.750000  1
  Ga  Ga23  1  0.531145  0.376612  0.750000  1
  Ga  Ga24  1  0.150156  0.460426  0.540722  1
  Ga  Ga25  1  0.968855  0.876612  0.250000  1
  Ga  Ga26  1  0.716908  0.113605  0.250000  1
  Ga  Ga27  1  0.849844  0.539574  0.040722  1
  Ga  Ga28  1  0.349844  0.960426  0.040722  1
  Ga  Ga29  1  0.150156  0.460426  0.959278  1
  Ga  Ga30  1  0.650156  0.039574  0.540722  1
  Ga  Ga31  1  0.349844  0.960426  0.459278  1
  Ga  Ga32  1  0.849844  0.539574  0.459278  1
  Ga  Ga33  1  0.783092  0.613605  0.750000  1
  Ga  Ga34  1  0.216908  0.386395  0.250000  1
  Ga  Ga35  1  0.650156  0.039574  0.959278  1
