# generated using pymatgen
data_Th6TaCo17P12
_symmetry_space_group_name_H-M   'P 1'
_cell_length_a   3.83403700
_cell_length_b   10.68095800
_cell_length_c   12.51948500
_cell_angle_alpha   90.00000000
_cell_angle_beta   90.00000000
_cell_angle_gamma   90.00000000
_symmetry_Int_Tables_number   1
_chemical_formula_structural   Th6TaCo17P12
_chemical_formula_sum   'Th6 Ta1 Co17 P12'
_cell_volume   512.68778599
_cell_formula_units_Z   1
loop_
 _symmetry_equiv_pos_site_id
 _symmetry_equiv_pos_as_xyz
  1  'x, y, z'
loop_
 _atom_site_type_symbol
 _atom_site_label
 _atom_site_symmetry_multiplicity
 _atom_site_fract_x
 _atom_site_fract_y
 _atom_site_fract_z
 _atom_site_occupancy
  Th  Th0  1  0.000000  0.500000  0.524860  1
  Th  Th1  1  0.500000  0.000000  0.480674  1
  Th  Th2  1  0.500000  0.818627  0.208922  1
  Th  Th3  1  0.500000  0.181373  0.208922  1
  Th  Th4  1  0.000000  0.685136  0.794269  1
  Th  Th5  1  0.000000  0.314864  0.794269  1
  Ta  Ta6  1  0.500000  0.500000  0.149929  1
  Co  Co7  1  0.000000  0.000000  0.841717  1
  Co  Co8  1  0.500000  0.500000  0.702482  1
  Co  Co9  1  0.000000  0.000000  0.296704  1
  Co  Co10  1  0.000000  0.500000  0.984939  1
  Co  Co11  1  0.500000  0.000000  0.016027  1
  Co  Co12  1  0.500000  0.330995  0.990442  1
  Co  Co13  1  0.500000  0.669005  0.990442  1
  Co  Co14  1  0.000000  0.164333  0.004013  1
  Co  Co15  1  0.000000  0.835667  0.004013  1
  Co  Co16  1  0.500000  0.299541  0.429320  1
  Co  Co17  1  0.500000  0.700459  0.429320  1
  Co  Co18  1  0.000000  0.199311  0.571977  1
  Co  Co19  1  0.000000  0.800689  0.571977  1
  Co  Co20  1  0.500000  0.881927  0.714053  1
  Co  Co21  1  0.500000  0.118073  0.714053  1
  Co  Co22  1  0.000000  0.620440  0.287305  1
  Co  Co23  1  0.000000  0.379560  0.287305  1
  P  P24  1  0.500000  0.500000  0.884090  1
  P  P25  1  0.000000  0.000000  0.113594  1
  P  P26  1  0.500000  0.500000  0.347362  1
  P  P27  1  0.000000  0.000000  0.662102  1
  P  P28  1  0.500000  0.304637  0.613257  1
  P  P29  1  0.500000  0.695363  0.613257  1
  P  P30  1  0.000000  0.194178  0.389131  1
  P  P31  1  0.000000  0.805822  0.389131  1
  P  P32  1  0.500000  0.853218  0.895534  1
  P  P33  1  0.500000  0.146782  0.895534  1
  P  P34  1  0.000000  0.658042  0.099536  1
  P  P35  1  0.000000  0.341958  0.099536  1
