# generated using pymatgen
data_Ho15Th5(Bi2Os)4
_symmetry_space_group_name_H-M   'P 1'
_cell_length_a   8.18607743
_cell_length_b   8.87343875
_cell_length_c   12.55202906
_cell_angle_alpha   90.29002329
_cell_angle_beta   89.99228329
_cell_angle_gamma   89.96271583
_symmetry_Int_Tables_number   1
_chemical_formula_structural   Ho15Th5(Bi2Os)4
_chemical_formula_sum   'Ho15 Th5 Bi8 Os4'
_cell_volume   911.75064752
_cell_formula_units_Z   1
loop_
 _symmetry_equiv_pos_site_id
 _symmetry_equiv_pos_as_xyz
  1  'x, y, z'
loop_
 _atom_site_type_symbol
 _atom_site_label
 _atom_site_symmetry_multiplicity
 _atom_site_fract_x
 _atom_site_fract_y
 _atom_site_fract_z
 _atom_site_occupancy
  Ho  Ho0  1  0.837091  0.748185  0.794772  1
  Ho  Ho1  1  0.163743  0.252406  0.205780  1
  Ho  Ho2  1  0.336451  0.252008  0.705770  1
  Ho  Ho3  1  0.664804  0.750041  0.292352  1
  Ho  Ho4  1  0.380839  0.749122  0.699129  1
  Ho  Ho5  1  0.623856  0.252514  0.301307  1
  Ho  Ho6  1  0.878917  0.254647  0.802831  1
  Ho  Ho7  1  0.123718  0.744897  0.196619  1
  Ho  Ho8  1  0.944378  0.746061  0.500526  1
  Ho  Ho9  1  0.048941  0.251911  0.499452  1
  Ho  Ho10  1  0.445440  0.253195  0.999434  1
  Ho  Ho11  1  0.554601  0.747157  0.000532  1
  Ho  Ho12  1  0.677833  0.453337  0.568650  1
  Ho  Ho13  1  0.827450  0.456004  0.064117  1
  Ho  Ho14  1  0.172280  0.544246  0.934809  1
  Th  Th15  1  0.682704  0.043190  0.564217  1
  Th  Th16  1  0.314861  0.955983  0.436645  1
  Th  Th17  1  0.182503  0.957299  0.935574  1
  Th  Th18  1  0.323364  0.542983  0.437767  1
  Th  Th19  1  0.817651  0.042668  0.063955  1
  Bi  Bi20  1  0.567270  0.488834  0.827024  1
  Bi  Bi21  1  0.435043  0.510739  0.172854  1
  Bi  Bi22  1  0.068977  0.511902  0.674258  1
  Bi  Bi23  1  0.427170  0.987376  0.173904  1
  Bi  Bi24  1  0.929381  0.488149  0.324972  1
  Bi  Bi25  1  0.573265  0.013574  0.826427  1
  Bi  Bi26  1  0.928900  0.012059  0.325957  1
  Bi  Bi27  1  0.071780  0.987322  0.673372  1
  Os  Os28  1  0.571509  0.755892  0.510845  1
  Os  Os29  1  0.425101  0.246290  0.485601  1
  Os  Os30  1  0.072784  0.240547  0.988833  1
  Os  Os31  1  0.927396  0.759464  0.011716  1
