# generated using pymatgen
data_Hf2Tc3(B2Ru)2
_symmetry_space_group_name_H-M   'P 1'
_cell_length_a   3.09174800
_cell_length_b   8.58534458
_cell_length_c   10.02347799
_cell_angle_alpha   89.77212635
_cell_angle_beta   90.00000000
_cell_angle_gamma   90.00000000
_symmetry_Int_Tables_number   1
_chemical_formula_structural   Hf2Tc3(B2Ru)2
_chemical_formula_sum   'Hf4 Tc6 B8 Ru4'
_cell_volume   266.05830849
_cell_formula_units_Z   2
loop_
 _symmetry_equiv_pos_site_id
 _symmetry_equiv_pos_as_xyz
  1  'x, y, z'
loop_
 _atom_site_type_symbol
 _atom_site_label
 _atom_site_symmetry_multiplicity
 _atom_site_fract_x
 _atom_site_fract_y
 _atom_site_fract_z
 _atom_site_occupancy
  Hf  Hf0  1  0.500000  0.835268  0.181205  1
  Hf  Hf1  1  0.500000  0.164732  0.818795  1
  Hf  Hf2  1  0.500000  0.661038  0.681139  1
  Hf  Hf3  1  0.500000  0.338962  0.318861  1
  Tc  Tc4  1  0.000000  0.662096  0.953221  1
  Tc  Tc5  1  0.000000  0.337904  0.046779  1
  Tc  Tc6  1  0.000000  0.839200  0.454447  1
  Tc  Tc7  1  0.000000  0.160800  0.545553  1
  Tc  Tc8  1  0.000000  0.408989  0.760859  1
  Tc  Tc9  1  0.000000  0.591011  0.239141  1
  B  B10  1  0.500000  0.967769  0.587284  1
  B  B11  1  0.500000  0.032231  0.412716  1
  B  B12  1  0.500000  0.848919  0.900880  1
  B  B13  1  0.500000  0.151081  0.099120  1
  B  B14  1  0.500000  0.650332  0.398407  1
  B  B15  1  0.500000  0.349668  0.601593  1
  B  B16  1  0.500000  0.467183  0.912832  1
  B  B17  1  0.500000  0.532817  0.087168  1
  Ru  Ru18  1  0.000000  0.000000  0.000000  1
  Ru  Ru19  1  0.000000  0.500000  0.500000  1
  Ru  Ru20  1  0.000000  0.908958  0.739723  1
  Ru  Ru21  1  0.000000  0.091042  0.260277  1
