# generated using pymatgen
data_Tb14Dy6Co3TcBi8
_symmetry_space_group_name_H-M   'P 1'
_cell_length_a   8.02261539
_cell_length_b   8.94235122
_cell_length_c   12.45172551
_cell_angle_alpha   89.98360295
_cell_angle_beta   90.20450778
_cell_angle_gamma   90.01979430
_symmetry_Int_Tables_number   1
_chemical_formula_structural   Tb14Dy6Co3TcBi8
_chemical_formula_sum   'Tb14 Dy6 Co3 Tc1 Bi8'
_cell_volume   893.29401451
_cell_formula_units_Z   1
loop_
 _symmetry_equiv_pos_site_id
 _symmetry_equiv_pos_as_xyz
  1  'x, y, z'
loop_
 _atom_site_type_symbol
 _atom_site_label
 _atom_site_symmetry_multiplicity
 _atom_site_fract_x
 _atom_site_fract_y
 _atom_site_fract_z
 _atom_site_occupancy
  Tb  Tb0  1  0.846763  0.750114  0.798394  1
  Tb  Tb1  1  0.150569  0.249848  0.198855  1
  Tb  Tb2  1  0.348273  0.249961  0.699635  1
  Tb  Tb3  1  0.651429  0.750042  0.294821  1
  Tb  Tb4  1  0.381298  0.750004  0.693489  1
  Tb  Tb5  1  0.618142  0.249998  0.309111  1
  Tb  Tb6  1  0.881223  0.249725  0.809966  1
  Tb  Tb7  1  0.116986  0.750260  0.187855  1
  Tb  Tb8  1  0.948215  0.750016  0.503942  1
  Tb  Tb9  1  0.050475  0.249985  0.496083  1
  Tb  Tb10  1  0.451759  0.249835  0.997112  1
  Tb  Tb11  1  0.548963  0.750172  0.003194  1
  Tb  Tb12  1  0.822602  0.463264  0.063035  1
  Tb  Tb13  1  0.176030  0.534442  0.936917  1
  Dy  Dy14  1  0.678010  0.043718  0.564941  1
  Dy  Dy15  1  0.325154  0.966567  0.438030  1
  Dy  Dy16  1  0.175091  0.965501  0.937019  1
  Dy  Dy17  1  0.325098  0.533410  0.438074  1
  Dy  Dy18  1  0.823567  0.036856  0.062916  1
  Dy  Dy19  1  0.678005  0.456298  0.564931  1
  Co  Co20  1  0.429575  0.249998  0.489439  1
  Co  Co21  1  0.060470  0.249542  0.991580  1
  Co  Co22  1  0.937200  0.750472  0.006975  1
  Tc  Tc23  1  0.575570  0.749982  0.512335  1
  Bi  Bi24  1  0.572436  0.492000  0.827111  1
  Bi  Bi25  1  0.425765  0.507457  0.173274  1
  Bi  Bi26  1  0.073505  0.507776  0.673773  1
  Bi  Bi27  1  0.426177  0.992589  0.173172  1
  Bi  Bi28  1  0.928053  0.492486  0.326499  1
  Bi  Bi29  1  0.572030  0.007955  0.827225  1
  Bi  Bi30  1  0.927977  0.007541  0.326407  1
  Bi  Bi31  1  0.073589  0.992186  0.673886  1
