# generated using pymatgen
data_Ho4Al4Ni3Ir
_symmetry_space_group_name_H-M   'P 1'
_cell_length_a   4.25773100
_cell_length_b   6.66711274
_cell_length_c   7.69038601
_cell_angle_alpha   89.69645551
_cell_angle_beta   90.00000000
_cell_angle_gamma   90.00000000
_symmetry_Int_Tables_number   1
_chemical_formula_structural   Ho4Al4Ni3Ir
_chemical_formula_sum   'Ho4 Al4 Ni3 Ir1'
_cell_volume   218.30217541
_cell_formula_units_Z   1
loop_
 _symmetry_equiv_pos_site_id
 _symmetry_equiv_pos_as_xyz
  1  'x, y, z'
loop_
 _atom_site_type_symbol
 _atom_site_label
 _atom_site_symmetry_multiplicity
 _atom_site_fract_x
 _atom_site_fract_y
 _atom_site_fract_z
 _atom_site_occupancy
  Ho  Ho0  1  0.250000  0.536802  0.177526  1
  Ho  Ho1  1  0.750000  0.464529  0.825661  1
  Ho  Ho2  1  0.750000  0.962763  0.677517  1
  Ho  Ho3  1  0.250000  0.032715  0.319689  1
  Al  Al4  1  0.250000  0.642158  0.559492  1
  Al  Al5  1  0.750000  0.364941  0.435564  1
  Al  Al6  1  0.750000  0.860963  0.059740  1
  Al  Al7  1  0.250000  0.137989  0.944287  1
  Ni  Ni8  1  0.250000  0.773098  0.878953  1
  Ni  Ni9  1  0.750000  0.229084  0.123956  1
  Ni  Ni10  1  0.750000  0.730857  0.375450  1
  Ir  Ir11  1  0.250000  0.264101  0.622166  1
