# generated using pymatgen
data_Hf8Nb12Si15Sn
_symmetry_space_group_name_H-M   'P 1'
_cell_length_a   6.70795468
_cell_length_b   6.90875232
_cell_length_c   13.13228300
_cell_angle_alpha   90.00000000
_cell_angle_beta   90.00000000
_cell_angle_gamma   90.04317052
_symmetry_Int_Tables_number   1
_chemical_formula_structural   Hf8Nb12Si15Sn
_chemical_formula_sum   'Hf8 Nb12 Si15 Sn1'
_cell_volume   608.59706413
_cell_formula_units_Z   1
loop_
 _symmetry_equiv_pos_site_id
 _symmetry_equiv_pos_as_xyz
  1  'x, y, z'
loop_
 _atom_site_type_symbol
 _atom_site_label
 _atom_site_symmetry_multiplicity
 _atom_site_fract_x
 _atom_site_fract_y
 _atom_site_fract_z
 _atom_site_occupancy
  Hf  Hf0  1  0.497177  0.673922  0.595217  1
  Hf  Hf1  1  0.996122  0.825592  0.906145  1
  Hf  Hf2  1  0.494990  0.326180  0.089245  1
  Hf  Hf3  1  0.013335  0.163990  0.414767  1
  Hf  Hf4  1  0.494990  0.326180  0.410755  1
  Hf  Hf5  1  0.013335  0.163990  0.085233  1
  Hf  Hf6  1  0.497177  0.673922  0.904783  1
  Hf  Hf7  1  0.996122  0.825592  0.593855  1
  Nb  Nb8  1  0.663646  0.170639  0.624184  1
  Nb  Nb9  1  0.163412  0.328959  0.876091  1
  Nb  Nb10  1  0.333909  0.832553  0.122620  1
  Nb  Nb11  1  0.838249  0.678781  0.379314  1
  Nb  Nb12  1  0.333909  0.832553  0.377380  1
  Nb  Nb13  1  0.838249  0.678781  0.120686  1
  Nb  Nb14  1  0.663646  0.170639  0.875816  1
  Nb  Nb15  1  0.163412  0.328959  0.623909  1
  Nb  Nb16  1  0.837135  0.500001  0.750000  1
  Nb  Nb17  1  0.337858  0.002516  0.750000  1
  Nb  Nb18  1  0.173298  0.506463  0.250000  1
  Nb  Nb19  1  0.655385  0.984783  0.250000  1
  Si  Si20  1  0.669795  0.965264  0.462276  1
  Si  Si21  1  0.170498  0.537526  0.038220  1
  Si  Si22  1  0.328682  0.035403  0.958773  1
  Si  Si23  1  0.826825  0.463472  0.539125  1
  Si  Si24  1  0.328682  0.035403  0.541227  1
  Si  Si25  1  0.826825  0.463472  0.960875  1
  Si  Si26  1  0.669795  0.965264  0.037724  1
  Si  Si27  1  0.170498  0.537526  0.461780  1
  Si  Si28  1  0.462503  0.388470  0.750000  1
  Si  Si29  1  0.961915  0.114276  0.750000  1
  Si  Si30  1  0.535428  0.619771  0.250000  1
  Si  Si31  1  0.036819  0.888117  0.250000  1
  Si  Si32  1  0.703970  0.861555  0.750000  1
  Si  Si33  1  0.203390  0.638984  0.750000  1
  Si  Si34  1  0.296802  0.141263  0.250000  1
  Sn  Sn35  1  0.802216  0.349237  0.250000  1
