# generated using pymatgen
data_Y2AlB2RuRh4
_symmetry_space_group_name_H-M   'P 1'
_cell_length_a   9.61907200
_cell_length_b   9.61907200
_cell_length_c   3.10878900
_cell_angle_alpha   90.00000000
_cell_angle_beta   90.00000000
_cell_angle_gamma   90.00000000
_symmetry_Int_Tables_number   1
_chemical_formula_structural   Y2AlB2RuRh4
_chemical_formula_sum   'Y4 Al2 B4 Ru2 Rh8'
_cell_volume   287.64550885
_cell_formula_units_Z   2
loop_
 _symmetry_equiv_pos_site_id
 _symmetry_equiv_pos_as_xyz
  1  'x, y, z'
loop_
 _atom_site_type_symbol
 _atom_site_label
 _atom_site_symmetry_multiplicity
 _atom_site_fract_x
 _atom_site_fract_y
 _atom_site_fract_z
 _atom_site_occupancy
  Y  Y0  1  0.824981  0.324981  0.000000  1
  Y  Y1  1  0.324981  0.175019  0.000000  1
  Y  Y2  1  0.675019  0.824981  0.000000  1
  Y  Y3  1  0.175019  0.675019  0.000000  1
  Al  Al4  1  0.000000  0.000000  0.000000  1
  Al  Al5  1  0.500000  0.500000  0.000000  1
  B  B6  1  0.621016  0.121016  0.000000  1
  B  B7  1  0.121016  0.378984  0.000000  1
  B  B8  1  0.878984  0.621016  0.000000  1
  B  B9  1  0.378984  0.878984  0.000000  1
  Ru  Ru10  1  0.500000  0.000000  0.500000  1
  Ru  Ru11  1  0.000000  0.500000  0.500000  1
  Rh  Rh12  1  0.070277  0.217503  0.500000  1
  Rh  Rh13  1  0.217503  0.929723  0.500000  1
  Rh  Rh14  1  0.782497  0.070277  0.500000  1
  Rh  Rh15  1  0.929723  0.782497  0.500000  1
  Rh  Rh16  1  0.429723  0.717503  0.500000  1
  Rh  Rh17  1  0.570277  0.282497  0.500000  1
  Rh  Rh18  1  0.717503  0.570277  0.500000  1
  Rh  Rh19  1  0.282497  0.429723  0.500000  1
