# generated using pymatgen
data_CaTb2Dy5(B6Os)4
_symmetry_space_group_name_H-M   'P 1'
_cell_length_a   3.66210900
_cell_length_b   9.17295645
_cell_length_c   11.56105100
_cell_angle_alpha   89.89236621
_cell_angle_beta   90.00000000
_cell_angle_gamma   90.00000000
_symmetry_Int_Tables_number   1
_chemical_formula_structural   CaTb2Dy5(B6Os)4
_chemical_formula_sum   'Ca1 Tb2 Dy5 B24 Os4'
_cell_volume   388.36237577
_cell_formula_units_Z   1
loop_
 _symmetry_equiv_pos_site_id
 _symmetry_equiv_pos_as_xyz
  1  'x, y, z'
loop_
 _atom_site_type_symbol
 _atom_site_label
 _atom_site_symmetry_multiplicity
 _atom_site_fract_x
 _atom_site_fract_y
 _atom_site_fract_z
 _atom_site_occupancy
  Ca  Ca0  1  0.000000  0.322900  0.413792  1
  Tb  Tb1  1  0.000000  0.675747  0.585252  1
  Tb  Tb2  1  0.000000  0.822707  0.086409  1
  Dy  Dy3  1  0.000000  0.177814  0.914481  1
  Dy  Dy4  1  0.000000  0.944239  0.371565  1
  Dy  Dy5  1  0.000000  0.057742  0.627722  1
  Dy  Dy6  1  0.000000  0.443133  0.128958  1
  Dy  Dy7  1  0.000000  0.555869  0.872783  1
  B  B8  1  0.500000  0.554409  0.432455  1
  B  B9  1  0.500000  0.445997  0.567880  1
  B  B10  1  0.500000  0.053476  0.066578  1
  B  B11  1  0.500000  0.945862  0.932209  1
  B  B12  1  0.500000  0.748287  0.418912  1
  B  B13  1  0.500000  0.252504  0.581464  1
  B  B14  1  0.500000  0.247211  0.080386  1
  B  B15  1  0.500000  0.752069  0.919317  1
  B  B16  1  0.500000  0.791175  0.266343  1
  B  B17  1  0.500000  0.209848  0.734073  1
  B  B18  1  0.500000  0.289650  0.232873  1
  B  B19  1  0.500000  0.709531  0.766752  1
  B  B20  1  0.500000  0.632264  0.186182  1
  B  B21  1  0.500000  0.368057  0.815048  1
  B  B22  1  0.500000  0.131218  0.313384  1
  B  B23  1  0.500000  0.868453  0.685555  1
  B  B24  1  0.500000  0.983731  0.211811  1
  B  B25  1  0.500000  0.016316  0.787232  1
  B  B26  1  0.500000  0.484489  0.287426  1
  B  B27  1  0.500000  0.515822  0.713119  1
  B  B28  1  0.500000  0.608553  0.030286  1
  B  B29  1  0.500000  0.391227  0.970384  1
  B  B30  1  0.500000  0.104537  0.470940  1
  B  B31  1  0.500000  0.894534  0.529213  1
  Os  Os32  1  0.000000  0.639703  0.320538  1
  Os  Os33  1  0.000000  0.362101  0.680539  1
  Os  Os34  1  0.000000  0.136424  0.176821  1
  Os  Os35  1  0.000000  0.862404  0.821315  1
