# generated using pymatgen
data_Y3Er5(TcB6)4
_symmetry_space_group_name_H-M   'P 1'
_cell_length_a   3.67220000
_cell_length_b   9.13201103
_cell_length_c   11.51607300
_cell_angle_alpha   89.99413297
_cell_angle_beta   90.00000000
_cell_angle_gamma   90.00000000
_symmetry_Int_Tables_number   1
_chemical_formula_structural   Y3Er5(TcB6)4
_chemical_formula_sum   'Y3 Er5 Tc4 B24'
_cell_volume   386.18656463
_cell_formula_units_Z   1
loop_
 _symmetry_equiv_pos_site_id
 _symmetry_equiv_pos_as_xyz
  1  'x, y, z'
loop_
 _atom_site_type_symbol
 _atom_site_label
 _atom_site_symmetry_multiplicity
 _atom_site_fract_x
 _atom_site_fract_y
 _atom_site_fract_z
 _atom_site_occupancy
  Y  Y0  1  0.000000  0.323549  0.414117  1
  Y  Y1  1  0.000000  0.676456  0.585977  1
  Y  Y2  1  0.000000  0.823629  0.085778  1
  Er  Er3  1  0.000000  0.175997  0.914126  1
  Er  Er4  1  0.000000  0.942703  0.369245  1
  Er  Er5  1  0.000000  0.057187  0.630806  1
  Er  Er6  1  0.000000  0.442749  0.130403  1
  Er  Er7  1  0.000000  0.557316  0.869533  1
  Tc  Tc8  1  0.000000  0.638922  0.320030  1
  Tc  Tc9  1  0.000000  0.360772  0.680447  1
  Tc  Tc10  1  0.000000  0.138993  0.179396  1
  Tc  Tc11  1  0.000000  0.861481  0.820282  1
  B  B12  1  0.500000  0.553565  0.432734  1
  B  B13  1  0.500000  0.446284  0.567456  1
  B  B14  1  0.500000  0.053899  0.066593  1
  B  B15  1  0.500000  0.947015  0.932758  1
  B  B16  1  0.500000  0.749659  0.418240  1
  B  B17  1  0.500000  0.250228  0.581971  1
  B  B18  1  0.500000  0.249648  0.080777  1
  B  B19  1  0.500000  0.750629  0.918284  1
  B  B20  1  0.500000  0.792035  0.265157  1
  B  B21  1  0.500000  0.207629  0.735429  1
  B  B22  1  0.500000  0.292043  0.234358  1
  B  B23  1  0.500000  0.708096  0.765426  1
  B  B24  1  0.500000  0.630076  0.185195  1
  B  B25  1  0.500000  0.369344  0.815364  1
  B  B26  1  0.500000  0.130168  0.314525  1
  B  B27  1  0.500000  0.870096  0.685471  1
  B  B28  1  0.500000  0.982038  0.211821  1
  B  B29  1  0.500000  0.018643  0.788292  1
  B  B30  1  0.500000  0.481906  0.287758  1
  B  B31  1  0.500000  0.517923  0.712414  1
  B  B32  1  0.500000  0.598601  0.027449  1
  B  B33  1  0.500000  0.400611  0.972328  1
  B  B34  1  0.500000  0.098505  0.472589  1
  B  B35  1  0.500000  0.901603  0.527471  1
