# generated using pymatgen
data_Sm3Lu(WN3)4
_symmetry_space_group_name_H-M   'P 1'
_cell_length_a   7.34101388
_cell_length_b   7.34101328
_cell_length_c   6.29272664
_cell_angle_alpha   74.61839463
_cell_angle_beta   74.61838577
_cell_angle_gamma   82.56858748
_symmetry_Int_Tables_number   1
_chemical_formula_structural   Sm3Lu(WN3)4
_chemical_formula_sum   'Sm3 Lu1 W4 N12'
_cell_volume   314.62395407
_cell_formula_units_Z   1
loop_
 _symmetry_equiv_pos_site_id
 _symmetry_equiv_pos_as_xyz
  1  'x, y, z'
loop_
 _atom_site_type_symbol
 _atom_site_label
 _atom_site_symmetry_multiplicity
 _atom_site_fract_x
 _atom_site_fract_y
 _atom_site_fract_z
 _atom_site_occupancy
  Sm  Sm0  1  0.297048  0.702952  0.750000  1
  Sm  Sm1  1  0.088201  0.911799  0.250000  1
  Sm  Sm2  1  0.703771  0.296229  0.250000  1
  Lu  Lu3  1  0.909619  0.090381  0.750000  1
  W  W4  1  0.621311  0.800156  0.258076  1
  W  W5  1  0.199844  0.378689  0.241924  1
  W  W6  1  0.381602  0.199898  0.736836  1
  W  W7  1  0.800102  0.618398  0.763164  1
  N  N8  1  0.353734  0.349939  0.956716  1
  N  N9  1  0.999835  0.218655  0.360494  1
  N  N10  1  0.781345  0.000165  0.139506  1
  N  N11  1  0.215571  0.005178  0.840854  1
  N  N12  1  0.640308  0.641528  0.048295  1
  N  N13  1  0.889968  0.374890  0.835098  1
  N  N14  1  0.108530  0.619255  0.157180  1
  N  N15  1  0.994822  0.784429  0.659146  1
  N  N16  1  0.380745  0.891470  0.342820  1
  N  N17  1  0.650061  0.646266  0.543284  1
  N  N18  1  0.625110  0.110032  0.664902  1
  N  N19  1  0.358472  0.359692  0.451705  1
