# generated using pymatgen
data_PrY2Cd(Ir2O7)2
_symmetry_space_group_name_H-M   'P 1'
_cell_length_a   7.23467920
_cell_length_b   7.23468068
_cell_length_c   7.25990469
_cell_angle_alpha   61.19431327
_cell_angle_beta   61.19430367
_cell_angle_gamma   60.91257034
_symmetry_Int_Tables_number   1
_chemical_formula_structural   PrY2Cd(Ir2O7)2
_chemical_formula_sum   'Pr1 Y2 Cd1 Ir4 O14'
_cell_volume   275.34294004
_cell_formula_units_Z   1
loop_
 _symmetry_equiv_pos_site_id
 _symmetry_equiv_pos_as_xyz
  1  'x, y, z'
loop_
 _atom_site_type_symbol
 _atom_site_label
 _atom_site_symmetry_multiplicity
 _atom_site_fract_x
 _atom_site_fract_y
 _atom_site_fract_z
 _atom_site_occupancy
  Pr  Pr0  1  0.125000  0.125000  0.625000  1
  Y  Y1  1  0.625000  0.125000  0.125000  1
  Y  Y2  1  0.125000  0.625000  0.125000  1
  Cd  Cd3  1  0.125000  0.125000  0.125000  1
  Ir  Ir4  1  0.125000  0.625000  0.625000  1
  Ir  Ir5  1  0.625000  0.125000  0.625000  1
  Ir  Ir6  1  0.625000  0.625000  0.125000  1
  Ir  Ir7  1  0.625000  0.625000  0.625000  1
  O  O8  1  0.709972  0.709972  0.291520  1
  O  O9  1  0.298164  0.298164  0.703690  1
  O  O10  1  0.702926  0.291756  0.717227  1
  O  O11  1  0.297823  0.695312  0.296747  1
  O  O12  1  0.291756  0.702926  0.717227  1
  O  O13  1  0.695312  0.297823  0.296747  1
  O  O14  1  0.540028  0.540028  0.958480  1
  O  O15  1  0.951836  0.951836  0.546310  1
  O  O16  1  0.547074  0.958244  0.532773  1
  O  O17  1  0.952177  0.554688  0.953253  1
  O  O18  1  0.958244  0.547074  0.532773  1
  O  O19  1  0.554688  0.952177  0.953253  1
  O  O20  1  0.255312  0.255312  0.238091  1
  O  O21  1  0.994688  0.994688  0.011909  1
