# generated using pymatgen
data_Tb6EuPtBr12
_symmetry_space_group_name_H-M   'P 1'
_cell_length_a   9.30477321
_cell_length_b   9.30477152
_cell_length_c   9.30477429
_cell_angle_alpha   106.28356670
_cell_angle_beta   106.28357320
_cell_angle_gamma   106.28358245
_symmetry_Int_Tables_number   1
_chemical_formula_structural   Tb6EuPtBr12
_chemical_formula_sum   'Tb6 Eu1 Pt1 Br12'
_cell_volume   683.59626133
_cell_formula_units_Z   1
loop_
 _symmetry_equiv_pos_site_id
 _symmetry_equiv_pos_as_xyz
  1  'x, y, z'
loop_
 _atom_site_type_symbol
 _atom_site_label
 _atom_site_symmetry_multiplicity
 _atom_site_fract_x
 _atom_site_fract_y
 _atom_site_fract_z
 _atom_site_occupancy
  Tb  Tb0  1  0.102036  0.022736  0.312518  1
  Tb  Tb1  1  0.312518  0.102036  0.022736  1
  Tb  Tb2  1  0.022736  0.312518  0.102036  1
  Tb  Tb3  1  0.897964  0.977264  0.687482  1
  Tb  Tb4  1  0.687482  0.897964  0.977264  1
  Tb  Tb5  1  0.977264  0.687482  0.897964  1
  Eu  Eu6  1  0.500000  0.500000  0.500000  1
  Pt  Pt7  1  0.000000  0.000000  0.000000  1
  Br  Br8  1  0.071904  0.677166  0.218233  1
  Br  Br9  1  0.218233  0.071904  0.677166  1
  Br  Br10  1  0.677166  0.218233  0.071904  1
  Br  Br11  1  0.928096  0.322834  0.781767  1
  Br  Br12  1  0.781767  0.928096  0.322834  1
  Br  Br13  1  0.322834  0.781767  0.928096  1
  Br  Br14  1  0.448936  0.143896  0.368891  1
  Br  Br15  1  0.368891  0.448936  0.143896  1
  Br  Br16  1  0.143896  0.368891  0.448936  1
  Br  Br17  1  0.551064  0.856104  0.631109  1
  Br  Br18  1  0.631109  0.551064  0.856104  1
  Br  Br19  1  0.856104  0.631109  0.551064  1
