# generated using pymatgen
data_Y4Ga18(TcPd)3
_symmetry_space_group_name_H-M   'P 1'
_cell_length_a   7.59630826
_cell_length_b   7.59630541
_cell_length_c   9.74016957
_cell_angle_alpha   89.98671313
_cell_angle_beta   89.98671360
_cell_angle_gamma   119.97736179
_symmetry_Int_Tables_number   1
_chemical_formula_structural   Y4Ga18(TcPd)3
_chemical_formula_sum   'Y4 Ga18 Tc3 Pd3'
_cell_volume   486.85667104
_cell_formula_units_Z   1
loop_
 _symmetry_equiv_pos_site_id
 _symmetry_equiv_pos_as_xyz
  1  'x, y, z'
loop_
 _atom_site_type_symbol
 _atom_site_label
 _atom_site_symmetry_multiplicity
 _atom_site_fract_x
 _atom_site_fract_y
 _atom_site_fract_z
 _atom_site_occupancy
  Y  Y0  1  0.996981  0.670201  0.250963  1
  Y  Y1  1  0.003348  0.330197  0.748697  1
  Y  Y2  1  0.669804  0.996653  0.251303  1
  Y  Y3  1  0.329799  0.003018  0.749037  1
  Ga  Ga4  1  0.133966  0.131721  0.249098  1
  Ga  Ga5  1  0.868279  0.866034  0.750902  1
  Ga  Ga6  1  0.006747  0.337474  0.079027  1
  Ga  Ga7  1  0.999743  0.665039  0.920875  1
  Ga  Ga8  1  0.995342  0.661670  0.578366  1
  Ga  Ga9  1  0.338329  0.004658  0.421634  1
  Ga  Ga10  1  0.007276  0.338247  0.419556  1
  Ga  Ga11  1  0.661754  0.992726  0.580445  1
  Ga  Ga12  1  0.662526  0.993252  0.920973  1
  Ga  Ga13  1  0.334961  0.000257  0.079125  1
  Ga  Ga14  1  0.343847  0.342967  0.562337  1
  Ga  Ga15  1  0.657033  0.656153  0.437664  1
  Ga  Ga16  1  0.656943  0.663250  0.065969  1
  Ga  Ga17  1  0.336750  0.343056  0.934030  1
  Ga  Ga18  1  0.337079  0.552168  0.249777  1
  Ga  Ga19  1  0.665611  0.454247  0.746725  1
  Ga  Ga20  1  0.545752  0.334390  0.253274  1
  Ga  Ga21  1  0.447833  0.662920  0.750223  1
  Tc  Tc22  1  0.325741  0.674259  0.000000  1
  Tc  Tc23  1  0.324658  0.675343  0.500000  1
  Tc  Tc24  1  0.676984  0.323016  0.500000  1
  Pd  Pd25  1  0.672401  0.327598  0.999999  1
  Pd  Pd26  1  0.000779  0.999221  0.000000  1
  Pd  Pd27  1  0.999735  0.000265  0.500000  1
