# generated using pymatgen
data_Lu3CoSi3Rh
_symmetry_space_group_name_H-M   'P 1'
_cell_length_a   5.54735716
_cell_length_b   5.54735768
_cell_length_c   13.43793934
_cell_angle_alpha   89.46193750
_cell_angle_beta   90.53806169
_cell_angle_gamma   136.70955237
_symmetry_Int_Tables_number   1
_chemical_formula_structural   Lu3CoSi3Rh
_chemical_formula_sum   'Lu6 Co2 Si6 Rh2'
_cell_volume   283.54047466
_cell_formula_units_Z   2
loop_
 _symmetry_equiv_pos_site_id
 _symmetry_equiv_pos_as_xyz
  1  'x, y, z'
loop_
 _atom_site_type_symbol
 _atom_site_label
 _atom_site_symmetry_multiplicity
 _atom_site_fract_x
 _atom_site_fract_y
 _atom_site_fract_z
 _atom_site_occupancy
  Lu  Lu0  1  0.640800  0.359200  0.248992  1
  Lu  Lu1  1  0.359200  0.640800  0.751008  1
  Lu  Lu2  1  0.920432  0.079568  0.109814  1
  Lu  Lu3  1  0.079568  0.920432  0.890186  1
  Lu  Lu4  1  0.081227  0.918773  0.615844  1
  Lu  Lu5  1  0.918773  0.081227  0.384156  1
  Co  Co6  1  0.214228  0.785772  0.079173  1
  Co  Co7  1  0.785772  0.214228  0.920827  1
  Si  Si8  1  0.335736  0.664264  0.242321  1
  Si  Si9  1  0.664264  0.335736  0.757679  1
  Si  Si10  1  0.617973  0.382027  0.039656  1
  Si  Si11  1  0.382027  0.617973  0.960344  1
  Si  Si12  1  0.392251  0.607749  0.537620  1
  Si  Si13  1  0.607749  0.392251  0.462380  1
  Rh  Rh14  1  0.788922  0.211078  0.591225  1
  Rh  Rh15  1  0.211078  0.788922  0.408775  1
