# generated using pymatgen
data_Rb6ErLuI12
_symmetry_space_group_name_H-M   'P 1'
_cell_length_a   10.37433500
_cell_length_b   10.37553351
_cell_length_c   8.59342000
_cell_angle_alpha   90.00000000
_cell_angle_beta   90.00000000
_cell_angle_gamma   89.98197554
_symmetry_Int_Tables_number   1
_chemical_formula_structural   Rb6ErLuI12
_chemical_formula_sum   'Rb6 Er1 Lu1 I12'
_cell_volume   924.98932795
_cell_formula_units_Z   1
loop_
 _symmetry_equiv_pos_site_id
 _symmetry_equiv_pos_as_xyz
  1  'x, y, z'
loop_
 _atom_site_type_symbol
 _atom_site_label
 _atom_site_symmetry_multiplicity
 _atom_site_fract_x
 _atom_site_fract_y
 _atom_site_fract_z
 _atom_site_occupancy
  Rb  Rb0  1  0.000000  0.000000  0.500000  1
  Rb  Rb1  1  0.000000  0.000000  0.000000  1
  Rb  Rb2  1  0.233898  0.585930  0.500000  1
  Rb  Rb3  1  0.766102  0.414070  0.500000  1
  Rb  Rb4  1  0.413867  0.234455  0.000000  1
  Rb  Rb5  1  0.586133  0.765545  0.000000  1
  Er  Er6  1  0.500000  0.000000  0.500000  1
  Lu  Lu7  1  0.000000  0.500000  0.000000  1
  I  I8  1  0.698590  0.058087  0.748137  1
  I  I9  1  0.301410  0.941913  0.748137  1
  I  I10  1  0.942244  0.696787  0.246233  1
  I  I11  1  0.057756  0.303213  0.246233  1
  I  I12  1  0.301410  0.941913  0.251863  1
  I  I13  1  0.698590  0.058087  0.251863  1
  I  I14  1  0.057756  0.303213  0.753767  1
  I  I15  1  0.942244  0.696787  0.753767  1
  I  I16  1  0.570791  0.718647  0.500000  1
  I  I17  1  0.429209  0.281353  0.500000  1
  I  I18  1  0.278915  0.570176  0.000000  1
  I  I19  1  0.721085  0.429824  0.000000  1
