# generated using pymatgen
data_Pr4WIO12
_symmetry_space_group_name_H-M   'P 1'
_cell_length_a   5.49422600
_cell_length_b   9.48830768
_cell_length_c   10.30551300
_cell_angle_alpha   90.00000000
_cell_angle_beta   90.00000000
_cell_angle_gamma   90.19272726
_symmetry_Int_Tables_number   1
_chemical_formula_structural   Pr4WIO12
_chemical_formula_sum   'Pr8 W2 I2 O24'
_cell_volume   537.23269782
_cell_formula_units_Z   2
loop_
 _symmetry_equiv_pos_site_id
 _symmetry_equiv_pos_as_xyz
  1  'x, y, z'
loop_
 _atom_site_type_symbol
 _atom_site_label
 _atom_site_symmetry_multiplicity
 _atom_site_fract_x
 _atom_site_fract_y
 _atom_site_fract_z
 _atom_site_occupancy
  Pr  Pr0  1  0.031451  0.215720  0.134323  1
  Pr  Pr1  1  0.468549  0.784280  0.634323  1
  Pr  Pr2  1  0.964279  0.721557  0.366654  1
  Pr  Pr3  1  0.535721  0.278443  0.866654  1
  Pr  Pr4  1  0.026507  0.102734  0.538852  1
  Pr  Pr5  1  0.473493  0.897266  0.038852  1
  Pr  Pr6  1  0.975138  0.604953  0.962375  1
  Pr  Pr7  1  0.524862  0.395047  0.462375  1
  W  W8  1  0.541464  0.004099  0.353840  1
  W  W9  1  0.958536  0.995901  0.853840  1
  I  I10  1  0.457026  0.504241  0.145820  1
  I  I11  1  0.042974  0.495759  0.645820  1
  O  O12  1  0.428586  0.150517  0.474152  1
  O  O13  1  0.071414  0.849483  0.974152  1
  O  O14  1  0.567319  0.652562  0.017687  1
  O  O15  1  0.932681  0.347438  0.517687  1
  O  O16  1  0.729274  0.386488  0.062872  1
  O  O17  1  0.770726  0.613512  0.562872  1
  O  O18  1  0.279436  0.889389  0.436612  1
  O  O19  1  0.220564  0.110611  0.936612  1
  O  O20  1  0.246277  0.408818  0.006543  1
  O  O21  1  0.253723  0.591182  0.506543  1
  O  O22  1  0.749454  0.912955  0.491401  1
  O  O23  1  0.750546  0.087045  0.991401  1
  O  O24  1  0.183638  0.638715  0.178421  1
  O  O25  1  0.316362  0.361285  0.678421  1
  O  O26  1  0.808347  0.134995  0.323182  1
  O  O27  1  0.691653  0.865005  0.823182  1
  O  O28  1  0.329571  0.049033  0.214317  1
  O  O29  1  0.170429  0.950967  0.714317  1
  O  O30  1  0.669451  0.553211  0.292268  1
  O  O31  1  0.830549  0.446789  0.792268  1
  O  O32  1  0.317493  0.358590  0.260077  1
  O  O33  1  0.182507  0.641410  0.760077  1
  O  O34  1  0.683203  0.864911  0.240602  1
  O  O35  1  0.816797  0.135089  0.740602  1
