# generated using pymatgen
data_Gd4ErTm3(B6Os)4
_symmetry_space_group_name_H-M   'P 1'
_cell_length_a   3.64789300
_cell_length_b   9.13364600
_cell_length_c   11.52922800
_cell_angle_alpha   89.99956178
_cell_angle_beta   90.00000000
_cell_angle_gamma   90.00000000
_symmetry_Int_Tables_number   1
_chemical_formula_structural   Gd4ErTm3(B6Os)4
_chemical_formula_sum   'Gd4 Er1 Tm3 B24 Os4'
_cell_volume   384.13731300
_cell_formula_units_Z   1
loop_
 _symmetry_equiv_pos_site_id
 _symmetry_equiv_pos_as_xyz
  1  'x, y, z'
loop_
 _atom_site_type_symbol
 _atom_site_label
 _atom_site_symmetry_multiplicity
 _atom_site_fract_x
 _atom_site_fract_y
 _atom_site_fract_z
 _atom_site_occupancy
  Gd  Gd0  1  0.000000  0.322070  0.414088  1
  Gd  Gd1  1  0.000000  0.678143  0.585925  1
  Gd  Gd2  1  0.000000  0.821930  0.085621  1
  Gd  Gd3  1  0.000000  0.177999  0.914352  1
  Er  Er4  1  0.000000  0.944106  0.372917  1
  Tm  Tm5  1  0.000000  0.055954  0.627248  1
  Tm  Tm6  1  0.000000  0.444134  0.126953  1
  Tm  Tm7  1  0.000000  0.555913  0.872913  1
  B  B8  1  0.500000  0.554394  0.432303  1
  B  B9  1  0.500000  0.445290  0.567781  1
  B  B10  1  0.500000  0.054772  0.067607  1
  B  B11  1  0.500000  0.945342  0.932288  1
  B  B12  1  0.500000  0.748789  0.418979  1
  B  B13  1  0.500000  0.250786  0.581129  1
  B  B14  1  0.500000  0.249403  0.080956  1
  B  B15  1  0.500000  0.750706  0.918979  1
  B  B16  1  0.500000  0.791014  0.266061  1
  B  B17  1  0.500000  0.208637  0.733909  1
  B  B18  1  0.500000  0.291551  0.233697  1
  B  B19  1  0.500000  0.708607  0.766245  1
  B  B20  1  0.500000  0.630852  0.184619  1
  B  B21  1  0.500000  0.369029  0.815330  1
  B  B22  1  0.500000  0.131337  0.315126  1
  B  B23  1  0.500000  0.868965  0.684820  1
  B  B24  1  0.500000  0.983688  0.213321  1
  B  B25  1  0.500000  0.016517  0.786462  1
  B  B26  1  0.500000  0.483349  0.286333  1
  B  B27  1  0.500000  0.516537  0.713630  1
  B  B28  1  0.500000  0.604306  0.028622  1
  B  B29  1  0.500000  0.395710  0.971289  1
  B  B30  1  0.500000  0.104984  0.471493  1
  B  B31  1  0.500000  0.895259  0.529106  1
  Os  Os32  1  0.000000  0.638028  0.320105  1
  Os  Os33  1  0.000000  0.361672  0.679858  1
  Os  Os34  1  0.000000  0.138657  0.179614  1
  Os  Os35  1  0.000000  0.861571  0.820322  1
