# generated using pymatgen
data_La3Nd3Ta2O14
_symmetry_space_group_name_H-M   'P 1'
_cell_length_a   6.71129207
_cell_length_b   6.72789146
_cell_length_c   7.79482100
_cell_angle_alpha   90.00000000
_cell_angle_beta   90.00000000
_cell_angle_gamma   109.43655823
_symmetry_Int_Tables_number   1
_chemical_formula_structural   La3Nd3Ta2O14
_chemical_formula_sum   'La3 Nd3 Ta2 O14'
_cell_volume   331.90042087
_cell_formula_units_Z   1
loop_
 _symmetry_equiv_pos_site_id
 _symmetry_equiv_pos_as_xyz
  1  'x, y, z'
loop_
 _atom_site_type_symbol
 _atom_site_label
 _atom_site_symmetry_multiplicity
 _atom_site_fract_x
 _atom_site_fract_y
 _atom_site_fract_z
 _atom_site_occupancy
  La  La0  1  0.499124  0.499434  0.500898  1
  La  La1  1  0.499124  0.499434  0.999102  1
  La  La2  1  0.999196  0.531665  0.250000  1
  Nd  Nd3  1  0.000588  0.464144  0.750000  1
  Nd  Nd4  1  0.535014  0.999453  0.750000  1
  Nd  Nd5  1  0.464685  0.000206  0.250000  1
  Ta  Ta6  1  0.999837  0.999201  0.500764  1
  Ta  Ta7  1  0.999837  0.999201  0.999236  1
  O  O8  1  0.941999  0.056398  0.750000  1
  O  O9  1  0.055881  0.947755  0.250000  1
  O  O10  1  0.365288  0.635910  0.250000  1
  O  O11  1  0.635987  0.362936  0.750000  1
  O  O12  1  0.369783  0.631161  0.750000  1
  O  O13  1  0.626804  0.367531  0.250000  1
  O  O14  1  0.312015  0.064622  0.970557  1
  O  O15  1  0.688468  0.935240  0.469974  1
  O  O16  1  0.312015  0.064622  0.529443  1
  O  O17  1  0.688468  0.935240  0.030026  1
  O  O18  1  0.069215  0.312811  0.474611  1
  O  O19  1  0.933729  0.690112  0.967453  1
  O  O20  1  0.933729  0.690112  0.532547  1
  O  O21  1  0.069215  0.312811  0.025389  1
