# generated using pymatgen
data_Yb4OsRu7
_symmetry_space_group_name_H-M   'P 1'
_cell_length_a   5.23236812
_cell_length_b   5.32143124
_cell_length_c   8.76452600
_cell_angle_alpha   90.00000000
_cell_angle_beta   90.00000000
_cell_angle_gamma   120.56468430
_symmetry_Int_Tables_number   1
_chemical_formula_structural   Yb4OsRu7
_chemical_formula_sum   'Yb4 Os1 Ru7'
_cell_volume   210.12919057
_cell_formula_units_Z   1
loop_
 _symmetry_equiv_pos_site_id
 _symmetry_equiv_pos_as_xyz
  1  'x, y, z'
loop_
 _atom_site_type_symbol
 _atom_site_label
 _atom_site_symmetry_multiplicity
 _atom_site_fract_x
 _atom_site_fract_y
 _atom_site_fract_z
 _atom_site_occupancy
  Yb  Yb0  1  0.329216  0.664608  0.433901  1
  Yb  Yb1  1  0.664428  0.332214  0.564689  1
  Yb  Yb2  1  0.664428  0.332214  0.935311  1
  Yb  Yb3  1  0.329216  0.664608  0.066099  1
  Os  Os4  1  0.666584  0.833292  0.750000  1
  Ru  Ru5  1  0.980746  0.990373  0.500728  1
  Ru  Ru6  1  0.980746  0.990373  0.999272  1
  Ru  Ru7  1  0.830725  0.167143  0.250000  1
  Ru  Ru8  1  0.830725  0.663582  0.250000  1
  Ru  Ru9  1  0.356481  0.178240  0.250000  1
  Ru  Ru10  1  0.183352  0.834639  0.750000  1
  Ru  Ru11  1  0.183352  0.348714  0.750000  1
