# generated using pymatgen
data_LiY8Si16Tc11
_symmetry_space_group_name_H-M   'P 1'
_cell_length_a   6.79482303
_cell_length_b   6.80123313
_cell_length_c   12.72172300
_cell_angle_alpha   89.61280678
_cell_angle_beta   90.30303188
_cell_angle_gamma   90.28309726
_symmetry_Int_Tables_number   1
_chemical_formula_structural   LiY8Si16Tc11
_chemical_formula_sum   'Li1 Y8 Si16 Tc11'
_cell_volume   587.88249772
_cell_formula_units_Z   1
loop_
 _symmetry_equiv_pos_site_id
 _symmetry_equiv_pos_as_xyz
  1  'x, y, z'
loop_
 _atom_site_type_symbol
 _atom_site_label
 _atom_site_symmetry_multiplicity
 _atom_site_fract_x
 _atom_site_fract_y
 _atom_site_fract_z
 _atom_site_occupancy
  Li  Li0  1  0.688882  0.495206  0.873226  1
  Y  Y1  1  0.003736  0.660215  0.031929  1
  Y  Y2  1  0.997625  0.338376  0.530352  1
  Y  Y3  1  0.661024  0.002908  0.969266  1
  Y  Y4  1  0.158209  0.494915  0.781213  1
  Y  Y5  1  0.832919  0.506569  0.280705  1
  Y  Y6  1  0.492492  0.162426  0.219076  1
  Y  Y7  1  0.506404  0.832684  0.719428  1
  Y  Y8  1  0.336477  0.998695  0.469748  1
  Si  Si9  1  0.023653  0.724482  0.434777  1
  Si  Si10  1  0.987140  0.264541  0.939250  1
  Si  Si11  1  0.720936  0.025615  0.564515  1
  Si  Si12  1  0.217318  0.476399  0.188709  1
  Si  Si13  1  0.777451  0.526407  0.680793  1
  Si  Si14  1  0.471078  0.219445  0.812248  1
  Si  Si15  1  0.522899  0.782635  0.316729  1
  Si  Si16  1  0.267947  0.976868  0.061892  1
  Si  Si17  1  0.805534  0.887133  0.186898  1
  Si  Si18  1  0.305384  0.619533  0.562268  1
  Si  Si19  1  0.690726  0.388044  0.063536  1
  Si  Si20  1  0.618027  0.306815  0.437892  1
  Si  Si21  1  0.390592  0.690764  0.941771  1
  Si  Si22  1  0.114922  0.194693  0.314265  1
  Si  Si23  1  0.196060  0.115488  0.687084  1
  Si  Si24  1  0.883429  0.813520  0.809032  1
  Tc  Tc25  1  0.326414  0.482366  0.378448  1
  Tc  Tc26  1  0.818337  0.021752  0.374471  1
  Tc  Tc27  1  0.985809  0.187980  0.132676  1
  Tc  Tc28  1  0.020117  0.824463  0.622844  1
  Tc  Tc29  1  0.479755  0.327435  0.621661  1
  Tc  Tc30  1  0.189179  0.977100  0.869673  1
  Tc  Tc31  1  0.666664  0.667642  0.497961  1
  Tc  Tc32  1  0.836894  0.163303  0.746644  1
  Tc  Tc33  1  0.159625  0.836102  0.253113  1
  Tc  Tc34  1  0.337125  0.331884  0.995524  1
  Tc  Tc35  1  0.509216  0.675598  0.130378  1
