# generated using pymatgen
data_PrSm11(Si7Br3)2
_symmetry_space_group_name_H-M   'P 1'
_cell_length_a   4.04764900
_cell_length_b   11.61823111
_cell_length_c   16.33180136
_cell_angle_alpha   90.22840678
_cell_angle_beta   90.00000000
_cell_angle_gamma   90.00000000
_symmetry_Int_Tables_number   1
_chemical_formula_structural   PrSm11(Si7Br3)2
_chemical_formula_sum   'Pr1 Sm11 Si14 Br6'
_cell_volume   768.02170550
_cell_formula_units_Z   1
loop_
 _symmetry_equiv_pos_site_id
 _symmetry_equiv_pos_as_xyz
  1  'x, y, z'
loop_
 _atom_site_type_symbol
 _atom_site_label
 _atom_site_symmetry_multiplicity
 _atom_site_fract_x
 _atom_site_fract_y
 _atom_site_fract_z
 _atom_site_occupancy
  Pr  Pr0  1  0.000000  0.936883  0.379536  1
  Sm  Sm1  1  0.500000  0.342837  0.499994  1
  Sm  Sm2  1  0.000000  0.657631  0.000358  1
  Sm  Sm3  1  0.500000  0.359846  0.757347  1
  Sm  Sm4  1  0.000000  0.639714  0.743207  1
  Sm  Sm5  1  0.500000  0.360795  0.241934  1
  Sm  Sm6  1  0.000000  0.639373  0.257599  1
  Sm  Sm7  1  0.500000  0.065123  0.880092  1
  Sm  Sm8  1  0.000000  0.934289  0.620627  1
  Sm  Sm9  1  0.500000  0.065454  0.118980  1
  Sm  Sm10  1  0.500000  0.354903  0.999773  1
  Sm  Sm11  1  0.000000  0.644096  0.500662  1
  Si  Si12  1  0.000000  0.148610  0.999602  1
  Si  Si13  1  0.500000  0.849561  0.501260  1
  Si  Si14  1  0.500000  0.570183  0.876435  1
  Si  Si15  1  0.000000  0.429462  0.624161  1
  Si  Si16  1  0.500000  0.570581  0.123682  1
  Si  Si17  1  0.000000  0.429187  0.376143  1
  Si  Si18  1  0.000000  0.251863  0.872042  1
  Si  Si19  1  0.500000  0.747471  0.628679  1
  Si  Si20  1  0.000000  0.252129  0.127263  1
  Si  Si21  1  0.500000  0.746068  0.373077  1
  Si  Si22  1  0.000000  0.458330  0.877030  1
  Si  Si23  1  0.500000  0.541190  0.623317  1
  Si  Si24  1  0.500000  0.540720  0.377381  1
  Si  Si25  1  0.000000  0.458683  0.122555  1
  Br  Br26  1  0.500000  0.108467  0.693291  1
  Br  Br27  1  0.000000  0.891031  0.807383  1
  Br  Br28  1  0.000000  0.141860  0.502261  1
  Br  Br29  1  0.500000  0.859990  0.999185  1
  Br  Br30  1  0.500000  0.113821  0.305014  1
  Br  Br31  1  0.000000  0.889848  0.190132  1
