# generated using pymatgen
data_YbPr4Dy2CoI12
_symmetry_space_group_name_H-M   'P 1'
_cell_length_a   9.86618378
_cell_length_b   10.06632038
_cell_length_c   9.94281394
_cell_angle_alpha   106.61831110
_cell_angle_beta   107.04533575
_cell_angle_gamma   107.21187065
_symmetry_Int_Tables_number   1
_chemical_formula_structural   YbPr4Dy2CoI12
_chemical_formula_sum   'Yb1 Pr4 Dy2 Co1 I12'
_cell_volume   823.29551594
_cell_formula_units_Z   1
loop_
 _symmetry_equiv_pos_site_id
 _symmetry_equiv_pos_as_xyz
  1  'x, y, z'
loop_
 _atom_site_type_symbol
 _atom_site_label
 _atom_site_symmetry_multiplicity
 _atom_site_fract_x
 _atom_site_fract_y
 _atom_site_fract_z
 _atom_site_occupancy
  Yb  Yb0  1  0.500000  0.500000  0.500000  1
  Pr  Pr1  1  0.100860  0.303623  0.023275  1
  Pr  Pr2  1  0.289887  0.025441  0.095148  1
  Pr  Pr3  1  0.899140  0.696377  0.976725  1
  Pr  Pr4  1  0.710113  0.974559  0.904852  1
  Dy  Dy5  1  0.974330  0.902859  0.704080  1
  Dy  Dy6  1  0.025670  0.097141  0.295920  1
  Co  Co7  1  0.000000  0.000000  0.000000  1
  I  I8  1  0.532148  0.614732  0.838987  1
  I  I9  1  0.467852  0.385268  0.161013  1
  I  I10  1  0.310589  0.925149  0.768469  1
  I  I11  1  0.376601  0.158691  0.462561  1
  I  I12  1  0.932349  0.787051  0.328875  1
  I  I13  1  0.689411  0.074851  0.231531  1
  I  I14  1  0.067651  0.212949  0.671125  1
  I  I15  1  0.769806  0.318550  0.925239  1
  I  I16  1  0.230194  0.681450  0.074761  1
  I  I17  1  0.847579  0.547875  0.616995  1
  I  I18  1  0.152421  0.452125  0.383005  1
  I  I19  1  0.623399  0.841309  0.537439  1
