# generated using pymatgen
data_Y3Zr(MoN2)4
_symmetry_space_group_name_H-M   'P 1'
_cell_length_a   3.17901800
_cell_length_b   5.68822963
_cell_length_c   10.58870121
_cell_angle_alpha   90.25983437
_cell_angle_beta   90.00000000
_cell_angle_gamma   90.00000000
_symmetry_Int_Tables_number   1
_chemical_formula_structural   Y3Zr(MoN2)4
_chemical_formula_sum   'Y3 Zr1 Mo4 N8'
_cell_volume   191.47334963
_cell_formula_units_Z   1
loop_
 _symmetry_equiv_pos_site_id
 _symmetry_equiv_pos_as_xyz
  1  'x, y, z'
loop_
 _atom_site_type_symbol
 _atom_site_label
 _atom_site_symmetry_multiplicity
 _atom_site_fract_x
 _atom_site_fract_y
 _atom_site_fract_z
 _atom_site_occupancy
  Y  Y0  1  0.250000  0.581126  0.647489  1
  Y  Y1  1  0.750000  0.919024  0.146857  1
  Y  Y2  1  0.750000  0.419950  0.352231  1
  Zr  Zr3  1  0.250000  0.081832  0.849531  1
  Mo  Mo4  1  0.250000  0.430583  0.091191  1
  Mo  Mo5  1  0.250000  0.932292  0.406500  1
  Mo  Mo6  1  0.750000  0.564621  0.909158  1
  Mo  Mo7  1  0.750000  0.069734  0.594075  1
  N  N8  1  0.250000  0.166692  0.246823  1
  N  N9  1  0.250000  0.663156  0.248825  1
  N  N10  1  0.750000  0.847821  0.759053  1
  N  N11  1  0.750000  0.324430  0.754164  1
  N  N12  1  0.250000  0.766011  0.989321  1
  N  N13  1  0.250000  0.258454  0.507936  1
  N  N14  1  0.750000  0.233796  0.000486  1
  N  N15  1  0.750000  0.740478  0.496359  1
