# generated using pymatgen
data_Y3HoAl4(Ga7Ir3)2
_symmetry_space_group_name_H-M   'P 1'
_cell_length_a   7.57188209
_cell_length_b   7.57293786
_cell_length_c   9.52016600
_cell_angle_alpha   90.00000000
_cell_angle_beta   90.00000000
_cell_angle_gamma   119.75930196
_symmetry_Int_Tables_number   1
_chemical_formula_structural   Y3HoAl4(Ga7Ir3)2
_chemical_formula_sum   'Y3 Ho1 Al4 Ga14 Ir6'
_cell_volume   473.90537993
_cell_formula_units_Z   1
loop_
 _symmetry_equiv_pos_site_id
 _symmetry_equiv_pos_as_xyz
  1  'x, y, z'
loop_
 _atom_site_type_symbol
 _atom_site_label
 _atom_site_symmetry_multiplicity
 _atom_site_fract_x
 _atom_site_fract_y
 _atom_site_fract_z
 _atom_site_occupancy
  Y  Y0  1  0.000453  0.669246  0.250000  1
  Y  Y1  1  0.999556  0.330746  0.750000  1
  Y  Y2  1  0.669258  0.000457  0.250000  1
  Ho  Ho3  1  0.330714  0.999380  0.750000  1
  Al  Al4  1  0.332147  0.331978  0.553820  1
  Al  Al5  1  0.667860  0.667862  0.446342  1
  Al  Al6  1  0.667860  0.667862  0.053658  1
  Al  Al7  1  0.332147  0.331978  0.946180  1
  Ga  Ga8  1  0.126545  0.126543  0.250000  1
  Ga  Ga9  1  0.873709  0.873499  0.750000  1
  Ga  Ga10  1  0.000381  0.335031  0.079236  1
  Ga  Ga11  1  0.999875  0.665231  0.920581  1
  Ga  Ga12  1  0.999875  0.665231  0.579419  1
  Ga  Ga13  1  0.335026  0.000381  0.420957  1
  Ga  Ga14  1  0.000381  0.335031  0.420764  1
  Ga  Ga15  1  0.664715  0.999620  0.579426  1
  Ga  Ga16  1  0.664715  0.999620  0.920574  1
  Ga  Ga17  1  0.335026  0.000381  0.079043  1
  Ga  Ga18  1  0.345681  0.548999  0.250000  1
  Ga  Ga19  1  0.654027  0.450678  0.750000  1
  Ga  Ga20  1  0.548984  0.345662  0.250000  1
  Ga  Ga21  1  0.450980  0.654501  0.750000  1
  Ir  Ir22  1  0.669346  0.330500  0.999914  1
  Ir  Ir23  1  0.330566  0.669516  0.999902  1
  Ir  Ir24  1  0.330566  0.669516  0.500098  1
  Ir  Ir25  1  0.669346  0.330500  0.500086  1
  Ir  Ir26  1  0.000130  0.000026  0.999890  1
  Ir  Ir27  1  0.000130  0.000026  0.500110  1
