# generated using pymatgen
data_Sm3HoTm2(Si3Ru)8
_symmetry_space_group_name_H-M   'P 1'
_cell_length_a   10.11769695
_cell_length_b   10.11769662
_cell_length_c   8.16088708
_cell_angle_alpha   90.10559371
_cell_angle_beta   89.89440288
_cell_angle_gamma   132.46121562
_symmetry_Int_Tables_number   1
_chemical_formula_structural   Sm3HoTm2(Si3Ru)8
_chemical_formula_sum   'Sm3 Ho1 Tm2 Si24 Ru8'
_cell_volume   616.31096286
_cell_formula_units_Z   1
loop_
 _symmetry_equiv_pos_site_id
 _symmetry_equiv_pos_as_xyz
  1  'x, y, z'
loop_
 _atom_site_type_symbol
 _atom_site_label
 _atom_site_symmetry_multiplicity
 _atom_site_fract_x
 _atom_site_fract_y
 _atom_site_fract_z
 _atom_site_occupancy
  Sm  Sm0  1  0.502585  0.002585  0.750000  1
  Sm  Sm1  1  0.997463  0.497463  0.250000  1
  Sm  Sm2  1  0.496884  0.996884  0.250000  1
  Ho  Ho3  1  0.002459  0.502459  0.750000  1
  Tm  Tm4  1  0.499985  0.499996  0.500100  1
  Tm  Tm5  1  0.999996  0.999985  0.999900  1
  Si  Si6  1  0.795514  0.206159  0.501321  1
  Si  Si7  1  0.293690  0.704245  0.998794  1
  Si  Si8  1  0.204245  0.793690  0.501206  1
  Si  Si9  1  0.706159  0.295514  0.998679  1
  Si  Si10  1  0.332235  0.332030  0.833045  1
  Si  Si11  1  0.667723  0.667870  0.167139  1
  Si  Si12  1  0.167870  0.167723  0.332861  1
  Si  Si13  1  0.832030  0.832235  0.666955  1
  Si  Si14  1  0.120978  0.887910  0.727916  1
  Si  Si15  1  0.113090  0.879683  0.270943  1
  Si  Si16  1  0.611083  0.377396  0.228585  1
  Si  Si17  1  0.621599  0.388284  0.771394  1
  Si  Si18  1  0.877396  0.111083  0.271415  1
  Si  Si19  1  0.888284  0.121599  0.728606  1
  Si  Si20  1  0.387910  0.620978  0.772084  1
  Si  Si21  1  0.379683  0.613090  0.229057  1
  Si  Si22  1  0.346025  0.112810  0.504809  1
  Si  Si23  1  0.888110  0.656283  0.496572  1
  Si  Si24  1  0.387066  0.153917  0.005057  1
  Si  Si25  1  0.844239  0.611972  0.994103  1
  Si  Si26  1  0.653917  0.887066  0.494943  1
  Si  Si27  1  0.111972  0.344239  0.505897  1
  Si  Si28  1  0.612810  0.846025  0.995191  1
  Si  Si29  1  0.156283  0.388110  0.003428  1
  Ru  Ru30  1  0.670465  0.334981  0.500686  1
  Ru  Ru31  1  0.165182  0.829593  0.997932  1
  Ru  Ru32  1  0.329593  0.665182  0.502068  1
  Ru  Ru33  1  0.834981  0.170465  0.999314  1
  Ru  Ru34  1  0.125984  0.125805  0.626738  1
  Ru  Ru35  1  0.874273  0.874433  0.372934  1
  Ru  Ru36  1  0.374433  0.374273  0.127066  1
  Ru  Ru37  1  0.625805  0.625984  0.873262  1
