# generated using pymatgen
data_Lu16Al4Ir3Ru
_symmetry_space_group_name_H-M   'P 1'
_cell_length_a   9.34191887
_cell_length_b   9.34186048
_cell_length_c   9.34150917
_cell_angle_alpha   60.01908736
_cell_angle_beta   60.01915563
_cell_angle_gamma   60.02110806
_symmetry_Int_Tables_number   1
_chemical_formula_structural   Lu16Al4Ir3Ru
_chemical_formula_sum   'Lu16 Al4 Ir3 Ru1'
_cell_volume   576.72163944
_cell_formula_units_Z   1
loop_
 _symmetry_equiv_pos_site_id
 _symmetry_equiv_pos_as_xyz
  1  'x, y, z'
loop_
 _atom_site_type_symbol
 _atom_site_label
 _atom_site_symmetry_multiplicity
 _atom_site_fract_x
 _atom_site_fract_y
 _atom_site_fract_z
 _atom_site_occupancy
  Lu  Lu0  1  0.352902  0.352898  0.352898  1
  Lu  Lu1  1  0.352269  0.352285  0.942075  1
  Lu  Lu2  1  0.352293  0.942058  0.352269  1
  Lu  Lu3  1  0.942074  0.352281  0.352267  1
  Lu  Lu4  1  0.806254  0.195016  0.194986  1
  Lu  Lu5  1  0.195535  0.804591  0.804599  1
  Lu  Lu6  1  0.194987  0.806262  0.194977  1
  Lu  Lu7  1  0.804572  0.195544  0.804602  1
  Lu  Lu8  1  0.194987  0.194992  0.806273  1
  Lu  Lu9  1  0.804594  0.804566  0.195530  1
  Lu  Lu10  1  0.938297  0.561472  0.561456  1
  Lu  Lu11  1  0.560270  0.938953  0.938952  1
  Lu  Lu12  1  0.561484  0.938289  0.561471  1
  Lu  Lu13  1  0.938963  0.560251  0.938976  1
  Lu  Lu14  1  0.561453  0.561465  0.938304  1
  Lu  Lu15  1  0.938952  0.938967  0.560269  1
  Al  Al16  1  0.578641  0.578633  0.578644  1
  Al  Al17  1  0.578723  0.578720  0.263838  1
  Al  Al18  1  0.578724  0.263839  0.578723  1
  Al  Al19  1  0.263842  0.578720  0.578723  1
  Ir  Ir20  1  0.141593  0.141610  0.575704  1
  Ir  Ir21  1  0.141606  0.575698  0.141594  1
  Ir  Ir22  1  0.575713  0.141607  0.141597  1
  Ru  Ru23  1  0.141268  0.141282  0.141273  1
