# generated using pymatgen
data_Li6NpO6
_symmetry_space_group_name_H-M   'P 1'
_cell_length_a   5.43913408
_cell_length_b   5.43913323
_cell_length_c   5.43913376
_cell_angle_alpha   100.86928112
_cell_angle_beta   100.86927859
_cell_angle_gamma   100.86928954
_symmetry_Int_Tables_number   1
_chemical_formula_structural   Li6NpO6
_chemical_formula_sum   'Li6 Np1 O6'
_cell_volume   150.94180015
_cell_formula_units_Z   1
loop_
 _symmetry_equiv_pos_site_id
 _symmetry_equiv_pos_as_xyz
  1  'x, y, z'
loop_
 _atom_site_type_symbol
 _atom_site_label
 _atom_site_symmetry_multiplicity
 _atom_site_fract_x
 _atom_site_fract_y
 _atom_site_fract_z
 _atom_site_occupancy
  Li  Li0  1  0.353819  0.646181  0.000000  1
  Li  Li1  1  0.646181  0.353819  0.000000  1
  Li  Li2  1  0.000000  0.646181  0.353819  1
  Li  Li3  1  0.353819  0.000000  0.646181  1
  Li  Li4  1  0.000000  0.353819  0.646181  1
  Li  Li5  1  0.646181  0.000000  0.353819  1
  Np  Np6  1  0.000000  0.000000  0.000000  1
  O  O7  1  0.731269  0.099829  0.731269  1
  O  O8  1  0.268731  0.900171  0.268731  1
  O  O9  1  0.268731  0.268731  0.900171  1
  O  O10  1  0.900171  0.268731  0.268731  1
  O  O11  1  0.731269  0.731269  0.099829  1
  O  O12  1  0.099829  0.731269  0.731269  1
