# generated using pymatgen
data_Co2Re4TcRu
_symmetry_space_group_name_H-M   'P 1'
_cell_length_a   5.40120900
_cell_length_b   5.41057524
_cell_length_c   4.31204000
_cell_angle_alpha   90.00000000
_cell_angle_beta   90.00000000
_cell_angle_gamma   119.94275833
_symmetry_Int_Tables_number   1
_chemical_formula_structural   Co2Re4TcRu
_chemical_formula_sum   'Co2 Re4 Tc1 Ru1'
_cell_volume   109.19381768
_cell_formula_units_Z   1
loop_
 _symmetry_equiv_pos_site_id
 _symmetry_equiv_pos_as_xyz
  1  'x, y, z'
loop_
 _atom_site_type_symbol
 _atom_site_label
 _atom_site_symmetry_multiplicity
 _atom_site_fract_x
 _atom_site_fract_y
 _atom_site_fract_z
 _atom_site_occupancy
  Co  Co0  1  0.332671  0.665343  0.750000  1
  Co  Co1  1  0.663429  0.326857  0.250000  1
  Re  Re2  1  0.664002  0.832052  0.250000  1
  Re  Re3  1  0.168048  0.832052  0.250000  1
  Re  Re4  1  0.335701  0.169435  0.750000  1
  Re  Re5  1  0.833735  0.169435  0.750000  1
  Tc  Tc6  1  0.833507  0.667013  0.750000  1
  Ru  Ru7  1  0.168907  0.337815  0.250000  1
