# generated using pymatgen
data_Tb3Ho2Er(Si3Ru)8
_symmetry_space_group_name_H-M   'P 1'
_cell_length_a   10.11803730
_cell_length_b   10.11778050
_cell_length_c   8.14259806
_cell_angle_alpha   90.07714598
_cell_angle_beta   89.92716725
_cell_angle_gamma   132.57065927
_symmetry_Int_Tables_number   1
_chemical_formula_structural   Tb3Ho2Er(Si3Ru)8
_chemical_formula_sum   'Tb3 Ho2 Er1 Si24 Ru8'
_cell_volume   613.88013750
_cell_formula_units_Z   1
loop_
 _symmetry_equiv_pos_site_id
 _symmetry_equiv_pos_as_xyz
  1  'x, y, z'
loop_
 _atom_site_type_symbol
 _atom_site_label
 _atom_site_symmetry_multiplicity
 _atom_site_fract_x
 _atom_site_fract_y
 _atom_site_fract_z
 _atom_site_occupancy
  Tb  Tb0  1  0.502442  0.002431  0.749970  1
  Tb  Tb1  1  0.997589  0.497578  0.250019  1
  Tb  Tb2  1  0.497197  0.997201  0.250022  1
  Ho  Ho3  1  0.000049  0.999960  0.999976  1
  Ho  Ho4  1  0.002640  0.502648  0.749978  1
  Er  Er5  1  0.499934  0.500078  0.500078  1
  Si  Si6  1  0.794274  0.205242  0.500472  1
  Si  Si7  1  0.294748  0.705613  0.999843  1
  Si  Si8  1  0.205624  0.794752  0.500129  1
  Si  Si9  1  0.705255  0.294284  0.999546  1
  Si  Si10  1  0.332567  0.332323  0.833000  1
  Si  Si11  1  0.667467  0.667640  0.167090  1
  Si  Si12  1  0.167782  0.167621  0.333077  1
  Si  Si13  1  0.832182  0.832405  0.666832  1
  Si  Si14  1  0.122007  0.887869  0.727803  1
  Si  Si15  1  0.113759  0.879396  0.271310  1
  Si  Si16  1  0.611286  0.376979  0.228471  1
  Si  Si17  1  0.621246  0.387303  0.771530  1
  Si  Si18  1  0.877011  0.111378  0.271633  1
  Si  Si19  1  0.887230  0.121253  0.728353  1
  Si  Si20  1  0.387976  0.622045  0.772084  1
  Si  Si21  1  0.379418  0.613689  0.228800  1
  Si  Si22  1  0.346182  0.112337  0.504648  1
  Si  Si23  1  0.888675  0.655968  0.496183  1
  Si  Si24  1  0.387748  0.153796  0.005213  1
  Si  Si25  1  0.844186  0.611241  0.994953  1
  Si  Si26  1  0.653744  0.887642  0.494795  1
  Si  Si27  1  0.111349  0.344239  0.505044  1
  Si  Si28  1  0.612234  0.846120  0.995352  1
  Si  Si29  1  0.156020  0.388780  0.003825  1
  Ru  Ru30  1  0.670788  0.333499  0.500273  1
  Ru  Ru31  1  0.166620  0.829074  0.998771  1
  Ru  Ru32  1  0.329182  0.666515  0.501234  1
  Ru  Ru33  1  0.833383  0.170899  0.999699  1
  Ru  Ru34  1  0.126433  0.126131  0.626828  1
  Ru  Ru35  1  0.873906  0.873741  0.373006  1
  Ru  Ru36  1  0.373953  0.374104  0.127269  1
  Ru  Ru37  1  0.625910  0.626227  0.872891  1
