# generated using pymatgen
data_Zr10AlSi(BiPb)3
_symmetry_space_group_name_H-M   'P 1'
_cell_length_a   8.86168600
_cell_length_b   8.86168620
_cell_length_c   5.97249300
_cell_angle_alpha   90.00000000
_cell_angle_beta   90.00000000
_cell_angle_gamma   119.99999180
_symmetry_Int_Tables_number   1
_chemical_formula_structural   Zr10AlSi(BiPb)3
_chemical_formula_sum   'Zr10 Al1 Si1 Bi3 Pb3'
_cell_volume   406.18047340
_cell_formula_units_Z   1
loop_
 _symmetry_equiv_pos_site_id
 _symmetry_equiv_pos_as_xyz
  1  'x, y, z'
loop_
 _atom_site_type_symbol
 _atom_site_label
 _atom_site_symmetry_multiplicity
 _atom_site_fract_x
 _atom_site_fract_y
 _atom_site_fract_z
 _atom_site_occupancy
  Zr  Zr0  1  0.666667  0.333333  0.002855  1
  Zr  Zr1  1  0.333333  0.666667  0.002855  1
  Zr  Zr2  1  0.333333  0.666667  0.497702  1
  Zr  Zr3  1  0.666667  0.333333  0.497702  1
  Zr  Zr4  1  0.741852  0.741852  0.758209  1
  Zr  Zr5  1  0.258148  0.000000  0.758209  1
  Zr  Zr6  1  0.000000  0.258148  0.758209  1
  Zr  Zr7  1  0.263370  0.263370  0.241757  1
  Zr  Zr8  1  0.736630  0.000000  0.241757  1
  Zr  Zr9  1  0.000000  0.736630  0.241757  1
  Al  Al10  1  0.000000  0.000000  0.496168  1
  Si  Si11  1  0.000000  0.000000  0.002857  1
  Bi  Bi12  1  0.393926  0.393926  0.747916  1
  Bi  Bi13  1  0.606074  0.000000  0.747916  1
  Bi  Bi14  1  0.000000  0.606074  0.747916  1
  Pb  Pb15  1  0.612570  0.612570  0.252071  1
  Pb  Pb16  1  0.387430  0.000000  0.252071  1
  Pb  Pb17  1  0.000000  0.387430  0.252071  1
