# generated using pymatgen
data_Ho5Tm11In4Pt3Rh
_symmetry_space_group_name_H-M   'P 1'
_cell_length_a   9.59281441
_cell_length_b   9.58416307
_cell_length_c   9.60664773
_cell_angle_alpha   60.14299897
_cell_angle_beta   60.08683661
_cell_angle_gamma   60.02701714
_symmetry_Int_Tables_number   1
_chemical_formula_structural   Ho5Tm11In4Pt3Rh
_chemical_formula_sum   'Ho5 Tm11 In4 Pt3 Rh1'
_cell_volume   625.74585435
_cell_formula_units_Z   1
loop_
 _symmetry_equiv_pos_site_id
 _symmetry_equiv_pos_as_xyz
  1  'x, y, z'
loop_
 _atom_site_type_symbol
 _atom_site_label
 _atom_site_symmetry_multiplicity
 _atom_site_fract_x
 _atom_site_fract_y
 _atom_site_fract_z
 _atom_site_occupancy
  Ho  Ho0  1  0.061724  0.061032  0.438580  1
  Ho  Ho1  1  0.436326  0.064345  0.436557  1
  Ho  Ho2  1  0.062010  0.437519  0.062174  1
  Ho  Ho3  1  0.053174  0.646769  0.649803  1
  Ho  Ho4  1  0.436679  0.435416  0.064358  1
  Tm  Tm5  1  0.648093  0.056814  0.647067  1
  Tm  Tm6  1  0.190464  0.808642  0.190015  1
  Tm  Tm7  1  0.187184  0.192539  0.809572  1
  Tm  Tm8  1  0.809681  0.810014  0.190036  1
  Tm  Tm9  1  0.441344  0.058154  0.059173  1
  Tm  Tm10  1  0.809503  0.192868  0.187004  1
  Tm  Tm11  1  0.062376  0.436911  0.438405  1
  Tm  Tm12  1  0.811180  0.191397  0.810413  1
  Tm  Tm13  1  0.189434  0.810845  0.809882  1
  Tm  Tm14  1  0.649832  0.645623  0.053164  1
  Tm  Tm15  1  0.651625  0.648390  0.652717  1
  In  In16  1  0.416394  0.416381  0.415801  1
  In  In17  1  0.749046  0.418040  0.416773  1
  In  In18  1  0.418009  0.749031  0.416233  1
  In  In19  1  0.417805  0.416193  0.749649  1
  Pt  Pt20  1  0.857416  0.859104  0.426813  1
  Pt  Pt21  1  0.854681  0.858192  0.857973  1
  Pt  Pt22  1  0.427905  0.859363  0.858528  1
  Rh  Rh23  1  0.858113  0.426419  0.859308  1
