# generated using pymatgen
data_Sr2ScV3O11
_symmetry_space_group_name_H-M   'P 1'
_cell_length_a   6.99857144
_cell_length_b   7.03600115
_cell_length_c   10.11945497
_cell_angle_alpha   100.99894888
_cell_angle_beta   94.52370052
_cell_angle_gamma   95.48316655
_symmetry_Int_Tables_number   1
_chemical_formula_structural   Sr2ScV3O11
_chemical_formula_sum   'Sr4 Sc2 V6 O22'
_cell_volume   484.49998438
_cell_formula_units_Z   2
loop_
 _symmetry_equiv_pos_site_id
 _symmetry_equiv_pos_as_xyz
  1  'x, y, z'
loop_
 _atom_site_type_symbol
 _atom_site_label
 _atom_site_symmetry_multiplicity
 _atom_site_fract_x
 _atom_site_fract_y
 _atom_site_fract_z
 _atom_site_occupancy
  Sr  Sr0  1  0.648822  0.249441  0.971943  1
  Sr  Sr1  1  0.351178  0.750559  0.028057  1
  Sr  Sr2  1  0.322263  0.401375  0.631978  1
  Sr  Sr3  1  0.677737  0.598625  0.368022  1
  Sc  Sc4  1  0.875126  0.036048  0.640343  1
  Sc  Sc5  1  0.124874  0.963952  0.359657  1
  V  V6  1  0.624673  0.118068  0.355987  1
  V  V7  1  0.375327  0.881932  0.644013  1
  V  V8  1  0.159006  0.232384  0.961241  1
  V  V9  1  0.840994  0.767616  0.038759  1
  V  V10  1  0.141827  0.442302  0.266858  1
  V  V11  1  0.858173  0.557698  0.733142  1
  O  O12  1  0.958193  0.352710  0.656093  1
  O  O13  1  0.041807  0.647290  0.343907  1
  O  O14  1  0.020257  0.346299  0.095905  1
  O  O15  1  0.979743  0.653701  0.904095  1
  O  O16  1  0.418596  0.695355  0.520454  1
  O  O17  1  0.581404  0.304645  0.479546  1
  O  O18  1  0.696482  0.233990  0.233109  1
  O  O19  1  0.303518  0.766010  0.766891  1
  O  O20  1  0.977920  0.104031  0.841934  1
  O  O21  1  0.022080  0.895969  0.158066  1
  O  O22  1  0.680694  0.909234  0.985626  1
  O  O23  1  0.319306  0.090766  0.014374  1
  O  O24  1  0.589434  0.044485  0.696835  1
  O  O25  1  0.410566  0.955515  0.303165  1
  O  O26  1  0.182633  0.012588  0.576971  1
  O  O27  1  0.817367  0.987412  0.423029  1
  O  O28  1  0.301463  0.396401  0.895756  1
  O  O29  1  0.698537  0.603599  0.104244  1
  O  O30  1  0.639687  0.481589  0.774189  1
  O  O31  1  0.360313  0.518411  0.225811  1
  O  O32  1  0.846933  0.731588  0.630620  1
  O  O33  1  0.153067  0.268412  0.369380  1
