# generated using pymatgen
data_Er4Mn2CoRu5
_symmetry_space_group_name_H-M   'P 1'
_cell_length_a   5.22637167
_cell_length_b   5.17500491
_cell_length_c   8.82200000
_cell_angle_alpha   90.00000000
_cell_angle_beta   90.00000000
_cell_angle_gamma   120.49292666
_symmetry_Int_Tables_number   1
_chemical_formula_structural   Er4Mn2CoRu5
_chemical_formula_sum   'Er4 Mn2 Co1 Ru5'
_cell_volume   205.60329781
_cell_formula_units_Z   1
loop_
 _symmetry_equiv_pos_site_id
 _symmetry_equiv_pos_as_xyz
  1  'x, y, z'
loop_
 _atom_site_type_symbol
 _atom_site_label
 _atom_site_symmetry_multiplicity
 _atom_site_fract_x
 _atom_site_fract_y
 _atom_site_fract_z
 _atom_site_occupancy
  Er  Er0  1  0.330950  0.665726  0.436945  1
  Er  Er1  1  0.665726  0.333609  0.567239  1
  Er  Er2  1  0.665726  0.333609  0.932761  1
  Er  Er3  1  0.330950  0.665726  0.063055  1
  Mn  Mn4  1  0.172793  0.340876  0.750000  1
  Mn  Mn5  1  0.335649  0.167610  0.250000  1
  Co  Co6  1  0.174002  0.828997  0.750000  1
  Ru  Ru7  1  0.829213  0.659670  0.250000  1
  Ru  Ru8  1  0.660396  0.829072  0.750000  1
  Ru  Ru9  1  0.002677  0.001594  0.995705  1
  Ru  Ru10  1  0.829240  0.171920  0.250000  1
  Ru  Ru11  1  0.002677  0.001594  0.504295  1
