# generated using pymatgen
data_Dy3HoLu12(CdNi)4
_symmetry_space_group_name_H-M   'P 1'
_cell_length_a   9.39206708
_cell_length_b   9.39206815
_cell_length_c   9.39206659
_cell_angle_alpha   60.02254078
_cell_angle_beta   60.02253396
_cell_angle_gamma   60.02254353
_symmetry_Int_Tables_number   1
_chemical_formula_structural   Dy3HoLu12(CdNi)4
_chemical_formula_sum   'Dy3 Ho1 Lu12 Cd4 Ni4'
_cell_volume   586.12525349
_cell_formula_units_Z   1
loop_
 _symmetry_equiv_pos_site_id
 _symmetry_equiv_pos_as_xyz
  1  'x, y, z'
loop_
 _atom_site_type_symbol
 _atom_site_label
 _atom_site_symmetry_multiplicity
 _atom_site_fract_x
 _atom_site_fract_y
 _atom_site_fract_z
 _atom_site_occupancy
  Dy  Dy0  1  0.349502  0.349502  0.951008  1
  Dy  Dy1  1  0.349502  0.951008  0.349502  1
  Dy  Dy2  1  0.951008  0.349502  0.349502  1
  Ho  Ho3  1  0.348623  0.348623  0.348623  1
  Lu  Lu4  1  0.813048  0.186824  0.186824  1
  Lu  Lu5  1  0.187399  0.813078  0.813078  1
  Lu  Lu6  1  0.186824  0.813048  0.186824  1
  Lu  Lu7  1  0.813078  0.187399  0.813078  1
  Lu  Lu8  1  0.186824  0.186824  0.813048  1
  Lu  Lu9  1  0.813078  0.813078  0.187399  1
  Lu  Lu10  1  0.935583  0.564893  0.564893  1
  Lu  Lu11  1  0.564893  0.935415  0.935415  1
  Lu  Lu12  1  0.564893  0.935583  0.564893  1
  Lu  Lu13  1  0.935415  0.564893  0.935415  1
  Lu  Lu14  1  0.564893  0.564893  0.935583  1
  Lu  Lu15  1  0.935415  0.935415  0.564893  1
  Cd  Cd16  1  0.582378  0.582378  0.582378  1
  Cd  Cd17  1  0.582437  0.582437  0.252856  1
  Cd  Cd18  1  0.582437  0.252856  0.582437  1
  Cd  Cd19  1  0.252856  0.582437  0.582437  1
  Ni  Ni20  1  0.141209  0.141209  0.141209  1
  Ni  Ni21  1  0.141396  0.141396  0.575918  1
  Ni  Ni22  1  0.141396  0.575918  0.141396  1
  Ni  Ni23  1  0.575918  0.141396  0.141396  1
