# generated using pymatgen
data_Dy3Er5Sc12Si15Pt
_symmetry_space_group_name_H-M   'P 1'
_cell_length_a   7.06385030
_cell_length_b   7.41177217
_cell_length_c   13.94880238
_cell_angle_alpha   90.01656847
_cell_angle_beta   89.97907278
_cell_angle_gamma   90.24175999
_symmetry_Int_Tables_number   1
_chemical_formula_structural   Dy3Er5Sc12Si15Pt
_chemical_formula_sum   'Dy3 Er5 Sc12 Si15 Pt1'
_cell_volume   730.29202167
_cell_formula_units_Z   1
loop_
 _symmetry_equiv_pos_site_id
 _symmetry_equiv_pos_as_xyz
  1  'x, y, z'
loop_
 _atom_site_type_symbol
 _atom_site_label
 _atom_site_symmetry_multiplicity
 _atom_site_fract_x
 _atom_site_fract_y
 _atom_site_fract_z
 _atom_site_occupancy
  Dy  Dy0  1  0.011551  0.177756  0.403742  1
  Dy  Dy1  1  0.511136  0.323380  0.403240  1
  Dy  Dy2  1  0.488902  0.676302  0.595159  1
  Er  Er3  1  0.011869  0.178244  0.096450  1
  Er  Er4  1  0.990153  0.821876  0.905295  1
  Er  Er5  1  0.488687  0.676790  0.904750  1
  Er  Er6  1  0.990092  0.822092  0.595040  1
  Er  Er7  1  0.511276  0.322814  0.096932  1
  Sc  Sc8  1  0.158859  0.503217  0.750111  1
  Sc  Sc9  1  0.838305  0.497643  0.249767  1
  Sc  Sc10  1  0.339067  0.004747  0.249766  1
  Sc  Sc11  1  0.665999  0.998780  0.750133  1
  Sc  Sc12  1  0.323798  0.173726  0.625196  1
  Sc  Sc13  1  0.671684  0.825499  0.373425  1
  Sc  Sc14  1  0.170535  0.677179  0.373637  1
  Sc  Sc15  1  0.671415  0.825389  0.126307  1
  Sc  Sc16  1  0.830660  0.323623  0.625258  1
  Sc  Sc17  1  0.323776  0.174038  0.875050  1
  Sc  Sc18  1  0.830773  0.323467  0.874983  1
  Sc  Sc19  1  0.170558  0.677111  0.126049  1
  Si  Si20  1  0.969577  0.885743  0.249733  1
  Si  Si21  1  0.468342  0.615077  0.249738  1
  Si  Si22  1  0.531412  0.387226  0.750242  1
  Si  Si23  1  0.287607  0.867841  0.750347  1
  Si  Si24  1  0.713580  0.130723  0.249368  1
  Si  Si25  1  0.212669  0.371397  0.249369  1
  Si  Si26  1  0.780762  0.626470  0.750367  1
  Si  Si27  1  0.158956  0.466955  0.538073  1
  Si  Si28  1  0.842000  0.536429  0.460742  1
  Si  Si29  1  0.344702  0.965112  0.460610  1
  Si  Si30  1  0.841156  0.535592  0.039469  1
  Si  Si31  1  0.658976  0.033608  0.538647  1
  Si  Si32  1  0.159885  0.466728  0.962021  1
  Si  Si33  1  0.658899  0.033492  0.961373  1
  Si  Si34  1  0.344269  0.965676  0.039530  1
  Pt  Pt35  1  0.028112  0.108258  0.750080  1
