# generated using pymatgen
data_CePr5(Al3Ru)8
_symmetry_space_group_name_H-M   'P 1'
_cell_length_a   8.90371400
_cell_length_b   8.92725764
_cell_length_c   9.70982800
_cell_angle_alpha   90.00000000
_cell_angle_beta   90.00000000
_cell_angle_gamma   119.91279050
_symmetry_Int_Tables_number   1
_chemical_formula_structural   CePr5(Al3Ru)8
_chemical_formula_sum   'Ce1 Pr5 Al24 Ru8'
_cell_volume   668.97889647
_cell_formula_units_Z   1
loop_
 _symmetry_equiv_pos_site_id
 _symmetry_equiv_pos_as_xyz
  1  'x, y, z'
loop_
 _atom_site_type_symbol
 _atom_site_label
 _atom_site_symmetry_multiplicity
 _atom_site_fract_x
 _atom_site_fract_y
 _atom_site_fract_z
 _atom_site_occupancy
  Ce  Ce0  1  0.194512  0.389024  0.250000  1
  Pr  Pr1  1  0.808349  0.616699  0.750000  1
  Pr  Pr2  1  0.191792  0.807665  0.250000  1
  Pr  Pr3  1  0.615873  0.807665  0.250000  1
  Pr  Pr4  1  0.384258  0.191494  0.750000  1
  Pr  Pr5  1  0.807235  0.191494  0.750000  1
  Al  Al6  1  0.333611  0.667224  0.491293  1
  Al  Al7  1  0.666577  0.333152  0.990975  1
  Al  Al8  1  0.666577  0.333152  0.509025  1
  Al  Al9  1  0.333611  0.667224  0.008707  1
  Al  Al10  1  0.162659  0.325318  0.574096  1
  Al  Al11  1  0.673864  0.836799  0.574873  1
  Al  Al12  1  0.162935  0.836799  0.574873  1
  Al  Al13  1  0.838140  0.162975  0.076491  1
  Al  Al14  1  0.838140  0.162975  0.423509  1
  Al  Al15  1  0.837091  0.674182  0.075590  1
  Al  Al16  1  0.324835  0.162975  0.076491  1
  Al  Al17  1  0.673864  0.836799  0.925127  1
  Al  Al18  1  0.162659  0.325318  0.925904  1
  Al  Al19  1  0.837091  0.674182  0.424410  1
  Al  Al20  1  0.002711  0.005421  0.250000  1
  Al  Al21  1  0.999916  0.999833  0.750000  1
  Al  Al22  1  0.562678  0.125357  0.250000  1
  Al  Al23  1  0.437462  0.561818  0.750000  1
  Al  Al24  1  0.124356  0.561818  0.750000  1
  Al  Al25  1  0.875131  0.436958  0.250000  1
  Al  Al26  1  0.561827  0.436958  0.250000  1
  Al  Al27  1  0.437031  0.874063  0.750000  1
  Al  Al28  1  0.162935  0.836799  0.925127  1
  Al  Al29  1  0.324835  0.162975  0.423509  1
  Ru  Ru30  1  0.999676  0.999351  0.499951  1
  Ru  Ru31  1  0.999676  0.999351  0.000049  1
  Ru  Ru32  1  0.499812  0.999624  0.499051  1
  Ru  Ru33  1  0.497431  0.499234  0.002919  1
  Ru  Ru34  1  0.001803  0.499234  0.002919  1
  Ru  Ru35  1  0.001803  0.499234  0.497081  1
  Ru  Ru36  1  0.497431  0.499234  0.497081  1
  Ru  Ru37  1  0.499812  0.999624  0.000949  1
