# generated using pymatgen
data_NaTaP4O13
_symmetry_space_group_name_H-M   'P 1'
_cell_length_a   7.20819700
_cell_length_b   8.41290500
_cell_length_c   18.05070900
_cell_angle_alpha   90.00000000
_cell_angle_beta   90.00000000
_cell_angle_gamma   90.00000000
_symmetry_Int_Tables_number   1
_chemical_formula_structural   NaTaP4O13
_chemical_formula_sum   'Na4 Ta4 P16 O52'
_cell_volume   1094.62886740
_cell_formula_units_Z   4
loop_
 _symmetry_equiv_pos_site_id
 _symmetry_equiv_pos_as_xyz
  1  'x, y, z'
loop_
 _atom_site_type_symbol
 _atom_site_label
 _atom_site_symmetry_multiplicity
 _atom_site_fract_x
 _atom_site_fract_y
 _atom_site_fract_z
 _atom_site_occupancy
  Na  Na0  1  0.204253  0.726349  0.485743  1
  Na  Na1  1  0.704253  0.773651  0.514257  1
  Na  Na2  1  0.795747  0.226349  0.014257  1
  Na  Na3  1  0.295747  0.273651  0.985743  1
  Ta  Ta4  1  0.238933  0.273926  0.710664  1
  Ta  Ta5  1  0.738933  0.226074  0.289336  1
  Ta  Ta6  1  0.761067  0.773926  0.789336  1
  Ta  Ta7  1  0.261067  0.726074  0.210664  1
  P  P8  1  0.403737  0.654581  0.670954  1
  P  P9  1  0.903737  0.845419  0.329046  1
  P  P10  1  0.596263  0.154581  0.829046  1
  P  P11  1  0.096263  0.345419  0.170954  1
  P  P12  1  0.097207  0.894119  0.666197  1
  P  P13  1  0.597207  0.605881  0.333803  1
  P  P14  1  0.902793  0.394119  0.833803  1
  P  P15  1  0.402793  0.105881  0.166197  1
  P  P16  1  0.073762  0.318424  0.424929  1
  P  P17  1  0.573762  0.181576  0.575071  1
  P  P18  1  0.926238  0.818424  0.075071  1
  P  P19  1  0.426238  0.681576  0.924929  1
  P  P20  1  0.921233  0.389542  0.572777  1
  P  P21  1  0.421233  0.110458  0.427223  1
  P  P22  1  0.078767  0.889542  0.927223  1
  P  P23  1  0.578767  0.610458  0.072777  1
  O  O24  1  0.432149  0.659043  0.589721  1
  O  O25  1  0.932149  0.840957  0.410279  1
  O  O26  1  0.567851  0.159043  0.910279  1
  O  O27  1  0.067851  0.340957  0.089721  1
  O  O28  1  0.336928  0.492700  0.703585  1
  O  O29  1  0.836928  0.007300  0.296415  1
  O  O30  1  0.663072  0.992700  0.796415  1
  O  O31  1  0.163072  0.507300  0.203585  1
  O  O32  1  0.575467  0.703023  0.718359  1
  O  O33  1  0.075467  0.796977  0.281641  1
  O  O34  1  0.424533  0.203023  0.781641  1
  O  O35  1  0.924533  0.296977  0.218359  1
  O  O36  1  0.092835  0.895142  0.584595  1
  O  O37  1  0.592835  0.604858  0.415405  1
  O  O38  1  0.907165  0.395142  0.915405  1
  O  O39  1  0.407165  0.104858  0.084595  1
  O  O40  1  0.919047  0.832611  0.706216  1
  O  O41  1  0.419047  0.667389  0.293784  1
  O  O42  1  0.252353  0.778252  0.701518  1
  O  O43  1  0.080953  0.332611  0.793784  1
  O  O44  1  0.142014  0.055978  0.704568  1
  O  O45  1  0.642014  0.444022  0.295432  1
  O  O46  1  0.857986  0.555978  0.795432  1
  O  O47  1  0.357986  0.944022  0.204568  1
  O  O48  1  0.464494  0.666072  0.139840  1
  O  O49  1  0.964494  0.833928  0.860160  1
  O  O50  1  0.535506  0.166072  0.360160  1
  O  O51  1  0.035506  0.333928  0.639840  1
  O  O52  1  0.786834  0.671282  0.087150  1
  O  O53  1  0.286834  0.828718  0.912850  1
  O  O54  1  0.213166  0.171282  0.412850  1
  O  O55  1  0.713166  0.328718  0.587150  1
  O  O56  1  0.506328  0.722573  0.006445  1
  O  O57  1  0.006328  0.777427  0.993555  1
  O  O58  1  0.493672  0.222573  0.493555  1
  O  O59  1  0.993672  0.277427  0.506445  1
  O  O60  1  0.577972  0.438739  0.056274  1
  O  O61  1  0.077972  0.061261  0.943726  1
  O  O62  1  0.422028  0.938739  0.443726  1
  O  O63  1  0.922028  0.561261  0.556274  1
  O  O64  1  0.588709  0.721781  0.873182  1
  O  O65  1  0.088709  0.778219  0.126818  1
  O  O66  1  0.411291  0.221781  0.626818  1
  O  O67  1  0.911291  0.278219  0.373182  1
  O  O68  1  0.339269  0.524006  0.918689  1
  O  O69  1  0.839269  0.975994  0.081311  1
  O  O70  1  0.660731  0.024006  0.581311  1
  O  O71  1  0.160731  0.475994  0.418689  1
  O  O72  1  0.247647  0.221748  0.201518  1
  O  O73  1  0.747647  0.278252  0.798482  1
  O  O74  1  0.752353  0.721748  0.298482  1
  O  O75  1  0.580953  0.167389  0.206216  1
