# generated using pymatgen
data_Ac5InGa2
_symmetry_space_group_name_H-M   'P 1'
_cell_length_a   10.03762538
_cell_length_b   10.03762325
_cell_length_c   10.03762431
_cell_angle_alpha   130.59880836
_cell_angle_beta   130.59880501
_cell_angle_gamma   72.45126864
_symmetry_Int_Tables_number   1
_chemical_formula_structural   Ac5InGa2
_chemical_formula_sum   'Ac10 In2 Ga4'
_cell_volume   569.84753043
_cell_formula_units_Z   2
loop_
 _symmetry_equiv_pos_site_id
 _symmetry_equiv_pos_as_xyz
  1  'x, y, z'
loop_
 _atom_site_type_symbol
 _atom_site_label
 _atom_site_symmetry_multiplicity
 _atom_site_fract_x
 _atom_site_fract_y
 _atom_site_fract_z
 _atom_site_occupancy
  Ac  Ac0  1  0.000000  0.000000  0.000000  1
  Ac  Ac1  1  0.500000  0.500000  0.000000  1
  Ac  Ac2  1  0.815953  0.315953  0.842645  1
  Ac  Ac3  1  0.184047  0.684047  0.157355  1
  Ac  Ac4  1  0.473307  0.973307  0.157355  1
  Ac  Ac5  1  0.315953  0.473307  0.500000  1
  Ac  Ac6  1  0.026693  0.184047  0.500000  1
  Ac  Ac7  1  0.526693  0.026693  0.842645  1
  Ac  Ac8  1  0.684047  0.526693  0.500000  1
  Ac  Ac9  1  0.973307  0.815953  0.500000  1
  In  In10  1  0.250000  0.250000  0.000000  1
  In  In11  1  0.750000  0.750000  0.000000  1
  Ga  Ga12  1  0.114009  0.614009  0.728019  1
  Ga  Ga13  1  0.885991  0.385991  0.271981  1
  Ga  Ga14  1  0.614009  0.885991  0.500000  1
  Ga  Ga15  1  0.385991  0.114009  0.500000  1
