# generated using pymatgen
data_K8Sc2O7
_symmetry_space_group_name_H-M   'P 1'
_cell_length_a   17.77583800
_cell_length_b   6.84663439
_cell_length_c   6.84530867
_cell_angle_alpha   60.87199691
_cell_angle_beta   90.00000000
_cell_angle_gamma   90.00000000
_symmetry_Int_Tables_number   1
_chemical_formula_structural   K8Sc2O7
_chemical_formula_sum   'K16 Sc4 O14'
_cell_volume   727.74676168
_cell_formula_units_Z   2
loop_
 _symmetry_equiv_pos_site_id
 _symmetry_equiv_pos_as_xyz
  1  'x, y, z'
loop_
 _atom_site_type_symbol
 _atom_site_label
 _atom_site_symmetry_multiplicity
 _atom_site_fract_x
 _atom_site_fract_y
 _atom_site_fract_z
 _atom_site_occupancy
  K  K0  1  0.503498  0.032365  0.236055  1
  K  K1  1  0.003498  0.467635  0.763945  1
  K  K2  1  0.496502  0.967635  0.763945  1
  K  K3  1  0.996502  0.532365  0.236055  1
  K  K4  1  0.703551  0.049938  0.219553  1
  K  K5  1  0.203551  0.450062  0.780447  1
  K  K6  1  0.296449  0.950062  0.780447  1
  K  K7  1  0.796449  0.549938  0.219553  1
  K  K8  1  0.087999  0.995946  0.356405  1
  K  K9  1  0.587999  0.504054  0.643595  1
  K  K10  1  0.912001  0.004054  0.643595  1
  K  K11  1  0.412001  0.495946  0.356405  1
  K  K12  1  0.808991  0.451127  0.785971  1
  K  K13  1  0.308991  0.048873  0.214029  1
  K  K14  1  0.191009  0.548873  0.214029  1
  K  K15  1  0.691009  0.951127  0.785971  1
  Sc  Sc16  1  0.598798  0.497803  0.153715  1
  Sc  Sc17  1  0.098798  0.002197  0.846285  1
  Sc  Sc18  1  0.401202  0.502197  0.846285  1
  Sc  Sc19  1  0.901202  0.997803  0.153715  1
  O  O20  1  0.500000  0.500000  0.000000  1
  O  O21  1  0.000000  0.000000  0.000000  1
  O  O22  1  0.181388  0.001098  0.045953  1
  O  O23  1  0.681388  0.498902  0.954047  1
  O  O24  1  0.818612  0.998902  0.954047  1
  O  O25  1  0.318612  0.501098  0.045953  1
  O  O26  1  0.894997  0.274948  0.180327  1
  O  O27  1  0.394997  0.225052  0.819673  1
  O  O28  1  0.105003  0.725052  0.819673  1
  O  O29  1  0.605003  0.774948  0.180327  1
  O  O30  1  0.601937  0.221083  0.450365  1
  O  O31  1  0.101937  0.278917  0.549635  1
  O  O32  1  0.398063  0.778917  0.549635  1
  O  O33  1  0.898063  0.721083  0.450365  1
