# generated using pymatgen
data_Li3Ca5Au4
_symmetry_space_group_name_H-M   'P 1'
_cell_length_a   4.36448000
_cell_length_b   7.43323178
_cell_length_c   8.67559100
_cell_angle_alpha   89.91710752
_cell_angle_beta   90.00000000
_cell_angle_gamma   90.00000000
_symmetry_Int_Tables_number   1
_chemical_formula_structural   Li3Ca5Au4
_chemical_formula_sum   'Li3 Ca5 Au4'
_cell_volume   281.45488948
_cell_formula_units_Z   1
loop_
 _symmetry_equiv_pos_site_id
 _symmetry_equiv_pos_as_xyz
  1  'x, y, z'
loop_
 _atom_site_type_symbol
 _atom_site_label
 _atom_site_symmetry_multiplicity
 _atom_site_fract_x
 _atom_site_fract_y
 _atom_site_fract_z
 _atom_site_occupancy
  Li  Li0  1  0.750000  0.367123  0.441419  1
  Li  Li1  1  0.250000  0.147588  0.932457  1
  Li  Li2  1  0.250000  0.631735  0.558313  1
  Ca  Ca3  1  0.750000  0.967757  0.670213  1
  Ca  Ca4  1  0.250000  0.044664  0.336063  1
  Ca  Ca5  1  0.750000  0.457332  0.815083  1
  Ca  Ca6  1  0.250000  0.521628  0.188945  1
  Ca  Ca7  1  0.750000  0.863596  0.062323  1
  Au  Au8  1  0.250000  0.753909  0.858121  1
  Au  Au9  1  0.250000  0.265874  0.624228  1
  Au  Au10  1  0.750000  0.730567  0.385318  1
  Au  Au11  1  0.750000  0.248227  0.127518  1
