# generated using pymatgen
data_Hf6Al16IrPt5Rh
_symmetry_space_group_name_H-M   'P 1'
_cell_length_a   8.74789722
_cell_length_b   8.74560786
_cell_length_c   8.74560949
_cell_angle_alpha   59.91435316
_cell_angle_beta   59.99134518
_cell_angle_gamma   59.99134221
_symmetry_Int_Tables_number   1
_chemical_formula_structural   Hf6Al16IrPt5Rh
_chemical_formula_sum   'Hf6 Al16 Ir1 Pt5 Rh1'
_cell_volume   472.74843178
_cell_formula_units_Z   1
loop_
 _symmetry_equiv_pos_site_id
 _symmetry_equiv_pos_as_xyz
  1  'x, y, z'
loop_
 _atom_site_type_symbol
 _atom_site_label
 _atom_site_symmetry_multiplicity
 _atom_site_fract_x
 _atom_site_fract_y
 _atom_site_fract_z
 _atom_site_occupancy
  Hf  Hf0  1  0.682914  0.317085  0.317085  1
  Hf  Hf1  1  0.317085  0.682914  0.682914  1
  Hf  Hf2  1  0.316768  0.681379  0.318620  1
  Hf  Hf3  1  0.316768  0.318620  0.681379  1
  Hf  Hf4  1  0.683231  0.318620  0.681379  1
  Hf  Hf5  1  0.683231  0.681379  0.318620  1
  Al  Al6  1  0.334326  0.337397  0.337397  1
  Al  Al7  1  0.336447  0.336591  0.990514  1
  Al  Al8  1  0.990881  0.337397  0.337397  1
  Al  Al9  1  0.336447  0.990514  0.336591  1
  Al  Al10  1  0.665674  0.662603  0.662603  1
  Al  Al11  1  0.663553  0.663409  0.009486  1
  Al  Al12  1  0.663553  0.009486  0.663409  1
  Al  Al13  1  0.009119  0.662603  0.662603  1
  Al  Al14  1  0.118246  0.118713  0.118713  1
  Al  Al15  1  0.116619  0.124010  0.642752  1
  Al  Al16  1  0.644328  0.118713  0.118713  1
  Al  Al17  1  0.116619  0.642752  0.124010  1
  Al  Al18  1  0.881753  0.881286  0.881286  1
  Al  Al19  1  0.883380  0.875989  0.357251  1
  Al  Al20  1  0.883380  0.357251  0.875989  1
  Al  Al21  1  0.355675  0.881286  0.881286  1
  Ir  Ir22  1  0.000000  0.500000  0.500000  1
  Pt  Pt23  1  0.500000  0.000000  0.000000  1
  Pt  Pt24  1  0.000000  0.500000  0.000000  1
  Pt  Pt25  1  0.000000  0.000000  0.500000  1
  Pt  Pt26  1  0.500000  0.000000  0.500000  1
  Pt  Pt27  1  0.500000  0.500000  0.000000  1
  Rh  Rh28  1  0.000000  0.000000  0.000000  1
