# generated using pymatgen
data_LaPr7ZnPd24
_symmetry_space_group_name_H-M   'P 1'
_cell_length_a   8.54120519
_cell_length_b   8.54120519
_cell_length_c   8.54120519
_cell_angle_alpha   89.98291975
_cell_angle_beta   90.01708025
_cell_angle_gamma   90.01708025
_symmetry_Int_Tables_number   1
_chemical_formula_structural   LaPr7ZnPd24
_chemical_formula_sum   'La1 Pr7 Zn1 Pd24'
_cell_volume   623.09950742
_cell_formula_units_Z   1
loop_
 _symmetry_equiv_pos_site_id
 _symmetry_equiv_pos_as_xyz
  1  'x, y, z'
loop_
 _atom_site_type_symbol
 _atom_site_label
 _atom_site_symmetry_multiplicity
 _atom_site_fract_x
 _atom_site_fract_y
 _atom_site_fract_z
 _atom_site_occupancy
  La  La0  1  0.749425  0.250575  0.250575  1
  Pr  Pr1  1  0.250349  0.250332  0.250332  1
  Pr  Pr2  1  0.749647  0.749695  0.749695  1
  Pr  Pr3  1  0.749668  0.749651  0.250332  1
  Pr  Pr4  1  0.749668  0.250332  0.749651  1
  Pr  Pr5  1  0.250305  0.250353  0.749695  1
  Pr  Pr6  1  0.250305  0.749695  0.250353  1
  Pr  Pr7  1  0.250411  0.749589  0.749589  1
  Zn  Zn8  1  0.000107  0.999893  0.999893  1
  Pd  Pd9  1  0.262140  0.499932  0.000064  1
  Pd  Pd10  1  0.737885  0.500108  0.999893  1
  Pd  Pd11  1  0.000107  0.262115  0.500108  1
  Pd  Pd12  1  0.499892  0.262115  0.999893  1
  Pd  Pd13  1  0.999936  0.737860  0.499932  1
  Pd  Pd14  1  0.500068  0.737860  0.000064  1
  Pd  Pd15  1  0.499892  0.999893  0.262115  1
  Pd  Pd16  1  0.262140  0.000064  0.499932  1
  Pd  Pd17  1  0.500068  0.000064  0.737860  1
  Pd  Pd18  1  0.737885  0.999893  0.500108  1
  Pd  Pd19  1  0.000107  0.500108  0.262115  1
  Pd  Pd20  1  0.999936  0.499932  0.737860  1
  Pd  Pd21  1  0.253786  0.499923  0.499923  1
  Pd  Pd22  1  0.746208  0.500109  0.500109  1
  Pd  Pd23  1  0.499891  0.253792  0.500109  1
  Pd  Pd24  1  0.500077  0.746214  0.499923  1
  Pd  Pd25  1  0.499891  0.500109  0.253792  1
  Pd  Pd26  1  0.500077  0.499923  0.746214  1
  Pd  Pd27  1  0.297890  0.000077  0.000077  1
  Pd  Pd28  1  0.702140  0.999875  0.999875  1
  Pd  Pd29  1  0.000125  0.297860  0.999875  1
  Pd  Pd30  1  0.999923  0.702110  0.000077  1
  Pd  Pd31  1  0.000125  0.999875  0.297860  1
  Pd  Pd32  1  0.999923  0.000077  0.702110  1
