# generated using pymatgen
data_BeNb4Fe6Ge
_symmetry_space_group_name_H-M   'P 1'
_cell_length_a   4.83194100
_cell_length_b   4.83194018
_cell_length_c   7.88230300
_cell_angle_alpha   90.00000000
_cell_angle_beta   90.00000000
_cell_angle_gamma   119.99999875
_symmetry_Int_Tables_number   1
_chemical_formula_structural   BeNb4Fe6Ge
_chemical_formula_sum   'Be1 Nb4 Fe6 Ge1'
_cell_volume   159.37747222
_cell_formula_units_Z   1
loop_
 _symmetry_equiv_pos_site_id
 _symmetry_equiv_pos_as_xyz
  1  'x, y, z'
loop_
 _atom_site_type_symbol
 _atom_site_label
 _atom_site_symmetry_multiplicity
 _atom_site_fract_x
 _atom_site_fract_y
 _atom_site_fract_z
 _atom_site_occupancy
  Be  Be0  1  0.000000  0.000000  0.000000  1
  Nb  Nb1  1  0.333333  0.666666  0.062064  1
  Nb  Nb2  1  0.333333  0.666666  0.435298  1
  Nb  Nb3  1  0.666667  0.333334  0.564702  1
  Nb  Nb4  1  0.666667  0.333334  0.937936  1
  Fe  Fe5  1  0.340177  0.170089  0.241519  1
  Fe  Fe6  1  0.829913  0.170089  0.241519  1
  Fe  Fe7  1  0.829912  0.659824  0.241519  1
  Fe  Fe8  1  0.170088  0.340177  0.758480  1
  Fe  Fe9  1  0.170087  0.829911  0.758480  1
  Fe  Fe10  1  0.659823  0.829911  0.758480  1
  Ge  Ge11  1  0.000000  0.000000  0.500000  1
