# generated using pymatgen
data_DyY3(Ho3Ir2)2
_symmetry_space_group_name_H-M   'P 1'
_cell_length_a   6.45063762
_cell_length_b   7.21908919
_cell_length_c   8.54377373
_cell_angle_alpha   96.72791663
_cell_angle_beta   112.18304749
_cell_angle_gamma   90.08785388
_symmetry_Int_Tables_number   1
_chemical_formula_structural   DyY3(Ho3Ir2)2
_chemical_formula_sum   'Dy1 Y3 Ho6 Ir4'
_cell_volume   365.42474213
_cell_formula_units_Z   1
loop_
 _symmetry_equiv_pos_site_id
 _symmetry_equiv_pos_as_xyz
  1  'x, y, z'
loop_
 _atom_site_type_symbol
 _atom_site_label
 _atom_site_symmetry_multiplicity
 _atom_site_fract_x
 _atom_site_fract_y
 _atom_site_fract_z
 _atom_site_occupancy
  Dy  Dy0  1  0.974566  0.917543  0.185574  1
  Y  Y1  1  0.789051  0.582006  0.814548  1
  Y  Y2  1  0.025700  0.081776  0.814449  1
  Y  Y3  1  0.210970  0.418199  0.185518  1
  Ho  Ho4  1  0.650570  0.816117  0.440352  1
  Ho  Ho5  1  0.209948  0.683816  0.559513  1
  Ho  Ho6  1  0.349417  0.183806  0.559678  1
  Ho  Ho7  1  0.790020  0.316153  0.440358  1
  Ho  Ho8  1  0.427792  0.750142  0.999986  1
  Ho  Ho9  1  0.572315  0.249880  0.000032  1
  Ir  Ir10  1  0.820672  0.574319  0.221908  1
  Ir  Ir11  1  0.598154  0.926391  0.778174  1
  Ir  Ir12  1  0.179763  0.426481  0.777993  1
  Ir  Ir13  1  0.401062  0.073371  0.221917  1
