# generated using pymatgen
data_Tb3Ce7Tc6
_symmetry_space_group_name_H-M   'P 1'
_cell_length_a   7.97818300
_cell_length_b   7.97818262
_cell_length_c   6.80001700
_cell_angle_alpha   90.00000000
_cell_angle_beta   90.00000000
_cell_angle_gamma   119.99999744
_symmetry_Int_Tables_number   1
_chemical_formula_structural   Tb3Ce7Tc6
_chemical_formula_sum   'Tb3 Ce7 Tc6'
_cell_volume   374.84231202
_cell_formula_units_Z   1
loop_
 _symmetry_equiv_pos_site_id
 _symmetry_equiv_pos_as_xyz
  1  'x, y, z'
loop_
 _atom_site_type_symbol
 _atom_site_label
 _atom_site_symmetry_multiplicity
 _atom_site_fract_x
 _atom_site_fract_y
 _atom_site_fract_z
 _atom_site_occupancy
  Tb  Tb0  1  0.666667  0.333333  0.000000  1
  Tb  Tb1  1  0.333333  0.666667  0.000000  1
  Tb  Tb2  1  0.333333  0.666667  0.500000  1
  Ce  Ce3  1  0.666667  0.333333  0.500000  1
  Ce  Ce4  1  0.761119  0.761283  0.748843  1
  Ce  Ce5  1  0.238717  0.999837  0.748843  1
  Ce  Ce6  1  0.000163  0.238881  0.748843  1
  Ce  Ce7  1  0.238717  0.238881  0.251157  1
  Ce  Ce8  1  0.761119  0.999837  0.251157  1
  Ce  Ce9  1  0.000163  0.761283  0.251157  1
  Tc  Tc10  1  0.363777  0.358884  0.745901  1
  Tc  Tc11  1  0.641116  0.004893  0.745901  1
  Tc  Tc12  1  0.995107  0.636223  0.745901  1
  Tc  Tc13  1  0.641116  0.636223  0.254099  1
  Tc  Tc14  1  0.363777  0.004893  0.254099  1
  Tc  Tc15  1  0.995107  0.358884  0.254099  1
