# generated using pymatgen
data_Dy5Cr3P12Ir13Rh3
_symmetry_space_group_name_H-M   'P 1'
_cell_length_a   12.64103600
_cell_length_b   12.64103523
_cell_length_c   3.94569200
_cell_angle_alpha   90.00000000
_cell_angle_beta   90.00000000
_cell_angle_gamma   119.99999677
_symmetry_Int_Tables_number   1
_chemical_formula_structural   Dy5Cr3P12Ir13Rh3
_chemical_formula_sum   'Dy5 Cr3 P12 Ir13 Rh3'
_cell_volume   546.03331011
_cell_formula_units_Z   1
loop_
 _symmetry_equiv_pos_site_id
 _symmetry_equiv_pos_as_xyz
  1  'x, y, z'
loop_
 _atom_site_type_symbol
 _atom_site_label
 _atom_site_symmetry_multiplicity
 _atom_site_fract_x
 _atom_site_fract_y
 _atom_site_fract_z
 _atom_site_occupancy
  Dy  Dy0  1  0.333333  0.666667  0.500000  1
  Dy  Dy1  1  0.666667  0.333333  0.500000  1
  Dy  Dy2  1  0.000019  0.810589  0.000000  1
  Dy  Dy3  1  0.189411  0.189430  0.000000  1
  Dy  Dy4  1  0.810570  0.999981  0.000000  1
  Cr  Cr5  1  0.000033  0.453463  0.500000  1
  Cr  Cr6  1  0.546537  0.546571  0.500000  1
  Cr  Cr7  1  0.453429  0.999967  0.500000  1
  P  P8  1  0.999984  0.631990  0.500000  1
  P  P9  1  0.368010  0.367994  0.500000  1
  P  P10  1  0.632006  0.000016  0.500000  1
  P  P11  1  0.516278  0.683884  0.000000  1
  P  P12  1  0.316116  0.832395  0.000000  1
  P  P13  1  0.167605  0.483722  0.000000  1
  P  P14  1  0.483439  0.167641  0.000000  1
  P  P15  1  0.684202  0.516561  0.000000  1
  P  P16  1  0.832359  0.315798  0.000000  1
  P  P17  1  0.999915  0.177850  0.500000  1
  P  P18  1  0.822150  0.822065  0.500000  1
  P  P19  1  0.177935  0.000085  0.500000  1
  Ir  Ir20  1  0.510681  0.869300  0.000000  1
  Ir  Ir21  1  0.130700  0.641381  0.000000  1
  Ir  Ir22  1  0.358619  0.489319  0.000000  1
  Ir  Ir23  1  0.490604  0.359452  0.000000  1
  Ir  Ir24  1  0.868849  0.509396  0.000000  1
  Ir  Ir25  1  0.640548  0.131151  0.000000  1
  Ir  Ir26  1  0.000460  0.286846  0.000000  1
  Ir  Ir27  1  0.713154  0.713614  0.000000  1
  Ir  Ir28  1  0.286386  0.999540  0.000000  1
  Ir  Ir29  1  0.376417  0.178821  0.500000  1
  Ir  Ir30  1  0.802405  0.623583  0.500000  1
  Ir  Ir31  1  0.821179  0.197595  0.500000  1
  Ir  Ir32  1  0.000000  0.000000  0.500000  1
  Rh  Rh33  1  0.623708  0.802722  0.500000  1
  Rh  Rh34  1  0.197278  0.820985  0.500000  1
  Rh  Rh35  1  0.179015  0.376292  0.500000  1
