# generated using pymatgen
data_ScTi5(ZnRh2)6
_symmetry_space_group_name_H-M   'P 1'
_cell_length_a   4.35314000
_cell_length_b   6.11458500
_cell_length_c   13.00600600
_cell_angle_alpha   90.00000000
_cell_angle_beta   90.00025937
_cell_angle_gamma   90.00000000
_symmetry_Int_Tables_number   1
_chemical_formula_structural   ScTi5(ZnRh2)6
_chemical_formula_sum   'Sc1 Ti5 Zn6 Rh12'
_cell_volume   346.18924468
_cell_formula_units_Z   1
loop_
 _symmetry_equiv_pos_site_id
 _symmetry_equiv_pos_as_xyz
  1  'x, y, z'
loop_
 _atom_site_type_symbol
 _atom_site_label
 _atom_site_symmetry_multiplicity
 _atom_site_fract_x
 _atom_site_fract_y
 _atom_site_fract_z
 _atom_site_occupancy
  Sc  Sc0  1  0.500125  0.500000  0.833307  1
  Ti  Ti1  1  0.999999  0.000000  0.000600  1
  Ti  Ti2  1  0.499838  0.500000  0.166688  1
  Ti  Ti3  1  0.999831  0.000000  0.333343  1
  Ti  Ti4  1  0.500006  0.500000  0.499979  1
  Ti  Ti5  1  0.000175  0.000000  0.666059  1
  Zn  Zn6  1  0.000005  0.500000  0.999723  1
  Zn  Zn7  1  0.499841  0.000000  0.168891  1
  Zn  Zn8  1  0.999823  0.500000  0.333319  1
  Zn  Zn9  1  0.500003  0.000000  0.497799  1
  Zn  Zn10  1  0.000174  0.500000  0.666957  1
  Zn  Zn11  1  0.500175  0.000000  0.833314  1
  Rh  Rh12  1  0.499991  0.246306  0.004241  1
  Rh  Rh13  1  0.499991  0.753694  0.004241  1
  Rh  Rh14  1  0.999847  0.250603  0.167549  1
  Rh  Rh15  1  0.999847  0.749396  0.167549  1
  Rh  Rh16  1  0.499830  0.250699  0.333352  1
  Rh  Rh17  1  0.499830  0.749301  0.333352  1
  Rh  Rh18  1  0.000007  0.250616  0.499125  1
  Rh  Rh19  1  0.000007  0.749383  0.499125  1
  Rh  Rh20  1  0.500170  0.246354  0.662415  1
  Rh  Rh21  1  0.500170  0.753646  0.662415  1
  Rh  Rh22  1  0.000156  0.241816  0.833327  1
  Rh  Rh23  1  0.000156  0.758183  0.833327  1
