# generated using pymatgen
data_SmAlGa2Ag
_symmetry_space_group_name_H-M   'P 1'
_cell_length_a   4.21096874
_cell_length_b   4.21096913
_cell_length_c   6.34359920
_cell_angle_alpha   70.61544166
_cell_angle_beta   70.61543281
_cell_angle_gamma   90.00000358
_symmetry_Int_Tables_number   1
_chemical_formula_structural   SmAlGa2Ag
_chemical_formula_sum   'Sm1 Al1 Ga2 Ag1'
_cell_volume   99.32458318
_cell_formula_units_Z   1
loop_
 _symmetry_equiv_pos_site_id
 _symmetry_equiv_pos_as_xyz
  1  'x, y, z'
loop_
 _atom_site_type_symbol
 _atom_site_label
 _atom_site_symmetry_multiplicity
 _atom_site_fract_x
 _atom_site_fract_y
 _atom_site_fract_z
 _atom_site_occupancy
  Sm  Sm0  1  0.000000  0.000000  0.000000  1
  Al  Al1  1  0.250000  0.750000  0.500000  1
  Ga  Ga2  1  0.390330  0.390330  0.219341  1
  Ga  Ga3  1  0.609670  0.609670  0.780659  1
  Ag  Ag4  1  0.750000  0.250000  0.500000  1
