# generated using pymatgen
data_CaHfUPaSb5
_symmetry_space_group_name_H-M   'P 1'
_cell_length_a   9.32520455
_cell_length_b   9.24672488
_cell_length_c   6.26971800
_cell_angle_alpha   90.00000000
_cell_angle_beta   90.00000000
_cell_angle_gamma   119.72198626
_symmetry_Int_Tables_number   1
_chemical_formula_structural   CaHfUPaSb5
_chemical_formula_sum   'Ca2 Hf2 U2 Pa2 Sb10'
_cell_volume   469.49913119
_cell_formula_units_Z   2
loop_
 _symmetry_equiv_pos_site_id
 _symmetry_equiv_pos_as_xyz
  1  'x, y, z'
loop_
 _atom_site_type_symbol
 _atom_site_label
 _atom_site_symmetry_multiplicity
 _atom_site_fract_x
 _atom_site_fract_y
 _atom_site_fract_z
 _atom_site_occupancy
  Ca  Ca0  1  0.999679  0.614315  0.250000  1
  Ca  Ca1  1  0.999679  0.385364  0.750000  1
  Hf  Hf2  1  0.998686  0.999343  0.500000  1
  Hf  Hf3  1  0.998686  0.999343  0.000000  1
  U  U4  1  0.620608  0.611101  0.750000  1
  U  U5  1  0.620608  0.009507  0.250000  1
  Pa  Pa6  1  0.381048  0.989316  0.750000  1
  Pa  Pa7  1  0.381048  0.391733  0.250000  1
  Sb  Sb8  1  0.349378  0.674689  0.500000  1
  Sb  Sb9  1  0.650733  0.325365  0.000000  1
  Sb  Sb10  1  0.650733  0.325365  0.500000  1
  Sb  Sb11  1  0.349378  0.674689  0.000000  1
  Sb  Sb12  1  0.729533  0.996120  0.750000  1
  Sb  Sb13  1  0.729533  0.733414  0.250000  1
  Sb  Sb14  1  0.000465  0.266369  0.250000  1
  Sb  Sb15  1  0.000465  0.734096  0.750000  1
  Sb  Sb16  1  0.269869  0.003133  0.250000  1
  Sb  Sb17  1  0.269869  0.266736  0.750000  1
