# generated using pymatgen
data_Tb4Al10Ga8Ir5Pt
_symmetry_space_group_name_H-M   'P 1'
_cell_length_a   7.56543048
_cell_length_b   7.56327728
_cell_length_c   9.56500262
_cell_angle_alpha   90.10071528
_cell_angle_beta   89.89284047
_cell_angle_gamma   119.79793723
_symmetry_Int_Tables_number   1
_chemical_formula_structural   Tb4Al10Ga8Ir5Pt
_chemical_formula_sum   'Tb4 Al10 Ga8 Ir5 Pt1'
_cell_volume   474.94040048
_cell_formula_units_Z   1
loop_
 _symmetry_equiv_pos_site_id
 _symmetry_equiv_pos_as_xyz
  1  'x, y, z'
loop_
 _atom_site_type_symbol
 _atom_site_label
 _atom_site_symmetry_multiplicity
 _atom_site_fract_x
 _atom_site_fract_y
 _atom_site_fract_z
 _atom_site_occupancy
  Tb  Tb0  1  0.997288  0.667749  0.246354  1
  Tb  Tb1  1  0.002712  0.332251  0.753646  1
  Tb  Tb2  1  0.671652  0.998814  0.249677  1
  Tb  Tb3  1  0.328348  0.001186  0.750323  1
  Al  Al4  1  0.998465  0.665871  0.570523  1
  Al  Al5  1  0.334266  0.999990  0.427238  1
  Al  Al6  1  0.001535  0.334129  0.429477  1
  Al  Al7  1  0.665734  0.000010  0.572762  1
  Al  Al8  1  0.661415  0.997258  0.924221  1
  Al  Al9  1  0.338585  0.002742  0.075779  1
  Al  Al10  1  0.333578  0.333523  0.556227  1
  Al  Al11  1  0.666422  0.666477  0.443773  1
  Al  Al12  1  0.663643  0.663247  0.056287  1
  Al  Al13  1  0.336357  0.336753  0.943713  1
  Ga  Ga14  1  0.131163  0.127572  0.252750  1
  Ga  Ga15  1  0.868837  0.872428  0.747250  1
  Ga  Ga16  1  0.999130  0.335732  0.082059  1
  Ga  Ga17  1  0.000870  0.664268  0.917941  1
  Ga  Ga18  1  0.342134  0.549719  0.251200  1
  Ga  Ga19  1  0.657866  0.450281  0.748800  1
  Ga  Ga20  1  0.547286  0.340402  0.250272  1
  Ga  Ga21  1  0.452714  0.659598  0.749728  1
  Ir  Ir22  1  0.667608  0.326737  0.998989  1
  Ir  Ir23  1  0.332392  0.673263  0.001011  1
  Ir  Ir24  1  0.327899  0.671129  0.500642  1
  Ir  Ir25  1  0.672101  0.328871  0.499358  1
  Ir  Ir26  1  0.000000  0.000000  0.500000  1
  Pt  Pt27  1  0.000000  0.000000  0.000000  1
