# generated using pymatgen
data_Tb4Nd(B3Ru)2
_symmetry_space_group_name_H-M   'P 1'
_cell_length_a   5.53875755
_cell_length_b   5.53875789
_cell_length_c   8.56724514
_cell_angle_alpha   71.14030099
_cell_angle_beta   71.14029967
_cell_angle_gamma   60.00002195
_symmetry_Int_Tables_number   1
_chemical_formula_structural   Tb4Nd(B3Ru)2
_chemical_formula_sum   'Tb4 Nd1 B6 Ru2'
_cell_volume   211.16255415
_cell_formula_units_Z   1
loop_
 _symmetry_equiv_pos_site_id
 _symmetry_equiv_pos_as_xyz
  1  'x, y, z'
loop_
 _atom_site_type_symbol
 _atom_site_label
 _atom_site_symmetry_multiplicity
 _atom_site_fract_x
 _atom_site_fract_y
 _atom_site_fract_z
 _atom_site_occupancy
  Tb  Tb0  1  0.248305  0.248305  0.255086  1
  Tb  Tb1  1  0.751695  0.751695  0.744914  1
  Tb  Tb2  1  0.418492  0.418492  0.744524  1
  Tb  Tb3  1  0.581508  0.581508  0.255476  1
  Nd  Nd4  1  0.000000  0.000000  0.000000  1
  B  B5  1  0.172951  0.827049  0.500000  1
  B  B6  1  0.827049  0.500000  0.500000  1
  B  B7  1  0.500000  0.172951  0.500000  1
  B  B8  1  0.172951  0.500000  0.500000  1
  B  B9  1  0.500000  0.827049  0.500000  1
  B  B10  1  0.827049  0.172951  0.500000  1
  Ru  Ru11  1  0.113998  0.113998  0.658004  1
  Ru  Ru12  1  0.886002  0.886002  0.341996  1
