# generated using pymatgen
data_Tb5Y5Si6
_symmetry_space_group_name_H-M   'P 1'
_cell_length_a   8.48135934
_cell_length_b   8.48135990
_cell_length_c   6.40776700
_cell_angle_alpha   90.00000000
_cell_angle_beta   90.00000000
_cell_angle_gamma   120.01223089
_symmetry_Int_Tables_number   1
_chemical_formula_structural   Tb5Y5Si6
_chemical_formula_sum   'Tb5 Y5 Si6'
_cell_volume   399.13035766
_cell_formula_units_Z   1
loop_
 _symmetry_equiv_pos_site_id
 _symmetry_equiv_pos_as_xyz
  1  'x, y, z'
loop_
 _atom_site_type_symbol
 _atom_site_label
 _atom_site_symmetry_multiplicity
 _atom_site_fract_x
 _atom_site_fract_y
 _atom_site_fract_z
 _atom_site_occupancy
  Tb  Tb0  1  0.666672  0.332439  0.249913  1
  Tb  Tb1  1  0.332439  0.666672  0.249913  1
  Tb  Tb2  1  0.332439  0.666672  0.750087  1
  Tb  Tb3  1  0.666672  0.332439  0.750087  1
  Tb  Tb4  1  0.756462  0.756462  0.500000  1
  Y  Y5  1  0.243929  0.000544  0.500000  1
  Y  Y6  1  0.000544  0.243929  0.500000  1
  Y  Y7  1  0.243914  0.243914  0.000000  1
  Y  Y8  1  0.756857  0.000012  0.000000  1
  Y  Y9  1  0.000012  0.756857  0.000000  1
  Si  Si10  1  0.393192  0.393192  0.500000  1
  Si  Si11  1  0.606637  0.000121  0.500000  1
  Si  Si12  1  0.000121  0.606637  0.500000  1
  Si  Si13  1  0.606525  0.606525  0.000000  1
  Si  Si14  1  0.393574  0.000060  0.000000  1
  Si  Si15  1  0.000060  0.393574  0.000000  1
