# generated using pymatgen
data_Nd12POsI17
_symmetry_space_group_name_H-M   'P 1'
_cell_length_a   9.97731672
_cell_length_b   11.93926195
_cell_length_c   11.95197600
_cell_angle_alpha   93.55516992
_cell_angle_beta   104.76392411
_cell_angle_gamma   114.59783986
_symmetry_Int_Tables_number   1
_chemical_formula_structural   Nd12POsI17
_chemical_formula_sum   'Nd12 P1 Os1 I17'
_cell_volume   1228.71100371
_cell_formula_units_Z   1
loop_
 _symmetry_equiv_pos_site_id
 _symmetry_equiv_pos_as_xyz
  1  'x, y, z'
loop_
 _atom_site_type_symbol
 _atom_site_label
 _atom_site_symmetry_multiplicity
 _atom_site_fract_x
 _atom_site_fract_y
 _atom_site_fract_z
 _atom_site_occupancy
  Nd  Nd0  1  0.059264  0.514615  0.324417  1
  Nd  Nd1  1  0.988761  0.810106  0.581490  1
  Nd  Nd2  1  0.642005  0.240121  0.285622  1
  Nd  Nd3  1  0.010891  0.188307  0.419757  1
  Nd  Nd4  1  0.221687  0.669019  0.990318  1
  Nd  Nd5  1  0.263116  0.986030  0.895898  1
  Nd  Nd6  1  0.357799  0.759421  0.717962  1
  Nd  Nd7  1  0.942489  0.487439  0.675372  1
  Nd  Nd8  1  0.737026  0.010112  0.106092  1
  Nd  Nd9  1  0.154501  0.288203  0.149822  1
  Nd  Nd10  1  0.775765  0.331356  0.006982  1
  Nd  Nd11  1  0.849594  0.712679  0.850644  1
  P  P12  1  0.104034  0.737539  0.784436  1
  Os  Os13  1  0.895556  0.262175  0.213900  1
  I  I14  1  0.783139  0.531956  0.422491  1
  I  I15  1  0.640539  0.422265  0.751926  1
  I  I16  1  0.842537  0.890627  0.326645  1
  I  I17  1  0.328194  0.212869  0.372031  1
  I  I18  1  0.158546  0.102001  0.679514  1
  I  I19  1  0.580323  0.048787  0.836572  1
  I  I20  1  0.753272  0.181399  0.542730  1
  I  I21  1  0.541919  0.698634  0.951504  1
  I  I22  1  0.364999  0.585594  0.242047  1
  I  I23  1  0.218986  0.474804  0.587407  1
  I  I24  1  0.058685  0.371387  0.891970  1
  I  I25  1  0.448787  0.293296  0.042319  1
  I  I26  1  0.998774  0.997106  0.994553  1
  I  I27  1  0.249918  0.824006  0.467400  1
  I  I28  1  0.405683  0.942213  0.155179  1
  I  I29  1  0.676194  0.787799  0.631157  1
  I  I30  1  0.947014  0.638133  0.101841  1
