# generated using pymatgen
data_Li8Pr3Nd5SnBi7
_symmetry_space_group_name_H-M   'P 1'
_cell_length_a   9.85384500
_cell_length_b   9.85384467
_cell_length_c   7.43599000
_cell_angle_alpha   90.00000000
_cell_angle_beta   90.00000000
_cell_angle_gamma   119.99999776
_symmetry_Int_Tables_number   1
_chemical_formula_structural   Li8Pr3Nd5SnBi7
_chemical_formula_sum   'Li8 Pr3 Nd5 Sn1 Bi7'
_cell_volume   625.28912726
_cell_formula_units_Z   1
loop_
 _symmetry_equiv_pos_site_id
 _symmetry_equiv_pos_as_xyz
  1  'x, y, z'
loop_
 _atom_site_type_symbol
 _atom_site_label
 _atom_site_symmetry_multiplicity
 _atom_site_fract_x
 _atom_site_fract_y
 _atom_site_fract_z
 _atom_site_occupancy
  Li  Li0  1  0.167651  0.335301  0.276965  1
  Li  Li1  1  0.167651  0.832349  0.276965  1
  Li  Li2  1  0.664699  0.832349  0.276965  1
  Li  Li3  1  0.831259  0.662518  0.776519  1
  Li  Li4  1  0.831259  0.168741  0.776519  1
  Li  Li5  1  0.337482  0.168741  0.776519  1
  Li  Li6  1  0.333333  0.666667  0.682668  1
  Li  Li7  1  0.666667  0.333333  0.182833  1
  Pr  Pr8  1  0.512152  0.024307  0.496359  1
  Pr  Pr9  1  0.512152  0.487848  0.496359  1
  Pr  Pr10  1  0.975693  0.487848  0.496359  1
  Nd  Nd11  1  0.493758  0.987516  0.992335  1
  Nd  Nd12  1  0.493758  0.506242  0.992335  1
  Nd  Nd13  1  0.012484  0.506242  0.992335  1
  Nd  Nd14  1  0.000000  0.000000  0.502797  1
  Nd  Nd15  1  0.000000  0.000000  0.001498  1
  Sn  Sn16  1  0.666667  0.333333  0.763381  1
  Bi  Bi17  1  0.166431  0.332862  0.738234  1
  Bi  Bi18  1  0.166431  0.833569  0.738234  1
  Bi  Bi19  1  0.667138  0.833569  0.738234  1
  Bi  Bi20  1  0.833839  0.667677  0.236402  1
  Bi  Bi21  1  0.833839  0.166161  0.236402  1
  Bi  Bi22  1  0.332323  0.166161  0.236402  1
  Bi  Bi23  1  0.333333  0.666667  0.258356  1
