# generated using pymatgen
data_Sc3Al8CdOs3
_symmetry_space_group_name_H-M   'P 1'
_cell_length_a   6.29704300
_cell_length_b   6.29704300
_cell_length_c   6.29704300
_cell_angle_alpha   90.00000000
_cell_angle_beta   90.00000000
_cell_angle_gamma   90.00000000
_symmetry_Int_Tables_number   1
_chemical_formula_structural   Sc3Al8CdOs3
_chemical_formula_sum   'Sc3 Al8 Cd1 Os3'
_cell_volume   249.69507524
_cell_formula_units_Z   1
loop_
 _symmetry_equiv_pos_site_id
 _symmetry_equiv_pos_as_xyz
  1  'x, y, z'
loop_
 _atom_site_type_symbol
 _atom_site_label
 _atom_site_symmetry_multiplicity
 _atom_site_fract_x
 _atom_site_fract_y
 _atom_site_fract_z
 _atom_site_occupancy
  Sc  Sc0  1  0.500000  0.000000  0.000000  1
  Sc  Sc1  1  0.000000  0.500000  0.000000  1
  Sc  Sc2  1  0.000000  0.000000  0.500000  1
  Al  Al3  1  0.284850  0.284850  0.284850  1
  Al  Al4  1  0.715150  0.715150  0.715150  1
  Al  Al5  1  0.715150  0.715150  0.284850  1
  Al  Al6  1  0.715150  0.284850  0.715150  1
  Al  Al7  1  0.284850  0.284850  0.715150  1
  Al  Al8  1  0.284850  0.715150  0.284850  1
  Al  Al9  1  0.284850  0.715150  0.715150  1
  Al  Al10  1  0.715150  0.284850  0.284850  1
  Cd  Cd11  1  0.000000  0.000000  0.000000  1
  Os  Os12  1  0.000000  0.500000  0.500000  1
  Os  Os13  1  0.500000  0.000000  0.500000  1
  Os  Os14  1  0.500000  0.500000  0.000000  1
