# generated using pymatgen
data_HoHf7Ta4(TiSi2)8
_symmetry_space_group_name_H-M   'P 1'
_cell_length_a   6.85279829
_cell_length_b   6.85339051
_cell_length_c   12.57678605
_cell_angle_alpha   89.95930982
_cell_angle_beta   89.97990249
_cell_angle_gamma   89.93675260
_symmetry_Int_Tables_number   1
_chemical_formula_structural   HoHf7Ta4(TiSi2)8
_chemical_formula_sum   'Ho1 Hf7 Ta4 Ti8 Si16'
_cell_volume   590.66698872
_cell_formula_units_Z   1
loop_
 _symmetry_equiv_pos_site_id
 _symmetry_equiv_pos_as_xyz
  1  'x, y, z'
loop_
 _atom_site_type_symbol
 _atom_site_label
 _atom_site_symmetry_multiplicity
 _atom_site_fract_x
 _atom_site_fract_y
 _atom_site_fract_z
 _atom_site_occupancy
  Ho  Ho0  1  0.997265  0.659780  0.031004  1
  Hf  Hf1  1  0.341741  0.997834  0.469257  1
  Hf  Hf2  1  0.501992  0.842592  0.717810  1
  Hf  Hf3  1  0.497307  0.158268  0.220596  1
  Hf  Hf4  1  0.842694  0.502294  0.282237  1
  Hf  Hf5  1  0.158522  0.497534  0.780929  1
  Hf  Hf6  1  0.654764  0.003808  0.967538  1
  Hf  Hf7  1  0.998118  0.342517  0.530987  1
  Ta  Ta8  1  0.330822  0.326369  0.999535  1
  Ta  Ta9  1  0.172294  0.829962  0.251851  1
  Ta  Ta10  1  0.828714  0.170922  0.748662  1
  Ta  Ta11  1  0.671313  0.671106  0.500151  1
  Ti  Ti12  1  0.155291  0.004212  0.870428  1
  Ti  Ti13  1  0.495995  0.651755  0.123929  1
  Ti  Ti14  1  0.504983  0.347900  0.622286  1
  Ti  Ti15  1  0.651937  0.492435  0.875512  1
  Ti  Ti16  1  0.347501  0.504595  0.378411  1
  Ti  Ti17  1  0.847719  0.996262  0.373960  1
  Ti  Ti18  1  0.006228  0.153046  0.128579  1
  Ti  Ti19  1  0.995472  0.848637  0.626414  1
  Si  Si20  1  0.206441  0.135342  0.675165  1
  Si  Si21  1  0.368972  0.706344  0.925125  1
  Si  Si22  1  0.635107  0.293918  0.426081  1
  Si  Si23  1  0.703481  0.361082  0.073782  1
  Si  Si24  1  0.292961  0.634730  0.574303  1
  Si  Si25  1  0.790964  0.869053  0.179623  1
  Si  Si26  1  0.134953  0.206727  0.325073  1
  Si  Si27  1  0.863371  0.795483  0.820641  1
  Si  Si28  1  0.297964  0.955140  0.063296  1
  Si  Si29  1  0.545405  0.796056  0.313915  1
  Si  Si30  1  0.453607  0.203989  0.811598  1
  Si  Si31  1  0.796092  0.546135  0.686375  1
  Si  Si32  1  0.206030  0.453183  0.188629  1
  Si  Si33  1  0.703633  0.046431  0.562465  1
  Si  Si34  1  0.954195  0.290103  0.936348  1
  Si  Si35  1  0.046153  0.704456  0.437501  1
