# generated using pymatgen
data_TmLu4(GaSb)2
_symmetry_space_group_name_H-M   'P 1'
_cell_length_a   8.47619530
_cell_length_b   8.47619522
_cell_length_c   7.78484511
_cell_angle_alpha   89.98304153
_cell_angle_beta   90.01695837
_cell_angle_gamma   125.42826181
_symmetry_Int_Tables_number   1
_chemical_formula_structural   TmLu4(GaSb)2
_chemical_formula_sum   'Tm2 Lu8 Ga4 Sb4'
_cell_volume   455.74849338
_cell_formula_units_Z   2
loop_
 _symmetry_equiv_pos_site_id
 _symmetry_equiv_pos_as_xyz
  1  'x, y, z'
loop_
 _atom_site_type_symbol
 _atom_site_label
 _atom_site_symmetry_multiplicity
 _atom_site_fract_x
 _atom_site_fract_y
 _atom_site_fract_z
 _atom_site_occupancy
  Tm  Tm0  1  0.798524  0.539272  0.168261  1
  Tm  Tm1  1  0.039272  0.298524  0.331739  1
  Lu  Lu2  1  0.539701  0.796954  0.167445  1
  Lu  Lu3  1  0.296954  0.039701  0.332555  1
  Lu  Lu4  1  0.202622  0.460346  0.832611  1
  Lu  Lu5  1  0.960346  0.702622  0.667389  1
  Lu  Lu6  1  0.702692  0.960079  0.667755  1
  Lu  Lu7  1  0.460079  0.202692  0.832245  1
  Lu  Lu8  1  0.499892  0.500194  0.500413  1
  Lu  Lu9  1  0.000194  0.999892  0.999587  1
  Ga  Ga10  1  0.627489  0.627120  0.872875  1
  Ga  Ga11  1  0.127120  0.127489  0.627125  1
  Ga  Ga12  1  0.872818  0.872554  0.373132  1
  Ga  Ga13  1  0.372554  0.372818  0.126868  1
  Sb  Sb14  1  0.294404  0.707544  0.500539  1
  Sb  Sb15  1  0.207544  0.794404  0.999461  1
  Sb  Sb16  1  0.704950  0.292844  0.501396  1
  Sb  Sb17  1  0.792844  0.204950  0.998604  1
