# generated using pymatgen
data_SrTh(Si2Ni9)2
_symmetry_space_group_name_H-M   'P 1'
_cell_length_a   7.61804660
_cell_length_b   7.61672235
_cell_length_c   7.61804604
_cell_angle_alpha   99.58840145
_cell_angle_beta   99.60774823
_cell_angle_gamma   131.81083349
_symmetry_Int_Tables_number   1
_chemical_formula_structural   SrTh(Si2Ni9)2
_chemical_formula_sum   'Sr1 Th1 Si4 Ni18'
_cell_volume   300.73787024
_cell_formula_units_Z   1
loop_
 _symmetry_equiv_pos_site_id
 _symmetry_equiv_pos_as_xyz
  1  'x, y, z'
loop_
 _atom_site_type_symbol
 _atom_site_label
 _atom_site_symmetry_multiplicity
 _atom_site_fract_x
 _atom_site_fract_y
 _atom_site_fract_z
 _atom_site_occupancy
  Sr  Sr0  1  0.750006  0.249977  0.499970  1
  Th  Th1  1  0.500020  0.500003  0.999984  1
  Si  Si2  1  0.625778  0.876314  0.749591  1
  Si  Si3  1  0.123574  0.374009  0.250436  1
  Si  Si4  1  0.123900  0.873390  0.749491  1
  Si  Si5  1  0.126723  0.876314  0.250537  1
  Ni  Ni6  1  0.250000  0.750013  0.500013  1
  Ni  Ni7  1  0.999997  0.000004  0.000007  1
  Ni  Ni8  1  0.687653  0.014576  0.077649  1
  Ni  Ni9  1  0.687601  0.610037  0.673049  1
  Ni  Ni10  1  0.268987  0.439369  0.580204  1
  Ni  Ni11  1  0.269128  0.688883  0.829633  1
  Ni  Ni12  1  0.936927  0.014576  0.326924  1
  Ni  Ni13  1  0.936989  0.610037  0.922437  1
  Ni  Ni14  1  0.859164  0.439369  0.170383  1
  Ni  Ni15  1  0.859249  0.688883  0.419755  1
  Ni  Ni16  1  0.560574  0.730907  0.419794  1
  Ni  Ni17  1  0.560560  0.140806  0.829576  1
  Ni  Ni18  1  0.985373  0.312329  0.922384  1
  Ni  Ni19  1  0.985498  0.063080  0.673066  1
  Ni  Ni20  1  0.311113  0.730907  0.170333  1
  Ni  Ni21  1  0.311229  0.140806  0.580246  1
  Ni  Ni22  1  0.389945  0.312329  0.326955  1
  Ni  Ni23  1  0.390015  0.063080  0.077582  1
