# generated using pymatgen
data_V12FeNi3
_symmetry_space_group_name_H-M   'P 1'
_cell_length_a   4.65883400
_cell_length_b   4.66751200
_cell_length_c   9.29062600
_cell_angle_alpha   90.00000000
_cell_angle_beta   90.00000000
_cell_angle_gamma   90.00000000
_symmetry_Int_Tables_number   1
_chemical_formula_structural   V12FeNi3
_chemical_formula_sum   'V12 Fe1 Ni3'
_cell_volume   202.02618233
_cell_formula_units_Z   1
loop_
 _symmetry_equiv_pos_site_id
 _symmetry_equiv_pos_as_xyz
  1  'x, y, z'
loop_
 _atom_site_type_symbol
 _atom_site_label
 _atom_site_symmetry_multiplicity
 _atom_site_fract_x
 _atom_site_fract_y
 _atom_site_fract_z
 _atom_site_occupancy
  V  V0  1  0.500000  0.000000  0.624312  1
  V  V1  1  0.500000  0.000000  0.124545  1
  V  V2  1  0.749399  0.500000  0.252253  1
  V  V3  1  0.749399  0.500000  0.747747  1
  V  V4  1  0.000000  0.747906  0.500000  1
  V  V5  1  0.000000  0.750556  0.000000  1
  V  V6  1  0.500000  0.000000  0.375688  1
  V  V7  1  0.500000  0.000000  0.875455  1
  V  V8  1  0.250601  0.500000  0.252253  1
  V  V9  1  0.250601  0.500000  0.747747  1
  V  V10  1  0.000000  0.252094  0.500000  1
  V  V11  1  0.000000  0.249444  0.000000  1
  Fe  Fe12  1  0.500000  0.500000  0.500000  1
  Ni  Ni13  1  0.500000  0.500000  0.000000  1
  Ni  Ni14  1  0.000000  0.000000  0.249401  1
  Ni  Ni15  1  0.000000  0.000000  0.750599  1
