# generated using pymatgen
data_Gd4C7
_symmetry_space_group_name_H-M   'P 1'
_cell_length_a   13.85894300
_cell_length_b   3.76577690
_cell_length_c   6.55638738
_cell_angle_alpha   75.52436135
_cell_angle_beta   90.00000000
_cell_angle_gamma   90.00000000
_symmetry_Int_Tables_number   1
_chemical_formula_structural   Gd4C7
_chemical_formula_sum   'Gd8 C14'
_cell_volume   331.31309858
_cell_formula_units_Z   2
loop_
 _symmetry_equiv_pos_site_id
 _symmetry_equiv_pos_as_xyz
  1  'x, y, z'
loop_
 _atom_site_type_symbol
 _atom_site_label
 _atom_site_symmetry_multiplicity
 _atom_site_fract_x
 _atom_site_fract_y
 _atom_site_fract_z
 _atom_site_occupancy
  Gd  Gd0  1  0.943878  0.367389  0.261994  1
  Gd  Gd1  1  0.443878  0.632611  0.238006  1
  Gd  Gd2  1  0.056122  0.632611  0.738006  1
  Gd  Gd3  1  0.556122  0.367389  0.761994  1
  Gd  Gd4  1  0.663598  0.055511  0.337768  1
  Gd  Gd5  1  0.163598  0.944489  0.162232  1
  Gd  Gd6  1  0.336402  0.944489  0.662232  1
  Gd  Gd7  1  0.836402  0.055511  0.837768  1
  C  C8  1  0.500000  0.000000  0.500000  1
  C  C9  1  0.000000  0.000000  0.000000  1
  C  C10  1  0.782626  0.470695  0.074602  1
  C  C11  1  0.282626  0.529305  0.425398  1
  C  C12  1  0.217374  0.529305  0.925398  1
  C  C13  1  0.717374  0.470695  0.574602  1
  C  C14  1  0.195703  0.377328  0.454400  1
  C  C15  1  0.695703  0.622672  0.045600  1
  C  C16  1  0.395516  0.265583  0.949969  1
  C  C17  1  0.895516  0.734417  0.550031  1
  C  C18  1  0.604484  0.734417  0.050031  1
  C  C19  1  0.104484  0.265583  0.449969  1
  C  C20  1  0.304297  0.377328  0.954400  1
  C  C21  1  0.804297  0.622672  0.545600  1
