# generated using pymatgen
data_NdTa2(Nb2Cl9)2
_symmetry_space_group_name_H-M   'P 1'
_cell_length_a   10.26934153
_cell_length_b   10.26925570
_cell_length_c   10.27152807
_cell_angle_alpha   55.91250975
_cell_angle_beta   55.91721443
_cell_angle_gamma   55.90168092
_symmetry_Int_Tables_number   1
_chemical_formula_structural   NdTa2(Nb2Cl9)2
_chemical_formula_sum   'Nd1 Ta2 Nb4 Cl18'
_cell_volume   693.35469171
_cell_formula_units_Z   1
loop_
 _symmetry_equiv_pos_site_id
 _symmetry_equiv_pos_as_xyz
  1  'x, y, z'
loop_
 _atom_site_type_symbol
 _atom_site_label
 _atom_site_symmetry_multiplicity
 _atom_site_fract_x
 _atom_site_fract_y
 _atom_site_fract_z
 _atom_site_occupancy
  Nd  Nd0  1  0.999306  0.999869  0.000813  1
  Ta  Ta1  1  0.410864  0.301616  0.647624  1
  Ta  Ta2  1  0.352292  0.589579  0.698000  1
  Nb  Nb3  1  0.699075  0.351893  0.589019  1
  Nb  Nb4  1  0.301695  0.648264  0.410048  1
  Nb  Nb5  1  0.648898  0.410336  0.300477  1
  Nb  Nb6  1  0.590137  0.699177  0.351013  1
  Cl  Cl7  1  0.566879  0.164219  0.443816  1
  Cl  Cl8  1  0.226659  0.371562  0.903093  1
  Cl  Cl9  1  0.905600  0.225176  0.370581  1
  Cl  Cl10  1  0.370627  0.905694  0.225652  1
  Cl  Cl11  1  0.774640  0.629375  0.094348  1
  Cl  Cl12  1  0.096141  0.773249  0.631283  1
  Cl  Cl13  1  0.695964  0.957274  0.164388  1
  Cl  Cl14  1  0.955688  0.163470  0.697494  1
  Cl  Cl15  1  0.166662  0.694737  0.952878  1
  Cl  Cl16  1  0.304216  0.047602  0.834252  1
  Cl  Cl17  1  0.043450  0.835037  0.304365  1
  Cl  Cl18  1  0.836134  0.303068  0.043285  1
  Cl  Cl19  1  0.555989  0.433124  0.835712  1
  Cl  Cl20  1  0.165987  0.438455  0.570706  1
  Cl  Cl21  1  0.441223  0.568578  0.164130  1
  Cl  Cl22  1  0.429540  0.834110  0.561369  1
  Cl  Cl23  1  0.835860  0.559130  0.431162  1
  Cl  Cl24  1  0.626475  0.095409  0.774493  1
