# generated using pymatgen
data_Ho5In4AgIr
_symmetry_space_group_name_H-M   'P 1'
_cell_length_a   3.61914200
_cell_length_b   8.20823963
_cell_length_c   18.36184247
_cell_angle_alpha   89.81108189
_cell_angle_beta   90.00000000
_cell_angle_gamma   90.00000000
_symmetry_Int_Tables_number   1
_chemical_formula_structural   Ho5In4AgIr
_chemical_formula_sum   'Ho10 In8 Ag2 Ir2'
_cell_volume   545.46833760
_cell_formula_units_Z   2
loop_
 _symmetry_equiv_pos_site_id
 _symmetry_equiv_pos_as_xyz
  1  'x, y, z'
loop_
 _atom_site_type_symbol
 _atom_site_label
 _atom_site_symmetry_multiplicity
 _atom_site_fract_x
 _atom_site_fract_y
 _atom_site_fract_z
 _atom_site_occupancy
  Ho  Ho0  1  0.000000  0.500000  0.500000  1
  Ho  Ho1  1  0.000000  0.000000  0.000000  1
  Ho  Ho2  1  0.000000  0.715773  0.276706  1
  Ho  Ho3  1  0.000000  0.284227  0.723294  1
  Ho  Ho4  1  0.000000  0.737683  0.782304  1
  Ho  Ho5  1  0.000000  0.262317  0.217696  1
  Ho  Ho6  1  0.000000  0.614174  0.085961  1
  Ho  Ho7  1  0.000000  0.385826  0.914039  1
  Ho  Ho8  1  0.000000  0.879226  0.578551  1
  Ho  Ho9  1  0.000000  0.120774  0.421449  1
  In  In10  1  0.500000  0.710090  0.932361  1
  In  In11  1  0.500000  0.289910  0.067639  1
  In  In12  1  0.500000  0.789985  0.431329  1
  In  In13  1  0.500000  0.210015  0.568671  1
  In  In14  1  0.500000  0.580542  0.647805  1
  In  In15  1  0.500000  0.419458  0.352195  1
  In  In16  1  0.500000  0.920559  0.148907  1
  In  In17  1  0.500000  0.079441  0.851093  1
  Ag  Ag18  1  0.500000  0.979923  0.698090  1
  Ag  Ag19  1  0.500000  0.020077  0.301910  1
  Ir  Ir20  1  0.500000  0.520629  0.195172  1
  Ir  Ir21  1  0.500000  0.479371  0.804828  1
