# generated using pymatgen
data_Ba5SmOs3O16
_symmetry_space_group_name_H-M   'P 1'
_cell_length_a   6.05730268
_cell_length_b   6.06709488
_cell_length_c   10.74958631
_cell_angle_alpha   93.26219811
_cell_angle_beta   93.17120078
_cell_angle_gamma   90.02101638
_symmetry_Int_Tables_number   1
_chemical_formula_structural   Ba5SmOs3O16
_chemical_formula_sum   'Ba5 Sm1 Os3 O16'
_cell_volume   393.80321415
_cell_formula_units_Z   1
loop_
 _symmetry_equiv_pos_site_id
 _symmetry_equiv_pos_as_xyz
  1  'x, y, z'
loop_
 _atom_site_type_symbol
 _atom_site_label
 _atom_site_symmetry_multiplicity
 _atom_site_fract_x
 _atom_site_fract_y
 _atom_site_fract_z
 _atom_site_occupancy
  Ba  Ba0  1  0.511172  0.027274  0.206792  1
  Ba  Ba1  1  0.028948  0.507458  0.208273  1
  Ba  Ba2  1  0.999982  0.000001  0.499964  1
  Ba  Ba3  1  0.971037  0.492470  0.791656  1
  Ba  Ba4  1  0.488775  0.972711  0.793137  1
  Sm  Sm5  1  0.499991  0.499991  0.000007  1
  Os  Os6  1  0.999992  0.999988  0.000075  1
  Os  Os7  1  0.561426  0.561285  0.395359  1
  Os  Os8  1  0.438587  0.438728  0.604640  1
  O  O9  1  0.746770  0.207003  0.001158  1
  O  O10  1  0.796349  0.751381  0.019797  1
  O  O11  1  0.041672  0.043504  0.171334  1
  O  O12  1  0.480392  0.479300  0.209761  1
  O  O13  1  0.761672  0.761940  0.334297  1
  O  O14  1  0.319699  0.747922  0.377866  1
  O  O15  1  0.750364  0.321274  0.378279  1
  O  O16  1  0.327799  0.326111  0.437836  1
  O  O17  1  0.672232  0.673910  0.562143  1
  O  O18  1  0.249626  0.678825  0.621705  1
  O  O19  1  0.680399  0.252055  0.622129  1
  O  O20  1  0.238306  0.238043  0.665631  1
  O  O21  1  0.519588  0.520689  0.790202  1
  O  O22  1  0.958343  0.956504  0.828715  1
  O  O23  1  0.203653  0.248637  0.980308  1
  O  O24  1  0.253221  0.792984  0.998946  1
