# generated using pymatgen
data_ErAg3(Ir2O7)2
_symmetry_space_group_name_H-M   'P 1'
_cell_length_a   7.18666516
_cell_length_b   7.18666570
_cell_length_c   7.23408701
_cell_angle_alpha   60.21661218
_cell_angle_beta   60.21661906
_cell_angle_gamma   60.00000106
_symmetry_Int_Tables_number   1
_chemical_formula_structural   ErAg3(Ir2O7)2
_chemical_formula_sum   'Er1 Ag3 Ir4 O14'
_cell_volume   265.05609639
_cell_formula_units_Z   1
loop_
 _symmetry_equiv_pos_site_id
 _symmetry_equiv_pos_as_xyz
  1  'x, y, z'
loop_
 _atom_site_type_symbol
 _atom_site_label
 _atom_site_symmetry_multiplicity
 _atom_site_fract_x
 _atom_site_fract_y
 _atom_site_fract_z
 _atom_site_occupancy
  Er  Er0  1  0.125000  0.125000  0.625000  1
  Ag  Ag1  1  0.625000  0.125000  0.125000  1
  Ag  Ag2  1  0.125000  0.625000  0.125000  1
  Ag  Ag3  1  0.125000  0.125000  0.125000  1
  Ir  Ir4  1  0.125000  0.625000  0.625000  1
  Ir  Ir5  1  0.625000  0.125000  0.625000  1
  Ir  Ir6  1  0.625000  0.625000  0.125000  1
  Ir  Ir7  1  0.625000  0.625000  0.625000  1
  O  O8  1  0.696157  0.696157  0.306510  1
  O  O9  1  0.293615  0.293615  0.694994  1
  O  O10  1  0.717777  0.293615  0.694994  1
  O  O11  1  0.301176  0.696157  0.306510  1
  O  O12  1  0.293615  0.717777  0.694994  1
  O  O13  1  0.696157  0.301176  0.306510  1
  O  O14  1  0.553843  0.553843  0.943490  1
  O  O15  1  0.956385  0.956385  0.555006  1
  O  O16  1  0.532223  0.956385  0.555006  1
  O  O17  1  0.948824  0.553843  0.943490  1
  O  O18  1  0.956385  0.532223  0.555006  1
  O  O19  1  0.553843  0.948824  0.943490  1
  O  O20  1  0.253938  0.253938  0.238185  1
  O  O21  1  0.996062  0.996062  0.011815  1
