# generated using pymatgen
data_Y5Sc5(Si5Ir2)4
_symmetry_space_group_name_H-M   'P 1'
_cell_length_a   12.51900000
_cell_length_b   12.51900000
_cell_length_c   4.17698300
_cell_angle_alpha   90.00000000
_cell_angle_beta   90.00000000
_cell_angle_gamma   90.00000000
_symmetry_Int_Tables_number   1
_chemical_formula_structural   Y5Sc5(Si5Ir2)4
_chemical_formula_sum   'Y5 Sc5 Si20 Ir8'
_cell_volume   654.63916857
_cell_formula_units_Z   1
loop_
 _symmetry_equiv_pos_site_id
 _symmetry_equiv_pos_as_xyz
  1  'x, y, z'
loop_
 _atom_site_type_symbol
 _atom_site_label
 _atom_site_symmetry_multiplicity
 _atom_site_fract_x
 _atom_site_fract_y
 _atom_site_fract_z
 _atom_site_occupancy
  Y  Y0  1  0.000000  0.000000  0.000000  1
  Y  Y1  1  0.884296  0.385440  0.500000  1
  Y  Y2  1  0.115704  0.614560  0.500000  1
  Y  Y3  1  0.385440  0.115704  0.500000  1
  Y  Y4  1  0.614560  0.884296  0.500000  1
  Sc  Sc5  1  0.500000  0.500000  0.000000  1
  Sc  Sc6  1  0.673378  0.174964  0.500000  1
  Sc  Sc7  1  0.326622  0.825036  0.500000  1
  Sc  Sc8  1  0.174964  0.326622  0.500000  1
  Sc  Sc9  1  0.825036  0.673378  0.500000  1
  Si  Si10  1  0.566698  0.068622  0.000000  1
  Si  Si11  1  0.433302  0.931378  0.000000  1
  Si  Si12  1  0.068622  0.433302  0.000000  1
  Si  Si13  1  0.931378  0.566698  0.000000  1
  Si  Si14  1  0.665494  0.699203  0.000000  1
  Si  Si15  1  0.334506  0.300797  0.000000  1
  Si  Si16  1  0.166033  0.800066  0.000000  1
  Si  Si17  1  0.833967  0.199934  0.000000  1
  Si  Si18  1  0.300797  0.665494  0.000000  1
  Si  Si19  1  0.699203  0.334506  0.000000  1
  Si  Si20  1  0.199934  0.166033  0.000000  1
  Si  Si21  1  0.800066  0.833967  0.000000  1
  Si  Si22  1  0.650702  0.506531  0.500000  1
  Si  Si23  1  0.349298  0.493469  0.500000  1
  Si  Si24  1  0.157438  0.993918  0.500000  1
  Si  Si25  1  0.842562  0.006082  0.500000  1
  Si  Si26  1  0.493469  0.650702  0.500000  1
  Si  Si27  1  0.506531  0.349298  0.500000  1
  Si  Si28  1  0.006082  0.157438  0.500000  1
  Si  Si29  1  0.993918  0.842562  0.500000  1
  Ir  Ir30  1  0.743359  0.520317  0.000000  1
  Ir  Ir31  1  0.256641  0.479683  0.000000  1
  Ir  Ir32  1  0.246966  0.979410  0.000000  1
  Ir  Ir33  1  0.753034  0.020590  0.000000  1
  Ir  Ir34  1  0.479683  0.743359  0.000000  1
  Ir  Ir35  1  0.520317  0.256641  0.000000  1
  Ir  Ir36  1  0.020590  0.246966  0.000000  1
  Ir  Ir37  1  0.979410  0.753034  0.000000  1
