# generated using pymatgen
data_La3Cd3Ag2Au
_symmetry_space_group_name_H-M   'P 1'
_cell_length_a   8.12011000
_cell_length_b   8.12011040
_cell_length_c   4.12939300
_cell_angle_alpha   90.00000000
_cell_angle_beta   90.00000000
_cell_angle_gamma   119.99999838
_symmetry_Int_Tables_number   1
_chemical_formula_structural   La3Cd3Ag2Au
_chemical_formula_sum   'La3 Cd3 Ag2 Au1'
_cell_volume   235.79831768
_cell_formula_units_Z   1
loop_
 _symmetry_equiv_pos_site_id
 _symmetry_equiv_pos_as_xyz
  1  'x, y, z'
loop_
 _atom_site_type_symbol
 _atom_site_label
 _atom_site_symmetry_multiplicity
 _atom_site_fract_x
 _atom_site_fract_y
 _atom_site_fract_z
 _atom_site_occupancy
  La  La0  1  0.409464  0.992290  0.000000  1
  La  La1  1  0.582827  0.590536  0.000000  1
  La  La2  1  0.007710  0.417173  0.000000  1
  Cd  Cd3  1  0.750251  0.003598  0.500000  1
  Cd  Cd4  1  0.253348  0.249749  0.500000  1
  Cd  Cd5  1  0.996402  0.746652  0.500000  1
  Ag  Ag6  1  0.666667  0.333333  0.500000  1
  Ag  Ag7  1  0.000000  0.000000  0.000000  1
  Au  Au8  1  0.333333  0.666667  0.500000  1
