# generated using pymatgen
data_CsNdDy9(C2I9)2
_symmetry_space_group_name_H-M   'P 1'
_cell_length_a   11.46667432
_cell_length_b   11.50180542
_cell_length_c   11.53422515
_cell_angle_alpha   113.29582842
_cell_angle_beta   86.93089557
_cell_angle_gamma   119.82320587
_symmetry_Int_Tables_number   1
_chemical_formula_structural   CsNdDy9(C2I9)2
_chemical_formula_sum   'Cs1 Nd1 Dy9 C4 I18'
_cell_volume   1192.44441556
_cell_formula_units_Z   1
loop_
 _symmetry_equiv_pos_site_id
 _symmetry_equiv_pos_as_xyz
  1  'x, y, z'
loop_
 _atom_site_type_symbol
 _atom_site_label
 _atom_site_symmetry_multiplicity
 _atom_site_fract_x
 _atom_site_fract_y
 _atom_site_fract_z
 _atom_site_occupancy
  Cs  Cs0  1  0.500093  0.000347  0.500077  1
  Nd  Nd1  1  0.671370  0.721782  0.707204  1
  Dy  Dy2  1  0.275901  0.351363  0.015523  1
  Dy  Dy3  1  0.092879  0.388366  0.290101  1
  Dy  Dy4  1  0.964933  0.038017  0.322863  1
  Dy  Dy5  1  0.906682  0.611068  0.709404  1
  Dy  Dy6  1  0.105484  0.945573  0.001524  1
  Dy  Dy7  1  0.036029  0.962500  0.677811  1
  Dy  Dy8  1  0.320986  0.274469  0.287602  1
  Dy  Dy9  1  0.724993  0.649091  0.985106  1
  Dy  Dy10  1  0.895664  0.054874  0.999095  1
  C  C11  1  0.151403  0.218991  0.120233  1
  C  C12  1  0.851676  0.782493  0.881483  1
  C  C13  1  0.927010  0.858158  0.805932  1
  C  C14  1  0.075839  0.142995  0.196095  1
  I  I15  1  0.447164  0.526998  0.835923  1
  I  I16  1  0.382579  0.040205  0.157518  1
  I  I17  1  0.781671  0.858803  0.498457  1
  I  I18  1  0.838932  0.309914  0.153581  1
  I  I19  1  0.549016  0.469185  0.168066  1
  I  I20  1  0.221823  0.144652  0.498002  1
  I  I21  1  0.316921  0.096690  0.830486  1
  I  I22  1  0.683509  0.903524  0.169268  1
  I  I23  1  0.975265  0.757205  0.169806  1
  I  I24  1  0.934592  0.297945  0.499999  1
  I  I25  1  0.024676  0.242412  0.830477  1
  I  I26  1  0.065692  0.702243  0.499957  1
  I  I27  1  0.259903  0.619819  0.182486  1
  I  I28  1  0.739952  0.380446  0.817741  1
  I  I29  1  0.642967  0.426798  0.495370  1
  I  I30  1  0.161767  0.691012  0.847227  1
  I  I31  1  0.616338  0.968339  0.847311  1
  I  I32  1  0.356291  0.563724  0.498272  1
