# generated using pymatgen
data_Dy5Y5(InSb2)2
_symmetry_space_group_name_H-M   'P 1'
_cell_length_a   6.49725400
_cell_length_b   8.98705912
_cell_length_c   8.99471800
_cell_angle_alpha   120.02810984
_cell_angle_beta   90.00002401
_cell_angle_gamma   89.99991089
_symmetry_Int_Tables_number   1
_chemical_formula_structural   Dy5Y5(InSb2)2
_chemical_formula_sum   'Dy5 Y5 In2 Sb4'
_cell_volume   454.71841504
_cell_formula_units_Z   1
loop_
 _symmetry_equiv_pos_site_id
 _symmetry_equiv_pos_as_xyz
  1  'x, y, z'
loop_
 _atom_site_type_symbol
 _atom_site_label
 _atom_site_symmetry_multiplicity
 _atom_site_fract_x
 _atom_site_fract_y
 _atom_site_fract_z
 _atom_site_occupancy
  Dy  Dy0  1  0.499379  0.336105  0.667601  1
  Dy  Dy1  1  0.499380  0.663896  0.331496  1
  Dy  Dy2  1  0.000621  0.663895  0.331495  1
  Dy  Dy3  1  0.000620  0.336106  0.667600  1
  Dy  Dy4  1  0.250001  0.000006  0.757270  1
  Y  Y5  1  0.749999  0.241922  0.004188  1
  Y  Y6  1  0.750000  0.758070  0.762270  1
  Y  Y7  1  0.750001  0.000002  0.240142  1
  Y  Y8  1  0.250000  0.758995  0.997954  1
  Y  Y9  1  0.250000  0.241005  0.238972  1
  In  In10  1  0.750000  0.605551  0.000931  1
  In  In11  1  0.750000  0.394449  0.395380  1
  Sb  Sb12  1  0.750007  0.999993  0.609160  1
  Sb  Sb13  1  0.249999  0.391886  0.998289  1
  Sb  Sb14  1  0.250000  0.608119  0.606405  1
  Sb  Sb15  1  0.250001  0.999998  0.390850  1
