# generated using pymatgen
data_Dy8Re3Si16Tc9
_symmetry_space_group_name_H-M   'P 1'
_cell_length_a   6.79207917
_cell_length_b   6.79207864
_cell_length_c   12.71855605
_cell_angle_alpha   90.11934013
_cell_angle_beta   89.88065949
_cell_angle_gamma   90.04686229
_symmetry_Int_Tables_number   1
_chemical_formula_structural   Dy8Re3Si16Tc9
_chemical_formula_sum   'Dy8 Re3 Si16 Tc9'
_cell_volume   586.73395953
_cell_formula_units_Z   1
loop_
 _symmetry_equiv_pos_site_id
 _symmetry_equiv_pos_as_xyz
  1  'x, y, z'
loop_
 _atom_site_type_symbol
 _atom_site_label
 _atom_site_symmetry_multiplicity
 _atom_site_fract_x
 _atom_site_fract_y
 _atom_site_fract_z
 _atom_site_occupancy
  Dy  Dy0  1  0.001948  0.661797  0.029700  1
  Dy  Dy1  1  0.998029  0.338216  0.529524  1
  Dy  Dy2  1  0.661797  0.001948  0.970300  1
  Dy  Dy3  1  0.167467  0.491645  0.780829  1
  Dy  Dy4  1  0.833198  0.508396  0.281181  1
  Dy  Dy5  1  0.491645  0.167467  0.219171  1
  Dy  Dy6  1  0.508396  0.833198  0.718819  1
  Dy  Dy7  1  0.338216  0.998029  0.470476  1
  Re  Re8  1  0.839804  0.161199  0.750841  1
  Re  Re9  1  0.161199  0.839804  0.249159  1
  Re  Re10  1  0.332812  0.332812  0.000000  1
  Si  Si11  1  0.020996  0.729862  0.436358  1
  Si  Si12  1  0.977421  0.272268  0.935563  1
  Si  Si13  1  0.729862  0.020996  0.563642  1
  Si  Si14  1  0.216318  0.478552  0.184978  1
  Si  Si15  1  0.783711  0.520603  0.686367  1
  Si  Si16  1  0.478552  0.216318  0.815022  1
  Si  Si17  1  0.520603  0.783711  0.313633  1
  Si  Si18  1  0.272268  0.977421  0.064437  1
  Si  Si19  1  0.802236  0.887119  0.186385  1
  Si  Si20  1  0.311966  0.610874  0.561687  1
  Si  Si21  1  0.689515  0.386835  0.062135  1
  Si  Si22  1  0.610874  0.311966  0.438313  1
  Si  Si23  1  0.386835  0.689515  0.937865  1
  Si  Si24  1  0.112325  0.197712  0.313542  1
  Si  Si25  1  0.197712  0.112325  0.686458  1
  Si  Si26  1  0.887119  0.802236  0.813615  1
  Tc  Tc27  1  0.315363  0.489376  0.373242  1
  Tc  Tc28  1  0.812197  0.025348  0.370932  1
  Tc  Tc29  1  0.975255  0.185242  0.127825  1
  Tc  Tc30  1  0.025348  0.812197  0.629068  1
  Tc  Tc31  1  0.489376  0.315363  0.626758  1
  Tc  Tc32  1  0.185242  0.975255  0.872175  1
  Tc  Tc33  1  0.667407  0.667407  0.500000  1
  Tc  Tc34  1  0.513201  0.683788  0.124802  1
  Tc  Tc35  1  0.683788  0.513201  0.875198  1
