# generated using pymatgen
data_Rb6Pu(Mo2O9)2
_symmetry_space_group_name_H-M   'P 1'
_cell_length_a   10.33948929
_cell_length_b   10.33948933
_cell_length_c   12.25613600
_cell_angle_alpha   104.07650798
_cell_angle_beta   105.93517710
_cell_angle_gamma   112.72159545
_symmetry_Int_Tables_number   1
_chemical_formula_structural   Rb6Pu(Mo2O9)2
_chemical_formula_sum   'Rb12 Pu2 Mo8 O36'
_cell_volume   1068.22273795
_cell_formula_units_Z   2
loop_
 _symmetry_equiv_pos_site_id
 _symmetry_equiv_pos_as_xyz
  1  'x, y, z'
loop_
 _atom_site_type_symbol
 _atom_site_label
 _atom_site_symmetry_multiplicity
 _atom_site_fract_x
 _atom_site_fract_y
 _atom_site_fract_z
 _atom_site_occupancy
  Rb  Rb0  1  0.628075  0.180579  0.161929  1
  Rb  Rb1  1  0.095450  0.351944  0.166386  1
  Rb  Rb2  1  0.259727  0.009728  0.250001  1
  Rb  Rb3  1  0.934269  0.684270  0.250001  1
  Rb  Rb4  1  0.685558  0.929064  0.333613  1
  Rb  Rb5  1  0.518651  0.466146  0.338071  1
  Rb  Rb6  1  0.481350  0.533854  0.661929  1
  Rb  Rb7  1  0.314441  0.070937  0.666387  1
  Rb  Rb8  1  0.065732  0.315732  0.750000  1
  Rb  Rb9  1  0.740273  0.990273  0.750000  1
  Rb  Rb10  1  0.904550  0.648056  0.833613  1
  Rb  Rb11  1  0.371924  0.819422  0.838071  1
  Pu  Pu12  1  0.500000  0.500000  0.000000  1
  Pu  Pu13  1  0.000000  0.500000  0.500000  1
  Mo  Mo14  1  0.795451  0.877804  0.045614  1
  Mo  Mo15  1  0.274112  0.677579  0.070708  1
  Mo  Mo16  1  0.106870  0.203404  0.429292  1
  Mo  Mo17  1  0.332190  0.749837  0.454386  1
  Mo  Mo18  1  0.667809  0.250162  0.545613  1
  Mo  Mo19  1  0.893130  0.796597  0.570708  1
  Mo  Mo20  1  0.725888  0.322421  0.929292  1
  Mo  Mo21  1  0.204549  0.122196  0.954385  1
  O  O22  1  0.966218  0.866474  0.061684  1
  O  O23  1  0.835245  0.379813  0.088181  1
  O  O24  1  0.350194  0.543348  0.090603  1
  O  O25  1  0.684335  0.745013  0.106023  1
  O  O26  1  0.319463  0.188791  0.114719  1
  O  O27  1  0.833213  0.065565  0.124809  1
  O  O28  1  0.424694  0.869162  0.124493  1
  O  O29  1  0.590555  0.454537  0.122663  1
  O  O30  1  0.153327  0.672545  0.149593  1
  O  O31  1  0.022952  0.003735  0.350408  1
  O  O32  1  0.831875  0.467892  0.377338  1
  O  O33  1  0.244668  0.300201  0.375508  1
  O  O34  1  0.440755  0.708404  0.375191  1
  O  O35  1  0.574071  0.204744  0.385280  1
  O  O36  1  0.138989  0.578311  0.393976  1
  O  O37  1  0.952743  0.259591  0.409396  1
  O  O38  1  0.791631  0.747062  0.411819  1
  O  O39  1  0.304788  0.904533  0.438316  1
  O  O40  1  0.695212  0.095467  0.561684  1
  O  O41  1  0.208369  0.252937  0.588180  1
  O  O42  1  0.047256  0.740410  0.590604  1
  O  O43  1  0.861010  0.421689  0.606023  1
  O  O44  1  0.425927  0.795255  0.614719  1
  O  O45  1  0.559246  0.291597  0.624809  1
  O  O46  1  0.755332  0.699799  0.624493  1
  O  O47  1  0.168125  0.532107  0.622662  1
  O  O48  1  0.977049  0.996267  0.649592  1
  O  O49  1  0.846674  0.327456  0.850408  1
  O  O50  1  0.409445  0.545462  0.877337  1
  O  O51  1  0.575308  0.130839  0.875508  1
  O  O52  1  0.166787  0.934436  0.875191  1
  O  O53  1  0.680536  0.811208  0.885280  1
  O  O54  1  0.315665  0.254987  0.893976  1
  O  O55  1  0.649806  0.456652  0.909396  1
  O  O56  1  0.164757  0.620187  0.911821  1
  O  O57  1  0.033782  0.133526  0.938315  1
