# generated using pymatgen
data_Tm5AuSe4
_symmetry_space_group_name_H-M   'P 1'
_cell_length_a   7.03108275
_cell_length_b   7.03109708
_cell_length_c   7.03109249
_cell_angle_alpha   99.63645425
_cell_angle_beta   99.63651487
_cell_angle_gamma   131.69822480
_symmetry_Int_Tables_number   1
_chemical_formula_structural   Tm5AuSe4
_chemical_formula_sum   'Tm5 Au1 Se4'
_cell_volume   236.81507687
_cell_formula_units_Z   1
loop_
 _symmetry_equiv_pos_site_id
 _symmetry_equiv_pos_as_xyz
  1  'x, y, z'
loop_
 _atom_site_type_symbol
 _atom_site_label
 _atom_site_symmetry_multiplicity
 _atom_site_fract_x
 _atom_site_fract_y
 _atom_site_fract_z
 _atom_site_occupancy
  Tm  Tm0  1  0.400604  0.793902  0.194505  1
  Tm  Tm1  1  0.000000  0.000000  0.000000  1
  Tm  Tm2  1  0.599396  0.206098  0.805495  1
  Tm  Tm3  1  0.206098  0.400604  0.606701  1
  Tm  Tm4  1  0.793902  0.599396  0.393299  1
  Au  Au5  1  0.500000  0.500000  0.000000  1
  Se  Se6  1  0.094783  0.694904  0.789686  1
  Se  Se7  1  0.694902  0.905217  0.600120  1
  Se  Se8  1  0.305098  0.094783  0.399880  1
  Se  Se9  1  0.905217  0.305096  0.210314  1
