# generated using pymatgen
data_Lu2PdPtO7
_symmetry_space_group_name_H-M   'P 1'
_cell_length_a   7.16374024
_cell_length_b   7.15911920
_cell_length_c   7.16373952
_cell_angle_alpha   60.02133365
_cell_angle_beta   60.02291746
_cell_angle_gamma   60.02133262
_symmetry_Int_Tables_number   1
_chemical_formula_structural   Lu2PdPtO7
_chemical_formula_sum   'Lu4 Pd2 Pt2 O14'
_cell_volume   259.91981329
_cell_formula_units_Z   2
loop_
 _symmetry_equiv_pos_site_id
 _symmetry_equiv_pos_as_xyz
  1  'x, y, z'
loop_
 _atom_site_type_symbol
 _atom_site_label
 _atom_site_symmetry_multiplicity
 _atom_site_fract_x
 _atom_site_fract_y
 _atom_site_fract_z
 _atom_site_occupancy
  Lu  Lu0  1  0.625000  0.625000  0.125000  1
  Lu  Lu1  1  0.625000  0.625000  0.625000  1
  Lu  Lu2  1  0.625000  0.125000  0.625000  1
  Lu  Lu3  1  0.125000  0.625000  0.625000  1
  Pd  Pd4  1  0.625000  0.125000  0.125000  1
  Pd  Pd5  1  0.125000  0.125000  0.625000  1
  Pt  Pt6  1  0.125000  0.125000  0.125000  1
  Pt  Pt7  1  0.125000  0.625000  0.125000  1
  O  O8  1  0.030304  0.470556  0.468948  1
  O  O9  1  0.781052  0.779444  0.219696  1
  O  O10  1  0.781052  0.219808  0.219696  1
  O  O11  1  0.469405  0.030595  0.469405  1
  O  O12  1  0.750072  0.749928  0.750072  1
  O  O13  1  0.029707  0.470293  0.029707  1
  O  O14  1  0.030304  0.030192  0.468948  1
  O  O15  1  0.220293  0.779707  0.220293  1
  O  O16  1  0.219696  0.219808  0.781052  1
  O  O17  1  0.780595  0.219405  0.780595  1
  O  O18  1  0.499928  0.500072  0.499928  1
  O  O19  1  0.468948  0.030192  0.030304  1
  O  O20  1  0.468948  0.470556  0.030304  1
  O  O21  1  0.219696  0.779444  0.781052  1
