# generated using pymatgen
data_Lu4HfZrSnO12
_symmetry_space_group_name_H-M   'P 1'
_cell_length_a   6.28339269
_cell_length_b   6.30703123
_cell_length_c   6.39546273
_cell_angle_alpha   99.67101361
_cell_angle_beta   98.89012363
_cell_angle_gamma   99.65785695
_symmetry_Int_Tables_number   1
_chemical_formula_structural   Lu4HfZrSnO12
_chemical_formula_sum   'Lu4 Hf1 Zr1 Sn1 O12'
_cell_volume   241.91348960
_cell_formula_units_Z   1
loop_
 _symmetry_equiv_pos_site_id
 _symmetry_equiv_pos_as_xyz
  1  'x, y, z'
loop_
 _atom_site_type_symbol
 _atom_site_label
 _atom_site_symmetry_multiplicity
 _atom_site_fract_x
 _atom_site_fract_y
 _atom_site_fract_z
 _atom_site_occupancy
  Lu  Lu0  1  0.391018  0.697157  0.863031  1
  Lu  Lu1  1  0.694091  0.864465  0.391678  1
  Lu  Lu2  1  0.608978  0.301268  0.135889  1
  Lu  Lu3  1  0.308043  0.137054  0.609470  1
  Hf  Hf4  1  0.852440  0.394547  0.678335  1
  Zr  Zr5  1  0.147137  0.605822  0.318890  1
  Sn  Sn6  1  0.999046  0.999092  0.998784  1
  O  O7  1  0.036783  0.675777  0.901159  1
  O  O8  1  0.684658  0.929466  0.056973  1
  O  O9  1  0.919910  0.078194  0.688253  1
  O  O10  1  0.960968  0.321328  0.097755  1
  O  O11  1  0.314285  0.069703  0.942829  1
  O  O12  1  0.079063  0.925708  0.312280  1
  O  O13  1  0.589323  0.186016  0.433954  1
  O  O14  1  0.171799  0.427258  0.575653  1
  O  O15  1  0.418923  0.580265  0.177477  1
  O  O16  1  0.413724  0.815431  0.567321  1
  O  O17  1  0.824973  0.572225  0.429619  1
  O  O18  1  0.584839  0.419225  0.820648  1
