# generated using pymatgen
data_K8Ga11I
_symmetry_space_group_name_H-M   'P 1'
_cell_length_a   9.65132541
_cell_length_b   9.65132610
_cell_length_c   17.00356518
_cell_angle_alpha   89.99999993
_cell_angle_beta   106.48731217
_cell_angle_gamma   59.99999764
_symmetry_Int_Tables_number   1
_chemical_formula_structural   K8Ga11I
_chemical_formula_sum   'K16 Ga22 I2'
_cell_volume   1295.91016946
_cell_formula_units_Z   2
loop_
 _symmetry_equiv_pos_site_id
 _symmetry_equiv_pos_as_xyz
  1  'x, y, z'
loop_
 _atom_site_type_symbol
 _atom_site_label
 _atom_site_symmetry_multiplicity
 _atom_site_fract_x
 _atom_site_fract_y
 _atom_site_fract_z
 _atom_site_occupancy
  K  K0  1  0.969295  0.678479  0.068996  1
  K  K1  1  0.747475  0.352225  0.068996  1
  K  K2  1  0.421220  0.900300  0.068996  1
  K  K3  1  0.150749  0.924626  0.226122  1
  K  K4  1  0.849252  0.575374  0.273878  1
  K  K5  1  0.578780  0.821520  0.431004  1
  K  K6  1  0.252526  0.599699  0.431004  1
  K  K7  1  0.030705  0.147775  0.431004  1
  K  K8  1  0.969295  0.852225  0.568996  1
  K  K9  1  0.747475  0.400300  0.568996  1
  K  K10  1  0.421220  0.178479  0.568996  1
  K  K11  1  0.150748  0.424626  0.726122  1
  K  K12  1  0.849252  0.075373  0.773878  1
  K  K13  1  0.578780  0.099700  0.931004  1
  K  K14  1  0.252526  0.647775  0.931004  1
  K  K15  1  0.030705  0.321520  0.931004  1
  Ga  Ga16  1  0.405673  0.297164  0.108508  1
  Ga  Ga17  1  0.707803  0.015531  0.163917  1
  Ga  Ga18  1  0.440583  0.543886  0.163917  1
  Ga  Ga19  1  0.179447  0.276666  0.163917  1
  Ga  Ga20  1  0.699540  0.250001  0.250000  1
  Ga  Ga21  1  0.500000  0.050459  0.250000  1
  Ga  Ga22  1  0.300460  0.449541  0.250000  1
  Ga  Ga23  1  0.820552  0.956113  0.336083  1
  Ga  Ga24  1  0.559417  0.484470  0.336083  1
  Ga  Ga25  1  0.292197  0.223334  0.336083  1
  Ga  Ga26  1  0.594327  0.202835  0.391491  1
  Ga  Ga27  1  0.405673  0.797164  0.608509  1
  Ga  Ga28  1  0.707803  0.776666  0.663917  1
  Ga  Ga29  1  0.440583  0.515530  0.663917  1
  Ga  Ga30  1  0.179448  0.043886  0.663917  1
  Ga  Ga31  1  0.699540  0.550460  0.750000  1
  Ga  Ga32  1  0.500000  0.949540  0.750000  1
  Ga  Ga33  1  0.300460  0.750000  0.750000  1
  Ga  Ga34  1  0.820553  0.723334  0.836083  1
  Ga  Ga35  1  0.559417  0.456113  0.836083  1
  Ga  Ga36  1  0.292197  0.984469  0.836083  1
  Ga  Ga37  1  0.594327  0.702836  0.891491  1
  I  I38  1  0.000000  0.000000  0.000000  1
  I  I39  1  0.000000  0.500000  0.500000  1
