# generated using pymatgen
data_Ti3Re3GeP2
_symmetry_space_group_name_H-M   'P 1'
_cell_length_a   6.77612400
_cell_length_b   6.77612441
_cell_length_c   3.25775800
_cell_angle_alpha   90.00000000
_cell_angle_beta   90.00000000
_cell_angle_gamma   119.99999798
_symmetry_Int_Tables_number   1
_chemical_formula_structural   Ti3Re3GeP2
_chemical_formula_sum   'Ti3 Re3 Ge1 P2'
_cell_volume   129.54247089
_cell_formula_units_Z   1
loop_
 _symmetry_equiv_pos_site_id
 _symmetry_equiv_pos_as_xyz
  1  'x, y, z'
loop_
 _atom_site_type_symbol
 _atom_site_label
 _atom_site_symmetry_multiplicity
 _atom_site_fract_x
 _atom_site_fract_y
 _atom_site_fract_z
 _atom_site_occupancy
  Ti  Ti0  1  0.394879  0.409642  0.500000  1
  Ti  Ti1  1  0.590358  0.985236  0.500000  1
  Ti  Ti2  1  0.014764  0.605121  0.500000  1
  Re  Re3  1  0.742970  0.750931  0.000000  1
  Re  Re4  1  0.249069  0.992040  0.000000  1
  Re  Re5  1  0.007960  0.257030  0.000000  1
  Ge  Ge6  1  0.666667  0.333333  0.000000  1
  P  P7  1  0.333333  0.666667  0.000000  1
  P  P8  1  0.000000  0.000000  0.500000  1
