# generated using pymatgen
data_Y10Co3Rh
_symmetry_space_group_name_H-M   'P 1'
_cell_length_a   6.40673299
_cell_length_b   7.06297500
_cell_length_c   8.67056172
_cell_angle_alpha   96.31723790
_cell_angle_beta   111.90557497
_cell_angle_gamma   89.96125645
_symmetry_Int_Tables_number   1
_chemical_formula_structural   Y10Co3Rh
_chemical_formula_sum   'Y10 Co3 Rh1'
_cell_volume   361.46321190
_cell_formula_units_Z   1
loop_
 _symmetry_equiv_pos_site_id
 _symmetry_equiv_pos_as_xyz
  1  'x, y, z'
loop_
 _atom_site_type_symbol
 _atom_site_label
 _atom_site_symmetry_multiplicity
 _atom_site_fract_x
 _atom_site_fract_y
 _atom_site_fract_z
 _atom_site_occupancy
  Y  Y0  1  0.976231  0.909749  0.189820  1
  Y  Y1  1  0.799323  0.589867  0.811207  1
  Y  Y2  1  0.013028  0.090510  0.810992  1
  Y  Y3  1  0.198387  0.418393  0.188398  1
  Y  Y4  1  0.653247  0.811713  0.436332  1
  Y  Y5  1  0.217579  0.682469  0.568295  1
  Y  Y6  1  0.351829  0.182993  0.569531  1
  Y  Y7  1  0.789557  0.320338  0.434420  1
  Y  Y8  1  0.428295  0.743141  0.996016  1
  Y  Y9  1  0.571366  0.253427  0.997692  1
  Co  Co10  1  0.823150  0.573997  0.223380  1
  Co  Co11  1  0.603744  0.927499  0.779449  1
  Co  Co12  1  0.174963  0.425769  0.775816  1
  Rh  Rh13  1  0.399300  0.070136  0.218653  1
