# generated using pymatgen
data_CeSmPa(SnRh)3
_symmetry_space_group_name_H-M   'P 1'
_cell_length_a   7.48641027
_cell_length_b   7.60112695
_cell_length_c   4.03060400
_cell_angle_alpha   90.00000000
_cell_angle_beta   90.00000000
_cell_angle_gamma   120.61069988
_symmetry_Int_Tables_number   1
_chemical_formula_structural   CeSmPa(SnRh)3
_chemical_formula_sum   'Ce1 Sm1 Pa1 Sn3 Rh3'
_cell_volume   197.39983032
_cell_formula_units_Z   1
loop_
 _symmetry_equiv_pos_site_id
 _symmetry_equiv_pos_as_xyz
  1  'x, y, z'
loop_
 _atom_site_type_symbol
 _atom_site_label
 _atom_site_symmetry_multiplicity
 _atom_site_fract_x
 _atom_site_fract_y
 _atom_site_fract_z
 _atom_site_occupancy
  Ce  Ce0  1  0.413247  0.000889  0.000000  1
  Sm  Sm1  1  0.590300  0.590508  0.000000  1
  Pa  Pa2  1  0.999977  0.415388  0.000000  1
  Sn  Sn3  1  0.263870  0.255415  0.500000  1
  Sn  Sn4  1  0.997787  0.756220  0.500000  1
  Sn  Sn5  1  0.737490  0.989027  0.500000  1
  Rh  Rh6  1  0.695174  0.330370  0.500000  1
  Rh  Rh7  1  0.300706  0.643006  0.500000  1
  Rh  Rh8  1  0.001450  0.019175  0.000000  1
