# generated using pymatgen
data_Nb9TlSe16
_symmetry_space_group_name_H-M   'P 1'
_cell_length_a   7.00482300
_cell_length_b   7.00482354
_cell_length_c   15.29900300
_cell_angle_alpha   90.00000000
_cell_angle_beta   90.00000000
_cell_angle_gamma   120.00000218
_symmetry_Int_Tables_number   1
_chemical_formula_structural   Nb9TlSe16
_chemical_formula_sum   'Nb9 Tl1 Se16'
_cell_volume   650.11190210
_cell_formula_units_Z   1
loop_
 _symmetry_equiv_pos_site_id
 _symmetry_equiv_pos_as_xyz
  1  'x, y, z'
loop_
 _atom_site_type_symbol
 _atom_site_label
 _atom_site_symmetry_multiplicity
 _atom_site_fract_x
 _atom_site_fract_y
 _atom_site_fract_z
 _atom_site_occupancy
  Nb  Nb0  1  0.000000  0.000000  0.285575  1
  Nb  Nb1  1  0.000000  0.000000  0.714425  1
  Nb  Nb2  1  0.505453  0.010905  0.285028  1
  Nb  Nb3  1  0.494547  0.989095  0.714972  1
  Nb  Nb4  1  0.989095  0.494547  0.285028  1
  Nb  Nb5  1  0.010905  0.505453  0.714972  1
  Nb  Nb6  1  0.505453  0.494547  0.285028  1
  Nb  Nb7  1  0.494547  0.505453  0.714972  1
  Nb  Nb8  1  0.000000  0.000000  0.500000  1
  Tl  Tl9  1  0.000000  0.000000  0.000000  1
  Se  Se10  1  0.333333  0.666667  0.603719  1
  Se  Se11  1  0.666667  0.333333  0.396281  1
  Se  Se12  1  0.666667  0.333333  0.173064  1
  Se  Se13  1  0.333333  0.666667  0.826936  1
  Se  Se14  1  0.167027  0.334054  0.176567  1
  Se  Se15  1  0.832973  0.665946  0.823433  1
  Se  Se16  1  0.665946  0.832973  0.176567  1
  Se  Se17  1  0.831357  0.662713  0.605520  1
  Se  Se18  1  0.334054  0.167027  0.823433  1
  Se  Se19  1  0.168643  0.337287  0.394480  1
  Se  Se20  1  0.167027  0.832973  0.176567  1
  Se  Se21  1  0.337287  0.168643  0.605520  1
  Se  Se22  1  0.832973  0.167027  0.823433  1
  Se  Se23  1  0.662713  0.831357  0.394480  1
  Se  Se24  1  0.831357  0.168643  0.605520  1
  Se  Se25  1  0.168643  0.831357  0.394480  1
