# generated using pymatgen
data_TbY3Ga4IrPd3
_symmetry_space_group_name_H-M   'P 1'
_cell_length_a   4.46064400
_cell_length_b   6.92520905
_cell_length_c   7.67865133
_cell_angle_alpha   89.64831493
_cell_angle_beta   90.00000000
_cell_angle_gamma   90.00000000
_symmetry_Int_Tables_number   1
_chemical_formula_structural   TbY3Ga4IrPd3
_chemical_formula_sum   'Tb1 Y3 Ga4 Ir1 Pd3'
_cell_volume   237.19592216
_cell_formula_units_Z   1
loop_
 _symmetry_equiv_pos_site_id
 _symmetry_equiv_pos_as_xyz
  1  'x, y, z'
loop_
 _atom_site_type_symbol
 _atom_site_label
 _atom_site_symmetry_multiplicity
 _atom_site_fract_x
 _atom_site_fract_y
 _atom_site_fract_z
 _atom_site_occupancy
  Tb  Tb0  1  0.750000  0.023965  0.690581  1
  Y  Y1  1  0.250000  0.988873  0.304463  1
  Y  Y2  1  0.250000  0.479782  0.199371  1
  Y  Y3  1  0.750000  0.519719  0.804719  1
  Ga  Ga4  1  0.250000  0.327784  0.571255  1
  Ga  Ga5  1  0.250000  0.827475  0.928900  1
  Ga  Ga6  1  0.750000  0.664340  0.427061  1
  Ga  Ga7  1  0.750000  0.174061  0.074450  1
  Ir  Ir8  1  0.750000  0.275222  0.398132  1
  Pd  Pd9  1  0.250000  0.218492  0.898454  1
  Pd  Pd10  1  0.250000  0.719717  0.601773  1
  Pd  Pd11  1  0.750000  0.780566  0.100842  1
