# generated using pymatgen
data_Sc4ReB8(Os2W)3
_symmetry_space_group_name_H-M   'P 1'
_cell_length_a   8.72021275
_cell_length_b   3.06634700
_cell_length_c   10.03899265
_cell_angle_alpha   90.00000000
_cell_angle_beta   90.24365083
_cell_angle_gamma   90.00000000
_symmetry_Int_Tables_number   1
_chemical_formula_structural   Sc4ReB8(Os2W)3
_chemical_formula_sum   'Sc4 Re1 B8 Os6 W3'
_cell_volume   268.43218707
_cell_formula_units_Z   1
loop_
 _symmetry_equiv_pos_site_id
 _symmetry_equiv_pos_as_xyz
  1  'x, y, z'
loop_
 _atom_site_type_symbol
 _atom_site_label
 _atom_site_symmetry_multiplicity
 _atom_site_fract_x
 _atom_site_fract_y
 _atom_site_fract_z
 _atom_site_occupancy
  Sc  Sc0  1  0.162390  0.500000  0.681191  1
  Sc  Sc1  1  0.839632  0.500000  0.319558  1
  Sc  Sc2  1  0.662839  0.500000  0.818588  1
  Sc  Sc3  1  0.339125  0.500000  0.181341  1
  Re  Re4  1  0.336403  0.000000  0.452692  1
  B  B5  1  0.352873  0.500000  0.898427  1
  B  B6  1  0.646005  0.500000  0.101001  1
  B  B7  1  0.461937  0.500000  0.586276  1
  B  B8  1  0.529662  0.500000  0.410497  1
  B  B9  1  0.852269  0.500000  0.600023  1
  B  B10  1  0.149586  0.500000  0.400759  1
  B  B11  1  0.966449  0.500000  0.913837  1
  B  B12  1  0.034863  0.500000  0.087072  1
  Os  Os13  1  0.409448  0.000000  0.738478  1
  Os  Os14  1  0.591294  0.000000  0.261605  1
  Os  Os15  1  0.910178  0.000000  0.761795  1
  Os  Os16  1  0.092076  0.000000  0.239514  1
  Os  Os17  1  0.500792  0.000000  0.999359  1
  Os  Os18  1  0.001043  0.000000  0.500855  1
  W  W19  1  0.164304  0.000000  0.952506  1
  W  W20  1  0.836330  0.000000  0.048491  1
  W  W21  1  0.660503  0.000000  0.546134  1
