# generated using pymatgen
data_ErZnInCu2Ni
_symmetry_space_group_name_H-M   'P 1'
_cell_length_a   5.15826718
_cell_length_b   5.15826809
_cell_length_c   5.06947973
_cell_angle_alpha   59.47375287
_cell_angle_beta   59.47374388
_cell_angle_gamma   59.45733923
_symmetry_Int_Tables_number   1
_chemical_formula_structural   ErZnInCu2Ni
_chemical_formula_sum   'Er1 Zn1 In1 Cu2 Ni1'
_cell_volume   94.22610824
_cell_formula_units_Z   1
loop_
 _symmetry_equiv_pos_site_id
 _symmetry_equiv_pos_as_xyz
  1  'x, y, z'
loop_
 _atom_site_type_symbol
 _atom_site_label
 _atom_site_symmetry_multiplicity
 _atom_site_fract_x
 _atom_site_fract_y
 _atom_site_fract_z
 _atom_site_occupancy
  Er  Er0  1  0.250675  0.250675  0.253451  1
  Zn  Zn1  1  0.625978  0.625978  0.123061  1
  In  In2  1  0.998021  0.998021  0.003473  1
  Cu  Cu3  1  0.626854  0.123941  0.622395  1
  Cu  Cu4  1  0.123941  0.626854  0.622395  1
  Ni  Ni5  1  0.624530  0.624530  0.625224  1
