# generated using pymatgen
data_RbLaNdSmB24
_symmetry_space_group_name_H-M   'P 1'
_cell_length_a   7.20253508
_cell_length_b   7.20253502
_cell_length_c   5.91288900
_cell_angle_alpha   90.00000000
_cell_angle_beta   90.00000000
_cell_angle_gamma   109.28796219
_symmetry_Int_Tables_number   1
_chemical_formula_structural   RbLaNdSmB24
_chemical_formula_sum   'Rb1 La1 Nd1 Sm1 B24'
_cell_volume   289.52284696
_cell_formula_units_Z   1
loop_
 _symmetry_equiv_pos_site_id
 _symmetry_equiv_pos_as_xyz
  1  'x, y, z'
loop_
 _atom_site_type_symbol
 _atom_site_label
 _atom_site_symmetry_multiplicity
 _atom_site_fract_x
 _atom_site_fract_y
 _atom_site_fract_z
 _atom_site_occupancy
  Rb  Rb0  1  0.750085  0.249915  0.500000  1
  La  La1  1  0.501765  0.498235  0.000000  1
  Nd  Nd2  1  0.998279  0.001721  0.000000  1
  Sm  Sm3  1  0.250183  0.749817  0.500000  1
  B  B4  1  0.175832  0.326210  0.648533  1
  B  B5  1  0.927084  0.576890  0.149364  1
  B  B6  1  0.673790  0.824168  0.648533  1
  B  B7  1  0.423110  0.072916  0.149364  1
  B  B8  1  0.175832  0.326210  0.351467  1
  B  B9  1  0.927084  0.576890  0.850636  1
  B  B10  1  0.673790  0.824168  0.351467  1
  B  B11  1  0.423110  0.072916  0.850636  1
  B  B12  1  0.400633  0.398171  0.500000  1
  B  B13  1  0.150692  0.650653  0.000000  1
  B  B14  1  0.898357  0.901027  0.500000  1
  B  B15  1  0.648300  0.148160  0.000000  1
  B  B16  1  0.323522  0.173172  0.648556  1
  B  B17  1  0.076812  0.427118  0.149459  1
  B  B18  1  0.826828  0.676478  0.648556  1
  B  B19  1  0.572882  0.923188  0.149459  1
  B  B20  1  0.098973  0.101643  0.500000  1
  B  B21  1  0.851840  0.351700  0.000000  1
  B  B22  1  0.601829  0.599367  0.500000  1
  B  B23  1  0.349347  0.849308  0.000000  1
  B  B24  1  0.323522  0.173172  0.351444  1
  B  B25  1  0.076812  0.427118  0.850541  1
  B  B26  1  0.826828  0.676478  0.351444  1
  B  B27  1  0.572882  0.923188  0.850541  1
