# generated using pymatgen
data_Tm8B24Ir3W
_symmetry_space_group_name_H-M   'P 1'
_cell_length_a   3.61676300
_cell_length_b   9.12648865
_cell_length_c   11.47483265
_cell_angle_alpha   89.79409270
_cell_angle_beta   90.00000000
_cell_angle_gamma   90.00000000
_symmetry_Int_Tables_number   1
_chemical_formula_structural   Tm8B24Ir3W
_chemical_formula_sum   'Tm8 B24 Ir3 W1'
_cell_volume   378.76280612
_cell_formula_units_Z   1
loop_
 _symmetry_equiv_pos_site_id
 _symmetry_equiv_pos_as_xyz
  1  'x, y, z'
loop_
 _atom_site_type_symbol
 _atom_site_label
 _atom_site_symmetry_multiplicity
 _atom_site_fract_x
 _atom_site_fract_y
 _atom_site_fract_z
 _atom_site_occupancy
  Tm  Tm0  1  0.000000  0.322812  0.412474  1
  Tm  Tm1  1  0.000000  0.679910  0.582891  1
  Tm  Tm2  1  0.000000  0.816611  0.090511  1
  Tm  Tm3  1  0.000000  0.179346  0.914731  1
  Tm  Tm4  1  0.000000  0.944457  0.375344  1
  Tm  Tm5  1  0.000000  0.056765  0.626506  1
  Tm  Tm6  1  0.000000  0.445617  0.124972  1
  Tm  Tm7  1  0.000000  0.556165  0.872627  1
  B  B8  1  0.500000  0.551018  0.436177  1
  B  B9  1  0.500000  0.446405  0.567057  1
  B  B10  1  0.500000  0.052277  0.065816  1
  B  B11  1  0.500000  0.946387  0.934542  1
  B  B12  1  0.500000  0.750770  0.422473  1
  B  B13  1  0.500000  0.250818  0.579245  1
  B  B14  1  0.500000  0.249445  0.078370  1
  B  B15  1  0.500000  0.749606  0.920777  1
  B  B16  1  0.500000  0.795260  0.264240  1
  B  B17  1  0.500000  0.206565  0.735861  1
  B  B18  1  0.500000  0.291928  0.233299  1
  B  B19  1  0.500000  0.707982  0.764266  1
  B  B20  1  0.500000  0.631293  0.182869  1
  B  B21  1  0.500000  0.367608  0.816376  1
  B  B22  1  0.500000  0.132329  0.315889  1
  B  B23  1  0.500000  0.869059  0.683882  1
  B  B24  1  0.500000  0.981631  0.213066  1
  B  B25  1  0.500000  0.018977  0.787826  1
  B  B26  1  0.500000  0.478706  0.285958  1
  B  B27  1  0.500000  0.518569  0.713176  1
  B  B28  1  0.500000  0.608023  0.027473  1
  B  B29  1  0.500000  0.390714  0.968997  1
  B  B30  1  0.500000  0.109699  0.470879  1
  B  B31  1  0.500000  0.894268  0.531297  1
  Ir  Ir32  1  0.000000  0.361373  0.679411  1
  Ir  Ir33  1  0.000000  0.137421  0.177644  1
  Ir  Ir34  1  0.000000  0.862873  0.822017  1
  W  W35  1  0.000000  0.637312  0.321059  1
