# generated using pymatgen
data_Tm6Sc8Al8Ir7
_symmetry_space_group_name_H-M   'P 1'
_cell_length_a   9.22377571
_cell_length_b   9.22377613
_cell_length_c   9.22377600
_cell_angle_alpha   60.00000046
_cell_angle_beta   59.99999896
_cell_angle_gamma   60.00000495
_symmetry_Int_Tables_number   1
_chemical_formula_structural   Tm6Sc8Al8Ir7
_chemical_formula_sum   'Tm6 Sc8 Al8 Ir7'
_cell_volume   554.89556222
_cell_formula_units_Z   1
loop_
 _symmetry_equiv_pos_site_id
 _symmetry_equiv_pos_as_xyz
  1  'x, y, z'
loop_
 _atom_site_type_symbol
 _atom_site_label
 _atom_site_symmetry_multiplicity
 _atom_site_fract_x
 _atom_site_fract_y
 _atom_site_fract_z
 _atom_site_occupancy
  Tm  Tm0  1  0.693004  0.693004  0.306996  1
  Tm  Tm1  1  0.306996  0.693004  0.306996  1
  Tm  Tm2  1  0.693004  0.306996  0.306996  1
  Tm  Tm3  1  0.306996  0.306996  0.693004  1
  Tm  Tm4  1  0.693004  0.306996  0.693004  1
  Tm  Tm5  1  0.306996  0.693004  0.693004  1
  Sc  Sc6  1  0.879090  0.879090  0.362731  1
  Sc  Sc7  1  0.879090  0.362731  0.879090  1
  Sc  Sc8  1  0.362731  0.879090  0.879090  1
  Sc  Sc9  1  0.879090  0.879090  0.879090  1
  Sc  Sc10  1  0.120910  0.120910  0.637269  1
  Sc  Sc11  1  0.120910  0.637269  0.120910  1
  Sc  Sc12  1  0.637269  0.120910  0.120910  1
  Sc  Sc13  1  0.120910  0.120910  0.120910  1
  Al  Al14  1  0.668250  0.668250  0.995250  1
  Al  Al15  1  0.668250  0.995250  0.668250  1
  Al  Al16  1  0.995250  0.668250  0.668250  1
  Al  Al17  1  0.668250  0.668250  0.668250  1
  Al  Al18  1  0.331750  0.331750  0.004750  1
  Al  Al19  1  0.331750  0.004750  0.331750  1
  Al  Al20  1  0.004750  0.331750  0.331750  1
  Al  Al21  1  0.331750  0.331750  0.331750  1
  Ir  Ir22  1  0.000000  0.000000  0.000000  1
  Ir  Ir23  1  0.000000  0.000000  0.500000  1
  Ir  Ir24  1  0.500000  0.000000  0.500000  1
  Ir  Ir25  1  0.000000  0.500000  0.500000  1
  Ir  Ir26  1  0.500000  0.500000  0.000000  1
  Ir  Ir27  1  0.000000  0.500000  0.000000  1
  Ir  Ir28  1  0.500000  0.000000  0.000000  1
