# generated using pymatgen
data_CaTb3Sc4(ReB6)4
_symmetry_space_group_name_H-M   'P 1'
_cell_length_a   3.58991700
_cell_length_b   9.03173920
_cell_length_c   11.41369525
_cell_angle_alpha   89.97577840
_cell_angle_beta   90.00000000
_cell_angle_gamma   90.00000000
_symmetry_Int_Tables_number   1
_chemical_formula_structural   CaTb3Sc4(ReB6)4
_chemical_formula_sum   'Ca1 Tb3 Sc4 Re4 B24'
_cell_volume   370.06842358
_cell_formula_units_Z   1
loop_
 _symmetry_equiv_pos_site_id
 _symmetry_equiv_pos_as_xyz
  1  'x, y, z'
loop_
 _atom_site_type_symbol
 _atom_site_label
 _atom_site_symmetry_multiplicity
 _atom_site_fract_x
 _atom_site_fract_y
 _atom_site_fract_z
 _atom_site_occupancy
  Ca  Ca0  1  0.000000  0.177663  0.914426  1
  Tb  Tb1  1  0.000000  0.322334  0.414692  1
  Tb  Tb2  1  0.000000  0.677722  0.585466  1
  Tb  Tb3  1  0.000000  0.823653  0.085464  1
  Sc  Sc4  1  0.000000  0.944576  0.370463  1
  Sc  Sc5  1  0.000000  0.055491  0.630710  1
  Sc  Sc6  1  0.000000  0.443381  0.131368  1
  Sc  Sc7  1  0.000000  0.556182  0.868650  1
  Re  Re8  1  0.000000  0.641729  0.317396  1
  Re  Re9  1  0.000000  0.359651  0.681501  1
  Re  Re10  1  0.000000  0.141738  0.182972  1
  Re  Re11  1  0.000000  0.856542  0.817371  1
  B  B12  1  0.500000  0.554972  0.431794  1
  B  B13  1  0.500000  0.445371  0.567504  1
  B  B14  1  0.500000  0.054525  0.067788  1
  B  B15  1  0.500000  0.945300  0.932066  1
  B  B16  1  0.500000  0.754385  0.417569  1
  B  B17  1  0.500000  0.245597  0.582506  1
  B  B18  1  0.500000  0.254839  0.081750  1
  B  B19  1  0.500000  0.744772  0.917948  1
  B  B20  1  0.500000  0.795651  0.264635  1
  B  B21  1  0.500000  0.204278  0.735263  1
  B  B22  1  0.500000  0.295433  0.235313  1
  B  B23  1  0.500000  0.703904  0.764476  1
  B  B24  1  0.500000  0.629077  0.182309  1
  B  B25  1  0.500000  0.370904  0.817478  1
  B  B26  1  0.500000  0.129004  0.317618  1
  B  B27  1  0.500000  0.870714  0.683211  1
  B  B28  1  0.500000  0.981923  0.214012  1
  B  B29  1  0.500000  0.018148  0.786349  1
  B  B30  1  0.500000  0.481843  0.285902  1
  B  B31  1  0.500000  0.518369  0.713532  1
  B  B32  1  0.500000  0.593574  0.025294  1
  B  B33  1  0.500000  0.406755  0.974654  1
  B  B34  1  0.500000  0.094928  0.474733  1
  B  B35  1  0.500000  0.905075  0.525815  1
