# generated using pymatgen
data_LiPr17(YIr6)2
_symmetry_space_group_name_H-M   'P 1'
_cell_length_a   11.30216400
_cell_length_b   11.30216400
_cell_length_c   6.50314800
_cell_angle_alpha   90.00000000
_cell_angle_beta   90.00000000
_cell_angle_gamma   90.00000000
_symmetry_Int_Tables_number   1
_chemical_formula_structural   LiPr17(YIr6)2
_chemical_formula_sum   'Li1 Pr17 Y2 Ir12'
_cell_volume   830.70504413
_cell_formula_units_Z   1
loop_
 _symmetry_equiv_pos_site_id
 _symmetry_equiv_pos_as_xyz
  1  'x, y, z'
loop_
 _atom_site_type_symbol
 _atom_site_label
 _atom_site_symmetry_multiplicity
 _atom_site_fract_x
 _atom_site_fract_y
 _atom_site_fract_z
 _atom_site_occupancy
  Li  Li0  1  0.000000  0.000000  0.000000  1
  Pr  Pr1  1  0.291952  0.088564  0.383460  1
  Pr  Pr2  1  0.278376  0.915798  0.885266  1
  Pr  Pr3  1  0.721624  0.084202  0.885266  1
  Pr  Pr4  1  0.708048  0.911436  0.383460  1
  Pr  Pr5  1  0.585925  0.790117  0.882151  1
  Pr  Pr6  1  0.589576  0.210668  0.384230  1
  Pr  Pr7  1  0.410424  0.789332  0.384230  1
  Pr  Pr8  1  0.414075  0.209883  0.882151  1
  Pr  Pr9  1  0.210668  0.410424  0.615770  1
  Pr  Pr10  1  0.209883  0.585925  0.117849  1
  Pr  Pr11  1  0.790117  0.414075  0.117849  1
  Pr  Pr12  1  0.789332  0.589576  0.615770  1
  Pr  Pr13  1  0.915798  0.721624  0.114734  1
  Pr  Pr14  1  0.911436  0.291952  0.616540  1
  Pr  Pr15  1  0.088564  0.708048  0.616540  1
  Pr  Pr16  1  0.084202  0.278376  0.114734  1
  Pr  Pr17  1  0.000000  0.000000  0.500000  1
  Y  Y18  1  0.500000  0.500000  0.000000  1
  Y  Y19  1  0.500000  0.500000  0.500000  1
  Ir  Ir20  1  0.844259  0.154815  0.256782  1
  Ir  Ir21  1  0.845185  0.844259  0.743218  1
  Ir  Ir22  1  0.154815  0.155741  0.743218  1
  Ir  Ir23  1  0.155741  0.845185  0.256782  1
  Ir  Ir24  1  0.649402  0.351113  0.752025  1
  Ir  Ir25  1  0.648887  0.649402  0.247975  1
  Ir  Ir26  1  0.351113  0.350598  0.247975  1
  Ir  Ir27  1  0.350598  0.648887  0.752025  1
  Ir  Ir28  1  0.500000  0.000000  0.112273  1
  Ir  Ir29  1  0.500000  0.000000  0.619824  1
  Ir  Ir30  1  0.000000  0.500000  0.887727  1
  Ir  Ir31  1  0.000000  0.500000  0.380176  1
