# generated using pymatgen
data_Ti12Cd2Sn5Sb3
_symmetry_space_group_name_H-M   'P 1'
_cell_length_a   9.24753800
_cell_length_b   9.25651335
_cell_length_c   5.70482900
_cell_angle_alpha   90.00000000
_cell_angle_beta   90.00000000
_cell_angle_gamma   119.96793022
_symmetry_Int_Tables_number   1
_chemical_formula_structural   Ti12Cd2Sn5Sb3
_chemical_formula_sum   'Ti12 Cd2 Sn5 Sb3'
_cell_volume   423.04549408
_cell_formula_units_Z   1
loop_
 _symmetry_equiv_pos_site_id
 _symmetry_equiv_pos_as_xyz
  1  'x, y, z'
loop_
 _atom_site_type_symbol
 _atom_site_label
 _atom_site_symmetry_multiplicity
 _atom_site_fract_x
 _atom_site_fract_y
 _atom_site_fract_z
 _atom_site_occupancy
  Ti  Ti0  1  0.840156  0.680311  0.750000  1
  Ti  Ti1  1  0.161539  0.844528  0.250000  1
  Ti  Ti2  1  0.682989  0.844528  0.250000  1
  Ti  Ti3  1  0.313928  0.159810  0.750000  1
  Ti  Ti4  1  0.845882  0.159810  0.750000  1
  Ti  Ti5  1  0.155688  0.311376  0.250000  1
  Ti  Ti6  1  0.501443  0.002885  0.497116  1
  Ti  Ti7  1  0.498786  0.498725  0.000077  1
  Ti  Ti8  1  0.999939  0.498725  0.000077  1
  Ti  Ti9  1  0.999939  0.498725  0.499923  1
  Ti  Ti10  1  0.501443  0.002885  0.002884  1
  Ti  Ti11  1  0.498786  0.498725  0.499923  1
  Cd  Cd12  1  0.996348  0.992695  0.500856  1
  Cd  Cd13  1  0.996348  0.992695  0.999144  1
  Sn  Sn14  1  0.606151  0.804530  0.750000  1
  Sn  Sn15  1  0.198379  0.804530  0.750000  1
  Sn  Sn16  1  0.804053  0.608106  0.250000  1
  Sn  Sn17  1  0.667152  0.334302  0.750000  1
  Sn  Sn18  1  0.333994  0.667988  0.250000  1
  Sb  Sb19  1  0.198365  0.396731  0.750000  1
  Sb  Sb20  1  0.804527  0.198696  0.250000  1
  Sb  Sb21  1  0.394169  0.198696  0.250000  1
