# generated using pymatgen
data_Zr6ZnSiO2
_symmetry_space_group_name_H-M   'P 1'
_cell_length_a   5.85638522
_cell_length_b   5.85638513
_cell_length_c   8.68890400
_cell_angle_alpha   90.00000000
_cell_angle_beta   90.00000000
_cell_angle_gamma   145.27976605
_symmetry_Int_Tables_number   1
_chemical_formula_structural   Zr6ZnSiO2
_chemical_formula_sum   'Zr6 Zn1 Si1 O2'
_cell_volume   169.73493522
_cell_formula_units_Z   1
loop_
 _symmetry_equiv_pos_site_id
 _symmetry_equiv_pos_as_xyz
  1  'x, y, z'
loop_
 _atom_site_type_symbol
 _atom_site_label
 _atom_site_symmetry_multiplicity
 _atom_site_fract_x
 _atom_site_fract_y
 _atom_site_fract_z
 _atom_site_occupancy
  Zr  Zr0  1  0.635811  0.364189  0.941726  1
  Zr  Zr1  1  0.367363  0.632637  0.451703  1
  Zr  Zr2  1  0.367363  0.632637  0.048297  1
  Zr  Zr3  1  0.635811  0.364189  0.558274  1
  Zr  Zr4  1  0.938876  0.061124  0.750000  1
  Zr  Zr5  1  0.054128  0.945872  0.250000  1
  Zn  Zn6  1  0.747893  0.252107  0.250000  1
  Si  Si7  1  0.254072  0.745928  0.750000  1
  O  O8  1  0.999341  0.000659  0.998799  1
  O  O9  1  0.999341  0.000659  0.501201  1
