# generated using pymatgen
data_NdSm(Ga3Pd)2
_symmetry_space_group_name_H-M   'P 1'
_cell_length_a   6.07824600
_cell_length_b   6.07824562
_cell_length_c   5.85176400
_cell_angle_alpha   90.00000000
_cell_angle_beta   90.00000000
_cell_angle_gamma   116.30463160
_symmetry_Int_Tables_number   1
_chemical_formula_structural   NdSm(Ga3Pd)2
_chemical_formula_sum   'Nd1 Sm1 Ga6 Pd2'
_cell_volume   193.80710270
_cell_formula_units_Z   1
loop_
 _symmetry_equiv_pos_site_id
 _symmetry_equiv_pos_as_xyz
  1  'x, y, z'
loop_
 _atom_site_type_symbol
 _atom_site_label
 _atom_site_symmetry_multiplicity
 _atom_site_fract_x
 _atom_site_fract_y
 _atom_site_fract_z
 _atom_site_occupancy
  Nd  Nd0  1  0.234101  0.765899  0.750000  1
  Sm  Sm1  1  0.767078  0.232922  0.250000  1
  Ga  Ga2  1  0.665994  0.334006  0.750000  1
  Ga  Ga3  1  0.333776  0.666224  0.250000  1
  Ga  Ga4  1  0.715197  0.715335  0.000154  1
  Ga  Ga5  1  0.715197  0.715335  0.499846  1
  Ga  Ga6  1  0.284665  0.284803  0.000154  1
  Ga  Ga7  1  0.284665  0.284803  0.499846  1
  Pd  Pd8  1  0.904639  0.095361  0.750000  1
  Pd  Pd9  1  0.094686  0.905314  0.250000  1
