# generated using pymatgen
data_Y6AlTc15O
_symmetry_space_group_name_H-M   'P 1'
_cell_length_a   8.06508533
_cell_length_b   8.06508578
_cell_length_c   8.03148900
_cell_angle_alpha   109.82321677
_cell_angle_beta   109.82321791
_cell_angle_gamma   108.94056269
_symmetry_Int_Tables_number   1
_chemical_formula_structural   Y6AlTc15O
_chemical_formula_sum   'Y6 Al1 Tc15 O1'
_cell_volume   401.26743821
_cell_formula_units_Z   1
loop_
 _symmetry_equiv_pos_site_id
 _symmetry_equiv_pos_as_xyz
  1  'x, y, z'
loop_
 _atom_site_type_symbol
 _atom_site_label
 _atom_site_symmetry_multiplicity
 _atom_site_fract_x
 _atom_site_fract_y
 _atom_site_fract_z
 _atom_site_occupancy
  Y  Y0  1  0.741162  0.741162  0.001735  1
  Y  Y1  1  0.266363  0.002420  0.268784  1
  Y  Y2  1  0.736752  0.999588  0.736341  1
  Y  Y3  1  0.999588  0.736752  0.736342  1
  Y  Y4  1  0.002420  0.266363  0.268784  1
  Y  Y5  1  0.260572  0.260572  0.001735  1
  Al  Al6  1  0.344480  0.344480  0.688961  1
  Tc  Tc7  1  0.000989  0.500989  0.001979  1
  Tc  Tc8  1  0.500989  0.000989  0.001979  1
  Tc  Tc9  1  0.999402  0.999402  0.507068  1
  Tc  Tc10  1  0.507666  0.507666  0.507068  1
  Tc  Tc11  1  0.654429  0.654429  0.308857  1
  Tc  Tc12  1  0.998017  0.338038  0.657454  1
  Tc  Tc13  1  0.319416  0.659437  0.657454  1
  Tc  Tc14  1  0.659437  0.319416  0.657454  1
  Tc  Tc15  1  0.338038  0.998017  0.657454  1
  Tc  Tc16  1  0.657665  0.336035  0.993700  1
  Tc  Tc17  1  0.336035  0.657665  0.993700  1
  Tc  Tc18  1  0.341039  0.681256  0.337643  1
  Tc  Tc19  1  0.996605  0.656388  0.337643  1
  Tc  Tc20  1  0.656388  0.996605  0.337643  1
  Tc  Tc21  1  0.681256  0.341039  0.337643  1
  O  O22  1  0.001288  0.001288  0.002577  1
