# generated using pymatgen
data_Zr2PaMnGa3Ni2
_symmetry_space_group_name_H-M   'P 1'
_cell_length_a   7.01348503
_cell_length_b   6.73621775
_cell_length_c   3.61372800
_cell_angle_alpha   90.00000000
_cell_angle_beta   90.00000000
_cell_angle_gamma   120.47726235
_symmetry_Int_Tables_number   1
_chemical_formula_structural   Zr2PaMnGa3Ni2
_chemical_formula_sum   'Zr2 Pa1 Mn1 Ga3 Ni2'
_cell_volume   147.13883594
_cell_formula_units_Z   1
loop_
 _symmetry_equiv_pos_site_id
 _symmetry_equiv_pos_as_xyz
  1  'x, y, z'
loop_
 _atom_site_type_symbol
 _atom_site_label
 _atom_site_symmetry_multiplicity
 _atom_site_fract_x
 _atom_site_fract_y
 _atom_site_fract_z
 _atom_site_occupancy
  Zr  Zr0  1  0.007014  0.411727  0.500000  1
  Zr  Zr1  1  0.592203  0.591759  0.500000  1
  Pa  Pa2  1  0.411316  0.976630  0.500000  1
  Mn  Mn3  1  0.335893  0.706139  0.000000  1
  Ga  Ga4  1  0.768382  0.000481  0.000000  1
  Ga  Ga5  1  0.977112  0.728297  0.000000  1
  Ga  Ga6  1  0.254520  0.269106  0.000000  1
  Ni  Ni7  1  0.646374  0.312431  0.000000  1
  Ni  Ni8  1  0.007186  0.003428  0.500000  1
