# generated using pymatgen
data_Dy4AlNi13
_symmetry_space_group_name_H-M   'P 1'
_cell_length_a   12.51390047
_cell_length_b   12.51390020
_cell_length_c   12.51453998
_cell_angle_alpha   22.63571689
_cell_angle_beta   22.63572101
_cell_angle_gamma   22.89329463
_symmetry_Int_Tables_number   1
_chemical_formula_structural   Dy4AlNi13
_chemical_formula_sum   'Dy4 Al1 Ni13'
_cell_volume   256.50140932
_cell_formula_units_Z   1
loop_
 _symmetry_equiv_pos_site_id
 _symmetry_equiv_pos_as_xyz
  1  'x, y, z'
loop_
 _atom_site_type_symbol
 _atom_site_label
 _atom_site_symmetry_multiplicity
 _atom_site_fract_x
 _atom_site_fract_y
 _atom_site_fract_z
 _atom_site_occupancy
  Dy  Dy0  1  0.947771  0.947771  0.947686  1
  Dy  Dy1  1  0.852375  0.852375  0.852809  1
  Dy  Dy2  1  0.147625  0.147625  0.147191  1
  Dy  Dy3  1  0.052229  0.052229  0.052314  1
  Al  Al4  1  0.500000  0.500000  0.000000  1
  Ni  Ni5  1  0.500000  0.000000  0.500000  1
  Ni  Ni6  1  0.000000  0.500000  0.500000  1
  Ni  Ni7  1  0.610783  0.610783  0.612314  1
  Ni  Ni8  1  0.278321  0.278321  0.277148  1
  Ni  Ni9  1  0.390111  0.890231  0.390311  1
  Ni  Ni10  1  0.890231  0.390111  0.390311  1
  Ni  Ni11  1  0.389573  0.389573  0.890974  1
  Ni  Ni12  1  0.500000  0.500000  0.500000  1
  Ni  Ni13  1  0.610427  0.610427  0.109026  1
  Ni  Ni14  1  0.109769  0.609889  0.609689  1
  Ni  Ni15  1  0.609889  0.109769  0.609689  1
  Ni  Ni16  1  0.721679  0.721679  0.722852  1
  Ni  Ni17  1  0.389217  0.389217  0.387686  1
