# generated using pymatgen
data_Dy3Zr3Sn6Ir5Rh
_symmetry_space_group_name_H-M   'P 1'
_cell_length_a   7.49042300
_cell_length_b   7.49042359
_cell_length_c   7.60551600
_cell_angle_alpha   90.00000000
_cell_angle_beta   90.00000000
_cell_angle_gamma   120.00000179
_symmetry_Int_Tables_number   1
_chemical_formula_structural   Dy3Zr3Sn6Ir5Rh
_chemical_formula_sum   'Dy3 Zr3 Sn6 Ir5 Rh1'
_cell_volume   369.54899915
_cell_formula_units_Z   1
loop_
 _symmetry_equiv_pos_site_id
 _symmetry_equiv_pos_as_xyz
  1  'x, y, z'
loop_
 _atom_site_type_symbol
 _atom_site_label
 _atom_site_symmetry_multiplicity
 _atom_site_fract_x
 _atom_site_fract_y
 _atom_site_fract_z
 _atom_site_occupancy
  Dy  Dy0  1  0.407214  0.999274  0.250000  1
  Dy  Dy1  1  0.592061  0.592786  0.250000  1
  Dy  Dy2  1  0.000726  0.407939  0.250000  1
  Zr  Zr3  1  0.606879  0.607665  0.750000  1
  Zr  Zr4  1  0.000786  0.393121  0.750000  1
  Zr  Zr5  1  0.392335  0.999214  0.750000  1
  Sn  Sn6  1  0.266130  0.265292  0.504899  1
  Sn  Sn7  1  0.266130  0.265292  0.995101  1
  Sn  Sn8  1  0.734708  0.000837  0.995101  1
  Sn  Sn9  1  0.999163  0.733870  0.504899  1
  Sn  Sn10  1  0.734708  0.000837  0.504899  1
  Sn  Sn11  1  0.999163  0.733870  0.995101  1
  Ir  Ir12  1  0.666667  0.333333  0.533587  1
  Ir  Ir13  1  0.666667  0.333333  0.966413  1
  Ir  Ir14  1  0.333333  0.666667  0.968079  1
  Ir  Ir15  1  0.333333  0.666667  0.531921  1
  Ir  Ir16  1  0.000000  0.000000  0.750000  1
  Rh  Rh17  1  0.000000  0.000000  0.250000  1
