# generated using pymatgen
data_TbDy3TmSi3
_symmetry_space_group_name_H-M   'P 1'
_cell_length_a   8.43638007
_cell_length_b   8.43637925
_cell_length_c   6.33453400
_cell_angle_alpha   90.00053554
_cell_angle_beta   90.00054307
_cell_angle_gamma   119.98569288
_symmetry_Int_Tables_number   1
_chemical_formula_structural   TbDy3TmSi3
_chemical_formula_sum   'Tb2 Dy6 Tm2 Si6'
_cell_volume   390.49918181
_cell_formula_units_Z   2
loop_
 _symmetry_equiv_pos_site_id
 _symmetry_equiv_pos_as_xyz
  1  'x, y, z'
loop_
 _atom_site_type_symbol
 _atom_site_label
 _atom_site_symmetry_multiplicity
 _atom_site_fract_x
 _atom_site_fract_y
 _atom_site_fract_z
 _atom_site_occupancy
  Tb  Tb0  1  0.755442  0.000023  0.751889  1
  Tb  Tb1  1  0.000023  0.755442  0.751889  1
  Dy  Dy2  1  0.666622  0.333330  0.499966  1
  Dy  Dy3  1  0.333330  0.666622  0.499966  1
  Dy  Dy4  1  0.755347  0.755347  0.248081  1
  Dy  Dy5  1  0.244605  0.000050  0.248080  1
  Dy  Dy6  1  0.000050  0.244605  0.248080  1
  Dy  Dy7  1  0.244655  0.244655  0.751920  1
  Tm  Tm8  1  0.333326  0.666619  0.000049  1
  Tm  Tm9  1  0.666619  0.333326  0.000049  1
  Si  Si10  1  0.394439  0.394439  0.244774  1
  Si  Si11  1  0.605587  0.000014  0.244787  1
  Si  Si12  1  0.000014  0.605587  0.244787  1
  Si  Si13  1  0.605368  0.605368  0.755229  1
  Si  Si14  1  0.394476  0.000099  0.755227  1
  Si  Si15  1  0.000099  0.394476  0.755227  1
