# generated using pymatgen
data_Ho3Lu17GaBi11
_symmetry_space_group_name_H-M   'P 1'
_cell_length_a   8.09567977
_cell_length_b   9.35802700
_cell_length_c   11.80651748
_cell_angle_alpha   90.00000000
_cell_angle_beta   90.31469732
_cell_angle_gamma   90.00000000
_symmetry_Int_Tables_number   1
_chemical_formula_structural   Ho3Lu17GaBi11
_chemical_formula_sum   'Ho3 Lu17 Ga1 Bi11'
_cell_volume   894.44343016
_cell_formula_units_Z   1
loop_
 _symmetry_equiv_pos_site_id
 _symmetry_equiv_pos_as_xyz
  1  'x, y, z'
loop_
 _atom_site_type_symbol
 _atom_site_label
 _atom_site_symmetry_multiplicity
 _atom_site_fract_x
 _atom_site_fract_y
 _atom_site_fract_z
 _atom_site_occupancy
  Ho  Ho0  1  0.312955  0.250000  0.218930  1
  Ho  Ho1  1  0.811267  0.250000  0.281689  1
  Ho  Ho2  1  0.192799  0.750000  0.722377  1
  Lu  Lu3  1  0.354939  0.750000  0.206256  1
  Lu  Lu4  1  0.852104  0.750000  0.283018  1
  Lu  Lu5  1  0.649753  0.250000  0.782216  1
  Lu  Lu6  1  0.148624  0.250000  0.718629  1
  Lu  Lu7  1  0.683992  0.573254  0.054907  1
  Lu  Lu8  1  0.193305  0.932665  0.439014  1
  Lu  Lu9  1  0.308659  0.050245  0.940956  1
  Lu  Lu10  1  0.806841  0.433670  0.559996  1
  Lu  Lu11  1  0.308659  0.449755  0.940956  1
  Lu  Lu12  1  0.806841  0.066330  0.559996  1
  Lu  Lu13  1  0.683992  0.926746  0.054907  1
  Lu  Lu14  1  0.193305  0.567335  0.439014  1
  Lu  Lu15  1  0.476824  0.250000  0.489797  1
  Lu  Lu16  1  0.980512  0.250000  0.009269  1
  Lu  Lu17  1  0.524716  0.750000  0.511027  1
  Lu  Lu18  1  0.036344  0.750000  0.990433  1
  Lu  Lu19  1  0.673078  0.750000  0.790667  1
  Ga  Ga20  1  0.406641  0.750000  0.961022  1
  Bi  Bi21  1  0.905545  0.750000  0.544166  1
  Bi  Bi22  1  0.595622  0.250000  0.040501  1
  Bi  Bi23  1  0.096072  0.250000  0.458925  1
  Bi  Bi24  1  0.564202  0.994454  0.325649  1
  Bi  Bi25  1  0.062892  0.503924  0.174950  1
  Bi  Bi26  1  0.436773  0.495205  0.675151  1
  Bi  Bi27  1  0.934441  0.002550  0.824914  1
  Bi  Bi28  1  0.436773  0.004795  0.675151  1
  Bi  Bi29  1  0.934441  0.497450  0.824914  1
  Bi  Bi30  1  0.564202  0.505546  0.325649  1
  Bi  Bi31  1  0.062892  0.996076  0.174950  1
