# generated using pymatgen
data_LaTb9Pr6(CdPt)4
_symmetry_space_group_name_H-M   'P 1'
_cell_length_a   9.86201573
_cell_length_b   9.86201573
_cell_length_c   9.86201503
_cell_angle_alpha   60.16330882
_cell_angle_beta   60.16331159
_cell_angle_gamma   60.16330547
_symmetry_Int_Tables_number   1
_chemical_formula_structural   LaTb9Pr6(CdPt)4
_chemical_formula_sum   'La1 Tb9 Pr6 Cd4 Pt4'
_cell_volume   680.74653906
_cell_formula_units_Z   1
loop_
 _symmetry_equiv_pos_site_id
 _symmetry_equiv_pos_as_xyz
  1  'x, y, z'
loop_
 _atom_site_type_symbol
 _atom_site_label
 _atom_site_symmetry_multiplicity
 _atom_site_fract_x
 _atom_site_fract_y
 _atom_site_fract_z
 _atom_site_occupancy
  La  La0  1  0.349561  0.349561  0.349561  1
  Tb  Tb1  1  0.351150  0.351150  0.945998  1
  Tb  Tb2  1  0.351150  0.945998  0.351150  1
  Tb  Tb3  1  0.945998  0.351150  0.351150  1
  Tb  Tb4  1  0.814420  0.187726  0.187726  1
  Tb  Tb5  1  0.188585  0.811506  0.811506  1
  Tb  Tb6  1  0.187726  0.814420  0.187726  1
  Tb  Tb7  1  0.811506  0.188585  0.811506  1
  Tb  Tb8  1  0.187726  0.187726  0.814420  1
  Tb  Tb9  1  0.811506  0.811506  0.188585  1
  Pr  Pr10  1  0.940614  0.561557  0.561557  1
  Pr  Pr11  1  0.560457  0.938074  0.938074  1
  Pr  Pr12  1  0.561557  0.940614  0.561557  1
  Pr  Pr13  1  0.938074  0.560457  0.938074  1
  Pr  Pr14  1  0.561557  0.561557  0.940614  1
  Pr  Pr15  1  0.938074  0.938074  0.560457  1
  Cd  Cd16  1  0.579807  0.579807  0.579807  1
  Cd  Cd17  1  0.582159  0.582159  0.260346  1
  Cd  Cd18  1  0.582159  0.260346  0.582159  1
  Cd  Cd19  1  0.260346  0.582159  0.582159  1
  Pt  Pt20  1  0.143467  0.143467  0.143467  1
  Pt  Pt21  1  0.139399  0.139399  0.573601  1
  Pt  Pt22  1  0.139399  0.573601  0.139399  1
  Pt  Pt23  1  0.573601  0.139399  0.139399  1
