# generated using pymatgen
data_Tb4Al17GaPdRh5
_symmetry_space_group_name_H-M   'P 1'
_cell_length_a   7.57163555
_cell_length_b   7.57163579
_cell_length_c   9.49961630
_cell_angle_alpha   89.99447873
_cell_angle_beta   89.99447757
_cell_angle_gamma   119.35274764
_symmetry_Int_Tables_number   1
_chemical_formula_structural   Tb4Al17GaPdRh5
_chemical_formula_sum   'Tb4 Al17 Ga1 Pd1 Rh5'
_cell_volume   474.69192778
_cell_formula_units_Z   1
loop_
 _symmetry_equiv_pos_site_id
 _symmetry_equiv_pos_as_xyz
  1  'x, y, z'
loop_
 _atom_site_type_symbol
 _atom_site_label
 _atom_site_symmetry_multiplicity
 _atom_site_fract_x
 _atom_site_fract_y
 _atom_site_fract_z
 _atom_site_occupancy
  Tb  Tb0  1  0.994587  0.674330  0.250584  1
  Tb  Tb1  1  0.004807  0.327791  0.749446  1
  Tb  Tb2  1  0.674330  0.994587  0.250584  1
  Tb  Tb3  1  0.327791  0.004807  0.749446  1
  Al  Al4  1  0.868536  0.868536  0.747287  1
  Al  Al5  1  0.001748  0.339774  0.076618  1
  Al  Al6  1  0.998309  0.660423  0.923348  1
  Al  Al7  1  0.999306  0.664449  0.574571  1
  Al  Al8  1  0.335897  0.000979  0.425438  1
  Al  Al9  1  0.000979  0.335897  0.425438  1
  Al  Al10  1  0.664449  0.999306  0.574571  1
  Al  Al11  1  0.660423  0.998309  0.923348  1
  Al  Al12  1  0.339774  0.001748  0.076618  1
  Al  Al13  1  0.333201  0.333201  0.551387  1
  Al  Al14  1  0.666168  0.666168  0.450903  1
  Al  Al15  1  0.662570  0.662570  0.051541  1
  Al  Al16  1  0.336658  0.336658  0.946433  1
  Al  Al17  1  0.338724  0.550717  0.250562  1
  Al  Al18  1  0.660665  0.449887  0.749561  1
  Al  Al19  1  0.550717  0.338724  0.250562  1
  Al  Al20  1  0.449887  0.660665  0.749561  1
  Ga  Ga21  1  0.133238  0.133238  0.252352  1
  Pd  Pd22  1  0.999591  0.999591  0.997455  1
  Rh  Rh23  1  0.671289  0.327650  0.000288  1
  Rh  Rh24  1  0.327650  0.671289  0.000288  1
  Rh  Rh25  1  0.327780  0.671390  0.499815  1
  Rh  Rh26  1  0.671390  0.327780  0.499815  1
  Rh  Rh27  1  0.999533  0.999533  0.502182  1
