# generated using pymatgen
data_Y20GaSi14Pt
_symmetry_space_group_name_H-M   'P 1'
_cell_length_a   7.41804902
_cell_length_b   7.75756282
_cell_length_c   14.68988579
_cell_angle_alpha   89.99327975
_cell_angle_beta   90.16252104
_cell_angle_gamma   90.05380194
_symmetry_Int_Tables_number   1
_chemical_formula_structural   Y20GaSi14Pt
_chemical_formula_sum   'Y20 Ga1 Si14 Pt1'
_cell_volume   845.34011386
_cell_formula_units_Z   1
loop_
 _symmetry_equiv_pos_site_id
 _symmetry_equiv_pos_as_xyz
  1  'x, y, z'
loop_
 _atom_site_type_symbol
 _atom_site_label
 _atom_site_symmetry_multiplicity
 _atom_site_fract_x
 _atom_site_fract_y
 _atom_site_fract_z
 _atom_site_occupancy
  Y  Y0  1  0.678191  0.180183  0.623725  1
  Y  Y1  1  0.186972  0.323500  0.876809  1
  Y  Y2  1  0.317475  0.820048  0.123205  1
  Y  Y3  1  0.819187  0.674105  0.375000  1
  Y  Y4  1  0.316489  0.820647  0.376863  1
  Y  Y5  1  0.816457  0.677122  0.122904  1
  Y  Y6  1  0.680627  0.179092  0.877263  1
  Y  Y7  1  0.185855  0.324131  0.624114  1
  Y  Y8  1  0.525179  0.679863  0.595431  1
  Y  Y9  1  0.027333  0.817216  0.904190  1
  Y  Y10  1  0.472892  0.316511  0.097556  1
  Y  Y11  1  0.976139  0.184949  0.401809  1
  Y  Y12  1  0.471853  0.318860  0.401334  1
  Y  Y13  1  0.972934  0.183690  0.097588  1
  Y  Y14  1  0.525267  0.681941  0.905782  1
  Y  Y15  1  0.025667  0.818364  0.596685  1
  Y  Y16  1  0.844315  0.511092  0.750532  1
  Y  Y17  1  0.355387  0.984071  0.749802  1
  Y  Y18  1  0.148992  0.485181  0.249446  1
  Y  Y19  1  0.649773  0.012983  0.248184  1
  Ga  Ga20  1  0.652757  0.968182  0.459048  1
  Si  Si21  1  0.146048  0.528095  0.040097  1
  Si  Si22  1  0.352217  0.026513  0.960656  1
  Si  Si23  1  0.852567  0.472367  0.540284  1
  Si  Si24  1  0.346913  0.026541  0.540557  1
  Si  Si25  1  0.853061  0.471880  0.960149  1
  Si  Si26  1  0.645763  0.971549  0.040139  1
  Si  Si27  1  0.146479  0.527903  0.460272  1
  Si  Si28  1  0.979827  0.101856  0.750386  1
  Si  Si29  1  0.521369  0.603393  0.249194  1
  Si  Si30  1  0.020700  0.895490  0.249734  1
  Si  Si31  1  0.741184  0.876346  0.750908  1
  Si  Si32  1  0.229046  0.630996  0.750895  1
  Si  Si33  1  0.267565  0.127060  0.249334  1
  Si  Si34  1  0.766181  0.372632  0.249576  1
  Pt  Pt35  1  0.481334  0.405650  0.750547  1
