# generated using pymatgen
data_Ta4Be3PW2
_symmetry_space_group_name_H-M   'P 1'
_cell_length_a   6.41244437
_cell_length_b   6.41244390
_cell_length_c   3.35775300
_cell_angle_alpha   90.00000000
_cell_angle_beta   90.00000000
_cell_angle_gamma   89.76629344
_symmetry_Int_Tables_number   1
_chemical_formula_structural   Ta4Be3PW2
_chemical_formula_sum   'Ta4 Be3 P1 W2'
_cell_volume   138.06777374
_cell_formula_units_Z   1
loop_
 _symmetry_equiv_pos_site_id
 _symmetry_equiv_pos_as_xyz
  1  'x, y, z'
loop_
 _atom_site_type_symbol
 _atom_site_label
 _atom_site_symmetry_multiplicity
 _atom_site_fract_x
 _atom_site_fract_y
 _atom_site_fract_z
 _atom_site_occupancy
  Ta  Ta0  1  0.677222  0.177222  0.500000  1
  Ta  Ta1  1  0.328938  0.828938  0.500000  1
  Ta  Ta2  1  0.177651  0.315040  0.500000  1
  Ta  Ta3  1  0.815040  0.677651  0.500000  1
  Be  Be4  1  0.877459  0.377459  0.000000  1
  Be  Be5  1  0.618721  0.884043  0.000000  1
  Be  Be6  1  0.384043  0.118721  0.000000  1
  P  P7  1  0.117928  0.617928  0.000000  1
  W  W8  1  0.503688  0.499310  0.000000  1
  W  W9  1  0.999310  0.003688  0.000000  1
