# generated using pymatgen
data_Nb9Os5Ru
_symmetry_space_group_name_H-M   'P 1'
_cell_length_a   9.94649755
_cell_length_b   9.94649665
_cell_length_c   5.10141800
_cell_angle_alpha   90.00000000
_cell_angle_beta   90.00000000
_cell_angle_gamma   90.04530564
_symmetry_Int_Tables_number   1
_chemical_formula_structural   Nb9Os5Ru
_chemical_formula_sum   'Nb18 Os10 Ru2'
_cell_volume   504.69743219
_cell_formula_units_Z   2
loop_
 _symmetry_equiv_pos_site_id
 _symmetry_equiv_pos_as_xyz
  1  'x, y, z'
loop_
 _atom_site_type_symbol
 _atom_site_label
 _atom_site_symmetry_multiplicity
 _atom_site_fract_x
 _atom_site_fract_y
 _atom_site_fract_z
 _atom_site_occupancy
  Nb  Nb0  1  0.895367  0.895367  0.495569  1
  Nb  Nb1  1  0.104633  0.104633  0.495569  1
  Nb  Nb2  1  0.602284  0.397716  0.008067  1
  Nb  Nb3  1  0.397716  0.602284  0.008067  1
  Nb  Nb4  1  0.627825  0.960734  0.499533  1
  Nb  Nb5  1  0.372175  0.039266  0.499533  1
  Nb  Nb6  1  0.870542  0.465429  0.996731  1
  Nb  Nb7  1  0.129458  0.534571  0.996731  1
  Nb  Nb8  1  0.039266  0.372175  0.499533  1
  Nb  Nb9  1  0.960734  0.627825  0.499533  1
  Nb  Nb10  1  0.534571  0.129458  0.996731  1
  Nb  Nb11  1  0.465429  0.870542  0.996731  1
  Nb  Nb12  1  0.818951  0.181049  0.249243  1
  Nb  Nb13  1  0.181049  0.818951  0.249243  1
  Nb  Nb14  1  0.319634  0.319634  0.248225  1
  Nb  Nb15  1  0.680366  0.680366  0.248225  1
  Nb  Nb16  1  0.181858  0.818142  0.749024  1
  Nb  Nb17  1  0.818142  0.181858  0.749024  1
  Os  Os18  1  0.500000  0.500000  0.525314  1
  Os  Os19  1  0.000000  0.000000  0.997653  1
  Os  Os20  1  0.565503  0.243695  0.499924  1
  Os  Os21  1  0.434497  0.756305  0.499924  1
  Os  Os22  1  0.929664  0.741232  0.997881  1
  Os  Os23  1  0.070336  0.258768  0.997881  1
  Os  Os24  1  0.756305  0.434497  0.499924  1
  Os  Os25  1  0.243695  0.565503  0.499924  1
  Os  Os26  1  0.258768  0.070336  0.997881  1
  Os  Os27  1  0.741232  0.929664  0.997881  1
  Ru  Ru28  1  0.680695  0.680695  0.750248  1
  Ru  Ru29  1  0.319305  0.319305  0.750248  1
