# generated using pymatgen
data_Dy12Co4TcSb
_symmetry_space_group_name_H-M   'P 1'
_cell_length_a   8.30775440
_cell_length_b   8.30775511
_cell_length_c   8.30775458
_cell_angle_alpha   111.63690631
_cell_angle_beta   110.39801037
_cell_angle_gamma   106.42363056
_symmetry_Int_Tables_number   1
_chemical_formula_structural   Dy12Co4TcSb
_chemical_formula_sum   'Dy12 Co4 Tc1 Sb1'
_cell_volume   440.41193314
_cell_formula_units_Z   1
loop_
 _symmetry_equiv_pos_site_id
 _symmetry_equiv_pos_as_xyz
  1  'x, y, z'
loop_
 _atom_site_type_symbol
 _atom_site_label
 _atom_site_symmetry_multiplicity
 _atom_site_fract_x
 _atom_site_fract_y
 _atom_site_fract_z
 _atom_site_occupancy
  Dy  Dy0  1  0.816625  0.714819  0.531444  1
  Dy  Dy1  1  0.183375  0.285181  0.468556  1
  Dy  Dy2  1  0.183375  0.714819  0.898193  1
  Dy  Dy3  1  0.816625  0.285181  0.101807  1
  Dy  Dy4  1  0.688294  0.380436  0.692142  1
  Dy  Dy5  1  0.311706  0.619564  0.307858  1
  Dy  Dy6  1  0.688294  0.996152  0.307858  1
  Dy  Dy7  1  0.311706  0.003848  0.692142  1
  Dy  Dy8  1  0.590081  0.785210  0.804871  1
  Dy  Dy9  1  0.409919  0.214790  0.195129  1
  Dy  Dy10  1  0.980339  0.785210  0.195129  1
  Dy  Dy11  1  0.019661  0.214790  0.804871  1
  Co  Co12  1  0.622844  0.000000  0.622844  1
  Co  Co13  1  0.377156  0.000000  0.377156  1
  Co  Co14  1  0.111189  0.611189  0.500000  1
  Co  Co15  1  0.888811  0.388811  0.500000  1
  Tc  Tc16  1  0.000000  0.000000  0.000000  1
  Sb  Sb17  1  0.500000  0.500000  0.000000  1
