# generated using pymatgen
data_Nd4DyTi3(P3Ir4)4
_symmetry_space_group_name_H-M   'P 1'
_cell_length_a   12.82673100
_cell_length_b   12.82673221
_cell_length_c   3.98352400
_cell_angle_alpha   90.00000000
_cell_angle_beta   90.00000000
_cell_angle_gamma   119.99999946
_symmetry_Int_Tables_number   1
_chemical_formula_structural   Nd4DyTi3(P3Ir4)4
_chemical_formula_sum   'Nd4 Dy1 Ti3 P12 Ir16'
_cell_volume   567.58392477
_cell_formula_units_Z   1
loop_
 _symmetry_equiv_pos_site_id
 _symmetry_equiv_pos_as_xyz
  1  'x, y, z'
loop_
 _atom_site_type_symbol
 _atom_site_label
 _atom_site_symmetry_multiplicity
 _atom_site_fract_x
 _atom_site_fract_y
 _atom_site_fract_z
 _atom_site_occupancy
  Nd  Nd0  1  0.333333  0.666667  0.500000  1
  Nd  Nd1  1  0.000181  0.811527  0.000000  1
  Nd  Nd2  1  0.188473  0.188654  0.000000  1
  Nd  Nd3  1  0.811346  0.999819  0.000000  1
  Dy  Dy4  1  0.666667  0.333333  0.500000  1
  Ti  Ti5  1  0.999076  0.445989  0.500000  1
  Ti  Ti6  1  0.554011  0.553088  0.500000  1
  Ti  Ti7  1  0.446912  0.000924  0.500000  1
  P  P8  1  0.000452  0.637448  0.500000  1
  P  P9  1  0.362552  0.363005  0.500000  1
  P  P10  1  0.636995  0.999548  0.500000  1
  P  P11  1  0.518160  0.684083  0.000000  1
  P  P12  1  0.315917  0.834078  0.000000  1
  P  P13  1  0.165922  0.481840  0.000000  1
  P  P14  1  0.483645  0.168482  0.000000  1
  P  P15  1  0.684838  0.516355  0.000000  1
  P  P16  1  0.831518  0.315162  0.000000  1
  P  P17  1  0.999436  0.178248  0.500000  1
  P  P18  1  0.821752  0.821188  0.500000  1
  P  P19  1  0.178812  0.000564  0.500000  1
  Ir  Ir20  1  0.511765  0.869647  0.000000  1
  Ir  Ir21  1  0.130353  0.642120  0.000000  1
  Ir  Ir22  1  0.357880  0.488235  0.000000  1
  Ir  Ir23  1  0.492189  0.357682  0.000000  1
  Ir  Ir24  1  0.865494  0.507811  0.000000  1
  Ir  Ir25  1  0.642318  0.134506  0.000000  1
  Ir  Ir26  1  0.999184  0.284781  0.000000  1
  Ir  Ir27  1  0.715219  0.714404  0.000000  1
  Ir  Ir28  1  0.285596  0.000816  0.000000  1
  Ir  Ir29  1  0.624099  0.801488  0.500000  1
  Ir  Ir30  1  0.198512  0.822610  0.500000  1
  Ir  Ir31  1  0.177390  0.375901  0.500000  1
  Ir  Ir32  1  0.377077  0.178917  0.500000  1
  Ir  Ir33  1  0.801840  0.622923  0.500000  1
  Ir  Ir34  1  0.821083  0.198160  0.500000  1
  Ir  Ir35  1  0.000000  0.000000  0.500000  1
