# generated using pymatgen
data_Ac4Be4Si3Ge
_symmetry_space_group_name_H-M   'P 1'
_cell_length_a   4.14799900
_cell_length_b   4.14799881
_cell_length_c   17.89659000
_cell_angle_alpha   90.00000000
_cell_angle_beta   90.00000000
_cell_angle_gamma   120.00000950
_symmetry_Int_Tables_number   1
_chemical_formula_structural   Ac4Be4Si3Ge
_chemical_formula_sum   'Ac4 Be4 Si3 Ge1'
_cell_volume   266.67244636
_cell_formula_units_Z   1
loop_
 _symmetry_equiv_pos_site_id
 _symmetry_equiv_pos_as_xyz
  1  'x, y, z'
loop_
 _atom_site_type_symbol
 _atom_site_label
 _atom_site_symmetry_multiplicity
 _atom_site_fract_x
 _atom_site_fract_y
 _atom_site_fract_z
 _atom_site_occupancy
  Ac  Ac0  1  0.000000  0.000000  0.250513  1
  Ac  Ac1  1  0.000000  0.000000  0.748381  1
  Ac  Ac2  1  0.000000  0.000000  0.001401  1
  Ac  Ac3  1  0.000000  0.000000  0.499765  1
  Be  Be4  1  0.333333  0.666667  0.125042  1
  Be  Be5  1  0.666667  0.333333  0.875211  1
  Be  Be6  1  0.666667  0.333333  0.623990  1
  Be  Be7  1  0.333333  0.666667  0.375780  1
  Si  Si8  1  0.333333  0.666667  0.624543  1
  Si  Si9  1  0.666667  0.333333  0.374962  1
  Si  Si10  1  0.666667  0.333333  0.125836  1
  Ge  Ge11  1  0.333333  0.666667  0.874575  1
