# generated using pymatgen
data_Be6GaCo12Si5
_symmetry_space_group_name_H-M   'P 1'
_cell_length_a   3.80672400
_cell_length_b   5.39521200
_cell_length_c   11.42331500
_cell_angle_alpha   90.00040742
_cell_angle_beta   90.00336599
_cell_angle_gamma   89.99999999
_symmetry_Int_Tables_number   1
_chemical_formula_structural   Be6GaCo12Si5
_chemical_formula_sum   'Be6 Ga1 Co12 Si5'
_cell_volume   234.61299146
_cell_formula_units_Z   1
loop_
 _symmetry_equiv_pos_site_id
 _symmetry_equiv_pos_as_xyz
  1  'x, y, z'
loop_
 _atom_site_type_symbol
 _atom_site_label
 _atom_site_symmetry_multiplicity
 _atom_site_fract_x
 _atom_site_fract_y
 _atom_site_fract_z
 _atom_site_occupancy
  Be  Be0  1  0.000005  0.499902  0.000009  1
  Be  Be1  1  0.499647  0.000017  0.166658  1
  Be  Be2  1  0.999707  0.500012  0.334152  1
  Be  Be3  1  0.499999  0.000040  0.499987  1
  Be  Be4  1  0.000292  0.500041  0.665836  1
  Be  Be5  1  0.500353  0.999976  0.833355  1
  Ga  Ga6  1  0.000001  0.000044  0.000018  1
  Co  Co7  1  0.500001  0.259371  0.000018  1
  Co  Co8  1  0.500001  0.740630  0.000017  1
  Co  Co9  1  0.999768  0.253992  0.171797  1
  Co  Co10  1  0.999767  0.746015  0.171789  1
  Co  Co11  1  0.499804  0.249809  0.335020  1
  Co  Co12  1  0.499805  0.750185  0.335019  1
  Co  Co13  1  0.000001  0.249901  0.499982  1
  Co  Co14  1  0.000000  0.750086  0.499982  1
  Co  Co15  1  0.500197  0.249811  0.664959  1
  Co  Co16  1  0.500197  0.750180  0.664966  1
  Co  Co17  1  0.000234  0.253997  0.828220  1
  Co  Co18  1  0.000233  0.746034  0.828229  1
  Si  Si19  1  0.499775  0.499978  0.167603  1
  Si  Si20  1  0.999800  0.999995  0.334038  1
  Si  Si21  1  0.500000  0.499992  0.499986  1
  Si  Si22  1  0.000198  0.999982  0.665951  1
  Si  Si23  1  0.500223  0.500001  0.832412  1
