# generated using pymatgen
data_Tb2Ho2P7Ir8
_symmetry_space_group_name_H-M   'P 1'
_cell_length_a   3.95272900
_cell_length_b   12.69174449
_cell_length_c   13.12733900
_cell_angle_alpha   80.85524587
_cell_angle_beta   90.00000000
_cell_angle_gamma   90.00000000
_symmetry_Int_Tables_number   1
_chemical_formula_structural   Tb2Ho2P7Ir8
_chemical_formula_sum   'Tb4 Ho4 P14 Ir16'
_cell_volume   650.18924985
_cell_formula_units_Z   2
loop_
 _symmetry_equiv_pos_site_id
 _symmetry_equiv_pos_as_xyz
  1  'x, y, z'
loop_
 _atom_site_type_symbol
 _atom_site_label
 _atom_site_symmetry_multiplicity
 _atom_site_fract_x
 _atom_site_fract_y
 _atom_site_fract_z
 _atom_site_occupancy
  Tb  Tb0  1  0.250000  0.102550  0.788928  1
  Tb  Tb1  1  0.750000  0.897450  0.211072  1
  Tb  Tb2  1  0.250000  0.279107  0.102197  1
  Tb  Tb3  1  0.750000  0.720893  0.897803  1
  Ho  Ho4  1  0.250000  0.520677  0.294066  1
  Ho  Ho5  1  0.750000  0.479323  0.705934  1
  Ho  Ho6  1  0.250000  0.208917  0.438361  1
  Ho  Ho7  1  0.750000  0.791083  0.561639  1
  P  P8  1  0.250000  0.051535  0.100671  1
  P  P9  1  0.750000  0.948465  0.899329  1
  P  P10  1  0.250000  0.312853  0.688668  1
  P  P11  1  0.750000  0.687147  0.311332  1
  P  P12  1  0.250000  0.607685  0.567042  1
  P  P13  1  0.750000  0.392315  0.432958  1
  P  P14  1  0.250000  0.842940  0.717387  1
  P  P15  1  0.750000  0.157060  0.282613  1
  P  P16  1  0.750000  0.258033  0.919939  1
  P  P17  1  0.250000  0.741967  0.080061  1
  P  P18  1  0.750000  0.093464  0.587916  1
  P  P19  1  0.250000  0.906536  0.412084  1
  P  P20  1  0.750000  0.472519  0.129503  1
  P  P21  1  0.250000  0.527481  0.870497  1
  Ir  Ir22  1  0.250000  0.991038  0.575980  1
  Ir  Ir23  1  0.750000  0.008962  0.424020  1
  Ir  Ir24  1  0.250000  0.662198  0.730488  1
  Ir  Ir25  1  0.750000  0.337802  0.269512  1
  Ir  Ir26  1  0.250000  0.554773  0.045085  1
  Ir  Ir27  1  0.750000  0.445227  0.954915  1
  Ir  Ir28  1  0.250000  0.060597  0.273204  1
  Ir  Ir29  1  0.750000  0.939403  0.726796  1
  Ir  Ir30  1  0.250000  0.421774  0.522916  1
  Ir  Ir31  1  0.750000  0.578226  0.477084  1
  Ir  Ir32  1  0.250000  0.915064  0.997457  1
  Ir  Ir33  1  0.750000  0.084936  0.002543  1
  Ir  Ir34  1  0.250000  0.728907  0.395668  1
  Ir  Ir35  1  0.750000  0.271093  0.604332  1
  Ir  Ir36  1  0.250000  0.342017  0.857487  1
  Ir  Ir37  1  0.750000  0.657983  0.142513  1
