# generated using pymatgen
data_Ho2Lu4IrRh17
_symmetry_space_group_name_H-M   'P 1'
_cell_length_a   5.23700900
_cell_length_b   5.23645940
_cell_length_c   17.47671800
_cell_angle_alpha   89.99928879
_cell_angle_beta   90.00188178
_cell_angle_gamma   119.99872775
_symmetry_Int_Tables_number   1
_chemical_formula_structural   Ho2Lu4IrRh17
_chemical_formula_sum   'Ho2 Lu4 Ir1 Rh17'
_cell_volume   415.06597968
_cell_formula_units_Z   1
loop_
 _symmetry_equiv_pos_site_id
 _symmetry_equiv_pos_as_xyz
  1  'x, y, z'
loop_
 _atom_site_type_symbol
 _atom_site_label
 _atom_site_symmetry_multiplicity
 _atom_site_fract_x
 _atom_site_fract_y
 _atom_site_fract_z
 _atom_site_occupancy
  Ho  Ho0  1  0.333324  0.666665  0.749835  1
  Ho  Ho1  1  0.666676  0.333335  0.250165  1
  Lu  Lu2  1  0.333319  0.666659  0.958645  1
  Lu  Lu3  1  0.666681  0.333341  0.041355  1
  Lu  Lu4  1  0.666682  0.333344  0.459071  1
  Lu  Lu5  1  0.333318  0.666656  0.540929  1
  Ir  Ir6  1  0.000000  0.000000  0.500000  1
  Rh  Rh7  1  0.167372  0.832600  0.375626  1
  Rh  Rh8  1  0.167384  0.334768  0.375628  1
  Rh  Rh9  1  0.665260  0.832614  0.375619  1
  Rh  Rh10  1  0.832628  0.167400  0.624374  1
  Rh  Rh11  1  0.832616  0.665232  0.624372  1
  Rh  Rh12  1  0.334740  0.167386  0.624381  1
  Rh  Rh13  1  0.832479  0.167507  0.875657  1
  Rh  Rh14  1  0.832472  0.664984  0.875653  1
  Rh  Rh15  1  0.334999  0.167510  0.875645  1
  Rh  Rh16  1  0.167521  0.832493  0.124343  1
  Rh  Rh17  1  0.167528  0.335016  0.124347  1
  Rh  Rh18  1  0.665001  0.832490  0.124355  1
  Rh  Rh19  1  0.333405  0.666703  0.249838  1
  Rh  Rh20  1  0.666595  0.333297  0.750162  1
  Rh  Rh21  1  0.999939  0.999977  0.249902  1
  Rh  Rh22  1  0.000061  0.000023  0.750098  1
  Rh  Rh23  1  0.000000  0.000000  0.000000  1
