# generated using pymatgen
data_Hf9ZrSn6Ge
_symmetry_space_group_name_H-M   'P 1'
_cell_length_a   5.84277571
_cell_length_b   8.54944385
_cell_length_c   8.54033558
_cell_angle_alpha   119.96598547
_cell_angle_beta   89.79339368
_cell_angle_gamma   90.10306759
_symmetry_Int_Tables_number   1
_chemical_formula_structural   Hf9ZrSn6Ge
_chemical_formula_sum   'Hf9 Zr1 Sn6 Ge1'
_cell_volume   369.58009866
_cell_formula_units_Z   1
loop_
 _symmetry_equiv_pos_site_id
 _symmetry_equiv_pos_as_xyz
  1  'x, y, z'
loop_
 _atom_site_type_symbol
 _atom_site_label
 _atom_site_symmetry_multiplicity
 _atom_site_fract_x
 _atom_site_fract_y
 _atom_site_fract_z
 _atom_site_occupancy
  Hf  Hf0  1  0.499976  0.333500  0.666658  1
  Hf  Hf1  1  0.499987  0.666508  0.333164  1
  Hf  Hf2  1  0.999740  0.666635  0.333029  1
  Hf  Hf3  1  0.999766  0.333390  0.666439  1
  Hf  Hf4  1  0.761179  0.257554  0.000616  1
  Hf  Hf5  1  0.761154  0.742454  0.743045  1
  Hf  Hf6  1  0.763068  0.000005  0.256525  1
  Hf  Hf7  1  0.238540  0.742911  0.999701  1
  Hf  Hf8  1  0.238566  0.257073  0.256785  1
  Zr  Zr9  1  0.237124  0.999993  0.743974  1
  Sn  Sn10  1  0.746407  0.608549  0.999863  1
  Sn  Sn11  1  0.746501  0.391377  0.391418  1
  Sn  Sn12  1  0.745917  0.000048  0.608805  1
  Sn  Sn13  1  0.253500  0.391970  0.000304  1
  Sn  Sn14  1  0.253525  0.607982  0.608407  1
  Sn  Sn15  1  0.254185  0.000055  0.390626  1
  Ge  Ge16  1  0.500863  0.999996  0.000640  1
