# generated using pymatgen
data_Dy2Ho2LuBiAu2
_symmetry_space_group_name_H-M   'P 1'
_cell_length_a   8.67914791
_cell_length_b   8.67914862
_cell_length_c   8.67914870
_cell_angle_alpha   124.22641091
_cell_angle_beta   124.22641460
_cell_angle_gamma   82.82333060
_symmetry_Int_Tables_number   1
_chemical_formula_structural   Dy2Ho2LuBiAu2
_chemical_formula_sum   'Dy4 Ho4 Lu2 Bi2 Au4'
_cell_volume   429.06406947
_cell_formula_units_Z   2
loop_
 _symmetry_equiv_pos_site_id
 _symmetry_equiv_pos_as_xyz
  1  'x, y, z'
loop_
 _atom_site_type_symbol
 _atom_site_label
 _atom_site_symmetry_multiplicity
 _atom_site_fract_x
 _atom_site_fract_y
 _atom_site_fract_z
 _atom_site_occupancy
  Dy  Dy0  1  0.015007  0.515007  0.810373  1
  Dy  Dy1  1  0.704634  0.204634  0.189627  1
  Dy  Dy2  1  0.515007  0.704634  0.500000  1
  Dy  Dy3  1  0.204634  0.015007  0.500000  1
  Ho  Ho4  1  0.984806  0.484806  0.189942  1
  Ho  Ho5  1  0.294864  0.794864  0.810058  1
  Ho  Ho6  1  0.484806  0.294864  0.500000  1
  Ho  Ho7  1  0.794864  0.984806  0.500000  1
  Lu  Lu8  1  0.000140  0.000140  0.000000  1
  Lu  Lu9  1  0.500140  0.500140  0.000000  1
  Bi  Bi10  1  0.749978  0.749978  0.000000  1
  Bi  Bi11  1  0.249978  0.249978  0.000000  1
  Au  Au12  1  0.638881  0.138881  0.777192  1
  Au  Au13  1  0.361689  0.861689  0.222808  1
  Au  Au14  1  0.138881  0.361689  0.500000  1
  Au  Au15  1  0.861689  0.638881  0.500000  1
