# generated using pymatgen
data_ZrTa2ZnPd12
_symmetry_space_group_name_H-M   'P 1'
_cell_length_a   5.63204600
_cell_length_b   5.63204608
_cell_length_c   9.14064300
_cell_angle_alpha   90.00000000
_cell_angle_beta   90.00000000
_cell_angle_gamma   119.99999955
_symmetry_Int_Tables_number   1
_chemical_formula_structural   ZrTa2ZnPd12
_chemical_formula_sum   'Zr1 Ta2 Zn1 Pd12'
_cell_volume   251.09598790
_cell_formula_units_Z   1
loop_
 _symmetry_equiv_pos_site_id
 _symmetry_equiv_pos_as_xyz
  1  'x, y, z'
loop_
 _atom_site_type_symbol
 _atom_site_label
 _atom_site_symmetry_multiplicity
 _atom_site_fract_x
 _atom_site_fract_y
 _atom_site_fract_z
 _atom_site_occupancy
  Zr  Zr0  1  0.000000  0.000000  0.003378  1
  Ta  Ta1  1  0.000000  0.000000  0.492526  1
  Ta  Ta2  1  0.666667  0.333333  0.753100  1
  Zn  Zn3  1  0.333333  0.666667  0.249565  1
  Pd  Pd4  1  0.501556  0.498444  0.503517  1
  Pd  Pd5  1  0.501556  0.003110  0.503517  1
  Pd  Pd6  1  0.996890  0.498444  0.503517  1
  Pd  Pd7  1  0.501180  0.498820  0.996956  1
  Pd  Pd8  1  0.501180  0.002357  0.996956  1
  Pd  Pd9  1  0.997643  0.498820  0.996956  1
  Pd  Pd10  1  0.831614  0.168386  0.253806  1
  Pd  Pd11  1  0.831614  0.663226  0.253806  1
  Pd  Pd12  1  0.336774  0.168386  0.253806  1
  Pd  Pd13  1  0.167053  0.832947  0.746197  1
  Pd  Pd14  1  0.167053  0.334108  0.746197  1
  Pd  Pd15  1  0.665892  0.832947  0.746197  1
