# generated using pymatgen
data_Th4Al18ReRh5
_symmetry_space_group_name_H-M   'P 1'
_cell_length_a   7.66650999
_cell_length_b   7.66650914
_cell_length_c   9.56202979
_cell_angle_alpha   89.75935467
_cell_angle_beta   89.75935926
_cell_angle_gamma   118.84590565
_symmetry_Int_Tables_number   1
_chemical_formula_structural   Th4Al18ReRh5
_chemical_formula_sum   'Th4 Al18 Re1 Rh5'
_cell_volume   492.26085497
_cell_formula_units_Z   1
loop_
 _symmetry_equiv_pos_site_id
 _symmetry_equiv_pos_as_xyz
  1  'x, y, z'
loop_
 _atom_site_type_symbol
 _atom_site_label
 _atom_site_symmetry_multiplicity
 _atom_site_fract_x
 _atom_site_fract_y
 _atom_site_fract_z
 _atom_site_occupancy
  Th  Th0  1  0.995112  0.680412  0.247598  1
  Th  Th1  1  0.004888  0.319588  0.752402  1
  Th  Th2  1  0.680412  0.995112  0.247598  1
  Th  Th3  1  0.319588  0.004888  0.752402  1
  Al  Al4  1  0.139903  0.139903  0.250690  1
  Al  Al5  1  0.860097  0.860097  0.749310  1
  Al  Al6  1  0.007680  0.339913  0.076889  1
  Al  Al7  1  0.992320  0.660087  0.923111  1
  Al  Al8  1  0.995799  0.660799  0.575650  1
  Al  Al9  1  0.339201  0.004201  0.424350  1
  Al  Al10  1  0.004201  0.339201  0.424350  1
  Al  Al11  1  0.660799  0.995799  0.575650  1
  Al  Al12  1  0.660087  0.992320  0.923111  1
  Al  Al13  1  0.339913  0.007680  0.076889  1
  Al  Al14  1  0.335956  0.335956  0.543766  1
  Al  Al15  1  0.664044  0.664044  0.456234  1
  Al  Al16  1  0.664088  0.664088  0.042276  1
  Al  Al17  1  0.335912  0.335912  0.957724  1
  Al  Al18  1  0.343718  0.551138  0.250937  1
  Al  Al19  1  0.656282  0.448862  0.749063  1
  Al  Al20  1  0.551138  0.343718  0.250937  1
  Al  Al21  1  0.448862  0.656282  0.749063  1
  Re  Re22  1  0.000000  0.000000  0.000000  1
  Rh  Rh23  1  0.672146  0.327854  0.000000  1
  Rh  Rh24  1  0.327854  0.672146  0.000000  1
  Rh  Rh25  1  0.328251  0.671749  0.500000  1
  Rh  Rh26  1  0.671749  0.328251  0.500000  1
  Rh  Rh27  1  0.000000  0.000000  0.500000  1
