# generated using pymatgen
data_Mn4FeSi3W4
_symmetry_space_group_name_H-M   'P 1'
_cell_length_a   4.76242840
_cell_length_b   4.78079919
_cell_length_c   7.76003900
_cell_angle_alpha   90.00000000
_cell_angle_beta   90.00000000
_cell_angle_gamma   120.17882058
_symmetry_Int_Tables_number   1
_chemical_formula_structural   Mn4FeSi3W4
_chemical_formula_sum   'Mn4 Fe1 Si3 W4'
_cell_volume   152.73483922
_cell_formula_units_Z   1
loop_
 _symmetry_equiv_pos_site_id
 _symmetry_equiv_pos_as_xyz
  1  'x, y, z'
loop_
 _atom_site_type_symbol
 _atom_site_label
 _atom_site_symmetry_multiplicity
 _atom_site_fract_x
 _atom_site_fract_y
 _atom_site_fract_z
 _atom_site_occupancy
  Mn  Mn0  1  0.169703  0.830818  0.000000  1
  Mn  Mn1  1  0.659954  0.831185  0.000000  1
  Mn  Mn2  1  0.171348  0.345789  0.000000  1
  Mn  Mn3  1  0.823922  0.155912  0.500000  1
  Fe  Fe4  1  0.329674  0.156281  0.500000  1
  Si  Si5  1  0.819894  0.641387  0.500000  1
  Si  Si6  1  0.009179  0.014119  0.247979  1
  Si  Si7  1  0.009179  0.014119  0.752021  1
  W  W8  1  0.334822  0.666968  0.311691  1
  W  W9  1  0.669203  0.337775  0.182947  1
  W  W10  1  0.669203  0.337775  0.817053  1
  W  W11  1  0.334822  0.666968  0.688309  1
