# generated using pymatgen
data_NdMnCdPt3
_symmetry_space_group_name_H-M   'P 1'
_cell_length_a   5.30228606
_cell_length_b   5.30228603
_cell_length_c   5.30228624
_cell_angle_alpha   63.18389712
_cell_angle_beta   63.18388938
_cell_angle_gamma   63.18389528
_symmetry_Int_Tables_number   1
_chemical_formula_structural   NdMnCdPt3
_chemical_formula_sum   'Nd1 Mn1 Cd1 Pt3'
_cell_volume   112.84823990
_cell_formula_units_Z   1
loop_
 _symmetry_equiv_pos_site_id
 _symmetry_equiv_pos_as_xyz
  1  'x, y, z'
loop_
 _atom_site_type_symbol
 _atom_site_label
 _atom_site_symmetry_multiplicity
 _atom_site_fract_x
 _atom_site_fract_y
 _atom_site_fract_z
 _atom_site_occupancy
  Nd  Nd0  1  0.247443  0.247443  0.247443  1
  Mn  Mn1  1  0.626684  0.626684  0.626684  1
  Cd  Cd2  1  0.996532  0.996532  0.996532  1
  Pt  Pt3  1  0.627479  0.627479  0.124382  1
  Pt  Pt4  1  0.627479  0.124382  0.627479  1
  Pt  Pt5  1  0.124382  0.627479  0.627479  1
