# generated using pymatgen
data_Ba2Hf6BBr17
_symmetry_space_group_name_H-M   'P 1'
_cell_length_a   10.18931552
_cell_length_b   10.18931635
_cell_length_c   10.18931588
_cell_angle_alpha   105.01156131
_cell_angle_beta   118.81427582
_cell_angle_gamma   105.01156667
_symmetry_Int_Tables_number   1
_chemical_formula_structural   Ba2Hf6BBr17
_chemical_formula_sum   'Ba2 Hf6 B1 Br17'
_cell_volume   797.87839444
_cell_formula_units_Z   1
loop_
 _symmetry_equiv_pos_site_id
 _symmetry_equiv_pos_as_xyz
  1  'x, y, z'
loop_
 _atom_site_type_symbol
 _atom_site_label
 _atom_site_symmetry_multiplicity
 _atom_site_fract_x
 _atom_site_fract_y
 _atom_site_fract_z
 _atom_site_occupancy
  Ba  Ba0  1  0.750000  0.500001  0.250000  1
  Ba  Ba1  1  0.250000  0.500001  0.750000  1
  Hf  Hf2  1  0.175611  0.234475  0.058864  1
  Hf  Hf3  1  0.941135  0.116746  0.175610  1
  Hf  Hf4  1  0.223009  0.000000  0.223009  1
  Hf  Hf5  1  0.776991  0.000000  0.776991  1
  Hf  Hf6  1  0.058864  0.883254  0.824389  1
  Hf  Hf7  1  0.824389  0.765525  0.941135  1
  B  B8  1  0.000000  0.000000  0.000000  1
  Br  Br9  1  0.326480  0.867563  0.052209  1
  Br  Br10  1  0.399648  0.527906  0.128257  1
  Br  Br11  1  0.727949  0.862451  0.134502  1
  Br  Br12  1  0.052209  0.725730  0.184646  1
  Br  Br13  1  0.134502  0.406553  0.272051  1
  Br  Br14  1  0.458918  0.274271  0.326481  1
  Br  Br15  1  0.871742  0.271390  0.399648  1
  Br  Br16  1  0.184647  0.132437  0.458918  1
  Br  Br17  1  0.500000  0.000000  0.500000  1
  Br  Br18  1  0.815354  0.867563  0.541083  1
  Br  Br19  1  0.128257  0.728610  0.600352  1
  Br  Br20  1  0.541083  0.725730  0.673521  1
  Br  Br21  1  0.865497  0.593445  0.727948  1
  Br  Br22  1  0.947791  0.274271  0.815354  1
  Br  Br23  1  0.272052  0.137548  0.865497  1
  Br  Br24  1  0.600351  0.472093  0.871742  1
  Br  Br25  1  0.673520  0.132437  0.947791  1
