# generated using pymatgen
data_Hf2Zr2Fe4Si3As
_symmetry_space_group_name_H-M   'P 1'
_cell_length_a   3.94197300
_cell_length_b   6.39821333
_cell_length_c   7.06373211
_cell_angle_alpha   90.27871773
_cell_angle_beta   90.00000000
_cell_angle_gamma   90.00000000
_symmetry_Int_Tables_number   1
_chemical_formula_structural   Hf2Zr2Fe4Si3As
_chemical_formula_sum   'Hf2 Zr2 Fe4 Si3 As1'
_cell_volume   178.15640633
_cell_formula_units_Z   1
loop_
 _symmetry_equiv_pos_site_id
 _symmetry_equiv_pos_as_xyz
  1  'x, y, z'
loop_
 _atom_site_type_symbol
 _atom_site_label
 _atom_site_symmetry_multiplicity
 _atom_site_fract_x
 _atom_site_fract_y
 _atom_site_fract_z
 _atom_site_occupancy
  Hf  Hf0  1  0.250000  0.998266  0.297874  1
  Hf  Hf1  1  0.250000  0.500099  0.197043  1
  Zr  Zr2  1  0.750000  0.992386  0.697796  1
  Zr  Zr3  1  0.750000  0.500864  0.805894  1
  Fe  Fe4  1  0.250000  0.155103  0.941453  1
  Fe  Fe5  1  0.250000  0.659185  0.563958  1
  Fe  Fe6  1  0.750000  0.848299  0.067613  1
  Fe  Fe7  1  0.750000  0.351115  0.426226  1
  Si  Si8  1  0.250000  0.788117  0.898197  1
  Si  Si9  1  0.750000  0.712341  0.389489  1
  Si  Si10  1  0.750000  0.212429  0.108584  1
  As  As11  1  0.250000  0.281796  0.605873  1
