# generated using pymatgen
data_Nb5Co16Si7Pt
_symmetry_space_group_name_H-M   'P 1'
_cell_length_a   7.89901677
_cell_length_b   7.89058561
_cell_length_c   7.89901649
_cell_angle_alpha   60.03529832
_cell_angle_beta   59.92940098
_cell_angle_gamma   60.03529912
_symmetry_Int_Tables_number   1
_chemical_formula_structural   Nb5Co16Si7Pt
_chemical_formula_sum   'Nb5 Co16 Si7 Pt1'
_cell_volume   348.12827743
_cell_formula_units_Z   1
loop_
 _symmetry_equiv_pos_site_id
 _symmetry_equiv_pos_as_xyz
  1  'x, y, z'
loop_
 _atom_site_type_symbol
 _atom_site_label
 _atom_site_symmetry_multiplicity
 _atom_site_fract_x
 _atom_site_fract_y
 _atom_site_fract_z
 _atom_site_occupancy
  Nb  Nb0  1  0.205290  0.794710  0.801134  1
  Nb  Nb1  1  0.801134  0.198866  0.205290  1
  Nb  Nb2  1  0.801134  0.794710  0.205290  1
  Nb  Nb3  1  0.205290  0.198866  0.801134  1
  Nb  Nb4  1  0.798044  0.201956  0.798044  1
  Co  Co5  1  0.167478  0.173437  0.167478  1
  Co  Co6  1  0.508395  0.832522  0.826563  1
  Co  Co7  1  0.833489  0.497128  0.833489  1
  Co  Co8  1  0.826563  0.832522  0.508395  1
  Co  Co9  1  0.167478  0.491605  0.167478  1
  Co  Co10  1  0.164105  0.166511  0.502872  1
  Co  Co11  1  0.502872  0.166511  0.164105  1
  Co  Co12  1  0.833489  0.835895  0.833489  1
  Co  Co13  1  0.381484  0.382071  0.381484  1
  Co  Co14  1  0.145040  0.618516  0.617929  1
  Co  Co15  1  0.619462  0.144901  0.619462  1
  Co  Co16  1  0.617929  0.618516  0.145040  1
  Co  Co17  1  0.381484  0.854960  0.381484  1
  Co  Co18  1  0.383826  0.380538  0.855099  1
  Co  Co19  1  0.855099  0.380538  0.383826  1
  Co  Co20  1  0.619462  0.616174  0.619462  1
  Si  Si21  1  0.500651  0.499349  0.500651  1
  Si  Si22  1  0.997521  0.502479  0.997521  1
  Si  Si23  1  0.498216  0.994723  0.005277  1
  Si  Si24  1  0.005277  0.501784  0.498216  1
  Si  Si25  1  0.497521  0.002479  0.497521  1
  Si  Si26  1  0.005277  0.994723  0.498216  1
  Si  Si27  1  0.498216  0.501784  0.005277  1
  Pt  Pt28  1  0.178773  0.821227  0.178773  1
