# generated using pymatgen
data_Be8Ni4Ir3Pd
_symmetry_space_group_name_H-M   'P 1'
_cell_length_a   5.43996100
_cell_length_b   3.84805400
_cell_length_c   7.68670700
_cell_angle_alpha   90.00000000
_cell_angle_beta   89.99980831
_cell_angle_gamma   90.00000000
_symmetry_Int_Tables_number   1
_chemical_formula_structural   Be8Ni4Ir3Pd
_chemical_formula_sum   'Be8 Ni4 Ir3 Pd1'
_cell_volume   160.90786451
_cell_formula_units_Z   1
loop_
 _symmetry_equiv_pos_site_id
 _symmetry_equiv_pos_as_xyz
  1  'x, y, z'
loop_
 _atom_site_type_symbol
 _atom_site_label
 _atom_site_symmetry_multiplicity
 _atom_site_fract_x
 _atom_site_fract_y
 _atom_site_fract_z
 _atom_site_occupancy
  Be  Be0  1  0.506422  0.750000  0.125058  1
  Be  Be1  1  0.993594  0.750000  0.125054  1
  Be  Be2  1  0.996885  0.250000  0.378344  1
  Be  Be3  1  0.503132  0.250000  0.378345  1
  Be  Be4  1  0.500146  0.750000  0.625051  1
  Be  Be5  1  0.999836  0.750000  0.625051  1
  Be  Be6  1  0.996826  0.250000  0.871549  1
  Be  Be7  1  0.503155  0.250000  0.871550  1
  Ni  Ni8  1  0.750013  0.250000  0.125009  1
  Ni  Ni9  1  0.250013  0.750000  0.374116  1
  Ni  Ni10  1  0.749991  0.250000  0.624980  1
  Ni  Ni11  1  0.249985  0.750000  0.875898  1
  Ir  Ir12  1  0.750008  0.750000  0.373650  1
  Ir  Ir13  1  0.249990  0.250000  0.624942  1
  Ir  Ir14  1  0.749990  0.750000  0.876426  1
  Pd  Pd15  1  0.250013  0.250000  0.124980  1
