# generated using pymatgen
data_Ho8LuMg(BiAu2)2
_symmetry_space_group_name_H-M   'P 1'
_cell_length_a   8.70138143
_cell_length_b   8.70138162
_cell_length_c   8.70138100
_cell_angle_alpha   125.61460249
_cell_angle_beta   125.61459975
_cell_angle_gamma   80.52249542
_symmetry_Int_Tables_number   1
_chemical_formula_structural   Ho8LuMg(BiAu2)2
_chemical_formula_sum   'Ho8 Lu1 Mg1 Bi2 Au4'
_cell_volume   419.96429520
_cell_formula_units_Z   1
loop_
 _symmetry_equiv_pos_site_id
 _symmetry_equiv_pos_as_xyz
  1  'x, y, z'
loop_
 _atom_site_type_symbol
 _atom_site_label
 _atom_site_symmetry_multiplicity
 _atom_site_fract_x
 _atom_site_fract_y
 _atom_site_fract_z
 _atom_site_occupancy
  Ho  Ho0  1  0.008709  0.523154  0.812211  1
  Ho  Ho1  1  0.710943  0.196498  0.187789  1
  Ho  Ho2  1  0.523154  0.710943  0.514446  1
  Ho  Ho3  1  0.196498  0.008709  0.485554  1
  Ho  Ho4  1  0.991291  0.476846  0.187789  1
  Ho  Ho5  1  0.289057  0.803502  0.812211  1
  Ho  Ho6  1  0.476846  0.289057  0.485554  1
  Ho  Ho7  1  0.803502  0.991291  0.514446  1
  Lu  Lu8  1  0.500000  0.500000  0.000000  1
  Mg  Mg9  1  0.000000  0.000000  0.000000  1
  Bi  Bi10  1  0.745668  0.745668  0.000000  1
  Bi  Bi11  1  0.254332  0.254332  0.000000  1
  Au  Au12  1  0.634708  0.142171  0.776877  1
  Au  Au13  1  0.365292  0.857829  0.223123  1
  Au  Au14  1  0.142171  0.365292  0.507463  1
  Au  Au15  1  0.857829  0.634708  0.492537  1
