# generated using pymatgen
data_LaPrGa5Au3
_symmetry_space_group_name_H-M   'P 1'
_cell_length_a   4.41803800
_cell_length_b   4.43587100
_cell_length_c   10.75751200
_cell_angle_alpha   90.00000000
_cell_angle_beta   90.00000000
_cell_angle_gamma   90.00000000
_symmetry_Int_Tables_number   1
_chemical_formula_structural   LaPrGa5Au3
_chemical_formula_sum   'La1 Pr1 Ga5 Au3'
_cell_volume   210.82407042
_cell_formula_units_Z   1
loop_
 _symmetry_equiv_pos_site_id
 _symmetry_equiv_pos_as_xyz
  1  'x, y, z'
loop_
 _atom_site_type_symbol
 _atom_site_label
 _atom_site_symmetry_multiplicity
 _atom_site_fract_x
 _atom_site_fract_y
 _atom_site_fract_z
 _atom_site_occupancy
  La  La0  1  0.000000  0.500000  0.249125  1
  Pr  Pr1  1  0.500000  0.000000  0.749445  1
  Ga  Ga2  1  0.500000  0.500000  0.000285  1
  Ga  Ga3  1  0.000000  0.000000  0.998437  1
  Ga  Ga4  1  0.000000  0.500000  0.636298  1
  Ga  Ga5  1  0.500000  0.000000  0.365474  1
  Ga  Ga6  1  0.000000  0.000000  0.501186  1
  Au  Au7  1  0.000000  0.500000  0.869176  1
  Au  Au8  1  0.500000  0.000000  0.130500  1
  Au  Au9  1  0.500000  0.500000  0.500074  1
