# generated using pymatgen
data_Dy2NbB2Ir2Ru3
_symmetry_space_group_name_H-M   'P 1'
_cell_length_a   9.70915600
_cell_length_b   9.73963000
_cell_length_c   3.13200200
_cell_angle_alpha   90.00000000
_cell_angle_beta   90.00000000
_cell_angle_gamma   90.00000000
_symmetry_Int_Tables_number   1
_chemical_formula_structural   Dy2NbB2Ir2Ru3
_chemical_formula_sum   'Dy4 Nb2 B4 Ir4 Ru6'
_cell_volume   296.17334377
_cell_formula_units_Z   2
loop_
 _symmetry_equiv_pos_site_id
 _symmetry_equiv_pos_as_xyz
  1  'x, y, z'
loop_
 _atom_site_type_symbol
 _atom_site_label
 _atom_site_symmetry_multiplicity
 _atom_site_fract_x
 _atom_site_fract_y
 _atom_site_fract_z
 _atom_site_occupancy
  Dy  Dy0  1  0.825188  0.674801  0.000000  1
  Dy  Dy1  1  0.174812  0.325199  0.000000  1
  Dy  Dy2  1  0.325188  0.825199  0.000000  1
  Dy  Dy3  1  0.674812  0.174801  0.000000  1
  Nb  Nb4  1  0.500000  0.500000  0.000000  1
  Nb  Nb5  1  0.000000  0.000000  0.000000  1
  B  B6  1  0.623642  0.885539  0.000000  1
  B  B7  1  0.376358  0.114461  0.000000  1
  B  B8  1  0.123642  0.614461  0.000000  1
  B  B9  1  0.876358  0.385539  0.000000  1
  Ir  Ir10  1  0.571348  0.721761  0.500000  1
  Ir  Ir11  1  0.428652  0.278239  0.500000  1
  Ir  Ir12  1  0.071348  0.778239  0.500000  1
  Ir  Ir13  1  0.928652  0.221761  0.500000  1
  Ru  Ru14  1  0.282593  0.569575  0.500000  1
  Ru  Ru15  1  0.717407  0.430425  0.500000  1
  Ru  Ru16  1  0.217407  0.069575  0.500000  1
  Ru  Ru17  1  0.782593  0.930425  0.500000  1
  Ru  Ru18  1  0.500000  0.000000  0.500000  1
  Ru  Ru19  1  0.000000  0.500000  0.500000  1
