# generated using pymatgen
data_HoTh2(InPt)3
_symmetry_space_group_name_H-M   'P 1'
_cell_length_a   7.66198494
_cell_length_b   7.64690886
_cell_length_c   4.09395200
_cell_angle_alpha   90.00000000
_cell_angle_beta   90.00000000
_cell_angle_gamma   119.93493947
_symmetry_Int_Tables_number   1
_chemical_formula_structural   HoTh2(InPt)3
_chemical_formula_sum   'Ho1 Th2 In3 Pt3'
_cell_volume   207.86670568
_cell_formula_units_Z   1
loop_
 _symmetry_equiv_pos_site_id
 _symmetry_equiv_pos_as_xyz
  1  'x, y, z'
loop_
 _atom_site_type_symbol
 _atom_site_label
 _atom_site_symmetry_multiplicity
 _atom_site_fract_x
 _atom_site_fract_y
 _atom_site_fract_z
 _atom_site_occupancy
  Ho  Ho0  1  0.000000  0.591780  0.500000  1
  Th  Th1  1  0.587829  0.999936  0.500000  1
  Th  Th2  1  0.412171  0.412107  0.500000  1
  In  In3  1  0.755896  0.745950  0.000000  1
  In  In4  1  0.000000  0.260731  0.000000  1
  In  In5  1  0.244104  0.990054  0.000000  1
  Pt  Pt6  1  0.339160  0.667260  0.000000  1
  Pt  Pt7  1  0.660840  0.328098  0.000000  1
  Pt  Pt8  1  0.000000  0.004083  0.500000  1
