# generated using pymatgen
data_Tm5Cd3Ni2Hg
_symmetry_space_group_name_H-M   'P 1'
_cell_length_a   3.52340600
_cell_length_b   7.74707646
_cell_length_c   18.00277206
_cell_angle_alpha   90.19604714
_cell_angle_beta   90.00000000
_cell_angle_gamma   90.00000000
_symmetry_Int_Tables_number   1
_chemical_formula_structural   Tm5Cd3Ni2Hg
_chemical_formula_sum   'Tm10 Cd6 Ni4 Hg2'
_cell_volume   491.40251215
_cell_formula_units_Z   2
loop_
 _symmetry_equiv_pos_site_id
 _symmetry_equiv_pos_as_xyz
  1  'x, y, z'
loop_
 _atom_site_type_symbol
 _atom_site_label
 _atom_site_symmetry_multiplicity
 _atom_site_fract_x
 _atom_site_fract_y
 _atom_site_fract_z
 _atom_site_occupancy
  Tm  Tm0  1  0.000000  0.500000  0.500000  1
  Tm  Tm1  1  0.000000  0.000000  0.000000  1
  Tm  Tm2  1  0.000000  0.750316  0.279061  1
  Tm  Tm3  1  0.000000  0.249684  0.720939  1
  Tm  Tm4  1  0.000000  0.750582  0.780778  1
  Tm  Tm5  1  0.000000  0.249418  0.219222  1
  Tm  Tm6  1  0.000000  0.611551  0.087714  1
  Tm  Tm7  1  0.000000  0.388449  0.912286  1
  Tm  Tm8  1  0.000000  0.883792  0.588579  1
  Tm  Tm9  1  0.000000  0.116208  0.411421  1
  Cd  Cd10  1  0.500000  0.789535  0.431242  1
  Cd  Cd11  1  0.500000  0.210465  0.568758  1
  Cd  Cd12  1  0.500000  0.569866  0.651671  1
  Cd  Cd13  1  0.500000  0.430134  0.348329  1
  Cd  Cd14  1  0.500000  0.926660  0.151843  1
  Cd  Cd15  1  0.500000  0.073340  0.848157  1
  Ni  Ni16  1  0.500000  0.533320  0.196439  1
  Ni  Ni17  1  0.500000  0.466680  0.803561  1
  Ni  Ni18  1  0.500000  0.967691  0.696279  1
  Ni  Ni19  1  0.500000  0.032309  0.303721  1
  Hg  Hg20  1  0.500000  0.713035  0.932092  1
  Hg  Hg21  1  0.500000  0.286965  0.067908  1
