# generated using pymatgen
data_LiYb3Ag2Pb3
_symmetry_space_group_name_H-M   'P 1'
_cell_length_a   4.93494500
_cell_length_b   4.93494361
_cell_length_c   10.95631200
_cell_angle_alpha   90.00000000
_cell_angle_beta   90.00000000
_cell_angle_gamma   119.99998919
_symmetry_Int_Tables_number   1
_chemical_formula_structural   LiYb3Ag2Pb3
_chemical_formula_sum   'Li1 Yb3 Ag2 Pb3'
_cell_volume   231.07852225
_cell_formula_units_Z   1
loop_
 _symmetry_equiv_pos_site_id
 _symmetry_equiv_pos_as_xyz
  1  'x, y, z'
loop_
 _atom_site_type_symbol
 _atom_site_label
 _atom_site_symmetry_multiplicity
 _atom_site_fract_x
 _atom_site_fract_y
 _atom_site_fract_z
 _atom_site_occupancy
  Li  Li0  1  0.333333  0.666667  0.500000  1
  Yb  Yb1  1  0.666667  0.333333  0.332155  1
  Yb  Yb2  1  0.666667  0.333333  0.667845  1
  Yb  Yb3  1  0.666667  0.333333  0.000000  1
  Ag  Ag4  1  0.000000  0.000000  0.800061  1
  Ag  Ag5  1  0.000000  0.000000  0.199939  1
  Pb  Pb6  1  0.333333  0.666667  0.152178  1
  Pb  Pb7  1  0.333333  0.666667  0.847822  1
  Pb  Pb8  1  0.000000  0.000000  0.500000  1
