# generated using pymatgen
data_Nd5Ti3(P3Ir4)4
_symmetry_space_group_name_H-M   'P 1'
_cell_length_a   12.84720100
_cell_length_b   12.84720174
_cell_length_c   4.00329300
_cell_angle_alpha   90.00000000
_cell_angle_beta   90.00000000
_cell_angle_gamma   120.00000067
_symmetry_Int_Tables_number   1
_chemical_formula_structural   Nd5Ti3(P3Ir4)4
_chemical_formula_sum   'Nd5 Ti3 P12 Ir16'
_cell_volume   572.22268229
_cell_formula_units_Z   1
loop_
 _symmetry_equiv_pos_site_id
 _symmetry_equiv_pos_as_xyz
  1  'x, y, z'
loop_
 _atom_site_type_symbol
 _atom_site_label
 _atom_site_symmetry_multiplicity
 _atom_site_fract_x
 _atom_site_fract_y
 _atom_site_fract_z
 _atom_site_occupancy
  Nd  Nd0  1  0.333333  0.666667  0.500000  1
  Nd  Nd1  1  0.666667  0.333333  0.500000  1
  Nd  Nd2  1  0.000000  0.811701  0.000000  1
  Nd  Nd3  1  0.188299  0.188299  0.000000  1
  Nd  Nd4  1  0.811701  0.000000  0.000000  1
  Ti  Ti5  1  0.000000  0.446424  0.500000  1
  Ti  Ti6  1  0.553576  0.553576  0.500000  1
  Ti  Ti7  1  0.446424  0.000000  0.500000  1
  P  P8  1  0.000000  0.637262  0.500000  1
  P  P9  1  0.362738  0.362738  0.500000  1
  P  P10  1  0.637262  0.000000  0.500000  1
  P  P11  1  0.518126  0.684515  0.000000  1
  P  P12  1  0.315485  0.833612  0.000000  1
  P  P13  1  0.166388  0.481874  0.000000  1
  P  P14  1  0.481874  0.166388  0.000000  1
  P  P15  1  0.684515  0.518126  0.000000  1
  P  P16  1  0.833612  0.315485  0.000000  1
  P  P17  1  0.000000  0.178283  0.500000  1
  P  P18  1  0.821717  0.821717  0.500000  1
  P  P19  1  0.178283  0.000000  0.500000  1
  Ir  Ir20  1  0.510996  0.868684  0.000000  1
  Ir  Ir21  1  0.131316  0.642313  0.000000  1
  Ir  Ir22  1  0.357687  0.489004  0.000000  1
  Ir  Ir23  1  0.489004  0.357687  0.000000  1
  Ir  Ir24  1  0.868684  0.510996  0.000000  1
  Ir  Ir25  1  0.642313  0.131316  0.000000  1
  Ir  Ir26  1  0.000000  0.284988  0.000000  1
  Ir  Ir27  1  0.715012  0.715012  0.000000  1
  Ir  Ir28  1  0.284988  0.000000  0.000000  1
  Ir  Ir29  1  0.624397  0.802219  0.500000  1
  Ir  Ir30  1  0.197781  0.822178  0.500000  1
  Ir  Ir31  1  0.177822  0.375603  0.500000  1
  Ir  Ir32  1  0.375603  0.177822  0.500000  1
  Ir  Ir33  1  0.802219  0.624397  0.500000  1
  Ir  Ir34  1  0.822178  0.197781  0.500000  1
  Ir  Ir35  1  0.000000  0.000000  0.500000  1
