# generated using pymatgen
data_Nd3Ho4Th(CdIr)2
_symmetry_space_group_name_H-M   'P 1'
_cell_length_a   9.77758824
_cell_length_b   9.77758776
_cell_length_c   9.77142200
_cell_angle_alpha   60.02085116
_cell_angle_beta   60.02085279
_cell_angle_gamma   60.11468797
_symmetry_Int_Tables_number   1
_chemical_formula_structural   Nd3Ho4Th(CdIr)2
_chemical_formula_sum   'Nd6 Ho8 Th2 Cd4 Ir4'
_cell_volume   661.33011139
_cell_formula_units_Z   2
loop_
 _symmetry_equiv_pos_site_id
 _symmetry_equiv_pos_as_xyz
  1  'x, y, z'
loop_
 _atom_site_type_symbol
 _atom_site_label
 _atom_site_symmetry_multiplicity
 _atom_site_fract_x
 _atom_site_fract_y
 _atom_site_fract_z
 _atom_site_occupancy
  Nd  Nd0  1  0.941523  0.560352  0.560443  1
  Nd  Nd1  1  0.560352  0.941523  0.937682  1
  Nd  Nd2  1  0.560352  0.941523  0.560443  1
  Nd  Nd3  1  0.941523  0.560352  0.937682  1
  Nd  Nd4  1  0.561748  0.561748  0.938252  1
  Nd  Nd5  1  0.943429  0.943429  0.556571  1
  Ho  Ho6  1  0.350267  0.951673  0.349030  1
  Ho  Ho7  1  0.951673  0.350267  0.349030  1
  Ho  Ho8  1  0.813989  0.186636  0.186859  1
  Ho  Ho9  1  0.186636  0.813989  0.812516  1
  Ho  Ho10  1  0.186636  0.813989  0.186859  1
  Ho  Ho11  1  0.813989  0.186636  0.812516  1
  Ho  Ho12  1  0.184339  0.184339  0.815661  1
  Ho  Ho13  1  0.812544  0.812544  0.187456  1
  Th  Th14  1  0.345504  0.345504  0.349765  1
  Th  Th15  1  0.345504  0.345504  0.959227  1
  Cd  Cd16  1  0.580286  0.580286  0.577848  1
  Cd  Cd17  1  0.580286  0.580286  0.261580  1
  Cd  Cd18  1  0.581541  0.259595  0.579431  1
  Cd  Cd19  1  0.259595  0.581541  0.579431  1
  Ir  Ir20  1  0.141274  0.141274  0.144514  1
  Ir  Ir21  1  0.141274  0.141274  0.572936  1
  Ir  Ir22  1  0.143234  0.572498  0.142134  1
  Ir  Ir23  1  0.572498  0.143234  0.142134  1
