# generated using pymatgen
data_LiMg(Nb2N3)2
_symmetry_space_group_name_H-M   'P 1'
_cell_length_a   5.26664800
_cell_length_b   5.26664803
_cell_length_c   10.42173900
_cell_angle_alpha   90.00000000
_cell_angle_beta   90.00000000
_cell_angle_gamma   119.99999979
_symmetry_Int_Tables_number   1
_chemical_formula_structural   LiMg(Nb2N3)2
_chemical_formula_sum   'Li2 Mg2 Nb8 N12'
_cell_volume   250.34528363
_cell_formula_units_Z   2
loop_
 _symmetry_equiv_pos_site_id
 _symmetry_equiv_pos_as_xyz
  1  'x, y, z'
loop_
 _atom_site_type_symbol
 _atom_site_label
 _atom_site_symmetry_multiplicity
 _atom_site_fract_x
 _atom_site_fract_y
 _atom_site_fract_z
 _atom_site_occupancy
  Li  Li0  1  0.333333  0.666667  0.000000  1
  Li  Li1  1  0.333333  0.666667  0.500000  1
  Mg  Mg2  1  0.666667  0.333333  0.500000  1
  Mg  Mg3  1  0.666667  0.333333  0.000000  1
  Nb  Nb4  1  0.003509  0.343411  0.250000  1
  Nb  Nb5  1  0.656589  0.996491  0.750000  1
  Nb  Nb6  1  0.339901  0.343411  0.750000  1
  Nb  Nb7  1  0.000000  0.000000  0.500000  1
  Nb  Nb8  1  0.000000  0.000000  0.000000  1
  Nb  Nb9  1  0.656589  0.660099  0.250000  1
  Nb  Nb10  1  0.339901  0.996491  0.250000  1
  Nb  Nb11  1  0.003509  0.660099  0.750000  1
  N  N12  1  0.673466  0.670837  0.622569  1
  N  N13  1  0.673466  0.670837  0.877431  1
  N  N14  1  0.329163  0.326534  0.122569  1
  N  N15  1  0.329163  0.326534  0.377431  1
  N  N16  1  0.329163  0.002628  0.877431  1
  N  N17  1  0.329163  0.002628  0.622569  1
  N  N18  1  0.997372  0.670837  0.377431  1
  N  N19  1  0.997372  0.670837  0.122569  1
  N  N20  1  0.673466  0.002628  0.122569  1
  N  N21  1  0.673466  0.002628  0.377431  1
  N  N22  1  0.997372  0.326534  0.877431  1
  N  N23  1  0.997372  0.326534  0.622569  1
