# generated using pymatgen
data_TbNdEr2(NiP)4
_symmetry_space_group_name_H-M   'P 1'
_cell_length_a   3.90653700
_cell_length_b   3.90653874
_cell_length_c   15.55442600
_cell_angle_alpha   90.00000000
_cell_angle_beta   90.00000000
_cell_angle_gamma   119.99999376
_symmetry_Int_Tables_number   1
_chemical_formula_structural   TbNdEr2(NiP)4
_chemical_formula_sum   'Tb1 Nd1 Er2 Ni4 P4'
_cell_volume   205.57425509
_cell_formula_units_Z   1
loop_
 _symmetry_equiv_pos_site_id
 _symmetry_equiv_pos_as_xyz
  1  'x, y, z'
loop_
 _atom_site_type_symbol
 _atom_site_label
 _atom_site_symmetry_multiplicity
 _atom_site_fract_x
 _atom_site_fract_y
 _atom_site_fract_z
 _atom_site_occupancy
  Tb  Tb0  1  0.000000  0.000000  0.500000  1
  Nd  Nd1  1  0.000000  0.000000  0.000000  1
  Er  Er2  1  0.000000  0.000000  0.253491  1
  Er  Er3  1  0.000000  0.000000  0.746509  1
  Ni  Ni4  1  0.333333  0.666667  0.370083  1
  Ni  Ni5  1  0.666667  0.333333  0.629917  1
  Ni  Ni6  1  0.666667  0.333333  0.864786  1
  Ni  Ni7  1  0.333333  0.666667  0.135214  1
  P  P8  1  0.333333  0.666667  0.869682  1
  P  P9  1  0.666667  0.333333  0.130318  1
  P  P10  1  0.666667  0.333333  0.378204  1
  P  P11  1  0.333333  0.666667  0.621796  1
