# generated using pymatgen
data_Hf17Pt7
_symmetry_space_group_name_H-M   'P 1'
_cell_length_a   8.91411643
_cell_length_b   8.91411734
_cell_length_c   8.91411724
_cell_angle_alpha   59.58278679
_cell_angle_beta   59.58279123
_cell_angle_gamma   59.58278937
_symmetry_Int_Tables_number   1
_chemical_formula_structural   Hf17Pt7
_chemical_formula_sum   'Hf17 Pt7'
_cell_volume   496.11414885
_cell_formula_units_Z   1
loop_
 _symmetry_equiv_pos_site_id
 _symmetry_equiv_pos_as_xyz
  1  'x, y, z'
loop_
 _atom_site_type_symbol
 _atom_site_label
 _atom_site_symmetry_multiplicity
 _atom_site_fract_x
 _atom_site_fract_y
 _atom_site_fract_z
 _atom_site_occupancy
  Hf  Hf0  1  0.171440  0.606985  0.606985  1
  Hf  Hf1  1  0.606985  0.171440  0.606985  1
  Hf  Hf2  1  0.606985  0.606985  0.171440  1
  Hf  Hf3  1  0.627710  0.627710  0.627710  1
  Hf  Hf4  1  0.814508  0.814508  0.173465  1
  Hf  Hf5  1  0.182047  0.182047  0.815108  1
  Hf  Hf6  1  0.814508  0.173465  0.814508  1
  Hf  Hf7  1  0.182047  0.815108  0.182047  1
  Hf  Hf8  1  0.173465  0.814508  0.814508  1
  Hf  Hf9  1  0.815108  0.182047  0.182047  1
  Hf  Hf10  1  0.444329  0.444329  0.052943  1
  Hf  Hf11  1  0.053157  0.053157  0.450535  1
  Hf  Hf12  1  0.444329  0.052943  0.444329  1
  Hf  Hf13  1  0.053157  0.450535  0.053157  1
  Hf  Hf14  1  0.052943  0.444329  0.444329  1
  Hf  Hf15  1  0.450535  0.053157  0.053157  1
  Hf  Hf16  1  0.828174  0.828174  0.828174  1
  Pt  Pt17  1  0.802687  0.406146  0.406146  1
  Pt  Pt18  1  0.406146  0.802687  0.406146  1
  Pt  Pt19  1  0.406146  0.406146  0.802687  1
  Pt  Pt20  1  0.392865  0.392865  0.392865  1
  Pt  Pt21  1  0.468801  0.850963  0.850963  1
  Pt  Pt22  1  0.850963  0.468801  0.850963  1
  Pt  Pt23  1  0.850963  0.850963  0.468801  1
