# generated using pymatgen
data_Sm4Ga9GeIr6
_symmetry_space_group_name_H-M   'P 1'
_cell_length_a   8.59480699
_cell_length_b   8.65029478
_cell_length_c   8.65029331
_cell_angle_alpha   140.92392031
_cell_angle_beta   108.65071544
_cell_angle_gamma   84.56804441
_symmetry_Int_Tables_number   1
_chemical_formula_structural   Sm4Ga9GeIr6
_chemical_formula_sum   'Sm4 Ga9 Ge1 Ir6'
_cell_volume   371.18839655
_cell_formula_units_Z   1
loop_
 _symmetry_equiv_pos_site_id
 _symmetry_equiv_pos_as_xyz
  1  'x, y, z'
loop_
 _atom_site_type_symbol
 _atom_site_label
 _atom_site_symmetry_multiplicity
 _atom_site_fract_x
 _atom_site_fract_y
 _atom_site_fract_z
 _atom_site_occupancy
  Sm  Sm0  1  0.866727  0.636804  0.229923  1
  Sm  Sm1  1  0.132305  0.361935  0.770369  1
  Sm  Sm2  1  0.594698  0.862962  0.731735  1
  Sm  Sm3  1  0.410862  0.139202  0.271660  1
  Ga  Ga4  1  0.498299  0.750293  0.249148  1
  Ga  Ga5  1  0.498299  0.249151  0.748006  1
  Ga  Ga6  1  0.206608  0.956615  0.750682  1
  Ga  Ga7  1  0.794167  0.543049  0.751321  1
  Ga  Ga8  1  0.794167  0.042846  0.251118  1
  Ga  Ga9  1  0.206608  0.455926  0.249993  1
  Ga  Ga10  1  0.085953  0.912969  0.172984  1
  Ga  Ga11  1  0.916313  0.090568  0.825744  1
  Ga  Ga12  1  0.260957  0.587852  0.673105  1
  Ge  Ge13  1  0.738918  0.410668  0.328250  1
  Ir  Ir14  1  0.554527  0.648592  0.905934  1
  Ir  Ir15  1  0.449030  0.352131  0.096900  1
  Ir  Ir16  1  0.996975  0.750246  0.747393  1
  Ir  Ir17  1  0.996975  0.249582  0.246729  1
  Ir  Ir18  1  0.254936  0.850026  0.404910  1
  Ir  Ir19  1  0.742677  0.148583  0.594094  1
