# generated using pymatgen
data_Zr2FeP2Pd
_symmetry_space_group_name_H-M   'P 1'
_cell_length_a   3.76456000
_cell_length_b   6.48749483
_cell_length_c   7.39905311
_cell_angle_alpha   87.95203542
_cell_angle_beta   90.00000000
_cell_angle_gamma   90.00000000
_symmetry_Int_Tables_number   1
_chemical_formula_structural   Zr2FeP2Pd
_chemical_formula_sum   'Zr4 Fe2 P4 Pd2'
_cell_volume   180.58842208
_cell_formula_units_Z   2
loop_
 _symmetry_equiv_pos_site_id
 _symmetry_equiv_pos_as_xyz
  1  'x, y, z'
loop_
 _atom_site_type_symbol
 _atom_site_label
 _atom_site_symmetry_multiplicity
 _atom_site_fract_x
 _atom_site_fract_y
 _atom_site_fract_z
 _atom_site_occupancy
  Zr  Zr0  1  0.250000  0.525894  0.690341  1
  Zr  Zr1  1  0.750000  0.474106  0.309659  1
  Zr  Zr2  1  0.250000  0.021753  0.827780  1
  Zr  Zr3  1  0.750000  0.978247  0.172220  1
  Fe  Fe4  1  0.750000  0.365653  0.944197  1
  Fe  Fe5  1  0.250000  0.634347  0.055803  1
  P  P6  1  0.250000  0.282509  0.095594  1
  P  P7  1  0.750000  0.717491  0.904406  1
  P  P8  1  0.250000  0.750038  0.354140  1
  P  P9  1  0.750000  0.249962  0.645860  1
  Pd  Pd10  1  0.750000  0.850267  0.564983  1
  Pd  Pd11  1  0.250000  0.149733  0.435017  1
