# generated using pymatgen
data_Pr8MgCdIrOs
_symmetry_space_group_name_H-M   'P 1'
_cell_length_a   10.06248258
_cell_length_b   10.06248339
_cell_length_c   10.11557600
_cell_angle_alpha   59.82531420
_cell_angle_beta   59.82531152
_cell_angle_gamma   59.65465111
_symmetry_Int_Tables_number   1
_chemical_formula_structural   Pr8MgCdIrOs
_chemical_formula_sum   'Pr16 Mg2 Cd2 Ir2 Os2'
_cell_volume   720.43337496
_cell_formula_units_Z   2
loop_
 _symmetry_equiv_pos_site_id
 _symmetry_equiv_pos_as_xyz
  1  'x, y, z'
loop_
 _atom_site_type_symbol
 _atom_site_label
 _atom_site_symmetry_multiplicity
 _atom_site_fract_x
 _atom_site_fract_y
 _atom_site_fract_z
 _atom_site_occupancy
  Pr  Pr0  1  0.345899  0.345899  0.348364  1
  Pr  Pr1  1  0.345899  0.345899  0.959836  1
  Pr  Pr2  1  0.344532  0.963033  0.346217  1
  Pr  Pr3  1  0.963033  0.344532  0.346217  1
  Pr  Pr4  1  0.811124  0.190050  0.190631  1
  Pr  Pr5  1  0.190050  0.811124  0.808195  1
  Pr  Pr6  1  0.190050  0.811124  0.190631  1
  Pr  Pr7  1  0.811124  0.190050  0.808195  1
  Pr  Pr8  1  0.192052  0.192052  0.807948  1
  Pr  Pr9  1  0.810726  0.810726  0.189274  1
  Pr  Pr10  1  0.940083  0.558820  0.562191  1
  Pr  Pr11  1  0.558820  0.940083  0.938907  1
  Pr  Pr12  1  0.558820  0.940083  0.562191  1
  Pr  Pr13  1  0.940083  0.558820  0.938907  1
  Pr  Pr14  1  0.562279  0.562279  0.937721  1
  Pr  Pr15  1  0.941016  0.941016  0.558984  1
  Mg  Mg16  1  0.575285  0.575285  0.579035  1
  Mg  Mg17  1  0.575285  0.575285  0.270394  1
  Cd  Cd18  1  0.580420  0.259432  0.580074  1
  Cd  Cd19  1  0.259432  0.580420  0.580074  1
  Ir  Ir20  1  0.142646  0.579616  0.138870  1
  Ir  Ir21  1  0.579616  0.142646  0.138870  1
  Os  Os22  1  0.140864  0.140864  0.136739  1
  Os  Os23  1  0.140864  0.140864  0.581533  1
