# generated using pymatgen
data_Zn5GaPd10
_symmetry_space_group_name_H-M   'P 1'
_cell_length_a   4.16381000
_cell_length_b   5.43933215
_cell_length_c   10.50157077
_cell_angle_alpha   89.80151764
_cell_angle_beta   90.00000000
_cell_angle_gamma   90.00000000
_symmetry_Int_Tables_number   1
_chemical_formula_structural   Zn5GaPd10
_chemical_formula_sum   'Zn5 Ga1 Pd10'
_cell_volume   237.84177704
_cell_formula_units_Z   1
loop_
 _symmetry_equiv_pos_site_id
 _symmetry_equiv_pos_as_xyz
  1  'x, y, z'
loop_
 _atom_site_type_symbol
 _atom_site_label
 _atom_site_symmetry_multiplicity
 _atom_site_fract_x
 _atom_site_fract_y
 _atom_site_fract_z
 _atom_site_occupancy
  Zn  Zn0  1  0.000000  0.834380  0.634931  1
  Zn  Zn1  1  0.000000  0.343974  0.860796  1
  Zn  Zn2  1  0.500000  0.500000  0.500000  1
  Zn  Zn3  1  0.000000  0.165620  0.365069  1
  Zn  Zn4  1  0.000000  0.656026  0.139204  1
  Ga  Ga5  1  0.500000  0.000000  0.000000  1
  Pd  Pd6  1  0.000000  0.822735  0.890904  1
  Pd  Pd7  1  0.000000  0.681832  0.389044  1
  Pd  Pd8  1  0.000000  0.318168  0.610956  1
  Pd  Pd9  1  0.500000  0.891351  0.233488  1
  Pd  Pd10  1  0.500000  0.390204  0.264451  1
  Pd  Pd11  1  0.500000  0.609796  0.735549  1
  Pd  Pd12  1  0.500000  0.108649  0.766512  1
  Pd  Pd13  1  0.500000  0.500000  0.000000  1
  Pd  Pd14  1  0.500000  0.000000  0.500000  1
  Pd  Pd15  1  0.000000  0.177265  0.109096  1
