# generated using pymatgen
data_Dy3PaAl16(GaIr3)2
_symmetry_space_group_name_H-M   'P 1'
_cell_length_a   7.56880945
_cell_length_b   7.55679511
_cell_length_c   9.44968600
_cell_angle_alpha   90.00000000
_cell_angle_beta   90.00000000
_cell_angle_gamma   119.40164777
_symmetry_Int_Tables_number   1
_chemical_formula_structural   Dy3PaAl16(GaIr3)2
_chemical_formula_sum   'Dy3 Pa1 Al16 Ga2 Ir6'
_cell_volume   470.86922883
_cell_formula_units_Z   1
loop_
 _symmetry_equiv_pos_site_id
 _symmetry_equiv_pos_as_xyz
  1  'x, y, z'
loop_
 _atom_site_type_symbol
 _atom_site_label
 _atom_site_symmetry_multiplicity
 _atom_site_fract_x
 _atom_site_fract_y
 _atom_site_fract_z
 _atom_site_occupancy
  Dy  Dy0  1  0.005512  0.325180  0.250000  1
  Dy  Dy1  1  0.676349  0.993658  0.750000  1
  Dy  Dy2  1  0.325400  0.005154  0.250000  1
  Pa  Pa3  1  0.994611  0.676531  0.750000  1
  Al  Al4  1  0.001382  0.333881  0.574179  1
  Al  Al5  1  0.998425  0.663257  0.421718  1
  Al  Al6  1  0.998425  0.663257  0.078282  1
  Al  Al7  1  0.340015  0.004119  0.925903  1
  Al  Al8  1  0.001382  0.333881  0.925821  1
  Al  Al9  1  0.664007  0.999311  0.075164  1
  Al  Al10  1  0.664007  0.999311  0.424836  1
  Al  Al11  1  0.340015  0.004119  0.574097  1
  Al  Al12  1  0.333136  0.333198  0.057908  1
  Al  Al13  1  0.662013  0.664744  0.947003  1
  Al  Al14  1  0.662013  0.664744  0.552997  1
  Al  Al15  1  0.333136  0.333198  0.442092  1
  Al  Al16  1  0.337282  0.548960  0.750000  1
  Al  Al17  1  0.660677  0.448035  0.250000  1
  Al  Al18  1  0.548591  0.339559  0.750000  1
  Al  Al19  1  0.449197  0.662570  0.250000  1
  Ga  Ga20  1  0.140564  0.139957  0.750000  1
  Ga  Ga21  1  0.865242  0.867045  0.250000  1
  Ir  Ir22  1  0.673268  0.330403  0.501946  1
  Ir  Ir23  1  0.326562  0.671453  0.501885  1
  Ir  Ir24  1  0.326562  0.671453  0.998115  1
  Ir  Ir25  1  0.673268  0.330403  0.998054  1
  Ir  Ir26  1  0.999476  0.996309  0.503736  1
  Ir  Ir27  1  0.999476  0.996309  0.996264  1
