# generated using pymatgen
data_TbHoTm2(Al3Ir)6
_symmetry_space_group_name_H-M   'P 1'
_cell_length_a   7.54012346
_cell_length_b   7.53810296
_cell_length_c   9.46993700
_cell_angle_alpha   90.00000000
_cell_angle_beta   90.00000000
_cell_angle_gamma   119.50516278
_symmetry_Int_Tables_number   1
_chemical_formula_structural   TbHoTm2(Al3Ir)6
_chemical_formula_sum   'Tb1 Ho1 Tm2 Al18 Ir6'
_cell_volume   468.44892282
_cell_formula_units_Z   1
loop_
 _symmetry_equiv_pos_site_id
 _symmetry_equiv_pos_as_xyz
  1  'x, y, z'
loop_
 _atom_site_type_symbol
 _atom_site_label
 _atom_site_symmetry_multiplicity
 _atom_site_fract_x
 _atom_site_fract_y
 _atom_site_fract_z
 _atom_site_occupancy
  Tb  Tb0  1  0.671244  0.994789  0.250000  1
  Ho  Ho1  1  0.994942  0.671459  0.250000  1
  Tm  Tm2  1  0.005305  0.328260  0.750000  1
  Tm  Tm3  1  0.328321  0.005318  0.750000  1
  Al  Al4  1  0.129639  0.129340  0.250000  1
  Al  Al5  1  0.871440  0.871350  0.750000  1
  Al  Al6  1  0.001341  0.335538  0.073854  1
  Al  Al7  1  0.999376  0.664701  0.924384  1
  Al  Al8  1  0.999376  0.664701  0.575616  1
  Al  Al9  1  0.334882  0.001068  0.426123  1
  Al  Al10  1  0.001341  0.335538  0.426146  1
  Al  Al11  1  0.664687  0.999346  0.575885  1
  Al  Al12  1  0.664687  0.999346  0.924115  1
  Al  Al13  1  0.334882  0.001068  0.073877  1
  Al  Al14  1  0.332875  0.332918  0.553466  1
  Al  Al15  1  0.667008  0.666687  0.448518  1
  Al  Al16  1  0.667008  0.666687  0.051482  1
  Al  Al17  1  0.332875  0.332918  0.946534  1
  Al  Al18  1  0.338851  0.547729  0.250000  1
  Al  Al19  1  0.660579  0.451156  0.750000  1
  Al  Al20  1  0.548137  0.339543  0.250000  1
  Al  Al21  1  0.450968  0.660399  0.750000  1
  Ir  Ir22  1  0.671701  0.328009  0.999509  1
  Ir  Ir23  1  0.327801  0.671649  0.999500  1
  Ir  Ir24  1  0.327801  0.671649  0.500500  1
  Ir  Ir25  1  0.671701  0.328009  0.500491  1
  Ir  Ir26  1  0.000616  0.000412  0.999274  1
  Ir  Ir27  1  0.000616  0.000412  0.500726  1
