# generated using pymatgen
data_Cs2Mn(ZnTe2)2
_symmetry_space_group_name_H-M   'P 1'
_cell_length_a   10.60711603
_cell_length_b   10.62284255
_cell_length_c   10.60711581
_cell_angle_alpha   144.09486851
_cell_angle_beta   105.21341378
_cell_angle_gamma   85.78517971
_symmetry_Int_Tables_number   1
_chemical_formula_structural   Cs2Mn(ZnTe2)2
_chemical_formula_sum   'Cs4 Mn2 Zn4 Te8'
_cell_volume   655.60914578
_cell_formula_units_Z   2
loop_
 _symmetry_equiv_pos_site_id
 _symmetry_equiv_pos_as_xyz
  1  'x, y, z'
loop_
 _atom_site_type_symbol
 _atom_site_label
 _atom_site_symmetry_multiplicity
 _atom_site_fract_x
 _atom_site_fract_y
 _atom_site_fract_z
 _atom_site_occupancy
  Cs  Cs0  1  0.123342  0.234976  0.358341  1
  Cs  Cs1  1  0.377268  0.735045  0.111436  1
  Cs  Cs2  1  0.623365  0.265024  0.888367  1
  Cs  Cs3  1  0.876392  0.764955  0.642223  1
  Mn  Mn4  1  0.251394  0.750000  0.501394  1
  Mn  Mn5  1  0.011896  0.250000  0.761896  1
  Zn  Zn6  1  0.516783  0.750000  0.766783  1
  Zn  Zn7  1  0.986027  0.750000  0.236027  1
  Zn  Zn8  1  0.484404  0.250000  0.234404  1
  Zn  Zn9  1  0.751150  0.250000  0.501150  1
  Te  Te10  1  0.218562  0.075325  0.592616  1
  Te  Te11  1  0.283334  0.879847  0.861586  1
  Te  Te12  1  0.017291  0.424675  0.143237  1
  Te  Te13  1  0.481739  0.620153  0.403486  1
  Te  Te14  1  0.779716  0.918701  0.396292  1
  Te  Te15  1  0.717599  0.120159  0.142307  1
  Te  Te16  1  0.977591  0.581299  0.861014  1
  Te  Te17  1  0.522148  0.379841  0.597439  1
