# generated using pymatgen
data_LaPr3(Ga12Pt)2
_symmetry_space_group_name_H-M   'P 1'
_cell_length_a   6.21306115
_cell_length_b   6.21306115
_cell_length_c   15.61833900
_cell_angle_alpha   90.00000000
_cell_angle_beta   90.00000000
_cell_angle_gamma   89.88469025
_symmetry_Int_Tables_number   1
_chemical_formula_structural   LaPr3(Ga12Pt)2
_chemical_formula_sum   'La1 Pr3 Ga24 Pt2'
_cell_volume   602.89991274
_cell_formula_units_Z   1
loop_
 _symmetry_equiv_pos_site_id
 _symmetry_equiv_pos_as_xyz
  1  'x, y, z'
loop_
 _atom_site_type_symbol
 _atom_site_label
 _atom_site_symmetry_multiplicity
 _atom_site_fract_x
 _atom_site_fract_y
 _atom_site_fract_z
 _atom_site_occupancy
  La  La0  1  0.750000  0.250000  0.246501  1
  Pr  Pr1  1  0.250000  0.750000  0.245913  1
  Pr  Pr2  1  0.250000  0.750000  0.753531  1
  Pr  Pr3  1  0.750000  0.250000  0.754182  1
  Ga  Ga4  1  0.250000  0.250000  0.185582  1
  Ga  Ga5  1  0.750000  0.750000  0.185582  1
  Ga  Ga6  1  0.750000  0.750000  0.814139  1
  Ga  Ga7  1  0.250000  0.250000  0.814139  1
  Ga  Ga8  1  0.250000  0.250000  0.345354  1
  Ga  Ga9  1  0.750000  0.750000  0.345354  1
  Ga  Ga10  1  0.750000  0.750000  0.655012  1
  Ga  Ga11  1  0.250000  0.250000  0.655012  1
  Ga  Ga12  1  0.499760  0.999760  0.912185  1
  Ga  Ga13  1  0.000274  0.999726  0.912002  1
  Ga  Ga14  1  0.499726  0.500274  0.912002  1
  Ga  Ga15  1  0.000240  0.500240  0.912185  1
  Ga  Ga16  1  0.500065  0.000065  0.087678  1
  Ga  Ga17  1  0.999870  0.000130  0.087864  1
  Ga  Ga18  1  0.500130  0.499870  0.087864  1
  Ga  Ga19  1  0.999935  0.499935  0.087678  1
  Ga  Ga20  1  0.579394  0.079394  0.431581  1
  Ga  Ga21  1  0.079337  0.920663  0.431285  1
  Ga  Ga22  1  0.420663  0.579337  0.431285  1
  Ga  Ga23  1  0.920606  0.420606  0.431581  1
  Ga  Ga24  1  0.420136  0.920136  0.568541  1
  Ga  Ga25  1  0.920539  0.079461  0.568829  1
  Ga  Ga26  1  0.579461  0.420539  0.568829  1
  Ga  Ga27  1  0.079864  0.579864  0.568541  1
  Pt  Pt28  1  0.750000  0.250000  0.999695  1
  Pt  Pt29  1  0.250000  0.750000  0.000073  1
