# generated using pymatgen
data_La4Al18CuRh5
_symmetry_space_group_name_H-M   'P 1'
_cell_length_a   7.68661494
_cell_length_b   7.68661582
_cell_length_c   9.64788400
_cell_angle_alpha   90.02954659
_cell_angle_beta   90.02954455
_cell_angle_gamma   119.39645381
_symmetry_Int_Tables_number   1
_chemical_formula_structural   La4Al18CuRh5
_chemical_formula_sum   'La4 Al18 Cu1 Rh5'
_cell_volume   496.64039867
_cell_formula_units_Z   1
loop_
 _symmetry_equiv_pos_site_id
 _symmetry_equiv_pos_as_xyz
  1  'x, y, z'
loop_
 _atom_site_type_symbol
 _atom_site_label
 _atom_site_symmetry_multiplicity
 _atom_site_fract_x
 _atom_site_fract_y
 _atom_site_fract_z
 _atom_site_occupancy
  La  La0  1  0.995648  0.672156  0.748757  1
  La  La1  1  0.004352  0.327844  0.251243  1
  La  La2  1  0.672156  0.995648  0.748757  1
  La  La3  1  0.327844  0.004352  0.251243  1
  Al  Al4  1  0.134571  0.134571  0.753312  1
  Al  Al5  1  0.865429  0.865429  0.246688  1
  Al  Al6  1  0.004606  0.339213  0.575342  1
  Al  Al7  1  0.995394  0.660787  0.424658  1
  Al  Al8  1  0.997203  0.664760  0.072094  1
  Al  Al9  1  0.335240  0.002797  0.927906  1
  Al  Al10  1  0.002797  0.335240  0.927906  1
  Al  Al11  1  0.664760  0.997203  0.072094  1
  Al  Al12  1  0.660787  0.995394  0.424658  1
  Al  Al13  1  0.339213  0.004606  0.575342  1
  Al  Al14  1  0.335092  0.335092  0.045058  1
  Al  Al15  1  0.664908  0.664908  0.954942  1
  Al  Al16  1  0.660754  0.660754  0.547344  1
  Al  Al17  1  0.339246  0.339246  0.452656  1
  Al  Al18  1  0.339707  0.545768  0.750370  1
  Al  Al19  1  0.660293  0.454232  0.249630  1
  Al  Al20  1  0.545768  0.339707  0.750370  1
  Al  Al21  1  0.454232  0.660293  0.249630  1
  Cu  Cu22  1  0.000000  0.000000  0.500000  1
  Rh  Rh23  1  0.670585  0.329415  0.500000  1
  Rh  Rh24  1  0.329415  0.670585  0.500000  1
  Rh  Rh25  1  0.329503  0.670497  0.000000  1
  Rh  Rh26  1  0.670497  0.329503  0.000000  1
  Rh  Rh27  1  0.000000  0.000000  0.000000  1
