# generated using pymatgen
data_Dy2Ho6CdInNi2
_symmetry_space_group_name_H-M   'P 1'
_cell_length_a   9.53119719
_cell_length_b   9.53119667
_cell_length_c   9.52530000
_cell_angle_alpha   60.02047030
_cell_angle_beta   60.02047207
_cell_angle_gamma   60.14684964
_symmetry_Int_Tables_number   1
_chemical_formula_structural   Dy2Ho6CdInNi2
_chemical_formula_sum   'Dy4 Ho12 Cd2 In2 Ni4'
_cell_volume   612.73520041
_cell_formula_units_Z   2
loop_
 _symmetry_equiv_pos_site_id
 _symmetry_equiv_pos_as_xyz
  1  'x, y, z'
loop_
 _atom_site_type_symbol
 _atom_site_label
 _atom_site_symmetry_multiplicity
 _atom_site_fract_x
 _atom_site_fract_y
 _atom_site_fract_z
 _atom_site_occupancy
  Dy  Dy0  1  0.347965  0.347965  0.347770  1
  Dy  Dy1  1  0.347965  0.347965  0.956298  1
  Dy  Dy2  1  0.350008  0.952877  0.348557  1
  Dy  Dy3  1  0.952877  0.350008  0.348557  1
  Ho  Ho4  1  0.811736  0.188785  0.188243  1
  Ho  Ho5  1  0.188785  0.811736  0.811235  1
  Ho  Ho6  1  0.188785  0.811736  0.188243  1
  Ho  Ho7  1  0.811736  0.188785  0.811235  1
  Ho  Ho8  1  0.187786  0.187786  0.812214  1
  Ho  Ho9  1  0.810766  0.810766  0.189234  1
  Ho  Ho10  1  0.937667  0.564104  0.563789  1
  Ho  Ho11  1  0.564104  0.937667  0.934440  1
  Ho  Ho12  1  0.564104  0.937667  0.563789  1
  Ho  Ho13  1  0.937667  0.564104  0.934440  1
  Ho  Ho14  1  0.564475  0.564475  0.935525  1
  Ho  Ho15  1  0.937362  0.937362  0.562638  1
  Cd  Cd16  1  0.580437  0.254187  0.582689  1
  Cd  Cd17  1  0.254187  0.580437  0.582689  1
  In  In18  1  0.581327  0.581327  0.583129  1
  In  In19  1  0.581327  0.581327  0.254217  1
  Ni  Ni20  1  0.141944  0.141944  0.143174  1
  Ni  Ni21  1  0.141944  0.141944  0.572938  1
  Ni  Ni22  1  0.141584  0.573460  0.142478  1
  Ni  Ni23  1  0.573460  0.141584  0.142478  1
