# generated using pymatgen
data_Ca3PrTa2(FeO6)2
_symmetry_space_group_name_H-M   'P 1'
_cell_length_a   5.67915469
_cell_length_b   9.67806683
_cell_length_c   9.63842938
_cell_angle_alpha   69.88973312
_cell_angle_beta   90.12965774
_cell_angle_gamma   90.28260187
_symmetry_Int_Tables_number   1
_chemical_formula_structural   Ca3PrTa2(FeO6)2
_chemical_formula_sum   'Ca6 Pr2 Ta4 Fe4 O24'
_cell_volume   497.45513502
_cell_formula_units_Z   2
loop_
 _symmetry_equiv_pos_site_id
 _symmetry_equiv_pos_as_xyz
  1  'x, y, z'
loop_
 _atom_site_type_symbol
 _atom_site_label
 _atom_site_symmetry_multiplicity
 _atom_site_fract_x
 _atom_site_fract_y
 _atom_site_fract_z
 _atom_site_occupancy
  Ca  Ca0  1  0.547553  0.121214  0.631583  1
  Ca  Ca1  1  0.545677  0.619757  0.130901  1
  Ca  Ca2  1  0.055056  0.883152  0.873658  1
  Ca  Ca3  1  0.054692  0.384818  0.371344  1
  Ca  Ca4  1  0.450121  0.878632  0.365906  1
  Ca  Ca5  1  0.451458  0.379979  0.866574  1
  Pr  Pr6  1  0.942747  0.115915  0.127432  1
  Pr  Pr7  1  0.943486  0.615135  0.629855  1
  Ta  Ta8  1  0.496539  0.753967  0.751353  1
  Ta  Ta9  1  0.496099  0.252518  0.251649  1
  Ta  Ta10  1  0.004201  0.246364  0.746740  1
  Ta  Ta11  1  0.000862  0.746150  0.246898  1
  Fe  Fe12  1  0.998699  0.499970  0.001743  1
  Fe  Fe13  1  0.499165  0.499236  0.498276  1
  Fe  Fe14  1  0.998746  0.000191  0.501379  1
  Fe  Fe15  1  0.499248  0.999342  0.998250  1
  O  O16  1  0.523861  0.680296  0.582423  1
  O  O17  1  0.522706  0.179035  0.081452  1
  O  O18  1  0.967544  0.172171  0.578736  1
  O  O19  1  0.962695  0.670465  0.079747  1
  O  O20  1  0.467762  0.318473  0.419728  1
  O  O21  1  0.470145  0.819692  0.920642  1
  O  O22  1  0.029170  0.829481  0.419301  1
  O  O23  1  0.033172  0.330885  0.918729  1
  O  O24  1  0.708064  0.080483  0.366214  1
  O  O25  1  0.708077  0.581066  0.866804  1
  O  O26  1  0.820145  0.080414  0.877773  1
  O  O27  1  0.810319  0.579419  0.378738  1
  O  O28  1  0.291931  0.919804  0.632337  1
  O  O29  1  0.291985  0.419054  0.131522  1
  O  O30  1  0.188299  0.918734  0.125391  1
  O  O31  1  0.197222  0.420633  0.625179  1
  O  O32  1  0.210128  0.120550  0.326791  1
  O  O33  1  0.210737  0.622148  0.827731  1
  O  O34  1  0.297733  0.134619  0.818190  1
  O  O35  1  0.289339  0.632564  0.315730  1
  O  O36  1  0.791570  0.875320  0.674933  1
  O  O37  1  0.790833  0.374061  0.174551  1
  O  O38  1  0.712216  0.871901  0.180662  1
  O  O39  1  0.720002  0.372396  0.683151  1
