# generated using pymatgen
data_CsEu(BH4)3
_symmetry_space_group_name_H-M   'P 1'
_cell_length_a   6.00377700
_cell_length_b   8.29690100
_cell_length_c   8.23045700
_cell_angle_alpha   90.00000000
_cell_angle_beta   90.00000000
_cell_angle_gamma   90.00000000
_symmetry_Int_Tables_number   1
_chemical_formula_structural   CsEu(BH4)3
_chemical_formula_sum   'Cs2 Eu2 B6 H24'
_cell_volume   409.98164257
_cell_formula_units_Z   2
loop_
 _symmetry_equiv_pos_site_id
 _symmetry_equiv_pos_as_xyz
  1  'x, y, z'
loop_
 _atom_site_type_symbol
 _atom_site_label
 _atom_site_symmetry_multiplicity
 _atom_site_fract_x
 _atom_site_fract_y
 _atom_site_fract_z
 _atom_site_occupancy
  Cs  Cs0  1  0.466499  0.500000  0.000000  1
  Cs  Cs1  1  0.533501  0.000000  0.500000  1
  Eu  Eu2  1  0.991543  0.500000  0.500000  1
  Eu  Eu3  1  0.008457  0.000000  0.000000  1
  B  B4  1  0.942184  0.720411  0.771006  1
  B  B5  1  0.942184  0.279589  0.228994  1
  B  B6  1  0.057816  0.220411  0.728994  1
  B  B7  1  0.057816  0.779589  0.271006  1
  B  B8  1  0.512268  0.000000  0.000000  1
  B  B9  1  0.487732  0.500000  0.500000  1
  H  H10  1  0.935633  0.573296  0.791018  1
  H  H11  1  0.935633  0.426704  0.208982  1
  H  H12  1  0.064367  0.073296  0.708982  1
  H  H13  1  0.064367  0.926704  0.291018  1
  H  H14  1  0.910266  0.758186  0.628214  1
  H  H15  1  0.910266  0.241814  0.371786  1
  H  H16  1  0.089734  0.258186  0.871786  1
  H  H17  1  0.089734  0.741814  0.128214  1
  H  H18  1  0.793508  0.781016  0.852628  1
  H  H19  1  0.793508  0.218984  0.147372  1
  H  H20  1  0.206492  0.281016  0.647372  1
  H  H21  1  0.206492  0.718984  0.352628  1
  H  H22  1  0.127797  0.768793  0.810355  1
  H  H23  1  0.127797  0.231207  0.189645  1
  H  H24  1  0.872203  0.268793  0.689645  1
  H  H25  1  0.872203  0.731207  0.310355  1
  H  H26  1  0.627705  0.925231  0.098588  1
  H  H27  1  0.627705  0.074769  0.901412  1
  H  H28  1  0.372295  0.425231  0.401412  1
  H  H29  1  0.372295  0.574769  0.598588  1
  H  H30  1  0.398419  0.902144  0.924569  1
  H  H31  1  0.398419  0.097856  0.075431  1
  H  H32  1  0.601581  0.402144  0.575431  1
  H  H33  1  0.601581  0.597856  0.424569  1
