# generated using pymatgen
data_Ca2Ce3SiPb3
_symmetry_space_group_name_H-M   'P 1'
_cell_length_a   9.49729700
_cell_length_b   9.49729634
_cell_length_c   6.79573100
_cell_angle_alpha   90.00000000
_cell_angle_beta   90.00000000
_cell_angle_gamma   119.99999880
_symmetry_Int_Tables_number   1
_chemical_formula_structural   Ca2Ce3SiPb3
_chemical_formula_sum   'Ca4 Ce6 Si2 Pb6'
_cell_volume   530.84389302
_cell_formula_units_Z   2
loop_
 _symmetry_equiv_pos_site_id
 _symmetry_equiv_pos_as_xyz
  1  'x, y, z'
loop_
 _atom_site_type_symbol
 _atom_site_label
 _atom_site_symmetry_multiplicity
 _atom_site_fract_x
 _atom_site_fract_y
 _atom_site_fract_z
 _atom_site_occupancy
  Ca  Ca0  1  0.666667  0.333333  0.500000  1
  Ca  Ca1  1  0.333333  0.666667  0.500000  1
  Ca  Ca2  1  0.333333  0.666667  0.000000  1
  Ca  Ca3  1  0.666667  0.333333  0.000000  1
  Ce  Ce4  1  0.750229  0.750229  0.250000  1
  Ce  Ce5  1  0.249771  0.000000  0.250000  1
  Ce  Ce6  1  0.000000  0.249771  0.250000  1
  Ce  Ce7  1  0.249771  0.249771  0.750000  1
  Ce  Ce8  1  0.750229  0.000000  0.750000  1
  Ce  Ce9  1  0.000000  0.750229  0.750000  1
  Si  Si10  1  0.000000  0.000000  0.500000  1
  Si  Si11  1  0.000000  0.000000  0.000000  1
  Pb  Pb12  1  0.387958  0.387958  0.250000  1
  Pb  Pb13  1  0.612042  0.000000  0.250000  1
  Pb  Pb14  1  0.000000  0.612042  0.250000  1
  Pb  Pb15  1  0.612042  0.612042  0.750000  1
  Pb  Pb16  1  0.387958  0.000000  0.750000  1
  Pb  Pb17  1  0.000000  0.387958  0.750000  1
