# generated using pymatgen
data_Dy16Al4IrPt3
_symmetry_space_group_name_H-M   'P 1'
_cell_length_a   9.61034293
_cell_length_b   9.58039637
_cell_length_c   9.58039600
_cell_angle_alpha   59.99999439
_cell_angle_beta   60.10301995
_cell_angle_gamma   60.10302103
_symmetry_Int_Tables_number   1
_chemical_formula_structural   Dy16Al4IrPt3
_chemical_formula_sum   'Dy16 Al4 Ir1 Pt3'
_cell_volume   624.69110005
_cell_formula_units_Z   1
loop_
 _symmetry_equiv_pos_site_id
 _symmetry_equiv_pos_as_xyz
  1  'x, y, z'
loop_
 _atom_site_type_symbol
 _atom_site_label
 _atom_site_symmetry_multiplicity
 _atom_site_fract_x
 _atom_site_fract_y
 _atom_site_fract_z
 _atom_site_occupancy
  Dy  Dy0  1  0.605800  0.601682  0.601682  1
  Dy  Dy1  1  0.605800  0.601682  0.190835  1
  Dy  Dy2  1  0.605800  0.190835  0.601682  1
  Dy  Dy3  1  0.187596  0.604135  0.604135  1
  Dy  Dy4  1  0.054405  0.442506  0.442506  1
  Dy  Dy5  1  0.443259  0.056356  0.056356  1
  Dy  Dy6  1  0.443259  0.056356  0.444028  1
  Dy  Dy7  1  0.054405  0.442506  0.060584  1
  Dy  Dy8  1  0.443259  0.444028  0.056356  1
  Dy  Dy9  1  0.054405  0.060584  0.442506  1
  Dy  Dy10  1  0.188052  0.812758  0.812758  1
  Dy  Dy11  1  0.814044  0.187568  0.187568  1
  Dy  Dy12  1  0.814044  0.187568  0.810820  1
  Dy  Dy13  1  0.188052  0.812758  0.186432  1
  Dy  Dy14  1  0.814044  0.810820  0.187568  1
  Dy  Dy15  1  0.188052  0.186432  0.812758  1
  Al  Al16  1  0.828256  0.827823  0.827823  1
  Al  Al17  1  0.828256  0.827823  0.516098  1
  Al  Al18  1  0.828256  0.516098  0.827823  1
  Al  Al19  1  0.513643  0.828786  0.828786  1
  Ir  Ir20  1  0.821151  0.392950  0.392950  1
  Pt  Pt21  1  0.392055  0.393709  0.393709  1
  Pt  Pt22  1  0.392055  0.393709  0.820528  1
  Pt  Pt23  1  0.392055  0.820528  0.393709  1
