# generated using pymatgen
data_Cs2Li2GeS4
_symmetry_space_group_name_H-M   'P 1'
_cell_length_a   12.73011932
_cell_length_b   12.73011924
_cell_length_c   5.94144867
_cell_angle_alpha   83.34446648
_cell_angle_beta   83.34446929
_cell_angle_gamma   144.39048554
_symmetry_Int_Tables_number   1
_chemical_formula_structural   Cs2Li2GeS4
_chemical_formula_sum   'Cs4 Li4 Ge2 S8'
_cell_volume   518.79228468
_cell_formula_units_Z   2
loop_
 _symmetry_equiv_pos_site_id
 _symmetry_equiv_pos_as_xyz
  1  'x, y, z'
loop_
 _atom_site_type_symbol
 _atom_site_label
 _atom_site_symmetry_multiplicity
 _atom_site_fract_x
 _atom_site_fract_y
 _atom_site_fract_z
 _atom_site_occupancy
  Cs  Cs0  1  0.798650  0.201350  0.750000  1
  Cs  Cs1  1  0.063656  0.936344  0.750000  1
  Cs  Cs2  1  0.201350  0.798650  0.250000  1
  Cs  Cs3  1  0.936344  0.063656  0.250000  1
  Li  Li4  1  0.626270  0.373730  0.250000  1
  Li  Li5  1  0.505631  0.494369  0.250000  1
  Li  Li6  1  0.494369  0.505631  0.750000  1
  Li  Li7  1  0.373730  0.626270  0.750000  1
  Ge  Ge8  1  0.379401  0.620599  0.250000  1
  Ge  Ge9  1  0.620599  0.379401  0.750000  1
  S  S10  1  0.509064  0.852328  0.375903  1
  S  S11  1  0.736876  0.609855  0.438622  1
  S  S12  1  0.263124  0.390145  0.561378  1
  S  S13  1  0.490936  0.147672  0.624097  1
  S  S14  1  0.390145  0.263124  0.061378  1
  S  S15  1  0.147672  0.490936  0.124097  1
  S  S16  1  0.852328  0.509064  0.875903  1
  S  S17  1  0.609855  0.736876  0.938622  1
