# generated using pymatgen
data_Tb11PrTc4
_symmetry_space_group_name_H-M   'P 1'
_cell_length_a   6.30041300
_cell_length_b   7.43717291
_cell_length_c   9.25371900
_cell_angle_alpha   90.00000000
_cell_angle_beta   90.00000000
_cell_angle_gamma   89.86414031
_symmetry_Int_Tables_number   1
_chemical_formula_structural   Tb11PrTc4
_chemical_formula_sum   'Tb11 Pr1 Tc4'
_cell_volume   433.60270624
_cell_formula_units_Z   1
loop_
 _symmetry_equiv_pos_site_id
 _symmetry_equiv_pos_as_xyz
  1  'x, y, z'
loop_
 _atom_site_type_symbol
 _atom_site_label
 _atom_site_symmetry_multiplicity
 _atom_site_fract_x
 _atom_site_fract_y
 _atom_site_fract_z
 _atom_site_occupancy
  Tb  Tb0  1  0.339929  0.676928  0.062103  1
  Tb  Tb1  1  0.162355  0.175057  0.437912  1
  Tb  Tb2  1  0.659583  0.322470  0.564617  1
  Tb  Tb3  1  0.838635  0.826006  0.935872  1
  Tb  Tb4  1  0.659583  0.322470  0.935383  1
  Tb  Tb5  1  0.838635  0.826006  0.564128  1
  Tb  Tb6  1  0.339929  0.676928  0.437897  1
  Tb  Tb7  1  0.162355  0.175057  0.062088  1
  Tb  Tb8  1  0.626519  0.042445  0.250000  1
  Tb  Tb9  1  0.127304  0.459222  0.750000  1
  Tb  Tb10  1  0.373012  0.957365  0.750000  1
  Pr  Pr11  1  0.874239  0.540660  0.250000  1
  Tc  Tc12  1  0.041001  0.888001  0.250000  1
  Tc  Tc13  1  0.454951  0.385131  0.250000  1
  Tc  Tc14  1  0.959935  0.113246  0.750000  1
  Tc  Tc15  1  0.542034  0.613006  0.750000  1
