# generated using pymatgen
data_Hf16Fe4RuPt3
_symmetry_space_group_name_H-M   'P 1'
_cell_length_a   8.62739829
_cell_length_b   8.62739929
_cell_length_c   8.62739800
_cell_angle_alpha   59.90136928
_cell_angle_beta   59.90136543
_cell_angle_gamma   59.90137408
_symmetry_Int_Tables_number   1
_chemical_formula_structural   Hf16Fe4RuPt3
_chemical_formula_sum   'Hf16 Fe4 Ru1 Pt3'
_cell_volume   453.05583097
_cell_formula_units_Z   1
loop_
 _symmetry_equiv_pos_site_id
 _symmetry_equiv_pos_as_xyz
  1  'x, y, z'
loop_
 _atom_site_type_symbol
 _atom_site_label
 _atom_site_symmetry_multiplicity
 _atom_site_fract_x
 _atom_site_fract_y
 _atom_site_fract_z
 _atom_site_occupancy
  Hf  Hf0  1  0.189557  0.603650  0.603650  1
  Hf  Hf1  1  0.603650  0.189557  0.603650  1
  Hf  Hf2  1  0.603650  0.603650  0.189557  1
  Hf  Hf3  1  0.605153  0.605153  0.605153  1
  Hf  Hf4  1  0.810766  0.810766  0.182871  1
  Hf  Hf5  1  0.189209  0.189209  0.810389  1
  Hf  Hf6  1  0.810766  0.182871  0.810766  1
  Hf  Hf7  1  0.189209  0.810389  0.189209  1
  Hf  Hf8  1  0.182871  0.810766  0.810766  1
  Hf  Hf9  1  0.810389  0.189209  0.189209  1
  Hf  Hf10  1  0.443787  0.443787  0.055887  1
  Hf  Hf11  1  0.055793  0.055793  0.446622  1
  Hf  Hf12  1  0.443787  0.055887  0.443787  1
  Hf  Hf13  1  0.055793  0.446622  0.055793  1
  Hf  Hf14  1  0.055887  0.443787  0.443787  1
  Hf  Hf15  1  0.446622  0.055793  0.055793  1
  Fe  Fe16  1  0.824565  0.392474  0.392474  1
  Fe  Fe17  1  0.392474  0.824565  0.392474  1
  Fe  Fe18  1  0.392474  0.392474  0.824565  1
  Fe  Fe19  1  0.391106  0.391106  0.391106  1
  Ru  Ru20  1  0.834687  0.834687  0.834687  1
  Pt  Pt21  1  0.494484  0.836661  0.836661  1
  Pt  Pt22  1  0.836661  0.494484  0.836661  1
  Pt  Pt23  1  0.836661  0.836661  0.494484  1
