# generated using pymatgen
data_U2ZnFe2(Ni3B)6
_symmetry_space_group_name_H-M   'P 1'
_cell_length_a   7.49028931
_cell_length_b   7.56281922
_cell_length_c   7.56281900
_cell_angle_alpha   59.99999658
_cell_angle_beta   59.67915882
_cell_angle_gamma   59.67916261
_symmetry_Int_Tables_number   1
_chemical_formula_structural   U2ZnFe2(Ni3B)6
_chemical_formula_sum   'U2 Zn1 Fe2 Ni18 B6'
_cell_volume   301.45868040
_cell_formula_units_Z   1
loop_
 _symmetry_equiv_pos_site_id
 _symmetry_equiv_pos_as_xyz
  1  'x, y, z'
loop_
 _atom_site_type_symbol
 _atom_site_label
 _atom_site_symmetry_multiplicity
 _atom_site_fract_x
 _atom_site_fract_y
 _atom_site_fract_z
 _atom_site_occupancy
  U  U0  1  0.235172  0.254943  0.254943  1
  U  U1  1  0.764828  0.745057  0.745057  1
  Zn  Zn2  1  0.000000  0.000000  0.000000  1
  Fe  Fe3  1  0.877717  0.374094  0.374094  1
  Fe  Fe4  1  0.122283  0.625906  0.625906  1
  Ni  Ni5  1  0.345856  0.996255  0.996255  1
  Ni  Ni6  1  0.654144  0.003745  0.003745  1
  Ni  Ni7  1  0.000000  0.337802  0.662198  1
  Ni  Ni8  1  0.000000  0.662198  0.337802  1
  Ni  Ni9  1  0.000000  0.337802  0.000000  1
  Ni  Ni10  1  0.654144  0.003745  0.338365  1
  Ni  Ni11  1  0.000000  0.662198  0.000000  1
  Ni  Ni12  1  0.345856  0.996255  0.661635  1
  Ni  Ni13  1  0.000000  0.000000  0.337802  1
  Ni  Ni14  1  0.000000  0.000000  0.662198  1
  Ni  Ni15  1  0.654144  0.338365  0.003745  1
  Ni  Ni16  1  0.345856  0.661635  0.996255  1
  Ni  Ni17  1  0.382732  0.388710  0.388710  1
  Ni  Ni18  1  0.617268  0.611290  0.611290  1
  Ni  Ni19  1  0.382732  0.388710  0.839850  1
  Ni  Ni20  1  0.382732  0.839850  0.388710  1
  Ni  Ni21  1  0.617268  0.611290  0.160150  1
  Ni  Ni22  1  0.617268  0.160150  0.611290  1
  B  B23  1  0.730145  0.269050  0.269050  1
  B  B24  1  0.269855  0.730950  0.730950  1
  B  B25  1  0.269855  0.730950  0.268245  1
  B  B26  1  0.730145  0.269050  0.731755  1
  B  B27  1  0.269855  0.268245  0.730950  1
  B  B28  1  0.730145  0.731755  0.269050  1
