# generated using pymatgen
data_V4Mo5Os
_symmetry_space_group_name_H-M   'P 1'
_cell_length_a   4.35771393
_cell_length_b   8.01909893
_cell_length_c   4.36446700
_cell_angle_alpha   90.00000000
_cell_angle_beta   90.00000000
_cell_angle_gamma   74.11112753
_symmetry_Int_Tables_number   1
_chemical_formula_structural   V4Mo5Os
_chemical_formula_sum   'V4 Mo5 Os1'
_cell_volume   146.68908191
_cell_formula_units_Z   1
loop_
 _symmetry_equiv_pos_site_id
 _symmetry_equiv_pos_as_xyz
  1  'x, y, z'
loop_
 _atom_site_type_symbol
 _atom_site_label
 _atom_site_symmetry_multiplicity
 _atom_site_fract_x
 _atom_site_fract_y
 _atom_site_fract_z
 _atom_site_occupancy
  V  V0  1  0.085418  0.995827  0.000000  1
  V  V1  1  0.281437  0.604163  0.000000  1
  V  V2  1  0.585441  0.995949  0.500001  1
  V  V3  1  0.781245  0.604093  0.500001  1
  Mo  Mo4  1  0.484523  0.197741  0.000000  1
  Mo  Mo5  1  0.881947  0.402031  0.000000  1
  Mo  Mo6  1  0.683341  0.800303  0.000000  1
  Mo  Mo7  1  0.984776  0.197217  0.500001  1
  Mo  Mo8  1  0.381693  0.402527  0.500001  1
  Os  Os9  1  0.183356  0.800149  0.500001  1
