# generated using pymatgen
data_Ca2Y2Zn5Ni9
_symmetry_space_group_name_H-M   'P 1'
_cell_length_a   5.18848374
_cell_length_b   5.18848505
_cell_length_c   12.31965200
_cell_angle_alpha   77.84379372
_cell_angle_beta   77.84379060
_cell_angle_gamma   59.99998964
_symmetry_Int_Tables_number   1
_chemical_formula_structural   Ca2Y2Zn5Ni9
_chemical_formula_sum   'Ca2 Y2 Zn5 Ni9'
_cell_volume   278.59689075
_cell_formula_units_Z   1
loop_
 _symmetry_equiv_pos_site_id
 _symmetry_equiv_pos_as_xyz
  1  'x, y, z'
loop_
 _atom_site_type_symbol
 _atom_site_label
 _atom_site_symmetry_multiplicity
 _atom_site_fract_x
 _atom_site_fract_y
 _atom_site_fract_z
 _atom_site_occupancy
  Ca  Ca0  1  0.952848  0.952848  0.141720  1
  Ca  Ca1  1  0.047152  0.047152  0.858280  1
  Y  Y2  1  0.855733  0.855733  0.432588  1
  Y  Y3  1  0.144267  0.144267  0.567412  1
  Zn  Zn4  1  0.500000  0.500000  0.500000  1
  Zn  Zn5  1  0.721675  0.721675  0.833086  1
  Zn  Zn6  1  0.278325  0.278325  0.166914  1
  Zn  Zn7  1  0.610122  0.610122  0.168375  1
  Zn  Zn8  1  0.389878  0.389878  0.831625  1
  Ni  Ni9  1  0.000000  0.500000  0.000000  1
  Ni  Ni10  1  0.500000  0.000000  0.000000  1
  Ni  Ni11  1  0.500000  0.500000  0.000000  1
  Ni  Ni12  1  0.385120  0.385120  0.335065  1
  Ni  Ni13  1  0.895321  0.385097  0.334522  1
  Ni  Ni14  1  0.385097  0.895321  0.334522  1
  Ni  Ni15  1  0.614880  0.614880  0.664935  1
  Ni  Ni16  1  0.104679  0.614903  0.665478  1
  Ni  Ni17  1  0.614903  0.104679  0.665478  1
