# generated using pymatgen
data_Tm10CoBi5
_symmetry_space_group_name_H-M   'P 1'
_cell_length_a   7.96191000
_cell_length_b   9.32651600
_cell_length_c   11.95929000
_cell_angle_alpha   90.00000000
_cell_angle_beta   90.00000000
_cell_angle_gamma   90.00000000
_symmetry_Int_Tables_number   1
_chemical_formula_structural   Tm10CoBi5
_chemical_formula_sum   'Tm20 Co2 Bi10'
_cell_volume   888.05957444
_cell_formula_units_Z   2
loop_
 _symmetry_equiv_pos_site_id
 _symmetry_equiv_pos_as_xyz
  1  'x, y, z'
loop_
 _atom_site_type_symbol
 _atom_site_label
 _atom_site_symmetry_multiplicity
 _atom_site_fract_x
 _atom_site_fract_y
 _atom_site_fract_z
 _atom_site_occupancy
  Tm  Tm0  1  0.428423  0.175740  0.562977  1
  Tm  Tm1  1  0.571577  0.824260  0.062977  1
  Tm  Tm2  1  0.070488  0.729419  0.436514  1
  Tm  Tm3  1  0.929512  0.270581  0.936514  1
  Tm  Tm4  1  0.070488  0.270581  0.436514  1
  Tm  Tm5  1  0.929512  0.729419  0.936514  1
  Tm  Tm6  1  0.428423  0.824260  0.562977  1
  Tm  Tm7  1  0.571577  0.175740  0.062977  1
  Tm  Tm8  1  0.572443  0.500000  0.772213  1
  Tm  Tm9  1  0.427557  0.500000  0.272213  1
  Tm  Tm10  1  0.907991  0.000000  0.200949  1
  Tm  Tm11  1  0.092009  0.000000  0.700949  1
  Tm  Tm12  1  0.259456  0.500000  0.993431  1
  Tm  Tm13  1  0.740544  0.500000  0.493431  1
  Tm  Tm14  1  0.197759  0.000000  0.996552  1
  Tm  Tm15  1  0.802241  0.000000  0.496552  1
  Tm  Tm16  1  0.089888  0.500000  0.718957  1
  Tm  Tm17  1  0.910112  0.500000  0.218957  1
  Tm  Tm18  1  0.370876  0.000000  0.309230  1
  Tm  Tm19  1  0.629124  0.000000  0.809230  1
  Co  Co20  1  0.171578  0.000000  0.488214  1
  Co  Co21  1  0.828422  0.000000  0.988214  1
  Bi  Bi22  1  0.813498  0.740922  0.672051  1
  Bi  Bi23  1  0.186502  0.259078  0.172051  1
  Bi  Bi24  1  0.679568  0.241970  0.325180  1
  Bi  Bi25  1  0.320432  0.758030  0.825180  1
  Bi  Bi26  1  0.679568  0.758030  0.325180  1
  Bi  Bi27  1  0.320432  0.241970  0.825180  1
  Bi  Bi28  1  0.813498  0.259078  0.672051  1
  Bi  Bi29  1  0.186502  0.740922  0.172051  1
  Bi  Bi30  1  0.345931  0.500000  0.527012  1
  Bi  Bi31  1  0.654069  0.500000  0.027012  1
