# generated using pymatgen
data_PrNd4Mg(P2Ru3)6
_symmetry_space_group_name_H-M   'P 1'
_cell_length_a   12.74245168
_cell_length_b   12.59525333
_cell_length_c   4.02411100
_cell_angle_alpha   90.00000000
_cell_angle_beta   90.00000000
_cell_angle_gamma   119.61860061
_symmetry_Int_Tables_number   1
_chemical_formula_structural   PrNd4Mg(P2Ru3)6
_chemical_formula_sum   'Pr1 Nd4 Mg1 P12 Ru18'
_cell_volume   561.45736616
_cell_formula_units_Z   1
loop_
 _symmetry_equiv_pos_site_id
 _symmetry_equiv_pos_as_xyz
  1  'x, y, z'
loop_
 _atom_site_type_symbol
 _atom_site_label
 _atom_site_symmetry_multiplicity
 _atom_site_fract_x
 _atom_site_fract_y
 _atom_site_fract_z
 _atom_site_occupancy
  Pr  Pr0  1  0.000000  0.180868  0.500000  1
  Nd  Nd1  1  0.815939  0.815966  0.500000  1
  Nd  Nd2  1  0.184061  0.000027  0.500000  1
  Nd  Nd3  1  0.660726  0.329516  0.000000  1
  Nd  Nd4  1  0.339274  0.668792  0.000000  1
  Mg  Mg5  1  0.000000  0.562407  0.000000  1
  P  P6  1  0.000000  0.808501  0.000000  1
  P  P7  1  0.186434  0.186238  0.000000  1
  P  P8  1  0.813566  0.999803  0.000000  1
  P  P9  1  0.692267  0.171198  0.500000  1
  P  P10  1  0.818664  0.520631  0.500000  1
  P  P11  1  0.473658  0.305844  0.500000  1
  P  P12  1  0.181336  0.701967  0.500000  1
  P  P13  1  0.526342  0.832186  0.500000  1
  P  P14  1  0.307733  0.478931  0.500000  1
  P  P15  1  0.000000  0.362798  0.000000  1
  P  P16  1  0.623089  0.623972  0.000000  1
  P  P17  1  0.376911  0.000883  0.000000  1
  Ru  Ru18  1  0.444193  0.444830  0.000000  1
  Ru  Ru19  1  0.555807  0.000636  0.000000  1
  Ru  Ru20  1  0.000000  0.713301  0.500000  1
  Ru  Ru21  1  0.283922  0.285453  0.500000  1
  Ru  Ru22  1  0.716078  0.001530  0.500000  1
  Ru  Ru23  1  0.803817  0.184407  0.000000  1
  Ru  Ru24  1  0.813391  0.618972  0.000000  1
  Ru  Ru25  1  0.375330  0.191537  0.000000  1
  Ru  Ru26  1  0.186609  0.805581  0.000000  1
  Ru  Ru27  1  0.624670  0.816207  0.000000  1
  Ru  Ru28  1  0.196183  0.380591  0.000000  1
  Ru  Ru29  1  0.876502  0.366846  0.500000  1
  Ru  Ru30  1  0.630106  0.510120  0.500000  1
  Ru  Ru31  1  0.491598  0.127008  0.500000  1
  Ru  Ru32  1  0.369894  0.880014  0.500000  1
  Ru  Ru33  1  0.508402  0.635411  0.500000  1
  Ru  Ru34  1  0.123498  0.490345  0.500000  1
  Ru  Ru35  1  0.000000  0.996681  0.000000  1
