# generated using pymatgen
data_Ti3V2Si2GeN
_symmetry_space_group_name_H-M   'P 1'
_cell_length_a   7.37211200
_cell_length_b   7.34499280
_cell_length_c   5.03954000
_cell_angle_alpha   90.00000000
_cell_angle_beta   90.00000000
_cell_angle_gamma   120.12220341
_symmetry_Int_Tables_number   1
_chemical_formula_structural   Ti3V2Si2GeN
_chemical_formula_sum   'Ti6 V4 Si4 Ge2 N2'
_cell_volume   236.03082133
_cell_formula_units_Z   2
loop_
 _symmetry_equiv_pos_site_id
 _symmetry_equiv_pos_as_xyz
  1  'x, y, z'
loop_
 _atom_site_type_symbol
 _atom_site_label
 _atom_site_symmetry_multiplicity
 _atom_site_fract_x
 _atom_site_fract_y
 _atom_site_fract_z
 _atom_site_occupancy
  Ti  Ti0  1  0.227043  0.000000  0.750000  1
  Ti  Ti1  1  0.772957  0.000000  0.250000  1
  Ti  Ti2  1  0.003963  0.233158  0.750000  1
  Ti  Ti3  1  0.996037  0.766842  0.250000  1
  Ti  Ti4  1  0.770805  0.766842  0.750000  1
  Ti  Ti5  1  0.229195  0.233158  0.250000  1
  V  V6  1  0.330478  0.660957  0.500000  1
  V  V7  1  0.669522  0.339043  0.500000  1
  V  V8  1  0.669522  0.339043  0.000000  1
  V  V9  1  0.330478  0.660957  0.000000  1
  Si  Si10  1  0.001285  0.588167  0.750000  1
  Si  Si11  1  0.998715  0.411833  0.250000  1
  Si  Si12  1  0.413118  0.411833  0.750000  1
  Si  Si13  1  0.586882  0.588167  0.250000  1
  Ge  Ge14  1  0.590873  0.000000  0.750000  1
  Ge  Ge15  1  0.409127  0.000000  0.250000  1
  N  N16  1  0.000000  0.000000  0.500000  1
  N  N17  1  0.000000  0.000000  0.000000  1
