# generated using pymatgen
data_Gd3Mg3NiRu2
_symmetry_space_group_name_H-M   'P 1'
_cell_length_a   7.33739737
_cell_length_b   7.34403805
_cell_length_c   3.99300244
_cell_angle_alpha   89.95769896
_cell_angle_beta   89.99063344
_cell_angle_gamma   120.00494040
_symmetry_Int_Tables_number   1
_chemical_formula_structural   Gd3Mg3NiRu2
_chemical_formula_sum   'Gd3 Mg3 Ni1 Ru2'
_cell_volume   186.33109731
_cell_formula_units_Z   1
loop_
 _symmetry_equiv_pos_site_id
 _symmetry_equiv_pos_as_xyz
  1  'x, y, z'
loop_
 _atom_site_type_symbol
 _atom_site_label
 _atom_site_symmetry_multiplicity
 _atom_site_fract_x
 _atom_site_fract_y
 _atom_site_fract_z
 _atom_site_occupancy
  Gd  Gd0  1  0.414407  0.999993  0.000019  1
  Gd  Gd1  1  0.000053  0.414558  0.000016  1
  Gd  Gd2  1  0.585518  0.585457  0.999978  1
  Mg  Mg3  1  0.758921  0.000036  0.499993  1
  Mg  Mg4  1  0.241055  0.241065  0.499995  1
  Mg  Mg5  1  0.999998  0.758934  0.500016  1
  Ni  Ni6  1  0.000021  0.000027  0.000002  1
  Ru  Ru7  1  0.666799  0.333396  0.499976  1
  Ru  Ru8  1  0.333227  0.666533  0.500000  1
