# generated using pymatgen
data_Y6Er2CdNi2Ag
_symmetry_space_group_name_H-M   'P 1'
_cell_length_a   9.53751871
_cell_length_b   9.53751757
_cell_length_c   9.52711200
_cell_angle_alpha   60.03609084
_cell_angle_beta   60.03609479
_cell_angle_gamma   59.99955077
_symmetry_Int_Tables_number   1
_chemical_formula_structural   Y6Er2CdNi2Ag
_chemical_formula_sum   'Y12 Er4 Cd2 Ni4 Ag2'
_cell_volume   613.12956967
_cell_formula_units_Z   2
loop_
 _symmetry_equiv_pos_site_id
 _symmetry_equiv_pos_as_xyz
  1  'x, y, z'
loop_
 _atom_site_type_symbol
 _atom_site_label
 _atom_site_symmetry_multiplicity
 _atom_site_fract_x
 _atom_site_fract_y
 _atom_site_fract_z
 _atom_site_occupancy
  Y  Y0  1  0.060586  0.439892  0.440446  1
  Y  Y1  1  0.439892  0.060586  0.059075  1
  Y  Y2  1  0.439892  0.060586  0.440446  1
  Y  Y3  1  0.060586  0.439892  0.059075  1
  Y  Y4  1  0.440607  0.440607  0.059393  1
  Y  Y5  1  0.060545  0.060545  0.439455  1
  Y  Y6  1  0.183893  0.812838  0.814033  1
  Y  Y7  1  0.812838  0.183893  0.189235  1
  Y  Y8  1  0.812838  0.183893  0.814033  1
  Y  Y9  1  0.183893  0.812838  0.189235  1
  Y  Y10  1  0.812632  0.812632  0.187368  1
  Y  Y11  1  0.186565  0.186565  0.813435  1
  Er  Er12  1  0.597977  0.597977  0.597480  1
  Er  Er13  1  0.597977  0.597977  0.206567  1
  Er  Er14  1  0.600007  0.202275  0.598860  1
  Er  Er15  1  0.202275  0.600007  0.598860  1
  Cd  Cd16  1  0.831335  0.509548  0.829558  1
  Cd  Cd17  1  0.509548  0.831335  0.829558  1
  Ni  Ni18  1  0.393788  0.393788  0.393850  1
  Ni  Ni19  1  0.393788  0.393788  0.818576  1
  Ni  Ni20  1  0.392936  0.819984  0.393540  1
  Ni  Ni21  1  0.819984  0.392936  0.393540  1
  Ag  Ag22  1  0.832808  0.832808  0.831043  1
  Ag  Ag23  1  0.832808  0.832808  0.503340  1
