# generated using pymatgen
data_ErTm2Fe8Os
_symmetry_space_group_name_H-M   'P 1'
_cell_length_a   5.06856317
_cell_length_b   5.06856400
_cell_length_c   8.69187411
_cell_angle_alpha   73.04808620
_cell_angle_beta   73.04808383
_cell_angle_gamma   60.00000009
_symmetry_Int_Tables_number   1
_chemical_formula_structural   ErTm2Fe8Os
_chemical_formula_sum   'Er1 Tm2 Fe8 Os1'
_cell_volume   182.09162306
_cell_formula_units_Z   1
loop_
 _symmetry_equiv_pos_site_id
 _symmetry_equiv_pos_as_xyz
  1  'x, y, z'
loop_
 _atom_site_type_symbol
 _atom_site_label
 _atom_site_symmetry_multiplicity
 _atom_site_fract_x
 _atom_site_fract_y
 _atom_site_fract_z
 _atom_site_occupancy
  Er  Er0  1  0.000000  0.000000  0.000000  1
  Tm  Tm1  1  0.141770  0.141770  0.574689  1
  Tm  Tm2  1  0.858230  0.858230  0.425311  1
  Fe  Fe3  1  0.077115  0.582739  0.757406  1
  Fe  Fe4  1  0.582739  0.582739  0.757406  1
  Fe  Fe5  1  0.582739  0.077115  0.757406  1
  Fe  Fe6  1  0.922885  0.417261  0.242594  1
  Fe  Fe7  1  0.417261  0.417261  0.242594  1
  Fe  Fe8  1  0.417261  0.922885  0.242594  1
  Fe  Fe9  1  0.333076  0.333076  0.000771  1
  Fe  Fe10  1  0.666924  0.666924  0.999229  1
  Os  Os11  1  0.500000  0.500000  0.500000  1
