# generated using pymatgen
data_Ho3LuTc4F28
_symmetry_space_group_name_H-M   'P 1'
_cell_length_a   5.56299795
_cell_length_b   8.84290533
_cell_length_c   11.95316422
_cell_angle_alpha   62.73881766
_cell_angle_beta   89.95179568
_cell_angle_gamma   90.01120912
_symmetry_Int_Tables_number   1
_chemical_formula_structural   Ho3LuTc4F28
_chemical_formula_sum   'Ho3 Lu1 Tc4 F28'
_cell_volume   522.70058352
_cell_formula_units_Z   1
loop_
 _symmetry_equiv_pos_site_id
 _symmetry_equiv_pos_as_xyz
  1  'x, y, z'
loop_
 _atom_site_type_symbol
 _atom_site_label
 _atom_site_symmetry_multiplicity
 _atom_site_fract_x
 _atom_site_fract_y
 _atom_site_fract_z
 _atom_site_occupancy
  Ho  Ho0  1  0.259156  0.813504  0.264715  1
  Ho  Ho1  1  0.741664  0.184173  0.735110  1
  Ho  Ho2  1  0.759023  0.186140  0.235104  1
  Lu  Lu3  1  0.240356  0.813429  0.764769  1
  Tc  Tc4  1  0.758380  0.727200  0.041421  1
  Tc  Tc5  1  0.242622  0.274737  0.955932  1
  Tc  Tc6  1  0.256937  0.271383  0.457458  1
  Tc  Tc7  1  0.740824  0.727914  0.545148  1
  F  F8  1  0.946050  0.707382  0.419695  1
  F  F9  1  0.054226  0.293401  0.583191  1
  F  F10  1  0.445469  0.294356  0.082299  1
  F  F11  1  0.552933  0.706123  0.916462  1
  F  F12  1  0.474253  0.728356  0.138731  1
  F  F13  1  0.527092  0.270728  0.859956  1
  F  F14  1  0.971469  0.271150  0.361092  1
  F  F15  1  0.023319  0.730437  0.643394  1
  F  F16  1  0.955589  0.747498  0.171407  1
  F  F17  1  0.045705  0.253692  0.826510  1
  F  F18  1  0.452726  0.251860  0.327080  1
  F  F19  1  0.538558  0.749343  0.673440  1
  F  F20  1  0.775788  0.478437  0.140575  1
  F  F21  1  0.228156  0.524538  0.857687  1
  F  F22  1  0.273583  0.520781  0.358980  1
  F  F23  1  0.725000  0.478723  0.642396  1
  F  F24  1  0.946379  0.278121  0.045462  1
  F  F25  1  0.055158  0.724133  0.950933  1
  F  F26  1  0.447041  0.723353  0.454356  1
  F  F27  1  0.553894  0.275995  0.546124  1
  F  F28  1  0.742785  0.975659  0.447899  1
  F  F29  1  0.254778  0.023544  0.554090  1
  F  F30  1  0.244227  0.026718  0.052442  1
  F  F31  1  0.755797  0.975054  0.946283  1
  F  F32  1  0.582507  0.970146  0.231767  1
  F  F33  1  0.420082  0.023202  0.767147  1
  F  F34  1  0.082395  0.029607  0.268007  1
  F  F35  1  0.926085  0.969183  0.732941  1
