# generated using pymatgen
data_Tb2Th2(Ga8Pt3)3
_symmetry_space_group_name_H-M   'P 1'
_cell_length_a   7.62464705
_cell_length_b   7.63729858
_cell_length_c   13.32650217
_cell_angle_alpha   84.44627441
_cell_angle_beta   78.90871322
_cell_angle_gamma   60.00779903
_symmetry_Int_Tables_number   1
_chemical_formula_structural   Tb2Th2(Ga8Pt3)3
_chemical_formula_sum   'Tb2 Th2 Ga24 Pt9'
_cell_volume   659.55624407
_cell_formula_units_Z   1
loop_
 _symmetry_equiv_pos_site_id
 _symmetry_equiv_pos_as_xyz
  1  'x, y, z'
loop_
 _atom_site_type_symbol
 _atom_site_label
 _atom_site_symmetry_multiplicity
 _atom_site_fract_x
 _atom_site_fract_y
 _atom_site_fract_z
 _atom_site_occupancy
  Tb  Tb0  1  0.732866  0.498560  0.808519  1
  Tb  Tb1  1  0.267134  0.501440  0.191481  1
  Th  Th2  1  0.395712  0.167784  0.807988  1
  Th  Th3  1  0.604288  0.832216  0.192012  1
  Ga  Ga4  1  0.688509  0.829955  0.938636  1
  Ga  Ga5  1  0.311491  0.170045  0.061364  1
  Ga  Ga6  1  0.145687  0.833686  0.560274  1
  Ga  Ga7  1  0.854313  0.166314  0.439726  1
  Ga  Ga8  1  0.480920  0.167430  0.556157  1
  Ga  Ga9  1  0.519080  0.832570  0.443843  1
  Ga  Ga10  1  0.215232  0.169784  0.329610  1
  Ga  Ga11  1  0.784768  0.830216  0.670390  1
  Ga  Ga12  1  0.439022  0.507987  0.671240  1
  Ga  Ga13  1  0.560978  0.492013  0.328760  1
  Ga  Ga14  1  0.105763  0.162323  0.669508  1
  Ga  Ga15  1  0.894237  0.837677  0.330492  1
  Ga  Ga16  1  0.356326  0.500988  0.940846  1
  Ga  Ga17  1  0.643674  0.499012  0.059154  1
  Ga  Ga18  1  0.014830  0.169418  0.945490  1
  Ga  Ga19  1  0.985170  0.830582  0.054510  1
  Ga  Ga20  1  0.185613  0.500150  0.442195  1
  Ga  Ga21  1  0.814387  0.499850  0.557805  1
  Ga  Ga22  1  0.735080  0.167287  0.182479  1
  Ga  Ga23  1  0.264920  0.832713  0.817521  1
  Ga  Ga24  1  0.058689  0.634617  0.816130  1
  Ga  Ga25  1  0.941311  0.365383  0.183870  1
  Ga  Ga26  1  0.861429  0.040853  0.816400  1
  Ga  Ga27  1  0.138571  0.959147  0.183601  1
  Pt  Pt28  1  0.122004  0.492923  0.638836  1
  Pt  Pt29  1  0.877996  0.507077  0.361164  1
  Pt  Pt30  1  0.658953  0.167837  0.999498  1
  Pt  Pt31  1  0.341047  0.832163  0.000502  1
  Pt  Pt32  1  0.540480  0.164907  0.360520  1
  Pt  Pt33  1  0.459520  0.835093  0.639480  1
  Pt  Pt34  1  0.779740  0.172434  0.637685  1
  Pt  Pt35  1  0.220260  0.827566  0.362315  1
  Pt  Pt36  1  0.000000  0.500000  0.000000  1
