# generated using pymatgen
data_Li6Ga13Ag
_symmetry_space_group_name_H-M   'P 1'
_cell_length_a   7.50526869
_cell_length_b   7.66716184
_cell_length_c   7.50526790
_cell_angle_alpha   68.73251161
_cell_angle_beta   69.03834013
_cell_angle_gamma   68.73251432
_symmetry_Int_Tables_number   1
_chemical_formula_structural   Li6Ga13Ag
_chemical_formula_sum   'Li6 Ga13 Ag1'
_cell_volume   362.11852901
_cell_formula_units_Z   1
loop_
 _symmetry_equiv_pos_site_id
 _symmetry_equiv_pos_as_xyz
  1  'x, y, z'
loop_
 _atom_site_type_symbol
 _atom_site_label
 _atom_site_symmetry_multiplicity
 _atom_site_fract_x
 _atom_site_fract_y
 _atom_site_fract_z
 _atom_site_occupancy
  Li  Li0  1  0.881505  0.469894  0.881505  1
  Li  Li1  1  0.467959  0.884609  0.874284  1
  Li  Li2  1  0.529072  0.119279  0.124070  1
  Li  Li3  1  0.874284  0.884609  0.467959  1
  Li  Li4  1  0.124070  0.119279  0.529072  1
  Li  Li5  1  0.119229  0.526555  0.119229  1
  Ga  Ga6  1  0.703010  0.185312  0.703010  1
  Ga  Ga7  1  0.297658  0.296442  0.815621  1
  Ga  Ga8  1  0.510038  0.824657  0.510038  1
  Ga  Ga9  1  0.704238  0.702213  0.183363  1
  Ga  Ga10  1  0.825980  0.508287  0.508256  1
  Ga  Ga11  1  0.296559  0.813182  0.296559  1
  Ga  Ga12  1  0.080506  0.081230  0.080506  1
  Ga  Ga13  1  0.508256  0.508287  0.825980  1
  Ga  Ga14  1  0.815621  0.296442  0.297658  1
  Ga  Ga15  1  0.174237  0.489755  0.492906  1
  Ga  Ga16  1  0.183363  0.702213  0.704238  1
  Ga  Ga17  1  0.492906  0.489755  0.174237  1
  Ga  Ga18  1  0.922723  0.927309  0.922723  1
  Ag  Ag19  1  0.488787  0.170692  0.488787  1
