# generated using pymatgen
data_Pr4Re5TcB12
_symmetry_space_group_name_H-M   'P 1'
_cell_length_a   6.33211960
_cell_length_b   6.33211869
_cell_length_c   7.65299995
_cell_angle_alpha   90.61614640
_cell_angle_beta   90.61614434
_cell_angle_gamma   114.70425218
_symmetry_Int_Tables_number   1
_chemical_formula_structural   Pr4Re5TcB12
_chemical_formula_sum   'Pr4 Re5 Tc1 B12'
_cell_volume   278.71322862
_cell_formula_units_Z   1
loop_
 _symmetry_equiv_pos_site_id
 _symmetry_equiv_pos_as_xyz
  1  'x, y, z'
loop_
 _atom_site_type_symbol
 _atom_site_label
 _atom_site_symmetry_multiplicity
 _atom_site_fract_x
 _atom_site_fract_y
 _atom_site_fract_z
 _atom_site_occupancy
  Pr  Pr0  1  0.094073  0.441640  0.325911  1
  Pr  Pr1  1  0.558360  0.905927  0.174089  1
  Pr  Pr2  1  0.906559  0.558793  0.673396  1
  Pr  Pr3  1  0.441207  0.093441  0.826604  1
  Re  Re4  1  0.416054  0.583946  0.750000  1
  Re  Re5  1  0.989197  0.805213  0.088108  1
  Re  Re6  1  0.194787  0.010803  0.411892  1
  Re  Re7  1  0.010552  0.195188  0.911997  1
  Re  Re8  1  0.804812  0.989448  0.588003  1
  Tc  Tc9  1  0.584134  0.415866  0.250000  1
  B  B10  1  0.242032  0.153104  0.132448  1
  B  B11  1  0.846896  0.757968  0.367552  1
  B  B12  1  0.756780  0.847096  0.867972  1
  B  B13  1  0.152904  0.243220  0.632028  1
  B  B14  1  0.583040  0.156267  0.482108  1
  B  B15  1  0.843733  0.416960  0.017892  1
  B  B16  1  0.415181  0.841089  0.519958  1
  B  B17  1  0.158911  0.584819  0.980042  1
  B  B18  1  0.440940  0.349650  0.532638  1
  B  B19  1  0.650350  0.559060  0.967362  1
  B  B20  1  0.559771  0.650273  0.466875  1
  B  B21  1  0.349727  0.440229  0.033125  1
