# generated using pymatgen
data_ErTm2B7Os
_symmetry_space_group_name_H-M   'P 1'
_cell_length_a   7.95970218
_cell_length_b   7.95970259
_cell_length_c   9.26052800
_cell_angle_alpha   90.00000000
_cell_angle_beta   90.00000000
_cell_angle_gamma   154.67426367
_symmetry_Int_Tables_number   1
_chemical_formula_structural   ErTm2B7Os
_chemical_formula_sum   'Er2 Tm4 B14 Os2'
_cell_volume   250.97678905
_cell_formula_units_Z   2
loop_
 _symmetry_equiv_pos_site_id
 _symmetry_equiv_pos_as_xyz
  1  'x, y, z'
loop_
 _atom_site_type_symbol
 _atom_site_label
 _atom_site_symmetry_multiplicity
 _atom_site_fract_x
 _atom_site_fract_y
 _atom_site_fract_z
 _atom_site_occupancy
  Er  Er0  1  0.244934  0.755066  0.250000  1
  Er  Er1  1  0.755066  0.244934  0.750000  1
  Tm  Tm2  1  0.893689  0.106311  0.059433  1
  Tm  Tm3  1  0.106311  0.893689  0.559433  1
  Tm  Tm4  1  0.106311  0.893689  0.940567  1
  Tm  Tm5  1  0.893689  0.106311  0.440567  1
  B  B6  1  0.454099  0.545901  0.250000  1
  B  B7  1  0.545901  0.454099  0.750000  1
  B  B8  1  0.727403  0.272597  0.033827  1
  B  B9  1  0.272597  0.727403  0.533827  1
  B  B10  1  0.272597  0.727403  0.966173  1
  B  B11  1  0.727403  0.272597  0.466173  1
  B  B12  1  0.632165  0.367835  0.349692  1
  B  B13  1  0.367835  0.632165  0.849692  1
  B  B14  1  0.367835  0.632165  0.650308  1
  B  B15  1  0.632165  0.367835  0.150308  1
  B  B16  1  0.519840  0.480160  0.404568  1
  B  B17  1  0.480160  0.519840  0.904568  1
  B  B18  1  0.480160  0.519840  0.595432  1
  B  B19  1  0.519840  0.480160  0.095432  1
  Os  Os20  1  0.053164  0.946836  0.250000  1
  Os  Os21  1  0.946836  0.053164  0.750000  1
