# generated using pymatgen
data_Tb2ZnOs2Ru
_symmetry_space_group_name_H-M   'P 1'
_cell_length_a   5.35624005
_cell_length_b   5.30295684
_cell_length_c   8.91042800
_cell_angle_alpha   90.00000000
_cell_angle_beta   90.00000000
_cell_angle_gamma   119.67147874
_symmetry_Int_Tables_number   1
_chemical_formula_structural   Tb2ZnOs2Ru
_chemical_formula_sum   'Tb4 Zn2 Os4 Ru2'
_cell_volume   219.90520635
_cell_formula_units_Z   2
loop_
 _symmetry_equiv_pos_site_id
 _symmetry_equiv_pos_as_xyz
  1  'x, y, z'
loop_
 _atom_site_type_symbol
 _atom_site_label
 _atom_site_symmetry_multiplicity
 _atom_site_fract_x
 _atom_site_fract_y
 _atom_site_fract_z
 _atom_site_occupancy
  Tb  Tb0  1  0.342953  0.671477  0.441053  1
  Tb  Tb1  1  0.675013  0.337506  0.568242  1
  Tb  Tb2  1  0.675013  0.337506  0.931758  1
  Tb  Tb3  1  0.342953  0.671477  0.058947  1
  Zn  Zn4  1  0.813317  0.161849  0.250000  1
  Zn  Zn5  1  0.813317  0.651469  0.250000  1
  Os  Os6  1  0.312386  0.156194  0.250000  1
  Os  Os7  1  0.165017  0.835743  0.750000  1
  Os  Os8  1  0.165017  0.329273  0.750000  1
  Os  Os9  1  0.641618  0.820808  0.750000  1
  Ru  Ru10  1  0.026698  0.013349  0.498372  1
  Ru  Ru11  1  0.026698  0.013349  0.001628  1
