# generated using pymatgen
data_TbHo2Er17Sn16
_symmetry_space_group_name_H-M   'P 1'
_cell_length_a   7.99387802
_cell_length_b   8.11724587
_cell_length_c   15.35089550
_cell_angle_alpha   90.00917484
_cell_angle_beta   90.09871982
_cell_angle_gamma   89.96156418
_symmetry_Int_Tables_number   1
_chemical_formula_structural   TbHo2Er17Sn16
_chemical_formula_sum   'Tb1 Ho2 Er17 Sn16'
_cell_volume   996.09138893
_cell_formula_units_Z   1
loop_
 _symmetry_equiv_pos_site_id
 _symmetry_equiv_pos_as_xyz
  1  'x, y, z'
loop_
 _atom_site_type_symbol
 _atom_site_label
 _atom_site_symmetry_multiplicity
 _atom_site_fract_x
 _atom_site_fract_y
 _atom_site_fract_z
 _atom_site_occupancy
  Tb  Tb0  1  0.020142  0.178810  0.903630  1
  Ho  Ho1  1  0.980400  0.820650  0.403463  1
  Ho  Ho2  1  0.519309  0.321248  0.596181  1
  Er  Er3  1  0.367945  0.837508  0.877461  1
  Er  Er4  1  0.866721  0.663049  0.622898  1
  Er  Er5  1  0.633168  0.162345  0.376937  1
  Er  Er6  1  0.132469  0.337374  0.122558  1
  Er  Er7  1  0.631990  0.162333  0.122630  1
  Er  Er8  1  0.132843  0.337431  0.377184  1
  Er  Er9  1  0.367451  0.837534  0.622939  1
  Er  Er10  1  0.868630  0.662466  0.877273  1
  Er  Er11  1  0.521900  0.321350  0.902615  1
  Er  Er12  1  0.020986  0.179264  0.597046  1
  Er  Er13  1  0.479093  0.679173  0.403153  1
  Er  Er14  1  0.978348  0.820223  0.097341  1
  Er  Er15  1  0.478779  0.678619  0.096543  1
  Er  Er16  1  0.198723  0.504032  0.750193  1
  Er  Er17  1  0.698669  0.996552  0.750139  1
  Er  Er18  1  0.801746  0.496312  0.249693  1
  Er  Er19  1  0.301593  0.003534  0.249824  1
  Sn  Sn20  1  0.292714  0.035518  0.042308  1
  Sn  Sn21  1  0.792908  0.462563  0.458271  1
  Sn  Sn22  1  0.706330  0.962847  0.541710  1
  Sn  Sn23  1  0.208066  0.537331  0.958584  1
  Sn  Sn24  1  0.705987  0.960985  0.959189  1
  Sn  Sn25  1  0.204803  0.539115  0.541244  1
  Sn  Sn26  1  0.294774  0.038513  0.458942  1
  Sn  Sn27  1  0.792484  0.462615  0.041290  1
  Sn  Sn28  1  0.565024  0.619387  0.750170  1
  Sn  Sn29  1  0.065131  0.881261  0.750078  1
  Sn  Sn30  1  0.435868  0.382154  0.249939  1
  Sn  Sn31  1  0.935328  0.118503  0.249836  1
  Sn  Sn32  1  0.331048  0.149183  0.750055  1
  Sn  Sn33  1  0.830655  0.351551  0.749313  1
  Sn  Sn34  1  0.668458  0.850291  0.249835  1
  Sn  Sn35  1  0.169515  0.648380  0.249529  1
