# generated using pymatgen
data_YbSm4Y2FeI12
_symmetry_space_group_name_H-M   'P 1'
_cell_length_a   9.82678091
_cell_length_b   9.82573751
_cell_length_c   9.90719428
_cell_angle_alpha   106.94023261
_cell_angle_beta   107.21354638
_cell_angle_gamma   106.79173257
_symmetry_Int_Tables_number   1
_chemical_formula_structural   YbSm4Y2FeI12
_chemical_formula_sum   'Yb1 Sm4 Y2 Fe1 I12'
_cell_volume   797.04542289
_cell_formula_units_Z   1
loop_
 _symmetry_equiv_pos_site_id
 _symmetry_equiv_pos_as_xyz
  1  'x, y, z'
loop_
 _atom_site_type_symbol
 _atom_site_label
 _atom_site_symmetry_multiplicity
 _atom_site_fract_x
 _atom_site_fract_y
 _atom_site_fract_z
 _atom_site_occupancy
  Yb  Yb0  1  0.499514  0.499454  0.500742  1
  Sm  Sm1  1  0.709956  0.976395  0.906412  1
  Sm  Sm2  1  0.973865  0.899129  0.693172  1
  Sm  Sm3  1  0.094542  0.290038  0.024061  1
  Sm  Sm4  1  0.290428  0.024953  0.095096  1
  Y  Y5  1  0.906817  0.714886  0.975346  1
  Y  Y6  1  0.025680  0.097767  0.301078  1
  Fe  Fe7  1  0.000873  0.001912  0.998912  1
  I  I8  1  0.072846  0.225968  0.678873  1
  I  I9  1  0.377303  0.152342  0.458389  1
  I  I10  1  0.617140  0.845849  0.541425  1
  I  I11  1  0.220601  0.680930  0.071864  1
  I  I12  1  0.774285  0.320217  0.927649  1
  I  I13  1  0.686372  0.074021  0.228196  1
  I  I14  1  0.545766  0.618786  0.848067  1
  I  I15  1  0.846617  0.539673  0.625030  1
  I  I16  1  0.926578  0.774218  0.313060  1
  I  I17  1  0.319738  0.926816  0.776094  1
  I  I18  1  0.460090  0.381716  0.156195  1
  I  I19  1  0.150990  0.454930  0.380338  1
