# generated using pymatgen
data_Nd2Er3Pb3Cl
_symmetry_space_group_name_H-M   'P 1'
_cell_length_a   9.36589600
_cell_length_b   9.35405016
_cell_length_c   6.72865900
_cell_angle_alpha   90.00000000
_cell_angle_beta   90.00000000
_cell_angle_gamma   120.04190765
_symmetry_Int_Tables_number   1
_chemical_formula_structural   Nd2Er3Pb3Cl
_chemical_formula_sum   'Nd4 Er6 Pb6 Cl2'
_cell_volume   510.29888999
_cell_formula_units_Z   2
loop_
 _symmetry_equiv_pos_site_id
 _symmetry_equiv_pos_as_xyz
  1  'x, y, z'
loop_
 _atom_site_type_symbol
 _atom_site_label
 _atom_site_symmetry_multiplicity
 _atom_site_fract_x
 _atom_site_fract_y
 _atom_site_fract_z
 _atom_site_occupancy
  Nd  Nd0  1  0.998542  0.259387  0.250000  1
  Nd  Nd1  1  0.001458  0.740613  0.750000  1
  Nd  Nd2  1  0.739154  0.740613  0.250000  1
  Nd  Nd3  1  0.260846  0.259387  0.750000  1
  Er  Er4  1  0.259947  0.000000  0.250000  1
  Er  Er5  1  0.740053  0.000000  0.750000  1
  Er  Er6  1  0.333898  0.667797  0.000000  1
  Er  Er7  1  0.666102  0.332203  0.000000  1
  Er  Er8  1  0.666102  0.332203  0.500000  1
  Er  Er9  1  0.333898  0.667797  0.500000  1
  Pb  Pb10  1  0.603143  0.000000  0.250000  1
  Pb  Pb11  1  0.396857  0.000000  0.750000  1
  Pb  Pb12  1  0.003310  0.612194  0.250000  1
  Pb  Pb13  1  0.996690  0.387806  0.750000  1
  Pb  Pb14  1  0.391117  0.387806  0.250000  1
  Pb  Pb15  1  0.608883  0.612194  0.750000  1
  Cl  Cl16  1  0.000000  0.000000  0.000000  1
  Cl  Cl17  1  0.000000  0.000000  0.500000  1
