# generated using pymatgen
data_LuCr3Tc3P4
_symmetry_space_group_name_H-M   'P 1'
_cell_length_a   7.33297000
_cell_length_b   7.33297147
_cell_length_c   3.30286400
_cell_angle_alpha   90.00000000
_cell_angle_beta   90.00000000
_cell_angle_gamma   119.99999338
_symmetry_Int_Tables_number   1
_chemical_formula_structural   LuCr3Tc3P4
_chemical_formula_sum   'Lu1 Cr3 Tc3 P4'
_cell_volume   153.80882537
_cell_formula_units_Z   1
loop_
 _symmetry_equiv_pos_site_id
 _symmetry_equiv_pos_as_xyz
  1  'x, y, z'
loop_
 _atom_site_type_symbol
 _atom_site_label
 _atom_site_symmetry_multiplicity
 _atom_site_fract_x
 _atom_site_fract_y
 _atom_site_fract_z
 _atom_site_occupancy
  Lu  Lu0  1  0.333333  0.666667  0.000000  1
  Cr  Cr1  1  0.247121  0.123561  0.000000  1
  Cr  Cr2  1  0.876439  0.752879  0.000000  1
  Cr  Cr3  1  0.876439  0.123561  0.000000  1
  Tc  Tc4  1  0.935679  0.467840  0.500000  1
  Tc  Tc5  1  0.532160  0.064321  0.500000  1
  Tc  Tc6  1  0.532160  0.467840  0.500000  1
  P  P7  1  0.666667  0.333333  0.000000  1
  P  P8  1  0.701799  0.850900  0.500000  1
  P  P9  1  0.149100  0.298201  0.500000  1
  P  P10  1  0.149100  0.850900  0.500000  1
