# generated using pymatgen
data_K2Er4Sn2S11
_symmetry_space_group_name_H-M   'P 1'
_cell_length_a   8.69951100
_cell_length_b   8.69951100
_cell_length_c   28.33558200
_cell_angle_alpha   90.00000000
_cell_angle_beta   90.00000000
_cell_angle_gamma   90.00000000
_symmetry_Int_Tables_number   1
_chemical_formula_structural   K2Er4Sn2S11
_chemical_formula_sum   'K8 Er16 Sn8 S44'
_cell_volume   2144.47911222
_cell_formula_units_Z   4
loop_
 _symmetry_equiv_pos_site_id
 _symmetry_equiv_pos_as_xyz
  1  'x, y, z'
loop_
 _atom_site_type_symbol
 _atom_site_label
 _atom_site_symmetry_multiplicity
 _atom_site_fract_x
 _atom_site_fract_y
 _atom_site_fract_z
 _atom_site_occupancy
  K  K0  1  0.000000  0.500000  0.627666  1
  K  K1  1  0.000000  0.500000  0.804070  1
  K  K2  1  0.500000  0.000000  0.695930  1
  K  K3  1  0.000000  0.500000  0.127666  1
  K  K4  1  0.000000  0.500000  0.304070  1
  K  K5  1  0.500000  0.000000  0.872334  1
  K  K6  1  0.500000  0.000000  0.195930  1
  K  K7  1  0.500000  0.000000  0.372334  1
  Er  Er8  1  0.893418  0.198758  0.445677  1
  Er  Er9  1  0.606582  0.301242  0.554323  1
  Er  Er10  1  0.801242  0.893418  0.554323  1
  Er  Er11  1  0.698758  0.393418  0.945677  1
  Er  Er12  1  0.301242  0.606582  0.945677  1
  Er  Er13  1  0.606582  0.698758  0.054323  1
  Er  Er14  1  0.198758  0.893418  0.054323  1
  Er  Er15  1  0.698758  0.606582  0.445677  1
  Er  Er16  1  0.393418  0.698758  0.554323  1
  Er  Er17  1  0.893418  0.801242  0.945677  1
  Er  Er18  1  0.301242  0.393418  0.445677  1
  Er  Er19  1  0.801242  0.106582  0.054323  1
  Er  Er20  1  0.393418  0.301242  0.054323  1
  Er  Er21  1  0.106582  0.801242  0.445677  1
  Er  Er22  1  0.106582  0.198758  0.945677  1
  Er  Er23  1  0.198758  0.106582  0.554323  1
  Sn  Sn24  1  0.000000  0.000000  0.690414  1
  Sn  Sn25  1  0.500000  0.500000  0.809586  1
  Sn  Sn26  1  0.500000  0.500000  0.190414  1
  Sn  Sn27  1  0.000000  0.000000  0.309586  1
  Sn  Sn28  1  0.500000  0.500000  0.690414  1
  Sn  Sn29  1  0.000000  0.000000  0.809586  1
  Sn  Sn30  1  0.000000  0.000000  0.190414  1
  Sn  Sn31  1  0.500000  0.500000  0.309586  1
  S  S32  1  0.188511  0.893794  0.955361  1
  S  S33  1  0.311489  0.606206  0.044639  1
  S  S34  1  0.188511  0.106206  0.455361  1
  S  S35  1  0.175681  0.160437  0.647358  1
  S  S36  1  0.606206  0.311489  0.455361  1
  S  S37  1  0.106206  0.188511  0.044639  1
  S  S38  1  0.175681  0.839563  0.147358  1
  S  S39  1  0.811489  0.893794  0.455361  1
  S  S40  1  0.852850  0.852850  0.250000  1
  S  S41  1  0.811489  0.106206  0.955361  1
  S  S42  1  0.893794  0.188511  0.544639  1
  S  S43  1  0.393794  0.688511  0.455361  1
  S  S44  1  0.647150  0.647150  0.750000  1
  S  S45  1  0.852850  0.147150  0.750000  1
  S  S46  1  0.839563  0.824319  0.852642  1
  S  S47  1  0.660437  0.675681  0.147358  1
  S  S48  1  0.000000  0.500000  0.941577  1
  S  S49  1  0.393794  0.311489  0.955361  1
  S  S50  1  0.352850  0.352850  0.750000  1
  S  S51  1  0.160437  0.824319  0.352642  1
  S  S52  1  0.839563  0.175681  0.352642  1
  S  S53  1  0.339563  0.324319  0.147358  1
  S  S54  1  0.311489  0.393794  0.544639  1
  S  S55  1  0.000000  0.500000  0.441577  1
  S  S56  1  0.675681  0.339563  0.852642  1
  S  S57  1  0.824319  0.839563  0.647358  1
  S  S58  1  0.500000  0.000000  0.558423  1
  S  S59  1  0.675681  0.660437  0.352642  1
  S  S60  1  0.324319  0.660437  0.852642  1
  S  S61  1  0.339563  0.675681  0.647358  1
  S  S62  1  0.352850  0.647150  0.250000  1
  S  S63  1  0.606206  0.688511  0.955361  1
  S  S64  1  0.647150  0.352850  0.250000  1
  S  S65  1  0.893794  0.811489  0.044639  1
  S  S66  1  0.324319  0.339563  0.352642  1
  S  S67  1  0.500000  0.000000  0.058423  1
  S  S68  1  0.824319  0.160437  0.147358  1
  S  S69  1  0.688511  0.393794  0.044639  1
  S  S70  1  0.660437  0.324319  0.647358  1
  S  S71  1  0.106206  0.811489  0.544639  1
  S  S72  1  0.147150  0.147150  0.250000  1
  S  S73  1  0.160437  0.175681  0.852642  1
  S  S74  1  0.147150  0.852850  0.750000  1
  S  S75  1  0.688511  0.606206  0.544639  1
