# generated using pymatgen
data_Tb2Mn4Cr(PRh)7
_symmetry_space_group_name_H-M   'P 1'
_cell_length_a   9.42429933
_cell_length_b   9.43835052
_cell_length_c   3.81806500
_cell_angle_alpha   90.00000000
_cell_angle_beta   90.00000000
_cell_angle_gamma   120.06355076
_symmetry_Int_Tables_number   1
_chemical_formula_structural   Tb2Mn4Cr(PRh)7
_chemical_formula_sum   'Tb2 Mn4 Cr1 P7 Rh7'
_cell_volume   293.92779269
_cell_formula_units_Z   1
loop_
 _symmetry_equiv_pos_site_id
 _symmetry_equiv_pos_as_xyz
  1  'x, y, z'
loop_
 _atom_site_type_symbol
 _atom_site_label
 _atom_site_symmetry_multiplicity
 _atom_site_fract_x
 _atom_site_fract_y
 _atom_site_fract_z
 _atom_site_occupancy
  Tb  Tb0  1  0.666333  0.331773  0.000000  1
  Tb  Tb1  1  0.335578  0.667519  0.500000  1
  Mn  Mn2  1  0.267849  0.112094  0.000000  1
  Mn  Mn3  1  0.842585  0.729013  0.000000  1
  Mn  Mn4  1  0.891174  0.161041  0.000000  1
  Mn  Mn5  1  0.119372  0.221214  0.500000  1
  Cr  Cr6  1  0.781741  0.898941  0.500000  1
  P  P7  1  0.299956  0.891725  0.000000  1
  P  P8  1  0.595939  0.705042  0.000000  1
  P  P9  1  0.111887  0.410034  0.000000  1
  P  P10  1  0.397235  0.277018  0.500000  1
  P  P11  1  0.877589  0.601484  0.500000  1
  P  P12  1  0.725100  0.116866  0.500000  1
  P  P13  1  0.994466  0.998166  0.000000  1
  Rh  Rh14  1  0.063417  0.636688  0.000000  1
  Rh  Rh15  1  0.573615  0.937714  0.000000  1
  Rh  Rh16  1  0.364745  0.428071  0.000000  1
  Rh  Rh17  1  0.441859  0.053350  0.500000  1
  Rh  Rh18  1  0.612283  0.557622  0.500000  1
  Rh  Rh19  1  0.946829  0.390144  0.500000  1
  Rh  Rh20  1  0.090447  0.874480  0.500000  1
