# generated using pymatgen
data_Ba(GaCl4)2
_symmetry_space_group_name_H-M   'P 1'
_cell_length_a   7.35622200
_cell_length_b   7.67244332
_cell_length_c   13.34652898
_cell_angle_alpha   85.32740711
_cell_angle_beta   90.00000000
_cell_angle_gamma   90.00000000
_symmetry_Int_Tables_number   1
_chemical_formula_structural   Ba(GaCl4)2
_chemical_formula_sum   'Ba2 Ga4 Cl16'
_cell_volume   750.77716337
_cell_formula_units_Z   2
loop_
 _symmetry_equiv_pos_site_id
 _symmetry_equiv_pos_as_xyz
  1  'x, y, z'
loop_
 _atom_site_type_symbol
 _atom_site_label
 _atom_site_symmetry_multiplicity
 _atom_site_fract_x
 _atom_site_fract_y
 _atom_site_fract_z
 _atom_site_occupancy
  Ba  Ba0  1  0.161140  0.500000  0.250000  1
  Ba  Ba1  1  0.838860  0.500000  0.750000  1
  Ga  Ga2  1  0.262861  0.683964  0.578891  1
  Ga  Ga3  1  0.737139  0.683964  0.078891  1
  Ga  Ga4  1  0.737139  0.316036  0.421109  1
  Ga  Ga5  1  0.262861  0.316036  0.921109  1
  Cl  Cl6  1  0.518582  0.749792  0.653659  1
  Cl  Cl7  1  0.305862  0.746680  0.416320  1
  Cl  Cl8  1  0.815152  0.407255  0.111850  1
  Cl  Cl9  1  0.184848  0.592745  0.888150  1
  Cl  Cl10  1  0.481418  0.250208  0.346341  1
  Cl  Cl11  1  0.305862  0.253320  0.083680  1
  Cl  Cl12  1  0.694138  0.253320  0.583680  1
  Cl  Cl13  1  0.481418  0.749792  0.153659  1
  Cl  Cl14  1  0.184848  0.407255  0.611850  1
  Cl  Cl15  1  0.518582  0.250208  0.846341  1
  Cl  Cl16  1  0.815152  0.592745  0.388150  1
  Cl  Cl17  1  0.964620  0.836932  0.135059  1
  Cl  Cl18  1  0.694138  0.746680  0.916320  1
  Cl  Cl19  1  0.035380  0.163068  0.864941  1
  Cl  Cl20  1  0.964620  0.163068  0.364941  1
  Cl  Cl21  1  0.035380  0.836932  0.635059  1
