# generated using pymatgen
data_Pr16MgHg3Os4
_symmetry_space_group_name_H-M   'P 1'
_cell_length_a   10.02359079
_cell_length_b   10.02359140
_cell_length_c   9.98254602
_cell_angle_alpha   59.86389324
_cell_angle_beta   59.86389334
_cell_angle_gamma   59.99999557
_symmetry_Int_Tables_number   1
_chemical_formula_structural   Pr16MgHg3Os4
_chemical_formula_sum   'Pr16 Mg1 Hg3 Os4'
_cell_volume   707.74444416
_cell_formula_units_Z   1
loop_
 _symmetry_equiv_pos_site_id
 _symmetry_equiv_pos_as_xyz
  1  'x, y, z'
loop_
 _atom_site_type_symbol
 _atom_site_label
 _atom_site_symmetry_multiplicity
 _atom_site_fract_x
 _atom_site_fract_y
 _atom_site_fract_z
 _atom_site_occupancy
  Pr  Pr0  1  0.058166  0.441088  0.442581  1
  Pr  Pr1  1  0.192489  0.806951  0.193609  1
  Pr  Pr2  1  0.653804  0.653804  0.654179  1
  Pr  Pr3  1  0.440547  0.440547  0.060204  1
  Pr  Pr4  1  0.058701  0.440547  0.060204  1
  Pr  Pr5  1  0.440547  0.058701  0.060204  1
  Pr  Pr6  1  0.058166  0.058166  0.442581  1
  Pr  Pr7  1  0.651106  0.651106  0.046683  1
  Pr  Pr8  1  0.653804  0.038213  0.654179  1
  Pr  Pr9  1  0.189821  0.810062  0.810296  1
  Pr  Pr10  1  0.441088  0.058166  0.442581  1
  Pr  Pr11  1  0.189821  0.189821  0.810296  1
  Pr  Pr12  1  0.038213  0.653804  0.654179  1
  Pr  Pr13  1  0.806951  0.806951  0.193609  1
  Pr  Pr14  1  0.806951  0.192489  0.193609  1
  Pr  Pr15  1  0.810062  0.189821  0.810296  1
  Mg  Mg16  1  0.431135  0.431135  0.706596  1
  Hg  Hg17  1  0.414126  0.414126  0.419711  1
  Hg  Hg18  1  0.414126  0.752037  0.419711  1
  Hg  Hg19  1  0.752037  0.414126  0.419711  1
  Os  Os20  1  0.861364  0.861364  0.863313  1
  Os  Os21  1  0.413959  0.861364  0.863313  1
  Os  Os22  1  0.861364  0.413959  0.863313  1
  Os  Os23  1  0.861652  0.861652  0.415043  1
