# generated using pymatgen
data_Er19Tm(Ir2Ru)4
_symmetry_space_group_name_H-M   'P 1'
_cell_length_a   10.72071300
_cell_length_b   10.72071300
_cell_length_c   6.37216600
_cell_angle_alpha   90.00000000
_cell_angle_beta   90.00000000
_cell_angle_gamma   90.00000000
_symmetry_Int_Tables_number   1
_chemical_formula_structural   Er19Tm(Ir2Ru)4
_chemical_formula_sum   'Er19 Tm1 Ir8 Ru4'
_cell_volume   732.37653401
_cell_formula_units_Z   1
loop_
 _symmetry_equiv_pos_site_id
 _symmetry_equiv_pos_as_xyz
  1  'x, y, z'
loop_
 _atom_site_type_symbol
 _atom_site_label
 _atom_site_symmetry_multiplicity
 _atom_site_fract_x
 _atom_site_fract_y
 _atom_site_fract_z
 _atom_site_occupancy
  Er  Er0  1  0.293450  0.086430  0.376792  1
  Er  Er1  1  0.293440  0.913576  0.876856  1
  Er  Er2  1  0.706560  0.086424  0.876856  1
  Er  Er3  1  0.706550  0.913570  0.376792  1
  Er  Er4  1  0.586440  0.793415  0.876805  1
  Er  Er5  1  0.586418  0.206657  0.376808  1
  Er  Er6  1  0.413582  0.793343  0.376808  1
  Er  Er7  1  0.413560  0.206585  0.876805  1
  Er  Er8  1  0.206657  0.413582  0.623192  1
  Er  Er9  1  0.206585  0.586440  0.123195  1
  Er  Er10  1  0.793415  0.413560  0.123195  1
  Er  Er11  1  0.793343  0.586418  0.623192  1
  Er  Er12  1  0.913576  0.706560  0.123144  1
  Er  Er13  1  0.913570  0.293450  0.623208  1
  Er  Er14  1  0.086430  0.706550  0.623208  1
  Er  Er15  1  0.086424  0.293440  0.123144  1
  Er  Er16  1  0.000000  0.000000  0.500000  1
  Er  Er17  1  0.000000  0.000000  0.000000  1
  Er  Er18  1  0.500000  0.500000  0.000000  1
  Tm  Tm19  1  0.500000  0.500000  0.500000  1
  Ir  Ir20  1  0.847283  0.152719  0.250009  1
  Ir  Ir21  1  0.847281  0.847283  0.749991  1
  Ir  Ir22  1  0.152719  0.152717  0.749991  1
  Ir  Ir23  1  0.152717  0.847281  0.250009  1
  Ir  Ir24  1  0.652576  0.347419  0.749728  1
  Ir  Ir25  1  0.652581  0.652576  0.250272  1
  Ir  Ir26  1  0.347419  0.347424  0.250272  1
  Ir  Ir27  1  0.347424  0.652581  0.749728  1
  Ru  Ru28  1  0.500000  0.000000  0.122245  1
  Ru  Ru29  1  0.500000  0.000000  0.622263  1
  Ru  Ru30  1  0.000000  0.500000  0.877755  1
  Ru  Ru31  1  0.000000  0.500000  0.377737  1
