# generated using pymatgen
data_Sr6TiGaRuO12
_symmetry_space_group_name_H-M   'P 1'
_cell_length_a   8.83334807
_cell_length_b   8.83334793
_cell_length_c   6.89971082
_cell_angle_alpha   67.42923079
_cell_angle_beta   67.42922995
_cell_angle_gamma   36.86036827
_symmetry_Int_Tables_number   1
_chemical_formula_structural   Sr6TiGaRuO12
_chemical_formula_sum   'Sr6 Ti1 Ga1 Ru1 O12'
_cell_volume   295.34013750
_cell_formula_units_Z   1
loop_
 _symmetry_equiv_pos_site_id
 _symmetry_equiv_pos_as_xyz
  1  'x, y, z'
loop_
 _atom_site_type_symbol
 _atom_site_label
 _atom_site_symmetry_multiplicity
 _atom_site_fract_x
 _atom_site_fract_y
 _atom_site_fract_z
 _atom_site_occupancy
  Sr  Sr0  1  0.878301  0.878301  0.712179  1
  Sr  Sr1  1  0.215658  0.215658  0.710301  1
  Sr  Sr2  1  0.549777  0.549777  0.708216  1
  Sr  Sr3  1  0.453847  0.453847  0.289178  1
  Sr  Sr4  1  0.781504  0.781504  0.293708  1
  Sr  Sr5  1  0.118798  0.118798  0.286366  1
  Ti  Ti6  1  0.329686  0.329686  0.000794  1
  Ga  Ga7  1  0.668725  0.668725  0.999938  1
  Ru  Ru8  1  0.999698  0.999698  0.999509  1
  O  O9  1  0.946225  0.946225  0.319548  1
  O  O10  1  0.282279  0.282279  0.317499  1
  O  O11  1  0.613407  0.613407  0.317558  1
  O  O12  1  0.388235  0.388235  0.682576  1
  O  O13  1  0.719290  0.719290  0.682901  1
  O  O14  1  0.052430  0.052430  0.679877  1
  O  O15  1  0.497947  0.005619  0.000194  1
  O  O16  1  0.835998  0.328221  0.999769  1
  O  O17  1  0.166068  0.668285  0.999963  1
  O  O18  1  0.005619  0.497947  0.000194  1
  O  O19  1  0.328221  0.835998  0.999769  1
  O  O20  1  0.668285  0.166068  0.999963  1
