# generated using pymatgen
data_HoEr5(CrB7)2
_symmetry_space_group_name_H-M   'P 1'
_cell_length_a   8.02238157
_cell_length_b   8.02238143
_cell_length_c   9.29772300
_cell_angle_alpha   90.00000000
_cell_angle_beta   90.00000000
_cell_angle_gamma   155.41325744
_symmetry_Int_Tables_number   1
_chemical_formula_structural   HoEr5(CrB7)2
_chemical_formula_sum   'Ho1 Er5 Cr2 B14'
_cell_volume   248.97173293
_cell_formula_units_Z   1
loop_
 _symmetry_equiv_pos_site_id
 _symmetry_equiv_pos_as_xyz
  1  'x, y, z'
loop_
 _atom_site_type_symbol
 _atom_site_label
 _atom_site_symmetry_multiplicity
 _atom_site_fract_x
 _atom_site_fract_y
 _atom_site_fract_z
 _atom_site_occupancy
  Ho  Ho0  1  0.241776  0.758224  0.750000  1
  Er  Er1  1  0.104810  0.895190  0.059613  1
  Er  Er2  1  0.895273  0.104727  0.940721  1
  Er  Er3  1  0.758706  0.241294  0.250000  1
  Er  Er4  1  0.104810  0.895190  0.440387  1
  Er  Er5  1  0.895273  0.104727  0.559279  1
  Cr  Cr6  1  0.052726  0.947274  0.750000  1
  Cr  Cr7  1  0.947197  0.052803  0.250000  1
  B  B8  1  0.727189  0.272811  0.531212  1
  B  B9  1  0.272725  0.727275  0.467789  1
  B  B10  1  0.272725  0.727275  0.032211  1
  B  B11  1  0.727189  0.272811  0.968788  1
  B  B12  1  0.520962  0.479038  0.903986  1
  B  B13  1  0.479002  0.520998  0.096032  1
  B  B14  1  0.479002  0.520998  0.403968  1
  B  B15  1  0.520962  0.479038  0.596014  1
  B  B16  1  0.458077  0.541923  0.750000  1
  B  B17  1  0.541795  0.458205  0.250000  1
  B  B18  1  0.631144  0.368856  0.651033  1
  B  B19  1  0.368756  0.631244  0.348781  1
  B  B20  1  0.368756  0.631244  0.151219  1
  B  B21  1  0.631144  0.368856  0.848967  1
