# generated using pymatgen
data_Ba14PrSb11
_symmetry_space_group_name_H-M   'P 1'
_cell_length_a   18.37052556
_cell_length_b   18.37052666
_cell_length_c   18.37052600
_cell_angle_alpha   94.37919847
_cell_angle_beta   117.50162905
_cell_angle_gamma   117.50778364
_symmetry_Int_Tables_number   1
_chemical_formula_structural   Ba14PrSb11
_chemical_formula_sum   'Ba56 Pr4 Sb44'
_cell_volume   4534.80070894
_cell_formula_units_Z   4
loop_
 _symmetry_equiv_pos_site_id
 _symmetry_equiv_pos_as_xyz
  1  'x, y, z'
loop_
 _atom_site_type_symbol
 _atom_site_label
 _atom_site_symmetry_multiplicity
 _atom_site_fract_x
 _atom_site_fract_y
 _atom_site_fract_z
 _atom_site_occupancy
  Ba  Ba0  1  0.147258  0.748637  0.894290  1
  Ba  Ba1  1  0.034423  0.748072  0.628736  1
  Ba  Ba2  1  0.026223  0.781794  0.398716  1
  Ba  Ba3  1  0.090843  0.520859  0.753727  1
  Ba  Ba4  1  0.354476  0.966472  0.873370  1
  Ba  Ba5  1  0.118983  0.370602  0.905126  1
  Ba  Ba6  1  0.092843  0.127091  0.980785  1
  Ba  Ba7  1  0.146170  0.896171  0.250000  1
  Ba  Ba8  1  0.146307  0.627091  0.534249  1
  Ba  Ba9  1  0.412076  0.748126  0.977529  1
  Ba  Ba10  1  0.465476  0.870602  0.751619  1
  Ba  Ba11  1  0.356713  0.886996  0.480165  1
  Ba  Ba12  1  0.353480  0.603480  0.750000  1
  Ba  Ba13  1  0.227869  0.977601  0.062696  1
  Ba  Ba14  1  0.267130  0.337115  0.746273  1
  Ba  Ba15  1  0.231440  0.752214  0.164119  1
  Ba  Ba16  1  0.093102  0.466472  0.111995  1
  Ba  Ba17  1  0.270596  0.434546  0.522471  1
  Ba  Ba18  1  0.144135  0.020181  0.613093  1
  Ba  Ba19  1  0.592843  0.612059  0.965751  1
  Ba  Ba20  1  0.088095  0.067320  0.335881  1
  Ba  Ba21  1  0.119336  0.248072  0.213648  1
  Ba  Ba22  1  0.590843  0.837115  0.569984  1
  Ba  Ba23  1  0.618983  0.713857  0.748381  1
  Ba  Ba24  1  0.354346  0.252968  0.605710  1
  Ba  Ba25  1  0.407087  0.520181  0.376045  1
  Ba  Ba26  1  0.534423  0.905687  0.286352  1
  Ba  Ba27  1  0.619336  0.405687  0.871264  1
  Ba  Ba28  1  0.383537  0.601911  0.128337  1
  Ba  Ba29  1  0.473574  0.101911  0.718374  1
  Ba  Ba30  1  0.593102  0.481107  0.626630  1
  Ba  Ba31  1  0.647258  0.752968  0.398622  1
  Ba  Ba32  1  0.383078  0.281794  0.255571  1
  Ba  Ba33  1  0.414905  0.165173  0.437304  1
  Ba  Ba34  1  0.883537  0.755199  0.781626  1
  Ba  Ba35  1  0.912076  0.934546  0.663951  1
  Ba  Ba36  1  0.406832  0.386996  0.030283  1
  Ba  Ba37  1  0.854476  0.981107  0.388005  1
  Ba  Ba38  1  0.731440  0.567320  0.479226  1
  Ba  Ba39  1  0.907087  0.531042  0.886907  1
  Ba  Ba40  1  0.770596  0.248126  0.836049  1
  Ba  Ba41  1  0.727869  0.665173  0.250268  1
  Ba  Ba42  1  0.767130  0.020859  0.930016  1
  Ba  Ba43  1  0.646171  0.396171  0.250000  1
  Ba  Ba44  1  0.646307  0.112059  0.519215  1
  Ba  Ba45  1  0.526223  0.127507  0.244429  1
  Ba  Ba46  1  0.588095  0.252214  0.020774  1
  Ba  Ba47  1  0.856713  0.376548  0.469717  1
  Ba  Ba48  1  0.853480  0.103480  0.750000  1
  Ba  Ba49  1  0.906832  0.876548  0.019835  1
  Ba  Ba50  1  0.883078  0.627507  0.101284  1
  Ba  Ba51  1  0.644135  0.031042  0.123955  1
  Ba  Ba52  1  0.914905  0.477601  0.249732  1
  Ba  Ba53  1  0.965476  0.213857  0.594874  1
  Ba  Ba54  1  0.973574  0.255199  0.371663  1
  Ba  Ba55  1  0.854346  0.248637  0.101378  1
  Pr  Pr56  1  0.250312  0.125416  0.874945  1
  Pr  Pr57  1  0.250471  0.625416  0.375104  1
  Pr  Pr58  1  0.750312  0.875367  0.124896  1
  Pr  Pr59  1  0.750471  0.375367  0.625055  1
  Sb  Sb60  1  0.117172  0.920560  0.814729  1
  Sb  Sb61  1  0.157556  0.585034  0.980668  1
  Sb  Sb62  1  0.249997  0.739939  0.760037  1
  Sb  Sb63  1  0.250065  0.885720  0.614318  1
  Sb  Sb64  1  0.105177  0.427043  0.584834  1
  Sb  Sb65  1  0.104884  0.185073  0.800715  1
  Sb  Sb66  1  0.008308  0.754281  0.004147  1
  Sb  Sb67  1  0.116191  0.695694  0.300660  1
  Sb  Sb68  1  0.342209  0.520342  0.915166  1
  Sb  Sb69  1  0.105831  0.420560  0.303388  1
  Sb  Sb70  1  0.104365  0.176888  0.519332  1
  Sb  Sb71  1  0.394191  0.980390  0.322035  1
  Sb  Sb72  1  0.384358  0.685073  0.580189  1
  Sb  Sb73  1  0.604884  0.804169  0.919811  1
  Sb  Sb74  1  0.385411  0.201118  0.805160  1
  Sb  Sb75  1  0.479902  0.489960  0.739963  1
  Sb  Sb76  1  0.395959  0.701118  0.315708  1
  Sb  Sb77  1  0.393320  0.913984  0.072520  1
  Sb  Sb78  1  0.341463  0.320800  0.427480  1
  Sb  Sb79  1  0.250134  0.004161  0.495853  1
  Sb  Sb80  1  0.271402  0.385720  0.135655  1
  Sb  Sb81  1  0.842209  0.927043  0.821867  1
  Sb  Sb82  1  0.158355  0.072155  0.177965  1
  Sb  Sb83  1  0.749997  0.989960  0.510058  1
  Sb  Sb84  1  0.771402  0.635748  0.885682  1
  Sb  Sb85  1  0.657556  0.676888  0.572523  1
  Sb  Sb86  1  0.604365  0.085034  0.927477  1
  Sb  Sb87  1  0.605831  0.302442  0.685271  1
  Sb  Sb88  1  0.508308  0.504161  0.254027  1
  Sb  Sb89  1  0.617172  0.802442  0.196612  1
  Sb  Sb90  1  0.395035  0.195694  0.079503  1
  Sb  Sb91  1  0.616191  0.315531  0.420497  1
  Sb  Sb92  1  0.605177  0.020342  0.678133  1
  Sb  Sb93  1  0.893320  0.820800  0.479336  1
  Sb  Sb94  1  0.895959  0.580252  0.694840  1
  Sb  Sb95  1  0.658355  0.480390  0.086199  1
  Sb  Sb96  1  0.884358  0.304169  0.699285  1
  Sb  Sb97  1  0.979902  0.239939  0.989942  1
  Sb  Sb98  1  0.895035  0.815531  0.199340  1
  Sb  Sb99  1  0.894191  0.572156  0.413801  1
  Sb  Sb100  1  0.750065  0.135748  0.364345  1
  Sb  Sb101  1  0.750134  0.254281  0.245973  1
  Sb  Sb102  1  0.841463  0.413984  0.020664  1
  Sb  Sb103  1  0.885411  0.080252  0.184292  1
