# generated using pymatgen
data_Tm5Fe18CoP12
_symmetry_space_group_name_H-M   'P 1'
_cell_length_a   11.90733400
_cell_length_b   11.90733423
_cell_length_c   3.67950900
_cell_angle_alpha   90.00000000
_cell_angle_beta   90.00000000
_cell_angle_gamma   119.99999936
_symmetry_Int_Tables_number   1
_chemical_formula_structural   Tm5Fe18CoP12
_chemical_formula_sum   'Tm5 Fe18 Co1 P12'
_cell_volume   451.80349260
_cell_formula_units_Z   1
loop_
 _symmetry_equiv_pos_site_id
 _symmetry_equiv_pos_as_xyz
  1  'x, y, z'
loop_
 _atom_site_type_symbol
 _atom_site_label
 _atom_site_symmetry_multiplicity
 _atom_site_fract_x
 _atom_site_fract_y
 _atom_site_fract_z
 _atom_site_occupancy
  Tm  Tm0  1  0.666667  0.333333  0.000000  1
  Tm  Tm1  1  0.333333  0.666667  0.000000  1
  Tm  Tm2  1  0.184296  0.184296  0.500000  1
  Tm  Tm3  1  0.815704  0.000000  0.500000  1
  Tm  Tm4  1  0.000000  0.815704  0.500000  1
  Fe  Fe5  1  0.818292  0.197604  0.000000  1
  Fe  Fe6  1  0.802396  0.620687  0.000000  1
  Fe  Fe7  1  0.379313  0.181708  0.000000  1
  Fe  Fe8  1  0.197604  0.818292  0.000000  1
  Fe  Fe9  1  0.620687  0.802396  0.000000  1
  Fe  Fe10  1  0.181708  0.379313  0.000000  1
  Fe  Fe11  1  0.557209  0.557209  0.000000  1
  Fe  Fe12  1  0.442791  0.000000  0.000000  1
  Fe  Fe13  1  0.000000  0.442791  0.000000  1
  Fe  Fe14  1  0.639644  0.122281  0.500000  1
  Fe  Fe15  1  0.877719  0.517363  0.500000  1
  Fe  Fe16  1  0.482637  0.360356  0.500000  1
  Fe  Fe17  1  0.122281  0.639644  0.500000  1
  Fe  Fe18  1  0.517363  0.877719  0.500000  1
  Fe  Fe19  1  0.360356  0.482637  0.500000  1
  Fe  Fe20  1  0.715202  0.715202  0.500000  1
  Fe  Fe21  1  0.284798  0.000000  0.500000  1
  Fe  Fe22  1  0.000000  0.284798  0.500000  1
  Co  Co23  1  0.000000  0.000000  0.000000  1
  P  P24  1  0.369953  0.369953  0.000000  1
  P  P25  1  0.630047  0.000000  0.000000  1
  P  P26  1  0.000000  0.630047  0.000000  1
  P  P27  1  0.833415  0.312538  0.500000  1
  P  P28  1  0.687462  0.520877  0.500000  1
  P  P29  1  0.479123  0.166585  0.500000  1
  P  P30  1  0.312538  0.833415  0.500000  1
  P  P31  1  0.520877  0.687462  0.500000  1
  P  P32  1  0.166585  0.479123  0.500000  1
  P  P33  1  0.815844  0.815844  0.000000  1
  P  P34  1  0.184156  0.000000  0.000000  1
  P  P35  1  0.000000  0.184156  0.000000  1
