# generated using pymatgen
data_Tb3Ce(ZnCu5)4
_symmetry_space_group_name_H-M   'P 1'
_cell_length_a   5.00241400
_cell_length_b   8.09477953
_cell_length_c   10.18819776
_cell_angle_alpha   89.91828832
_cell_angle_beta   90.00000000
_cell_angle_gamma   90.00000000
_symmetry_Int_Tables_number   1
_chemical_formula_structural   Tb3Ce(ZnCu5)4
_chemical_formula_sum   'Tb3 Ce1 Zn4 Cu20'
_cell_volume   412.55473958
_cell_formula_units_Z   1
loop_
 _symmetry_equiv_pos_site_id
 _symmetry_equiv_pos_as_xyz
  1  'x, y, z'
loop_
 _atom_site_type_symbol
 _atom_site_label
 _atom_site_symmetry_multiplicity
 _atom_site_fract_x
 _atom_site_fract_y
 _atom_site_fract_z
 _atom_site_occupancy
  Tb  Tb0  1  0.750000  0.242067  0.934874  1
  Tb  Tb1  1  0.750000  0.743085  0.563648  1
  Tb  Tb2  1  0.250000  0.256912  0.435978  1
  Ce  Ce3  1  0.250000  0.757429  0.063043  1
  Zn  Zn4  1  0.250000  0.639936  0.360503  1
  Zn  Zn5  1  0.750000  0.358558  0.640970  1
  Zn  Zn6  1  0.750000  0.858848  0.858804  1
  Zn  Zn7  1  0.250000  0.144547  0.141517  1
  Cu  Cu8  1  0.250000  0.817393  0.749530  1
  Cu  Cu9  1  0.750000  0.181846  0.249893  1
  Cu  Cu10  1  0.750000  0.683119  0.251044  1
  Cu  Cu11  1  0.250000  0.318305  0.748270  1
  Cu  Cu12  1  0.505903  0.567355  0.807938  1
  Cu  Cu13  1  0.495579  0.431636  0.192389  1
  Cu  Cu14  1  0.495570  0.932636  0.308939  1
  Cu  Cu15  1  0.004421  0.431636  0.192389  1
  Cu  Cu16  1  0.504082  0.067737  0.691691  1
  Cu  Cu17  1  0.994097  0.567355  0.807938  1
  Cu  Cu18  1  0.995918  0.067737  0.691691  1
  Cu  Cu19  1  0.004430  0.932636  0.308939  1
  Cu  Cu20  1  0.250000  0.908022  0.515165  1
  Cu  Cu21  1  0.750000  0.093409  0.485127  1
  Cu  Cu22  1  0.750000  0.588712  0.015636  1
  Cu  Cu23  1  0.250000  0.404762  0.983619  1
  Cu  Cu24  1  0.250000  0.559110  0.595298  1
  Cu  Cu25  1  0.750000  0.441223  0.405552  1
  Cu  Cu26  1  0.750000  0.943170  0.094915  1
  Cu  Cu27  1  0.250000  0.060819  0.904700  1
