# generated using pymatgen
data_Lu3In3IrAu
_symmetry_space_group_name_H-M   'P 1'
_cell_length_a   7.74246300
_cell_length_b   7.74246306
_cell_length_c   3.50991600
_cell_angle_alpha   90.00000000
_cell_angle_beta   90.00000000
_cell_angle_gamma   119.99999549
_symmetry_Int_Tables_number   1
_chemical_formula_structural   Lu3In3IrAu
_chemical_formula_sum   'Lu3 In3 Ir1 Au1'
_cell_volume   182.21564170
_cell_formula_units_Z   1
loop_
 _symmetry_equiv_pos_site_id
 _symmetry_equiv_pos_as_xyz
  1  'x, y, z'
loop_
 _atom_site_type_symbol
 _atom_site_label
 _atom_site_symmetry_multiplicity
 _atom_site_fract_x
 _atom_site_fract_y
 _atom_site_fract_z
 _atom_site_occupancy
  Lu  Lu0  1  0.590073  0.017103  0.500001  1
  Lu  Lu1  1  0.427030  0.409927  0.500001  1
  Lu  Lu2  1  0.982897  0.572970  0.500001  1
  In  In3  1  0.232635  0.003401  0.000000  1
  In  In4  1  0.996599  0.229235  0.000000  1
  In  In5  1  0.770766  0.767365  0.000000  1
  Ir  Ir6  1  0.666667  0.333334  0.000000  1
  Au  Au7  1  0.333334  0.666667  0.000000  1
