# generated using pymatgen
data_Y20AlSi7Hg4
_symmetry_space_group_name_H-M   'P 1'
_cell_length_a   7.60548711
_cell_length_b   7.60548713
_cell_length_c   14.25028200
_cell_angle_alpha   90.00958259
_cell_angle_beta   90.00958259
_cell_angle_gamma   89.63417016
_symmetry_Int_Tables_number   1
_chemical_formula_structural   Y20AlSi7Hg4
_chemical_formula_sum   'Y20 Al1 Si7 Hg4'
_cell_volume   824.26842612
_cell_formula_units_Z   1
loop_
 _symmetry_equiv_pos_site_id
 _symmetry_equiv_pos_as_xyz
  1  'x, y, z'
loop_
 _atom_site_type_symbol
 _atom_site_label
 _atom_site_symmetry_multiplicity
 _atom_site_fract_x
 _atom_site_fract_y
 _atom_site_fract_z
 _atom_site_occupancy
  Y  Y0  1  0.830624  0.824829  0.892157  1
  Y  Y1  1  0.175171  0.169376  0.607843  1
  Y  Y2  1  0.832061  0.172045  0.389853  1
  Y  Y3  1  0.168373  0.827674  0.389103  1
  Y  Y4  1  0.328481  0.331905  0.389473  1
  Y  Y5  1  0.827955  0.167939  0.110147  1
  Y  Y6  1  0.328294  0.667227  0.889458  1
  Y  Y7  1  0.172326  0.831627  0.110897  1
  Y  Y8  1  0.495827  0.998412  0.754104  1
  Y  Y9  1  0.000120  0.499857  0.246333  1
  Y  Y10  1  0.332773  0.671706  0.610542  1
  Y  Y11  1  0.668095  0.671519  0.110527  1
  Y  Y12  1  0.664492  0.330522  0.607995  1
  Y  Y13  1  0.001588  0.504173  0.745896  1
  Y  Y14  1  0.826081  0.829265  0.607791  1
  Y  Y15  1  0.669478  0.335508  0.892005  1
  Y  Y16  1  0.170735  0.173919  0.892209  1
  Y  Y17  1  0.500143  0.999880  0.253667  1
  Y  Y18  1  0.672439  0.667462  0.389442  1
  Y  Y19  1  0.332538  0.327561  0.110558  1
  Al  Al20  1  0.877175  0.122825  0.750000  1
  Si  Si21  1  0.625993  0.374007  0.250000  1
  Si  Si22  1  0.374116  0.625884  0.250000  1
  Si  Si23  1  0.126275  0.126486  0.250021  1
  Si  Si24  1  0.374113  0.373322  0.750047  1
  Si  Si25  1  0.124001  0.875999  0.750000  1
  Si  Si26  1  0.873514  0.873725  0.249979  1
  Si  Si27  1  0.626678  0.625887  0.749953  1
  Hg  Hg28  1  0.000993  0.500767  0.002437  1
  Hg  Hg29  1  0.499315  0.999000  0.000088  1
  Hg  Hg30  1  0.499233  0.999007  0.497563  1
  Hg  Hg31  1  0.001000  0.500685  0.499912  1
