# generated using pymatgen
data_Hf6Al6IrPd4Rh
_symmetry_space_group_name_H-M   'P 1'
_cell_length_a   7.28216900
_cell_length_b   7.28216758
_cell_length_c   6.82731400
_cell_angle_alpha   90.00000000
_cell_angle_beta   90.00000000
_cell_angle_gamma   120.00000190
_symmetry_Int_Tables_number   1
_chemical_formula_structural   Hf6Al6IrPd4Rh
_chemical_formula_sum   'Hf6 Al6 Ir1 Pd4 Rh1'
_cell_volume   313.54647539
_cell_formula_units_Z   1
loop_
 _symmetry_equiv_pos_site_id
 _symmetry_equiv_pos_as_xyz
  1  'x, y, z'
loop_
 _atom_site_type_symbol
 _atom_site_label
 _atom_site_symmetry_multiplicity
 _atom_site_fract_x
 _atom_site_fract_y
 _atom_site_fract_z
 _atom_site_occupancy
  Hf  Hf0  1  0.744699  0.057000  0.000245  1
  Hf  Hf1  1  0.312300  0.255301  0.000245  1
  Hf  Hf2  1  0.943000  0.687700  0.000245  1
  Hf  Hf3  1  0.333295  0.264690  0.499950  1
  Hf  Hf4  1  0.735310  0.068605  0.499950  1
  Hf  Hf5  1  0.931395  0.666705  0.499950  1
  Al  Al6  1  0.595338  0.662459  0.749841  1
  Al  Al7  1  0.067121  0.404662  0.749841  1
  Al  Al8  1  0.337541  0.932879  0.749841  1
  Al  Al9  1  0.595039  0.662124  0.250323  1
  Al  Al10  1  0.067085  0.404961  0.250323  1
  Al  Al11  1  0.337876  0.932915  0.250323  1
  Ir  Ir12  1  0.000000  0.000000  0.262201  1
  Pd  Pd13  1  0.333333  0.666667  0.000251  1
  Pd  Pd14  1  0.333333  0.666667  0.499864  1
  Pd  Pd15  1  0.666667  0.333333  0.769627  1
  Pd  Pd16  1  0.666667  0.333333  0.230436  1
  Rh  Rh17  1  0.000000  0.000000  0.736546  1
