# generated using pymatgen
data_Tb4Dy(MnB3)2
_symmetry_space_group_name_H-M   'P 1'
_cell_length_a   5.42981738
_cell_length_b   5.42981702
_cell_length_c   8.36175213
_cell_angle_alpha   71.05369111
_cell_angle_beta   71.05369463
_cell_angle_gamma   59.99999552
_symmetry_Int_Tables_number   1
_chemical_formula_structural   Tb4Dy(MnB3)2
_chemical_formula_sum   'Tb4 Dy1 Mn2 B6'
_cell_volume   197.92773358
_cell_formula_units_Z   1
loop_
 _symmetry_equiv_pos_site_id
 _symmetry_equiv_pos_as_xyz
  1  'x, y, z'
loop_
 _atom_site_type_symbol
 _atom_site_label
 _atom_site_symmetry_multiplicity
 _atom_site_fract_x
 _atom_site_fract_y
 _atom_site_fract_z
 _atom_site_occupancy
  Tb  Tb0  1  0.000027  0.000027  0.999920  1
  Tb  Tb1  1  0.250798  0.250798  0.247605  1
  Tb  Tb2  1  0.749252  0.749252  0.752244  1
  Tb  Tb3  1  0.416630  0.416630  0.750109  1
  Dy  Dy4  1  0.582862  0.582862  0.251415  1
  Mn  Mn5  1  0.115784  0.115784  0.652647  1
  Mn  Mn6  1  0.884250  0.884250  0.347250  1
  B  B7  1  0.166402  0.833747  0.499802  1
  B  B8  1  0.833747  0.500049  0.499802  1
  B  B9  1  0.500049  0.166402  0.499802  1
  B  B10  1  0.166402  0.500049  0.499802  1
  B  B11  1  0.500049  0.833747  0.499802  1
  B  B12  1  0.833747  0.166402  0.499802  1
