# generated using pymatgen
data_Eu3Er(Al3Pd)6
_symmetry_space_group_name_H-M   'P 1'
_cell_length_a   7.70312910
_cell_length_b   7.70148445
_cell_length_c   9.64583900
_cell_angle_alpha   90.00000000
_cell_angle_beta   90.00000000
_cell_angle_gamma   119.63021859
_symmetry_Int_Tables_number   1
_chemical_formula_structural   Eu3Er(Al3Pd)6
_chemical_formula_sum   'Eu3 Er1 Al18 Pd6'
_cell_volume   497.41454690
_cell_formula_units_Z   1
loop_
 _symmetry_equiv_pos_site_id
 _symmetry_equiv_pos_as_xyz
  1  'x, y, z'
loop_
 _atom_site_type_symbol
 _atom_site_label
 _atom_site_symmetry_multiplicity
 _atom_site_fract_x
 _atom_site_fract_y
 _atom_site_fract_z
 _atom_site_occupancy
  Eu  Eu0  1  0.995349  0.669537  0.250000  1
  Eu  Eu1  1  0.002915  0.329515  0.750000  1
  Eu  Eu2  1  0.671673  0.996292  0.250000  1
  Er  Er3  1  0.329314  0.003234  0.750000  1
  Al  Al4  1  0.133379  0.132212  0.250000  1
  Al  Al5  1  0.871228  0.869310  0.750000  1
  Al  Al6  1  0.002582  0.335258  0.074169  1
  Al  Al7  1  0.999207  0.665801  0.922535  1
  Al  Al8  1  0.999207  0.665801  0.577465  1
  Al  Al9  1  0.334941  0.001329  0.426355  1
  Al  Al10  1  0.002582  0.335258  0.425831  1
  Al  Al11  1  0.663784  0.998485  0.577491  1
  Al  Al12  1  0.663784  0.998485  0.922509  1
  Al  Al13  1  0.334941  0.001329  0.073645  1
  Al  Al14  1  0.333134  0.332361  0.558152  1
  Al  Al15  1  0.665714  0.665613  0.448488  1
  Al  Al16  1  0.665714  0.665613  0.051512  1
  Al  Al17  1  0.333134  0.332361  0.941848  1
  Al  Al18  1  0.342592  0.547502  0.250000  1
  Al  Al19  1  0.655412  0.451571  0.750000  1
  Al  Al20  1  0.545218  0.341308  0.250000  1
  Al  Al21  1  0.454091  0.662063  0.750000  1
  Pd  Pd22  1  0.668567  0.326966  0.997815  1
  Pd  Pd23  1  0.328994  0.672074  0.997542  1
  Pd  Pd24  1  0.328994  0.672074  0.502458  1
  Pd  Pd25  1  0.668567  0.326966  0.502185  1
  Pd  Pd26  1  0.002491  0.000841  0.997598  1
  Pd  Pd27  1  0.002491  0.000841  0.502402  1
