# generated using pymatgen
data_Yb6Al24Os5Pd3
_symmetry_space_group_name_H-M   'P 1'
_cell_length_a   8.88476929
_cell_length_b   8.87995266
_cell_length_c   9.60142948
_cell_angle_alpha   89.97843602
_cell_angle_beta   89.65364198
_cell_angle_gamma   119.86056646
_symmetry_Int_Tables_number   1
_chemical_formula_structural   Yb6Al24Os5Pd3
_chemical_formula_sum   'Yb6 Al24 Os5 Pd3'
_cell_volume   656.93223001
_cell_formula_units_Z   1
loop_
 _symmetry_equiv_pos_site_id
 _symmetry_equiv_pos_as_xyz
  1  'x, y, z'
loop_
 _atom_site_type_symbol
 _atom_site_label
 _atom_site_symmetry_multiplicity
 _atom_site_fract_x
 _atom_site_fract_y
 _atom_site_fract_z
 _atom_site_occupancy
  Yb  Yb0  1  0.188034  0.382087  0.251700  1
  Yb  Yb1  1  0.811966  0.617913  0.748300  1
  Yb  Yb2  1  0.613047  0.811721  0.252903  1
  Yb  Yb3  1  0.386953  0.188279  0.747097  1
  Yb  Yb4  1  0.197704  0.806389  0.251980  1
  Yb  Yb5  1  0.802296  0.193611  0.748020  1
  Al  Al6  1  0.336368  0.671771  0.001767  1
  Al  Al7  1  0.663632  0.328229  0.998233  1
  Al  Al8  1  0.670135  0.331309  0.504295  1
  Al  Al9  1  0.329865  0.668691  0.495705  1
  Al  Al10  1  0.155114  0.321452  0.578942  1
  Al  Al11  1  0.844886  0.678548  0.421058  1
  Al  Al12  1  0.677647  0.844183  0.579479  1
  Al  Al13  1  0.840190  0.680895  0.083577  1
  Al  Al14  1  0.322353  0.155817  0.420521  1
  Al  Al15  1  0.159810  0.319105  0.916423  1
  Al  Al16  1  0.162774  0.838513  0.576613  1
  Al  Al17  1  0.321001  0.154394  0.080224  1
  Al  Al18  1  0.837226  0.161487  0.423387  1
  Al  Al19  1  0.678999  0.845606  0.919776  1
  Al  Al20  1  0.832491  0.155501  0.079593  1
  Al  Al21  1  0.167509  0.844499  0.920407  1
  Al  Al22  1  0.561543  0.123008  0.249614  1
  Al  Al23  1  0.438457  0.876992  0.750386  1
  Al  Al24  1  0.874433  0.436040  0.253259  1
  Al  Al25  1  0.125567  0.563960  0.746741  1
  Al  Al26  1  0.561952  0.435654  0.249557  1
  Al  Al27  1  0.438048  0.564346  0.750443  1
  Al  Al28  1  0.999979  0.998345  0.250251  1
  Al  Al29  1  0.000021  0.001655  0.749749  1
  Os  Os30  1  0.500000  0.000000  0.000000  1
  Os  Os31  1  0.500000  0.000000  0.500000  1
  Os  Os32  1  0.000000  0.500000  0.500000  1
  Os  Os33  1  0.000000  0.000000  0.000000  1
  Os  Os34  1  0.000000  0.000000  0.500000  1
  Pd  Pd35  1  0.000000  0.500000  0.000000  1
  Pd  Pd36  1  0.500000  0.500000  0.000000  1
  Pd  Pd37  1  0.500000  0.500000  0.500000  1
