# generated using pymatgen
data_Zr20(Ga3Se)3
_symmetry_space_group_name_H-M   'P 1'
_cell_length_a   7.25621338
_cell_length_b   8.43655600
_cell_length_c   10.72339687
_cell_angle_alpha   90.00000000
_cell_angle_beta   89.94854794
_cell_angle_gamma   90.00000000
_symmetry_Int_Tables_number   1
_chemical_formula_structural   Zr20(Ga3Se)3
_chemical_formula_sum   'Zr20 Ga9 Se3'
_cell_volume   656.45875250
_cell_formula_units_Z   1
loop_
 _symmetry_equiv_pos_site_id
 _symmetry_equiv_pos_as_xyz
  1  'x, y, z'
loop_
 _atom_site_type_symbol
 _atom_site_label
 _atom_site_symmetry_multiplicity
 _atom_site_fract_x
 _atom_site_fract_y
 _atom_site_fract_z
 _atom_site_occupancy
  Zr  Zr0  1  0.837901  0.750000  0.213258  1
  Zr  Zr1  1  0.658093  0.750000  0.710921  1
  Zr  Zr2  1  0.157583  0.250000  0.787450  1
  Zr  Zr3  1  0.339224  0.250000  0.290621  1
  Zr  Zr4  1  0.331445  0.750000  0.277384  1
  Zr  Zr5  1  0.167107  0.750000  0.776740  1
  Zr  Zr6  1  0.666129  0.250000  0.720041  1
  Zr  Zr7  1  0.830272  0.250000  0.222887  1
  Zr  Zr8  1  0.683179  0.945714  0.436444  1
  Zr  Zr9  1  0.816276  0.555580  0.935985  1
  Zr  Zr10  1  0.316045  0.445698  0.563625  1
  Zr  Zr11  1  0.191420  0.054395  0.063642  1
  Zr  Zr12  1  0.316045  0.054302  0.563625  1
  Zr  Zr13  1  0.191420  0.445605  0.063642  1
  Zr  Zr14  1  0.683179  0.554286  0.436444  1
  Zr  Zr15  1  0.816276  0.944420  0.935985  1
  Zr  Zr16  1  0.018145  0.750000  0.498164  1
  Zr  Zr17  1  0.481167  0.750000  0.998026  1
  Zr  Zr18  1  0.981879  0.250000  0.501137  1
  Zr  Zr19  1  0.521083  0.250000  0.000912  1
  Ga  Ga20  1  0.563887  0.504977  0.175701  1
  Ga  Ga21  1  0.934067  0.994959  0.672416  1
  Ga  Ga22  1  0.433880  0.005389  0.825619  1
  Ga  Ga23  1  0.063040  0.495323  0.323878  1
  Ga  Ga24  1  0.433880  0.494611  0.825619  1
  Ga  Ga25  1  0.063040  0.004677  0.323878  1
  Ga  Ga26  1  0.563887  0.995023  0.175701  1
  Ga  Ga27  1  0.934067  0.505041  0.672416  1
  Ga  Ga28  1  0.101763  0.750000  0.033577  1
  Se  Se29  1  0.400033  0.750000  0.527874  1
  Se  Se30  1  0.905472  0.250000  0.974914  1
  Se  Se31  1  0.599118  0.250000  0.471473  1
