# generated using pymatgen
data_ZrMn2(FeP)3
_symmetry_space_group_name_H-M   'P 1'
_cell_length_a   3.59312300
_cell_length_b   10.11974600
_cell_length_c   11.96514800
_cell_angle_alpha   90.00000000
_cell_angle_beta   90.00000000
_cell_angle_gamma   90.00000000
_symmetry_Int_Tables_number   1
_chemical_formula_structural   ZrMn2(FeP)3
_chemical_formula_sum   'Zr4 Mn8 Fe12 P12'
_cell_volume   435.07063456
_cell_formula_units_Z   4
loop_
 _symmetry_equiv_pos_site_id
 _symmetry_equiv_pos_as_xyz
  1  'x, y, z'
loop_
 _atom_site_type_symbol
 _atom_site_label
 _atom_site_symmetry_multiplicity
 _atom_site_fract_x
 _atom_site_fract_y
 _atom_site_fract_z
 _atom_site_occupancy
  Zr  Zr0  1  0.250000  0.579235  0.710349  1
  Zr  Zr1  1  0.250000  0.920765  0.210349  1
  Zr  Zr2  1  0.750000  0.420765  0.289651  1
  Zr  Zr3  1  0.750000  0.079235  0.789651  1
  Mn  Mn4  1  0.250000  0.708551  0.993388  1
  Mn  Mn5  1  0.250000  0.791449  0.493388  1
  Mn  Mn6  1  0.750000  0.291449  0.006612  1
  Mn  Mn7  1  0.750000  0.208551  0.506612  1
  Mn  Mn8  1  0.250000  0.409082  0.489984  1
  Mn  Mn9  1  0.250000  0.090918  0.989984  1
  Mn  Mn10  1  0.750000  0.590918  0.510016  1
  Mn  Mn11  1  0.750000  0.909082  0.010016  1
  Fe  Fe12  1  0.250000  0.223013  0.172959  1
  Fe  Fe13  1  0.250000  0.276987  0.672959  1
  Fe  Fe14  1  0.750000  0.776987  0.827041  1
  Fe  Fe15  1  0.750000  0.723013  0.327041  1
  Fe  Fe16  1  0.250000  0.877808  0.697405  1
  Fe  Fe17  1  0.250000  0.622192  0.197405  1
  Fe  Fe18  1  0.750000  0.122192  0.302595  1
  Fe  Fe19  1  0.750000  0.377808  0.802595  1
  Fe  Fe20  1  0.250000  0.462190  0.933985  1
  Fe  Fe21  1  0.250000  0.037810  0.433985  1
  Fe  Fe22  1  0.750000  0.537810  0.066015  1
  Fe  Fe23  1  0.750000  0.962190  0.566015  1
  P  P24  1  0.250000  0.424130  0.114366  1
  P  P25  1  0.250000  0.075870  0.614366  1
  P  P26  1  0.750000  0.575870  0.885634  1
  P  P27  1  0.750000  0.924130  0.385634  1
  P  P28  1  0.250000  0.264603  0.861319  1
  P  P29  1  0.250000  0.235397  0.361319  1
  P  P30  1  0.750000  0.735397  0.138681  1
  P  P31  1  0.750000  0.764603  0.638681  1
  P  P32  1  0.250000  0.600633  0.380733  1
  P  P33  1  0.250000  0.899367  0.880733  1
  P  P34  1  0.750000  0.399367  0.619267  1
  P  P35  1  0.750000  0.100633  0.119267  1
