# generated using pymatgen
data_Nd2Sm2GeCl6
_symmetry_space_group_name_H-M   'P 1'
_cell_length_a   4.06382000
_cell_length_b   13.22284600
_cell_length_c   13.93753700
_cell_angle_alpha   90.00000000
_cell_angle_beta   90.00000000
_cell_angle_gamma   90.00000000
_symmetry_Int_Tables_number   1
_chemical_formula_structural   Nd2Sm2GeCl6
_chemical_formula_sum   'Nd4 Sm4 Ge2 Cl12'
_cell_volume   748.93725852
_cell_formula_units_Z   2
loop_
 _symmetry_equiv_pos_site_id
 _symmetry_equiv_pos_as_xyz
  1  'x, y, z'
loop_
 _atom_site_type_symbol
 _atom_site_label
 _atom_site_symmetry_multiplicity
 _atom_site_fract_x
 _atom_site_fract_y
 _atom_site_fract_z
 _atom_site_occupancy
  Nd  Nd0  1  0.000000  0.126318  0.584135  1
  Nd  Nd1  1  0.000000  0.873682  0.415865  1
  Nd  Nd2  1  0.000000  0.626318  0.915865  1
  Nd  Nd3  1  0.000000  0.373682  0.084135  1
  Sm  Sm4  1  0.500000  0.121317  0.336205  1
  Sm  Sm5  1  0.500000  0.878683  0.663795  1
  Sm  Sm6  1  0.500000  0.621317  0.163795  1
  Sm  Sm7  1  0.500000  0.378683  0.836205  1
  Ge  Ge8  1  0.500000  0.000000  0.500000  1
  Ge  Ge9  1  0.500000  0.500000  0.000000  1
  Cl  Cl10  1  0.500000  0.241009  0.166068  1
  Cl  Cl11  1  0.500000  0.758991  0.833932  1
  Cl  Cl12  1  0.500000  0.741009  0.333932  1
  Cl  Cl13  1  0.500000  0.258991  0.666068  1
  Cl  Cl14  1  0.000000  0.248823  0.406516  1
  Cl  Cl15  1  0.000000  0.751177  0.593484  1
  Cl  Cl16  1  0.000000  0.748823  0.093484  1
  Cl  Cl17  1  0.000000  0.251177  0.906516  1
  Cl  Cl18  1  0.000000  0.008022  0.247053  1
  Cl  Cl19  1  0.000000  0.991978  0.752947  1
  Cl  Cl20  1  0.000000  0.508022  0.252947  1
  Cl  Cl21  1  0.000000  0.491978  0.747053  1
