# generated using pymatgen
data_La4YbErSi4
_symmetry_space_group_name_H-M   'P 1'
_cell_length_a   7.73744400
_cell_length_b   7.73744400
_cell_length_c   4.51711000
_cell_angle_alpha   90.00000000
_cell_angle_beta   90.00000000
_cell_angle_gamma   90.00000000
_symmetry_Int_Tables_number   1
_chemical_formula_structural   La4YbErSi4
_chemical_formula_sum   'La4 Yb1 Er1 Si4'
_cell_volume   270.43052060
_cell_formula_units_Z   1
loop_
 _symmetry_equiv_pos_site_id
 _symmetry_equiv_pos_as_xyz
  1  'x, y, z'
loop_
 _atom_site_type_symbol
 _atom_site_label
 _atom_site_symmetry_multiplicity
 _atom_site_fract_x
 _atom_site_fract_y
 _atom_site_fract_z
 _atom_site_occupancy
  La  La0  1  0.675351  0.180110  0.500000  1
  La  La1  1  0.324649  0.819890  0.500000  1
  La  La2  1  0.180110  0.324649  0.500000  1
  La  La3  1  0.819890  0.675351  0.500000  1
  Yb  Yb4  1  0.500000  0.500000  0.000000  1
  Er  Er5  1  0.000000  0.000000  0.000000  1
  Si  Si6  1  0.104187  0.618671  0.000000  1
  Si  Si7  1  0.895813  0.381329  0.000000  1
  Si  Si8  1  0.618671  0.895813  0.000000  1
  Si  Si9  1  0.381329  0.104187  0.000000  1
