# generated using pymatgen
data_Sr7Pd16
_symmetry_space_group_name_H-M   'P 1'
_cell_length_a   9.64143486
_cell_length_b   9.64143477
_cell_length_c   9.64143531
_cell_angle_alpha   131.45436137
_cell_angle_beta   131.45437187
_cell_angle_gamma   71.09217730
_symmetry_Int_Tables_number   1
_chemical_formula_structural   Sr7Pd16
_chemical_formula_sum   'Sr7 Pd16'
_cell_volume   492.92220623
_cell_formula_units_Z   1
loop_
 _symmetry_equiv_pos_site_id
 _symmetry_equiv_pos_as_xyz
  1  'x, y, z'
loop_
 _atom_site_type_symbol
 _atom_site_label
 _atom_site_symmetry_multiplicity
 _atom_site_fract_x
 _atom_site_fract_y
 _atom_site_fract_z
 _atom_site_occupancy
  Sr  Sr0  1  0.104020  0.104020  0.424358  1
  Sr  Sr1  1  0.679661  0.679661  0.575642  1
  Sr  Sr2  1  0.895980  0.320339  0.000000  1
  Sr  Sr3  1  0.750000  0.250000  0.500000  1
  Sr  Sr4  1  0.500000  0.500000  0.000000  1
  Sr  Sr5  1  0.320339  0.895980  0.000000  1
  Sr  Sr6  1  0.250000  0.750000  0.500000  1
  Pd  Pd7  1  0.433615  0.190952  0.000000  1
  Pd  Pd8  1  0.683122  0.935132  0.487965  1
  Pd  Pd9  1  0.935132  0.683122  0.487965  1
  Pd  Pd10  1  0.190952  0.433615  0.000000  1
  Pd  Pd11  1  0.316878  0.804842  0.252009  1
  Pd  Pd12  1  0.940114  0.672892  0.000000  1
  Pd  Pd13  1  0.809048  0.809048  0.242664  1
  Pd  Pd14  1  0.064868  0.552832  0.747991  1
  Pd  Pd15  1  0.059886  0.059886  0.732778  1
  Pd  Pd16  1  0.672892  0.940114  0.000000  1
  Pd  Pd17  1  0.566385  0.566385  0.757336  1
  Pd  Pd18  1  0.804842  0.316878  0.252009  1
  Pd  Pd19  1  0.552832  0.064868  0.747991  1
  Pd  Pd20  1  0.195158  0.447168  0.512035  1
  Pd  Pd21  1  0.327108  0.327108  0.267222  1
  Pd  Pd22  1  0.447168  0.195158  0.512035  1
