# generated using pymatgen
data_HoTmHf2(Al3Rh)6
_symmetry_space_group_name_H-M   'P 1'
_cell_length_a   7.50566115
_cell_length_b   7.49151313
_cell_length_c   9.32704800
_cell_angle_alpha   90.00000000
_cell_angle_beta   90.00000000
_cell_angle_gamma   119.67063728
_symmetry_Int_Tables_number   1
_chemical_formula_structural   HoTmHf2(Al3Rh)6
_chemical_formula_sum   'Ho1 Tm1 Hf2 Al18 Rh6'
_cell_volume   455.68545444
_cell_formula_units_Z   1
loop_
 _symmetry_equiv_pos_site_id
 _symmetry_equiv_pos_as_xyz
  1  'x, y, z'
loop_
 _atom_site_type_symbol
 _atom_site_label
 _atom_site_symmetry_multiplicity
 _atom_site_fract_x
 _atom_site_fract_y
 _atom_site_fract_z
 _atom_site_occupancy
  Ho  Ho0  1  0.670702  0.993660  0.250000  1
  Tm  Tm1  1  0.329103  0.006275  0.750000  1
  Hf  Hf2  1  0.995127  0.671777  0.250000  1
  Hf  Hf3  1  0.004997  0.328254  0.750000  1
  Al  Al4  1  0.125497  0.123737  0.250000  1
  Al  Al5  1  0.874962  0.876420  0.750000  1
  Al  Al6  1  0.999275  0.337493  0.075657  1
  Al  Al7  1  0.001066  0.662837  0.923926  1
  Al  Al8  1  0.001066  0.662837  0.576074  1
  Al  Al9  1  0.332142  0.997751  0.421298  1
  Al  Al10  1  0.999275  0.337493  0.424343  1
  Al  Al11  1  0.667518  0.002287  0.579411  1
  Al  Al12  1  0.667518  0.002287  0.920589  1
  Al  Al13  1  0.332142  0.997751  0.078702  1
  Al  Al14  1  0.330834  0.333299  0.556878  1
  Al  Al15  1  0.669205  0.666412  0.443577  1
  Al  Al16  1  0.669205  0.666412  0.056423  1
  Al  Al17  1  0.330834  0.333299  0.943122  1
  Al  Al18  1  0.334153  0.548495  0.250000  1
  Al  Al19  1  0.665461  0.451032  0.750000  1
  Al  Al20  1  0.555738  0.343569  0.250000  1
  Al  Al21  1  0.444057  0.656603  0.750000  1
  Rh  Rh22  1  0.672838  0.327582  0.999214  1
  Rh  Rh23  1  0.326986  0.672381  0.000520  1
  Rh  Rh24  1  0.326986  0.672381  0.499480  1
  Rh  Rh25  1  0.672838  0.327582  0.500786  1
  Rh  Rh26  1  0.000237  0.000047  0.999827  1
  Rh  Rh27  1  0.000237  0.000047  0.500173  1
