# generated using pymatgen
data_Pr2BeSi2Ge
_symmetry_space_group_name_H-M   'P 1'
_cell_length_a   4.22843851
_cell_length_b   4.13939215
_cell_length_c   7.53491422
_cell_angle_alpha   74.05702770
_cell_angle_beta   73.70459407
_cell_angle_gamma   90.00000782
_symmetry_Int_Tables_number   1
_chemical_formula_structural   Pr2BeSi2Ge
_chemical_formula_sum   'Pr2 Be1 Si2 Ge1'
_cell_volume   121.29248240
_cell_formula_units_Z   1
loop_
 _symmetry_equiv_pos_site_id
 _symmetry_equiv_pos_as_xyz
  1  'x, y, z'
loop_
 _atom_site_type_symbol
 _atom_site_label
 _atom_site_symmetry_multiplicity
 _atom_site_fract_x
 _atom_site_fract_y
 _atom_site_fract_z
 _atom_site_occupancy
  Pr  Pr0  1  0.747863  0.247863  0.504274  1
  Pr  Pr1  1  0.001029  0.001029  0.997944  1
  Be  Be2  1  0.332797  0.832797  0.334405  1
  Si  Si3  1  0.172123  0.672123  0.655753  1
  Si  Si4  1  0.585855  0.585855  0.828292  1
  Ge  Ge5  1  0.410333  0.410333  0.179334  1
