# generated using pymatgen
data_Ti9Nb8Si16W3
_symmetry_space_group_name_H-M   'P 1'
_cell_length_a   6.48112605
_cell_length_b   6.57468946
_cell_length_c   12.82744300
_cell_angle_alpha   90.00000000
_cell_angle_beta   90.00000000
_cell_angle_gamma   90.09370858
_symmetry_Int_Tables_number   1
_chemical_formula_structural   Ti9Nb8Si16W3
_chemical_formula_sum   'Ti9 Nb8 Si16 W3'
_cell_volume   546.59446035
_cell_formula_units_Z   1
loop_
 _symmetry_equiv_pos_site_id
 _symmetry_equiv_pos_as_xyz
  1  'x, y, z'
loop_
 _atom_site_type_symbol
 _atom_site_label
 _atom_site_symmetry_multiplicity
 _atom_site_fract_x
 _atom_site_fract_y
 _atom_site_fract_z
 _atom_site_occupancy
  Ti  Ti0  1  0.663806  0.168250  0.625216  1
  Ti  Ti1  1  0.161228  0.331722  0.874968  1
  Ti  Ti2  1  0.337923  0.833091  0.125423  1
  Ti  Ti3  1  0.836443  0.667288  0.374342  1
  Ti  Ti4  1  0.337923  0.833091  0.374577  1
  Ti  Ti5  1  0.836443  0.667288  0.125658  1
  Ti  Ti6  1  0.663806  0.168250  0.874784  1
  Ti  Ti7  1  0.161228  0.331722  0.625032  1
  Ti  Ti8  1  0.837793  0.492926  0.750000  1
  Nb  Nb9  1  0.494892  0.673927  0.588903  1
  Nb  Nb10  1  0.991983  0.826048  0.910329  1
  Nb  Nb11  1  0.505997  0.326471  0.087515  1
  Nb  Nb12  1  0.007597  0.173621  0.411885  1
  Nb  Nb13  1  0.505997  0.326471  0.412485  1
  Nb  Nb14  1  0.007597  0.173621  0.088115  1
  Nb  Nb15  1  0.494892  0.673927  0.911097  1
  Nb  Nb16  1  0.991983  0.826048  0.589671  1
  Si  Si17  1  0.674689  0.962290  0.461711  1
  Si  Si18  1  0.173838  0.538253  0.038632  1
  Si  Si19  1  0.325919  0.037647  0.960454  1
  Si  Si20  1  0.826090  0.462298  0.538379  1
  Si  Si21  1  0.325919  0.037647  0.539546  1
  Si  Si22  1  0.826090  0.462298  0.961621  1
  Si  Si23  1  0.674689  0.962290  0.038289  1
  Si  Si24  1  0.173838  0.538253  0.461368  1
  Si  Si25  1  0.463386  0.390860  0.750000  1
  Si  Si26  1  0.961941  0.109440  0.750000  1
  Si  Si27  1  0.536804  0.606737  0.250000  1
  Si  Si28  1  0.037628  0.892797  0.250000  1
  Si  Si29  1  0.699744  0.851693  0.750000  1
  Si  Si30  1  0.199109  0.646979  0.750000  1
  Si  Si31  1  0.301377  0.150847  0.250000  1
  Si  Si32  1  0.800390  0.349819  0.250000  1
  W  W33  1  0.336982  0.006363  0.750000  1
  W  W34  1  0.161727  0.508028  0.250000  1
  W  W35  1  0.662301  0.991699  0.250000  1
