# generated using pymatgen
data_RbHo6(CBr6)2
_symmetry_space_group_name_H-M   'P 1'
_cell_length_a   8.85740733
_cell_length_b   8.84033215
_cell_length_c   9.36235826
_cell_angle_alpha   72.24252975
_cell_angle_beta   70.90140973
_cell_angle_gamma   72.76072720
_symmetry_Int_Tables_number   1
_chemical_formula_structural   RbHo6(CBr6)2
_chemical_formula_sum   'Rb1 Ho6 C2 Br12'
_cell_volume   643.80766179
_cell_formula_units_Z   1
loop_
 _symmetry_equiv_pos_site_id
 _symmetry_equiv_pos_as_xyz
  1  'x, y, z'
loop_
 _atom_site_type_symbol
 _atom_site_label
 _atom_site_symmetry_multiplicity
 _atom_site_fract_x
 _atom_site_fract_y
 _atom_site_fract_z
 _atom_site_occupancy
  Rb  Rb0  1  0.999994  0.500000  0.999999  1
  Ho  Ho1  1  0.475245  0.115441  0.182726  1
  Ho  Ho2  1  0.776300  0.032140  0.407337  1
  Ho  Ho3  1  0.592583  0.726470  0.476723  1
  Ho  Ho4  1  0.407421  0.273527  0.523279  1
  Ho  Ho5  1  0.223701  0.967861  0.592659  1
  Ho  Ho6  1  0.524755  0.884558  0.817276  1
  C  C7  1  0.493076  0.026185  0.421794  1
  C  C8  1  0.506925  0.973813  0.578205  1
  Br  Br9  1  0.798572  0.158301  0.082643  1
  Br  Br10  1  0.584809  0.784358  0.140232  1
  Br  Br11  1  0.351891  0.432440  0.223304  1
  Br  Br12  1  0.135876  0.069301  0.296428  1
  Br  Br13  1  0.922423  0.721474  0.355377  1
  Br  Br14  1  0.713097  0.364520  0.431435  1
  Br  Br15  1  0.286902  0.635479  0.568566  1
  Br  Br16  1  0.077579  0.278527  0.644623  1
  Br  Br17  1  0.864122  0.930703  0.703569  1
  Br  Br18  1  0.648122  0.567555  0.776703  1
  Br  Br19  1  0.415181  0.215645  0.859766  1
  Br  Br20  1  0.201428  0.841701  0.917357  1
