# generated using pymatgen
data_NpPa5I24
_symmetry_space_group_name_H-M   'P 1'
_cell_length_a   9.21685000
_cell_length_b   9.27778022
_cell_length_c   19.50390101
_cell_angle_alpha   76.73706506
_cell_angle_beta   90.00000000
_cell_angle_gamma   90.00000000
_symmetry_Int_Tables_number   1
_chemical_formula_structural   NpPa5I24
_chemical_formula_sum   'Np1 Pa5 I24'
_cell_volume   1623.33096759
_cell_formula_units_Z   1
loop_
 _symmetry_equiv_pos_site_id
 _symmetry_equiv_pos_as_xyz
  1  'x, y, z'
loop_
 _atom_site_type_symbol
 _atom_site_label
 _atom_site_symmetry_multiplicity
 _atom_site_fract_x
 _atom_site_fract_y
 _atom_site_fract_z
 _atom_site_occupancy
  Np  Np0  1  0.384788  0.000000  0.250000  1
  Pa  Pa1  1  0.879558  0.827873  0.582144  1
  Pa  Pa2  1  0.119665  0.172282  0.415964  1
  Pa  Pa3  1  0.629481  0.000000  0.750000  1
  Pa  Pa4  1  0.879558  0.172127  0.917856  1
  Pa  Pa5  1  0.119665  0.827718  0.084036  1
  I  I6  1  0.107174  0.392662  0.907566  1
  I  I7  1  0.590408  0.756608  0.261576  1
  I  I8  1  0.116518  0.070732  0.578578  1
  I  I9  1  0.351792  0.374657  0.427821  1
  I  I10  1  0.120965  0.773813  0.242545  1
  I  I11  1  0.120965  0.226187  0.257455  1
  I  I12  1  0.116518  0.929268  0.921422  1
  I  I13  1  0.415540  0.233802  0.740528  1
  I  I14  1  0.893872  0.607964  0.090430  1
  I  I15  1  0.877882  0.228374  0.755015  1
  I  I16  1  0.415540  0.766198  0.759472  1
  I  I17  1  0.893872  0.392036  0.409570  1
  I  I18  1  0.590408  0.243392  0.238424  1
  I  I19  1  0.653296  0.077427  0.587470  1
  I  I20  1  0.341351  0.924665  0.414855  1
  I  I21  1  0.877882  0.771626  0.744985  1
  I  I22  1  0.107174  0.607338  0.592434  1
  I  I23  1  0.645952  0.375447  0.928403  1
  I  I24  1  0.341351  0.075335  0.085145  1
  I  I25  1  0.878893  0.067912  0.079733  1
  I  I26  1  0.645952  0.624553  0.571597  1
  I  I27  1  0.653296  0.922573  0.912530  1
  I  I28  1  0.351792  0.625343  0.072179  1
  I  I29  1  0.878893  0.932088  0.420267  1
