# generated using pymatgen
data_Tb2YIn3Ga2Pt
_symmetry_space_group_name_H-M   'P 1'
_cell_length_a   7.27235595
_cell_length_b   7.27235554
_cell_length_c   4.42306200
_cell_angle_alpha   90.00000000
_cell_angle_beta   90.00000000
_cell_angle_gamma   119.91610826
_symmetry_Int_Tables_number   1
_chemical_formula_structural   Tb2YIn3Ga2Pt
_chemical_formula_sum   'Tb2 Y1 In3 Ga2 Pt1'
_cell_volume   202.75445214
_cell_formula_units_Z   1
loop_
 _symmetry_equiv_pos_site_id
 _symmetry_equiv_pos_as_xyz
  1  'x, y, z'
loop_
 _atom_site_type_symbol
 _atom_site_label
 _atom_site_symmetry_multiplicity
 _atom_site_fract_x
 _atom_site_fract_y
 _atom_site_fract_z
 _atom_site_occupancy
  Tb  Tb0  1  0.408778  0.000178  0.500000  1
  Tb  Tb1  1  0.000178  0.408778  0.500000  1
  Y  Y2  1  0.591190  0.591190  0.500000  1
  In  In3  1  0.750717  0.999565  0.000000  1
  In  In4  1  0.249372  0.249372  0.000000  1
  In  In5  1  0.999565  0.750717  0.000000  1
  Ga  Ga6  1  0.666657  0.333541  0.000000  1
  Ga  Ga7  1  0.333541  0.666657  0.000000  1
  Pt  Pt8  1  0.000001  0.000001  0.500000  1
