# generated using pymatgen
data_Ba12SiBi3I8
_symmetry_space_group_name_H-M   'P 1'
_cell_length_a   16.89822617
_cell_length_b   16.12322513
_cell_length_c   8.85012656
_cell_angle_alpha   79.35177848
_cell_angle_beta   69.66998503
_cell_angle_gamma   30.43293793
_symmetry_Int_Tables_number   1
_chemical_formula_structural   Ba12SiBi3I8
_chemical_formula_sum   'Ba12 Si1 Bi3 I8'
_cell_volume   1111.34334277
_cell_formula_units_Z   1
loop_
 _symmetry_equiv_pos_site_id
 _symmetry_equiv_pos_as_xyz
  1  'x, y, z'
loop_
 _atom_site_type_symbol
 _atom_site_label
 _atom_site_symmetry_multiplicity
 _atom_site_fract_x
 _atom_site_fract_y
 _atom_site_fract_z
 _atom_site_occupancy
  Ba  Ba0  1  0.399145  0.927314  0.585369  1
  Ba  Ba1  1  0.572891  0.100065  0.383731  1
  Ba  Ba2  1  0.322853  0.851815  0.161191  1
  Ba  Ba3  1  0.927314  0.399145  0.088173  1
  Ba  Ba4  1  0.474321  0.035507  0.027067  1
  Ba  Ba5  1  0.851815  0.322853  0.664140  1
  Ba  Ba6  1  0.100065  0.572891  0.943315  1
  Ba  Ba7  1  0.645961  0.170289  0.869830  1
  Ba  Ba8  1  0.772033  0.227558  0.229509  1
  Ba  Ba9  1  0.227558  0.772033  0.770900  1
  Ba  Ba10  1  0.170289  0.645961  0.313921  1
  Ba  Ba11  1  0.035507  0.474321  0.463105  1
  Si  Si12  1  0.333441  0.333441  0.166559  1
  Bi  Bi13  1  0.084184  0.084184  0.915816  1
  Bi  Bi14  1  0.916679  0.916679  0.083321  1
  Bi  Bi15  1  0.166004  0.166004  0.333996  1
  I  I16  1  0.671129  0.671129  0.828871  1
  I  I17  1  0.748167  0.748167  0.251833  1
  I  I18  1  0.251267  0.251267  0.748733  1
  I  I19  1  0.580385  0.580385  0.419615  1
  I  I20  1  0.997318  0.997318  0.502682  1
  I  I21  1  0.830361  0.830361  0.669639  1
  I  I22  1  0.419678  0.419678  0.580322  1
  I  I23  1  0.501635  0.501635  0.998365  1
