# generated using pymatgen
data_EuThH6
_symmetry_space_group_name_H-M   'P 1'
_cell_length_a   7.06244300
_cell_length_b   7.14955400
_cell_length_c   7.06244300
_cell_angle_alpha   90.00000000
_cell_angle_beta   90.00000000
_cell_angle_gamma   90.00000000
_symmetry_Int_Tables_number   1
_chemical_formula_structural   EuThH6
_chemical_formula_sum   'Eu4 Th4 H24'
_cell_volume   356.60617743
_cell_formula_units_Z   4
loop_
 _symmetry_equiv_pos_site_id
 _symmetry_equiv_pos_as_xyz
  1  'x, y, z'
loop_
 _atom_site_type_symbol
 _atom_site_label
 _atom_site_symmetry_multiplicity
 _atom_site_fract_x
 _atom_site_fract_y
 _atom_site_fract_z
 _atom_site_occupancy
  Eu  Eu0  1  0.242911  0.000000  0.500000  1
  Eu  Eu1  1  0.757089  0.000000  0.500000  1
  Eu  Eu2  1  0.000000  0.500000  0.257089  1
  Eu  Eu3  1  0.000000  0.500000  0.742911  1
  Th  Th4  1  0.000000  0.000000  0.000000  1
  Th  Th5  1  0.500000  0.500000  0.500000  1
  Th  Th6  1  0.500000  0.750000  0.000000  1
  Th  Th7  1  0.500000  0.250000  0.000000  1
  H  H8  1  0.000000  0.152642  0.291738  1
  H  H9  1  0.500000  0.216923  0.666326  1
  H  H10  1  0.500000  0.783077  0.333674  1
  H  H11  1  0.791738  0.652642  0.500000  1
  H  H12  1  0.208262  0.652642  0.500000  1
  H  H13  1  0.354571  0.500000  0.818609  1
  H  H14  1  0.645429  0.500000  0.818609  1
  H  H15  1  0.318609  0.000000  0.145429  1
  H  H16  1  0.166326  0.283077  0.000000  1
  H  H17  1  0.833674  0.716923  0.000000  1
  H  H18  1  0.318609  0.000000  0.854571  1
  H  H19  1  0.833674  0.283077  0.000000  1
  H  H20  1  0.681391  0.000000  0.145429  1
  H  H21  1  0.681391  0.000000  0.854571  1
  H  H22  1  0.166326  0.716923  0.000000  1
  H  H23  1  0.000000  0.847358  0.708262  1
  H  H24  1  0.000000  0.152642  0.708262  1
  H  H25  1  0.000000  0.847358  0.291738  1
  H  H26  1  0.645429  0.500000  0.181391  1
  H  H27  1  0.354571  0.500000  0.181391  1
  H  H28  1  0.791738  0.347358  0.500000  1
  H  H29  1  0.208262  0.347358  0.500000  1
  H  H30  1  0.500000  0.783077  0.666326  1
  H  H31  1  0.500000  0.216923  0.333674  1
