# generated using pymatgen
data_Ca9Yb(SnGe2)2
_symmetry_space_group_name_H-M   'P 1'
_cell_length_a   9.37730712
_cell_length_b   9.37732170
_cell_length_c   9.37716806
_cell_angle_alpha   130.69820583
_cell_angle_beta   130.69801335
_cell_angle_gamma   72.29355069
_symmetry_Int_Tables_number   1
_chemical_formula_structural   Ca9Yb(SnGe2)2
_chemical_formula_sum   'Ca9 Yb1 Sn2 Ge4'
_cell_volume   463.33323643
_cell_formula_units_Z   1
loop_
 _symmetry_equiv_pos_site_id
 _symmetry_equiv_pos_as_xyz
  1  'x, y, z'
loop_
 _atom_site_type_symbol
 _atom_site_label
 _atom_site_symmetry_multiplicity
 _atom_site_fract_x
 _atom_site_fract_y
 _atom_site_fract_z
 _atom_site_occupancy
  Ca  Ca0  1  0.000000  0.000000  0.000000  1
  Ca  Ca1  1  0.313630  0.813486  0.853234  1
  Ca  Ca2  1  0.813528  0.960225  0.499857  1
  Ca  Ca3  1  0.460368  0.313672  0.500145  1
  Ca  Ca4  1  0.186472  0.039775  0.500143  1
  Ca  Ca5  1  0.539632  0.686328  0.499855  1
  Ca  Ca6  1  0.039747  0.539603  0.853231  1
  Ca  Ca7  1  0.686370  0.186514  0.146766  1
  Ca  Ca8  1  0.960253  0.460397  0.146769  1
  Yb  Yb9  1  0.500000  0.500000  0.000000  1
  Sn  Sn10  1  0.749940  0.749939  0.000000  1
  Sn  Sn11  1  0.250060  0.250061  0.000000  1
  Ge  Ge12  1  0.382186  0.881570  0.263755  1
  Ge  Ge13  1  0.881551  0.617833  0.499382  1
  Ge  Ge14  1  0.118449  0.382167  0.500618  1
  Ge  Ge15  1  0.617814  0.118430  0.736245  1
