# generated using pymatgen
data_KPuF4
_symmetry_space_group_name_H-M   'P 1'
_cell_length_a   4.01768000
_cell_length_b   4.01768000
_cell_length_c   6.30206800
_cell_angle_alpha   90.00000000
_cell_angle_beta   90.00000000
_cell_angle_gamma   90.00000000
_symmetry_Int_Tables_number   1
_chemical_formula_structural   KPuF4
_chemical_formula_sum   'K1 Pu1 F4'
_cell_volume   101.72642241
_cell_formula_units_Z   1
loop_
 _symmetry_equiv_pos_site_id
 _symmetry_equiv_pos_as_xyz
  1  'x, y, z'
loop_
 _atom_site_type_symbol
 _atom_site_label
 _atom_site_symmetry_multiplicity
 _atom_site_fract_x
 _atom_site_fract_y
 _atom_site_fract_z
 _atom_site_occupancy
  K  K0  1  0.000000  0.000000  0.000000  1
  Pu  Pu1  1  0.500000  0.500000  0.500000  1
  F  F2  1  0.500000  0.000000  0.712085  1
  F  F3  1  0.000000  0.500000  0.287915  1
  F  F4  1  0.500000  0.000000  0.287915  1
  F  F5  1  0.000000  0.500000  0.712085  1
