# generated using pymatgen
data_Lu8TaB24Ir2Ru
_symmetry_space_group_name_H-M   'P 1'
_cell_length_a   3.58932700
_cell_length_b   9.09901274
_cell_length_c   11.47264416
_cell_angle_alpha   89.80282372
_cell_angle_beta   90.00000000
_cell_angle_gamma   90.00000000
_symmetry_Int_Tables_number   1
_chemical_formula_structural   Lu8TaB24Ir2Ru
_chemical_formula_sum   'Lu8 Ta1 B24 Ir2 Ru1'
_cell_volume   374.68667669
_cell_formula_units_Z   1
loop_
 _symmetry_equiv_pos_site_id
 _symmetry_equiv_pos_as_xyz
  1  'x, y, z'
loop_
 _atom_site_type_symbol
 _atom_site_label
 _atom_site_symmetry_multiplicity
 _atom_site_fract_x
 _atom_site_fract_y
 _atom_site_fract_z
 _atom_site_occupancy
  Lu  Lu0  1  0.000000  0.320499  0.413562  1
  Lu  Lu1  1  0.000000  0.682488  0.586300  1
  Lu  Lu2  1  0.000000  0.817039  0.086639  1
  Lu  Lu3  1  0.000000  0.177238  0.914382  1
  Lu  Lu4  1  0.000000  0.946735  0.375788  1
  Lu  Lu5  1  0.000000  0.055475  0.628828  1
  Lu  Lu6  1  0.000000  0.443971  0.123404  1
  Lu  Lu7  1  0.000000  0.558224  0.872049  1
  Ta  Ta8  1  0.000000  0.637588  0.321181  1
  B  B9  1  0.500000  0.548735  0.439033  1
  B  B10  1  0.500000  0.446661  0.567695  1
  B  B11  1  0.500000  0.052341  0.065429  1
  B  B12  1  0.500000  0.946056  0.933829  1
  B  B13  1  0.500000  0.753493  0.424590  1
  B  B14  1  0.500000  0.250585  0.579844  1
  B  B15  1  0.500000  0.249641  0.077638  1
  B  B16  1  0.500000  0.749922  0.919292  1
  B  B17  1  0.500000  0.798062  0.262370  1
  B  B18  1  0.500000  0.206984  0.735973  1
  B  B19  1  0.500000  0.291531  0.232881  1
  B  B20  1  0.500000  0.708880  0.765231  1
  B  B21  1  0.500000  0.631224  0.180074  1
  B  B22  1  0.500000  0.367902  0.817109  1
  B  B23  1  0.500000  0.131871  0.315958  1
  B  B24  1  0.500000  0.870298  0.684715  1
  B  B25  1  0.500000  0.981402  0.212641  1
  B  B26  1  0.500000  0.018624  0.787954  1
  B  B27  1  0.500000  0.473360  0.285498  1
  B  B28  1  0.500000  0.518523  0.713161  1
  B  B29  1  0.500000  0.605737  0.026313  1
  B  B30  1  0.500000  0.392187  0.968993  1
  B  B31  1  0.500000  0.108573  0.471626  1
  B  B32  1  0.500000  0.897477  0.531402  1
  Ir  Ir33  1  0.000000  0.360289  0.680839  1
  Ir  Ir34  1  0.000000  0.137698  0.177084  1
  Ru  Ru35  1  0.000000  0.862690  0.820697  1
