# generated using pymatgen
data_Eu10CuHg2Ir3
_symmetry_space_group_name_H-M   'P 1'
_cell_length_a   9.25734500
_cell_length_b   9.25734361
_cell_length_c   9.30193600
_cell_angle_alpha   128.34740249
_cell_angle_beta   128.34739568
_cell_angle_gamma   75.70980400
_symmetry_Int_Tables_number   1
_chemical_formula_structural   Eu10CuHg2Ir3
_chemical_formula_sum   'Eu10 Cu1 Hg2 Ir3'
_cell_volume   477.79091078
_cell_formula_units_Z   1
loop_
 _symmetry_equiv_pos_site_id
 _symmetry_equiv_pos_as_xyz
  1  'x, y, z'
loop_
 _atom_site_type_symbol
 _atom_site_label
 _atom_site_symmetry_multiplicity
 _atom_site_fract_x
 _atom_site_fract_y
 _atom_site_fract_z
 _atom_site_occupancy
  Eu  Eu0  1  0.502773  0.505769  0.008542  1
  Eu  Eu1  1  0.994231  0.997227  0.991458  1
  Eu  Eu2  1  0.539782  0.031588  0.837182  1
  Eu  Eu3  1  0.202601  0.694407  0.162818  1
  Eu  Eu4  1  0.026851  0.213311  0.500000  1
  Eu  Eu5  1  0.705062  0.537143  0.500000  1
  Eu  Eu6  1  0.468412  0.960218  0.162818  1
  Eu  Eu7  1  0.805593  0.297399  0.837182  1
  Eu  Eu8  1  0.962857  0.794938  0.500000  1
  Eu  Eu9  1  0.286689  0.473149  0.500000  1
  Cu  Cu10  1  0.381321  0.118679  0.500000  1
  Hg  Hg11  1  0.251956  0.248044  0.000000  1
  Hg  Hg12  1  0.751956  0.748044  0.000000  1
  Ir  Ir13  1  0.135397  0.635658  0.771056  1
  Ir  Ir14  1  0.864342  0.364603  0.228944  1
  Ir  Ir15  1  0.620177  0.879823  0.500000  1
