# generated using pymatgen
data_NdHo(Si2Rh3)2
_symmetry_space_group_name_H-M   'P 1'
_cell_length_a   6.65831379
_cell_length_b   6.65831471
_cell_length_c   6.65831425
_cell_angle_alpha   130.39892881
_cell_angle_beta   114.32999048
_cell_angle_gamma   86.55461912
_symmetry_Int_Tables_number   1
_chemical_formula_structural   NdHo(Si2Rh3)2
_chemical_formula_sum   'Nd1 Ho1 Si4 Rh6'
_cell_volume   195.51435970
_cell_formula_units_Z   1
loop_
 _symmetry_equiv_pos_site_id
 _symmetry_equiv_pos_as_xyz
  1  'x, y, z'
loop_
 _atom_site_type_symbol
 _atom_site_label
 _atom_site_symmetry_multiplicity
 _atom_site_fract_x
 _atom_site_fract_y
 _atom_site_fract_z
 _atom_site_occupancy
  Nd  Nd0  1  0.250000  0.964984  0.714984  1
  Ho  Ho1  1  0.750000  0.046265  0.296265  1
  Si  Si2  1  0.579396  0.383748  0.804353  1
  Si  Si3  1  0.422131  0.619128  0.196997  1
  Si  Si4  1  0.077869  0.274865  0.196997  1
  Si  Si5  1  0.920604  0.724957  0.804353  1
  Rh  Rh6  1  0.212678  0.493764  0.711648  1
  Rh  Rh7  1  0.717884  0.998970  0.711648  1
  Rh  Rh8  1  0.782116  0.493764  0.281087  1
  Rh  Rh9  1  0.287322  0.998970  0.281087  1
  Rh  Rh10  1  0.502099  0.500291  0.502390  1
  Rh  Rh11  1  0.997901  0.500291  0.998192  1
