# generated using pymatgen
data_Ca3Nd17(InGa3)3
_symmetry_space_group_name_H-M   'P 1'
_cell_length_a   7.95663000
_cell_length_b   7.95663000
_cell_length_c   14.82416900
_cell_angle_alpha   90.00000000
_cell_angle_beta   90.00000000
_cell_angle_gamma   90.00000000
_symmetry_Int_Tables_number   1
_chemical_formula_structural   Ca3Nd17(InGa3)3
_chemical_formula_sum   'Ca3 Nd17 In3 Ga9'
_cell_volume   938.48791227
_cell_formula_units_Z   1
loop_
 _symmetry_equiv_pos_site_id
 _symmetry_equiv_pos_as_xyz
  1  'x, y, z'
loop_
 _atom_site_type_symbol
 _atom_site_label
 _atom_site_symmetry_multiplicity
 _atom_site_fract_x
 _atom_site_fract_y
 _atom_site_fract_z
 _atom_site_occupancy
  Ca  Ca0  1  0.000000  0.000000  0.249096  1
  Ca  Ca1  1  0.000000  0.000000  0.746138  1
  Ca  Ca2  1  0.500000  0.500000  0.243143  1
  Nd  Nd3  1  0.674647  0.167164  0.102788  1
  Nd  Nd4  1  0.174082  0.668077  0.606791  1
  Nd  Nd5  1  0.325353  0.832836  0.102788  1
  Nd  Nd6  1  0.825918  0.331923  0.606791  1
  Nd  Nd7  1  0.832836  0.674647  0.102788  1
  Nd  Nd8  1  0.331923  0.174082  0.606791  1
  Nd  Nd9  1  0.167164  0.325353  0.102788  1
  Nd  Nd10  1  0.668077  0.825918  0.606791  1
  Nd  Nd11  1  0.839222  0.321760  0.897747  1
  Nd  Nd12  1  0.329717  0.828861  0.391691  1
  Nd  Nd13  1  0.160778  0.678240  0.897747  1
  Nd  Nd14  1  0.670283  0.171139  0.391691  1
  Nd  Nd15  1  0.678240  0.839222  0.897747  1
  Nd  Nd16  1  0.171139  0.329717  0.391691  1
  Nd  Nd17  1  0.321760  0.160778  0.897747  1
  Nd  Nd18  1  0.828861  0.670283  0.391691  1
  Nd  Nd19  1  0.500000  0.500000  0.773497  1
  In  In20  1  0.500000  0.500000  0.497826  1
  In  In21  1  0.500000  0.500000  0.999951  1
  In  In22  1  0.000000  0.000000  0.499831  1
  Ga  Ga23  1  0.616539  0.120340  0.750805  1
  Ga  Ga24  1  0.118324  0.617947  0.247517  1
  Ga  Ga25  1  0.881676  0.382053  0.247517  1
  Ga  Ga26  1  0.383461  0.879660  0.750805  1
  Ga  Ga27  1  0.879660  0.616539  0.750805  1
  Ga  Ga28  1  0.382053  0.118324  0.247517  1
  Ga  Ga29  1  0.120340  0.383461  0.750805  1
  Ga  Ga30  1  0.617947  0.881676  0.247517  1
  Ga  Ga31  1  0.000000  0.000000  0.001157  1
