# generated using pymatgen
data_Tm10Sn6Se
_symmetry_space_group_name_H-M   'P 1'
_cell_length_a   8.93510000
_cell_length_b   8.93510259
_cell_length_c   6.49658600
_cell_angle_alpha   90.00000000
_cell_angle_beta   90.00000000
_cell_angle_gamma   119.99999781
_symmetry_Int_Tables_number   1
_chemical_formula_structural   Tm10Sn6Se
_chemical_formula_sum   'Tm10 Sn6 Se1'
_cell_volume   449.17419065
_cell_formula_units_Z   1
loop_
 _symmetry_equiv_pos_site_id
 _symmetry_equiv_pos_as_xyz
  1  'x, y, z'
loop_
 _atom_site_type_symbol
 _atom_site_label
 _atom_site_symmetry_multiplicity
 _atom_site_fract_x
 _atom_site_fract_y
 _atom_site_fract_z
 _atom_site_occupancy
  Tm  Tm0  1  0.666667  0.333333  0.500000  1
  Tm  Tm1  1  0.333333  0.666667  0.500000  1
  Tm  Tm2  1  0.333333  0.666667  0.000000  1
  Tm  Tm3  1  0.666667  0.333333  0.000000  1
  Tm  Tm4  1  0.750639  0.750639  0.241064  1
  Tm  Tm5  1  0.249361  0.000000  0.241064  1
  Tm  Tm6  1  0.000000  0.249361  0.241064  1
  Tm  Tm7  1  0.249361  0.249361  0.758936  1
  Tm  Tm8  1  0.750639  0.000000  0.758936  1
  Tm  Tm9  1  0.000000  0.750639  0.758936  1
  Sn  Sn10  1  0.394510  0.394510  0.249510  1
  Sn  Sn11  1  0.605490  0.000000  0.249510  1
  Sn  Sn12  1  0.000000  0.605490  0.249510  1
  Sn  Sn13  1  0.605490  0.605490  0.750490  1
  Sn  Sn14  1  0.394510  0.000000  0.750490  1
  Sn  Sn15  1  0.000000  0.394510  0.750490  1
  Se  Se16  1  0.000000  0.000000  0.500000  1
