# generated using pymatgen
data_SmTm2AuO7
_symmetry_space_group_name_H-M   'P 1'
_cell_length_a   6.42150713
_cell_length_b   6.42150863
_cell_length_c   7.45045900
_cell_angle_alpha   90.00000000
_cell_angle_beta   90.00000000
_cell_angle_gamma   108.56762816
_symmetry_Int_Tables_number   1
_chemical_formula_structural   SmTm2AuO7
_chemical_formula_sum   'Sm2 Tm4 Au2 O14'
_cell_volume   291.23381454
_cell_formula_units_Z   2
loop_
 _symmetry_equiv_pos_site_id
 _symmetry_equiv_pos_as_xyz
  1  'x, y, z'
loop_
 _atom_site_type_symbol
 _atom_site_label
 _atom_site_symmetry_multiplicity
 _atom_site_fract_x
 _atom_site_fract_y
 _atom_site_fract_z
 _atom_site_occupancy
  Sm  Sm0  1  0.000000  0.000000  0.500000  1
  Sm  Sm1  1  0.000000  0.000000  0.000000  1
  Tm  Tm2  1  0.489776  0.946825  0.750000  1
  Tm  Tm3  1  0.510224  0.053175  0.250000  1
  Tm  Tm4  1  0.946825  0.489776  0.750000  1
  Tm  Tm5  1  0.053175  0.510224  0.250000  1
  Au  Au6  1  0.500000  0.500000  0.500000  1
  Au  Au7  1  0.500000  0.500000  0.000000  1
  O  O8  1  0.606683  0.606683  0.750000  1
  O  O9  1  0.393317  0.393317  0.250000  1
  O  O10  1  0.841301  0.126094  0.750000  1
  O  O11  1  0.158699  0.873906  0.250000  1
  O  O12  1  0.126094  0.841301  0.750000  1
  O  O13  1  0.873906  0.158699  0.250000  1
  O  O14  1  0.432098  0.169350  0.969793  1
  O  O15  1  0.567902  0.830650  0.469793  1
  O  O16  1  0.169350  0.432098  0.969793  1
  O  O17  1  0.830650  0.567902  0.469793  1
  O  O18  1  0.432098  0.169350  0.530207  1
  O  O19  1  0.567902  0.830650  0.030207  1
  O  O20  1  0.830650  0.567902  0.030207  1
  O  O21  1  0.169350  0.432098  0.530207  1
