# generated using pymatgen
data_Mg3Os2
_symmetry_space_group_name_H-M   'P 1'
_cell_length_a   6.96599800
_cell_length_b   6.96599800
_cell_length_c   6.96599800
_cell_angle_alpha   90.00000000
_cell_angle_beta   90.00000000
_cell_angle_gamma   90.00000000
_symmetry_Int_Tables_number   1
_chemical_formula_structural   Mg3Os2
_chemical_formula_sum   'Mg12 Os8'
_cell_volume   338.02594555
_cell_formula_units_Z   4
loop_
 _symmetry_equiv_pos_site_id
 _symmetry_equiv_pos_as_xyz
  1  'x, y, z'
loop_
 _atom_site_type_symbol
 _atom_site_label
 _atom_site_symmetry_multiplicity
 _atom_site_fract_x
 _atom_site_fract_y
 _atom_site_fract_z
 _atom_site_occupancy
  Mg  Mg0  1  0.625000  0.293222  0.543222  1
  Mg  Mg1  1  0.706778  0.043222  0.875000  1
  Mg  Mg2  1  0.543222  0.625000  0.293222  1
  Mg  Mg3  1  0.956778  0.375000  0.793222  1
  Mg  Mg4  1  0.293222  0.543222  0.625000  1
  Mg  Mg5  1  0.456778  0.125000  0.206778  1
  Mg  Mg6  1  0.043222  0.875000  0.706778  1
  Mg  Mg7  1  0.793222  0.956778  0.375000  1
  Mg  Mg8  1  0.125000  0.206778  0.456778  1
  Mg  Mg9  1  0.375000  0.793222  0.956778  1
  Mg  Mg10  1  0.875000  0.706778  0.043222  1
  Mg  Mg11  1  0.206778  0.456778  0.125000  1
  Os  Os12  1  0.674728  0.674728  0.674728  1
  Os  Os13  1  0.924728  0.575272  0.424728  1
  Os  Os14  1  0.575272  0.424728  0.924728  1
  Os  Os15  1  0.424728  0.924728  0.575272  1
  Os  Os16  1  0.174728  0.825272  0.325272  1
  Os  Os17  1  0.825272  0.325272  0.174728  1
  Os  Os18  1  0.325272  0.174728  0.825272  1
  Os  Os19  1  0.075272  0.075272  0.075272  1
