# generated using pymatgen
data_Sc3Ti2SnSb2
_symmetry_space_group_name_H-M   'P 1'
_cell_length_a   8.31128970
_cell_length_b   8.32049608
_cell_length_c   5.66340000
_cell_angle_alpha   90.00000000
_cell_angle_beta   90.00000000
_cell_angle_gamma   120.03664675
_symmetry_Int_Tables_number   1
_chemical_formula_structural   Sc3Ti2SnSb2
_chemical_formula_sum   'Sc6 Ti4 Sn2 Sb4'
_cell_volume   339.05098897
_cell_formula_units_Z   2
loop_
 _symmetry_equiv_pos_site_id
 _symmetry_equiv_pos_as_xyz
  1  'x, y, z'
loop_
 _atom_site_type_symbol
 _atom_site_label
 _atom_site_symmetry_multiplicity
 _atom_site_fract_x
 _atom_site_fract_y
 _atom_site_fract_z
 _atom_site_occupancy
  Sc  Sc0  1  0.241859  0.001397  0.250000  1
  Sc  Sc1  1  0.241859  0.240462  0.750000  1
  Sc  Sc2  1  0.999677  0.755955  0.750000  1
  Sc  Sc3  1  0.999677  0.243722  0.250000  1
  Sc  Sc4  1  0.756380  0.757927  0.250000  1
  Sc  Sc5  1  0.756380  0.998453  0.750000  1
  Ti  Ti6  1  0.332819  0.666410  0.000000  1
  Ti  Ti7  1  0.668669  0.334334  0.500000  1
  Ti  Ti8  1  0.668669  0.334334  0.000000  1
  Ti  Ti9  1  0.332819  0.666410  0.500000  1
  Sn  Sn10  1  0.397346  0.397555  0.250000  1
  Sn  Sn11  1  0.397346  0.999791  0.750000  1
  Sb  Sb12  1  0.602641  0.999971  0.250000  1
  Sb  Sb13  1  0.602641  0.602669  0.750000  1
  Sb  Sb14  1  0.000609  0.394103  0.750000  1
  Sb  Sb15  1  0.000609  0.606506  0.250000  1
