# generated using pymatgen
data_YbPr3HoRu2
_symmetry_space_group_name_H-M   'P 1'
_cell_length_a   6.59503788
_cell_length_b   7.32175040
_cell_length_c   8.78930271
_cell_angle_alpha   95.87258301
_cell_angle_beta   112.03509104
_cell_angle_gamma   89.99999657
_symmetry_Int_Tables_number   1
_chemical_formula_structural   YbPr3HoRu2
_chemical_formula_sum   'Yb2 Pr6 Ho2 Ru4'
_cell_volume   391.00567200
_cell_formula_units_Z   2
loop_
 _symmetry_equiv_pos_site_id
 _symmetry_equiv_pos_as_xyz
  1  'x, y, z'
loop_
 _atom_site_type_symbol
 _atom_site_label
 _atom_site_symmetry_multiplicity
 _atom_site_fract_x
 _atom_site_fract_y
 _atom_site_fract_z
 _atom_site_occupancy
  Yb  Yb0  1  0.979933  0.915824  0.180102  1
  Yb  Yb1  1  0.799831  0.584176  0.819898  1
  Pr  Pr2  1  0.020778  0.083368  0.818548  1
  Pr  Pr3  1  0.202230  0.416632  0.181452  1
  Pr  Pr4  1  0.638481  0.811890  0.429590  1
  Pr  Pr5  1  0.208891  0.688110  0.570410  1
  Pr  Pr6  1  0.363053  0.187460  0.570502  1
  Pr  Pr7  1  0.792551  0.312540  0.429498  1
  Ho  Ho8  1  0.436819  0.750000  0.000000  1
  Ho  Ho9  1  0.569410  0.250000  0.000000  1
  Ru  Ru10  1  0.812629  0.568060  0.219335  1
  Ru  Ru11  1  0.593293  0.931940  0.780665  1
  Ru  Ru12  1  0.185313  0.428261  0.788525  1
  Ru  Ru13  1  0.396789  0.071739  0.211475  1
