# generated using pymatgen
data_Ho12Al3Si5Rh8
_symmetry_space_group_name_H-M   'P 1'
_cell_length_a   5.53531600
_cell_length_b   7.87977663
_cell_length_c   13.18681202
_cell_angle_alpha   90.22542732
_cell_angle_beta   90.00000000
_cell_angle_gamma   90.00000000
_symmetry_Int_Tables_number   1
_chemical_formula_structural   Ho12Al3Si5Rh8
_chemical_formula_sum   'Ho12 Al3 Si5 Rh8'
_cell_volume   575.16543534
_cell_formula_units_Z   1
loop_
 _symmetry_equiv_pos_site_id
 _symmetry_equiv_pos_as_xyz
  1  'x, y, z'
loop_
 _atom_site_type_symbol
 _atom_site_label
 _atom_site_symmetry_multiplicity
 _atom_site_fract_x
 _atom_site_fract_y
 _atom_site_fract_z
 _atom_site_occupancy
  Ho  Ho0  1  0.144559  0.603398  0.103629  1
  Ho  Ho1  1  0.144559  0.896602  0.896371  1
  Ho  Ho2  1  0.858760  0.106513  0.397908  1
  Ho  Ho3  1  0.858760  0.393487  0.602092  1
  Ho  Ho4  1  0.856329  0.397892  0.896407  1
  Ho  Ho5  1  0.856329  0.102108  0.103593  1
  Ho  Ho6  1  0.142843  0.897529  0.603065  1
  Ho  Ho7  1  0.142843  0.602471  0.396935  1
  Ho  Ho8  1  0.367987  0.245512  0.251775  1
  Ho  Ho9  1  0.367987  0.254488  0.748225  1
  Ho  Ho10  1  0.632987  0.744844  0.251308  1
  Ho  Ho11  1  0.632987  0.755156  0.748692  1
  Al  Al12  1  0.373888  0.250000  0.000000  1
  Al  Al13  1  0.623354  0.750000  0.500000  1
  Al  Al14  1  0.625932  0.750000  0.000000  1
  Si  Si15  1  0.864488  0.391249  0.250548  1
  Si  Si16  1  0.864488  0.108751  0.749452  1
  Si  Si17  1  0.137655  0.890200  0.252255  1
  Si  Si18  1  0.137655  0.609800  0.747745  1
  Si  Si19  1  0.379064  0.250000  0.500000  1
  Rh  Rh20  1  0.640896  0.470267  0.094573  1
  Rh  Rh21  1  0.640896  0.029733  0.905427  1
  Rh  Rh22  1  0.360245  0.977633  0.407361  1
  Rh  Rh23  1  0.360245  0.522367  0.592639  1
  Rh  Rh24  1  0.356531  0.529053  0.905461  1
  Rh  Rh25  1  0.356531  0.970947  0.094539  1
  Rh  Rh26  1  0.635600  0.033801  0.593356  1
  Rh  Rh27  1  0.635600  0.466199  0.406644  1
