# generated using pymatgen
data_Y3ErAl18(CoPd2)2
_symmetry_space_group_name_H-M   'P 1'
_cell_length_a   7.55224604
_cell_length_b   7.55166629
_cell_length_c   9.41914410
_cell_angle_alpha   89.99495061
_cell_angle_beta   89.98895385
_cell_angle_gamma   119.33555223
_symmetry_Int_Tables_number   1
_chemical_formula_structural   Y3ErAl18(CoPd2)2
_chemical_formula_sum   'Y3 Er1 Al18 Co2 Pd4'
_cell_volume   468.30629093
_cell_formula_units_Z   1
loop_
 _symmetry_equiv_pos_site_id
 _symmetry_equiv_pos_as_xyz
  1  'x, y, z'
loop_
 _atom_site_type_symbol
 _atom_site_label
 _atom_site_symmetry_multiplicity
 _atom_site_fract_x
 _atom_site_fract_y
 _atom_site_fract_z
 _atom_site_occupancy
  Y  Y0  1  0.005863  0.327254  0.750135  1
  Y  Y1  1  0.672991  0.993969  0.249866  1
  Y  Y2  1  0.327112  0.005779  0.749868  1
  Er  Er3  1  0.994034  0.672765  0.250268  1
  Al  Al4  1  0.135259  0.134826  0.249989  1
  Al  Al5  1  0.864362  0.864267  0.749991  1
  Al  Al6  1  0.340213  0.333634  0.551329  1
  Al  Al7  1  0.660289  0.666358  0.052054  1
  Al  Al8  1  0.333607  0.340207  0.948662  1
  Al  Al9  1  0.666898  0.659850  0.447902  1
  Al  Al10  1  0.339521  0.553489  0.242806  1
  Al  Al11  1  0.660127  0.446993  0.742704  1
  Al  Al12  1  0.554075  0.340513  0.257195  1
  Al  Al13  1  0.446945  0.660084  0.757259  1
  Al  Al14  1  0.008186  0.345012  0.074502  1
  Al  Al15  1  0.991772  0.655615  0.573245  1
  Al  Al16  1  0.343925  0.007715  0.425547  1
  Al  Al17  1  0.655488  0.991736  0.926202  1
  Al  Al18  1  0.010455  0.664477  0.926114  1
  Al  Al19  1  0.989535  0.336170  0.424829  1
  Al  Al20  1  0.664448  0.010538  0.574424  1
  Al  Al21  1  0.334981  0.988916  0.075146  1
  Co  Co22  1  0.329666  0.670147  0.000073  1
  Co  Co23  1  0.670303  0.329951  0.499916  1
  Pd  Pd24  1  0.000263  0.999590  0.000067  1
  Pd  Pd25  1  0.999719  0.000127  0.499934  1
  Pd  Pd26  1  0.672128  0.327949  0.000009  1
  Pd  Pd27  1  0.327837  0.672070  0.499965  1
