# generated using pymatgen
data_Dy4CdPd11
_symmetry_space_group_name_H-M   'P 1'
_cell_length_a   4.20039600
_cell_length_b   5.82327579
_cell_length_c   11.67188400
_cell_angle_alpha   88.14436616
_cell_angle_beta   90.00000000
_cell_angle_gamma   90.00000000
_symmetry_Int_Tables_number   1
_chemical_formula_structural   Dy4CdPd11
_chemical_formula_sum   'Dy4 Cd1 Pd11'
_cell_volume   285.34531681
_cell_formula_units_Z   1
loop_
 _symmetry_equiv_pos_site_id
 _symmetry_equiv_pos_as_xyz
  1  'x, y, z'
loop_
 _atom_site_type_symbol
 _atom_site_label
 _atom_site_symmetry_multiplicity
 _atom_site_fract_x
 _atom_site_fract_y
 _atom_site_fract_z
 _atom_site_occupancy
  Dy  Dy0  1  0.500000  0.756170  0.376698  1
  Dy  Dy1  1  0.500000  0.720335  0.862199  1
  Dy  Dy2  1  0.500000  0.279665  0.137801  1
  Dy  Dy3  1  0.500000  0.243830  0.623302  1
  Cd  Cd4  1  0.000000  0.000000  0.000000  1
  Pd  Pd5  1  0.000000  0.014036  0.250010  1
  Pd  Pd6  1  0.000000  0.985964  0.749990  1
  Pd  Pd7  1  0.000000  0.500000  0.000000  1
  Pd  Pd8  1  0.000000  0.500000  0.500000  1
  Pd  Pd9  1  0.000000  0.516646  0.250155  1
  Pd  Pd10  1  0.000000  0.483354  0.749845  1
  Pd  Pd11  1  0.500000  0.255635  0.376908  1
  Pd  Pd12  1  0.500000  0.231051  0.879393  1
  Pd  Pd13  1  0.500000  0.768949  0.120607  1
  Pd  Pd14  1  0.500000  0.744365  0.623092  1
  Pd  Pd15  1  0.000000  0.000000  0.500000  1
