# generated using pymatgen
data_Pr4Nd4Ga3Tc
_symmetry_space_group_name_H-M   'P 1'
_cell_length_a   10.54590300
_cell_length_b   10.54592937
_cell_length_c   7.14707100
_cell_angle_alpha   90.00000000
_cell_angle_beta   90.00000000
_cell_angle_gamma   119.99870410
_symmetry_Int_Tables_number   1
_chemical_formula_structural   Pr4Nd4Ga3Tc
_chemical_formula_sum   'Pr8 Nd8 Ga6 Tc2'
_cell_volume   688.38758600
_cell_formula_units_Z   2
loop_
 _symmetry_equiv_pos_site_id
 _symmetry_equiv_pos_as_xyz
  1  'x, y, z'
loop_
 _atom_site_type_symbol
 _atom_site_label
 _atom_site_symmetry_multiplicity
 _atom_site_fract_x
 _atom_site_fract_y
 _atom_site_fract_z
 _atom_site_occupancy
  Pr  Pr0  1  0.464076  0.535919  0.296501  1
  Pr  Pr1  1  0.928158  0.464081  0.796500  1
  Pr  Pr2  1  0.535919  0.071838  0.796499  1
  Pr  Pr3  1  0.464081  0.928162  0.296499  1
  Pr  Pr4  1  0.071842  0.535919  0.296500  1
  Pr  Pr5  1  0.535924  0.464081  0.796501  1
  Pr  Pr6  1  0.000001  0.999999  0.272803  1
  Pr  Pr7  1  0.999999  0.000001  0.772803  1
  Nd  Nd8  1  0.169068  0.830936  0.989527  1
  Nd  Nd9  1  0.338131  0.169064  0.489526  1
  Nd  Nd10  1  0.830936  0.661870  0.489527  1
  Nd  Nd11  1  0.169064  0.338130  0.989527  1
  Nd  Nd12  1  0.661869  0.830936  0.989526  1
  Nd  Nd13  1  0.830932  0.169064  0.489527  1
  Nd  Nd14  1  0.333336  0.666665  0.666877  1
  Nd  Nd15  1  0.666664  0.333335  0.166877  1
  Ga  Ga16  1  0.165075  0.834925  0.538553  1
  Ga  Ga17  1  0.330146  0.165072  0.038556  1
  Ga  Ga18  1  0.834923  0.669848  0.038555  1
  Ga  Ga19  1  0.165077  0.330152  0.538555  1
  Ga  Ga20  1  0.669854  0.834928  0.538556  1
  Ga  Ga21  1  0.834925  0.165075  0.038553  1
  Tc  Tc22  1  0.333335  0.666665  0.049576  1
  Tc  Tc23  1  0.666665  0.333335  0.549576  1
