# generated using pymatgen
data_Dy3Er5Os3WC8
_symmetry_space_group_name_H-M   'P 1'
_cell_length_a   5.08701600
_cell_length_b   6.52681235
_cell_length_c   9.77870587
_cell_angle_alpha   89.59076942
_cell_angle_beta   90.00000000
_cell_angle_gamma   90.00000000
_symmetry_Int_Tables_number   1
_chemical_formula_structural   Dy3Er5Os3WC8
_chemical_formula_sum   'Dy3 Er5 Os3 W1 C8'
_cell_volume   324.66429983
_cell_formula_units_Z   1
loop_
 _symmetry_equiv_pos_site_id
 _symmetry_equiv_pos_as_xyz
  1  'x, y, z'
loop_
 _atom_site_type_symbol
 _atom_site_label
 _atom_site_symmetry_multiplicity
 _atom_site_fract_x
 _atom_site_fract_y
 _atom_site_fract_z
 _atom_site_occupancy
  Dy  Dy0  1  0.750000  0.467095  0.781221  1
  Dy  Dy1  1  0.750000  0.970754  0.715802  1
  Dy  Dy2  1  0.250000  0.029586  0.285450  1
  Er  Er3  1  0.250000  0.678546  0.554427  1
  Er  Er4  1  0.750000  0.323122  0.444074  1
  Er  Er5  1  0.750000  0.823989  0.055972  1
  Er  Er6  1  0.250000  0.179976  0.943957  1
  Er  Er7  1  0.250000  0.531274  0.213800  1
  Os  Os8  1  0.750000  0.279043  0.135238  1
  Os  Os9  1  0.750000  0.777026  0.364135  1
  Os  Os10  1  0.250000  0.224261  0.631945  1
  W  W11  1  0.250000  0.721101  0.868051  1
  C  C12  1  0.250000  0.453283  0.759553  1
  C  C13  1  0.750000  0.542748  0.241798  1
  C  C14  1  0.750000  0.043744  0.259244  1
  C  C15  1  0.250000  0.958229  0.739738  1
  C  C16  1  0.250000  0.824660  0.058203  1
  C  C17  1  0.750000  0.173139  0.950170  1
  C  C18  1  0.750000  0.671902  0.550768  1
  C  C19  1  0.250000  0.326519  0.446453  1
