# generated using pymatgen
data_Dy16MgIn(HgIr2)2
_symmetry_space_group_name_H-M   'P 1'
_cell_length_a   9.64132375
_cell_length_b   9.63475947
_cell_length_c   9.63475901
_cell_angle_alpha   59.91795263
_cell_angle_beta   59.91701667
_cell_angle_gamma   59.91702491
_symmetry_Int_Tables_number   1
_chemical_formula_structural   Dy16MgIn(HgIr2)2
_chemical_formula_sum   'Dy16 Mg1 In1 Hg2 Ir4'
_cell_volume   631.66703772
_cell_formula_units_Z   1
loop_
 _symmetry_equiv_pos_site_id
 _symmetry_equiv_pos_as_xyz
  1  'x, y, z'
loop_
 _atom_site_type_symbol
 _atom_site_label
 _atom_site_symmetry_multiplicity
 _atom_site_fract_x
 _atom_site_fract_y
 _atom_site_fract_z
 _atom_site_occupancy
  Dy  Dy0  1  0.600058  0.601411  0.601411  1
  Dy  Dy1  1  0.598789  0.599193  0.203815  1
  Dy  Dy2  1  0.598789  0.203815  0.599193  1
  Dy  Dy3  1  0.204985  0.599344  0.599344  1
  Dy  Dy4  1  0.058535  0.441791  0.441791  1
  Dy  Dy5  1  0.438038  0.059458  0.059458  1
  Dy  Dy6  1  0.440918  0.058533  0.442607  1
  Dy  Dy7  1  0.061527  0.436733  0.061790  1
  Dy  Dy8  1  0.440918  0.442607  0.058533  1
  Dy  Dy9  1  0.061527  0.061790  0.436733  1
  Dy  Dy10  1  0.187262  0.813595  0.813595  1
  Dy  Dy11  1  0.809192  0.189315  0.189315  1
  Dy  Dy12  1  0.810497  0.190564  0.812119  1
  Dy  Dy13  1  0.185239  0.811714  0.192446  1
  Dy  Dy14  1  0.810497  0.812119  0.190564  1
  Dy  Dy15  1  0.185239  0.192446  0.811714  1
  Mg  Mg16  1  0.826731  0.820390  0.820390  1
  In  In17  1  0.502940  0.830874  0.830874  1
  Hg  Hg18  1  0.837099  0.837130  0.492653  1
  Hg  Hg19  1  0.837099  0.492653  0.837130  1
  Ir  Ir20  1  0.392030  0.392513  0.392513  1
  Ir  Ir21  1  0.393639  0.392108  0.826103  1
  Ir  Ir22  1  0.393639  0.826103  0.392108  1
  Ir  Ir23  1  0.824810  0.393802  0.393802  1
