# generated using pymatgen
data_FeSi3Tc3Ni
_symmetry_space_group_name_H-M   'P 1'
_cell_length_a   6.89680600
_cell_length_b   6.89680633
_cell_length_c   4.82388300
_cell_angle_alpha   90.00000000
_cell_angle_beta   90.00000000
_cell_angle_gamma   120.00000803
_symmetry_Int_Tables_number   1
_chemical_formula_structural   FeSi3Tc3Ni
_chemical_formula_sum   'Fe2 Si6 Tc6 Ni2'
_cell_volume   198.71168345
_cell_formula_units_Z   2
loop_
 _symmetry_equiv_pos_site_id
 _symmetry_equiv_pos_as_xyz
  1  'x, y, z'
loop_
 _atom_site_type_symbol
 _atom_site_label
 _atom_site_symmetry_multiplicity
 _atom_site_fract_x
 _atom_site_fract_y
 _atom_site_fract_z
 _atom_site_occupancy
  Fe  Fe0  1  0.666667  0.333333  0.500000  1
  Fe  Fe1  1  0.333333  0.666667  0.000000  1
  Si  Si2  1  0.405421  0.000000  0.750000  1
  Si  Si3  1  0.405421  0.405421  0.250000  1
  Si  Si4  1  0.000000  0.594579  0.250000  1
  Si  Si5  1  0.000000  0.405421  0.750000  1
  Si  Si6  1  0.594579  0.594579  0.750000  1
  Si  Si7  1  0.594579  0.000000  0.250000  1
  Tc  Tc8  1  0.000000  0.760364  0.750000  1
  Tc  Tc9  1  0.000000  0.239636  0.250000  1
  Tc  Tc10  1  0.760364  0.760364  0.250000  1
  Tc  Tc11  1  0.760364  0.000000  0.750000  1
  Tc  Tc12  1  0.239636  0.239636  0.750000  1
  Tc  Tc13  1  0.239636  0.000000  0.250000  1
  Ni  Ni14  1  0.333333  0.666667  0.500000  1
  Ni  Ni15  1  0.666667  0.333333  0.000000  1
