# generated using pymatgen
data_LiY12Co3SiSn
_symmetry_space_group_name_H-M   'P 1'
_cell_length_a   8.43054454
_cell_length_b   8.43054570
_cell_length_c   8.43054569
_cell_angle_alpha   112.20832037
_cell_angle_beta   110.87445753
_cell_angle_gamma   105.40874609
_symmetry_Int_Tables_number   1
_chemical_formula_structural   LiY12Co3SiSn
_chemical_formula_sum   'Li1 Y12 Co3 Si1 Sn1'
_cell_volume   459.46891324
_cell_formula_units_Z   1
loop_
 _symmetry_equiv_pos_site_id
 _symmetry_equiv_pos_as_xyz
  1  'x, y, z'
loop_
 _atom_site_type_symbol
 _atom_site_label
 _atom_site_symmetry_multiplicity
 _atom_site_fract_x
 _atom_site_fract_y
 _atom_site_fract_z
 _atom_site_occupancy
  Li  Li0  1  0.001592  0.000000  0.001592  1
  Y  Y1  1  0.434325  0.238728  0.195596  1
  Y  Y2  1  0.578282  0.776557  0.801725  1
  Y  Y3  1  0.025169  0.223443  0.801725  1
  Y  Y4  1  0.956867  0.761272  0.195596  1
  Y  Y5  1  0.187189  0.291259  0.478448  1
  Y  Y6  1  0.815178  0.715466  0.530644  1
  Y  Y7  1  0.187189  0.708741  0.895930  1
  Y  Y8  1  0.815178  0.284534  0.099712  1
  Y  Y9  1  0.312713  0.622192  0.313449  1
  Y  Y10  1  0.691258  0.377808  0.690521  1
  Y  Y11  1  0.312713  0.999263  0.690521  1
  Y  Y12  1  0.691258  0.000737  0.313449  1
  Co  Co13  1  0.640860  0.000000  0.640860  1
  Co  Co14  1  0.108112  0.609336  0.498775  1
  Co  Co15  1  0.889439  0.390664  0.498775  1
  Si  Si16  1  0.358213  0.000000  0.358213  1
  Sn  Sn17  1  0.494467  0.500000  0.994467  1
