# generated using pymatgen
data_LiPr16Cd3Ru4
_symmetry_space_group_name_H-M   'P 1'
_cell_length_a   10.05633196
_cell_length_b   10.05633243
_cell_length_c   10.05633267
_cell_angle_alpha   59.44031598
_cell_angle_beta   59.44031326
_cell_angle_gamma   59.44031726
_symmetry_Int_Tables_number   1
_chemical_formula_structural   LiPr16Cd3Ru4
_chemical_formula_sum   'Li1 Pr16 Cd3 Ru4'
_cell_volume   709.96727828
_cell_formula_units_Z   1
loop_
 _symmetry_equiv_pos_site_id
 _symmetry_equiv_pos_as_xyz
  1  'x, y, z'
loop_
 _atom_site_type_symbol
 _atom_site_label
 _atom_site_symmetry_multiplicity
 _atom_site_fract_x
 _atom_site_fract_y
 _atom_site_fract_z
 _atom_site_occupancy
  Li  Li0  1  0.571208  0.571208  0.571208  1
  Pr  Pr1  1  0.345772  0.345772  0.345772  1
  Pr  Pr2  1  0.344298  0.344298  0.964254  1
  Pr  Pr3  1  0.344298  0.964254  0.344298  1
  Pr  Pr4  1  0.964254  0.344298  0.344298  1
  Pr  Pr5  1  0.809798  0.190680  0.190680  1
  Pr  Pr6  1  0.187933  0.812783  0.812783  1
  Pr  Pr7  1  0.190680  0.809798  0.190680  1
  Pr  Pr8  1  0.812783  0.187933  0.812783  1
  Pr  Pr9  1  0.190680  0.190680  0.809798  1
  Pr  Pr10  1  0.812783  0.812783  0.187933  1
  Pr  Pr11  1  0.939411  0.563208  0.563208  1
  Pr  Pr12  1  0.561917  0.938726  0.938726  1
  Pr  Pr13  1  0.563208  0.939411  0.563208  1
  Pr  Pr14  1  0.938726  0.561917  0.938726  1
  Pr  Pr15  1  0.563208  0.563208  0.939411  1
  Pr  Pr16  1  0.938726  0.938726  0.561917  1
  Cd  Cd17  1  0.579859  0.579859  0.261787  1
  Cd  Cd18  1  0.579859  0.261787  0.579859  1
  Cd  Cd19  1  0.261787  0.579859  0.579859  1
  Ru  Ru20  1  0.137848  0.137848  0.137848  1
  Ru  Ru21  1  0.137355  0.137355  0.586252  1
  Ru  Ru22  1  0.137355  0.586252  0.137355  1
  Ru  Ru23  1  0.586252  0.137355  0.137355  1
