# generated using pymatgen
data_Nd5MoIrO12
_symmetry_space_group_name_H-M   'P 1'
_cell_length_a   7.08473904
_cell_length_b   7.08474032
_cell_length_c   7.81401216
_cell_angle_alpha   73.80668735
_cell_angle_beta   73.80668582
_cell_angle_gamma   49.09550850
_symmetry_Int_Tables_number   1
_chemical_formula_structural   Nd5MoIrO12
_chemical_formula_sum   'Nd5 Mo1 Ir1 O12'
_cell_volume   282.15951384
_cell_formula_units_Z   1
loop_
 _symmetry_equiv_pos_site_id
 _symmetry_equiv_pos_as_xyz
  1  'x, y, z'
loop_
 _atom_site_type_symbol
 _atom_site_label
 _atom_site_symmetry_multiplicity
 _atom_site_fract_x
 _atom_site_fract_y
 _atom_site_fract_z
 _atom_site_occupancy
  Nd  Nd0  1  0.289315  0.322057  0.356449  1
  Nd  Nd1  1  0.677943  0.710685  0.643551  1
  Nd  Nd2  1  0.680709  0.695303  0.169731  1
  Nd  Nd3  1  0.304697  0.319291  0.830269  1
  Nd  Nd4  1  0.990114  0.009886  0.500000  1
  Mo  Mo5  1  0.801755  0.198245  0.000000  1
  Ir  Ir6  1  0.241851  0.758149  0.000000  1
  O  O7  1  0.083752  0.600751  0.579573  1
  O  O8  1  0.006084  0.994232  0.195069  1
  O  O9  1  0.399249  0.916248  0.420427  1
  O  O10  1  0.510551  0.488564  0.168246  1
  O  O11  1  0.088603  0.572459  0.082176  1
  O  O12  1  0.890072  0.411719  0.428564  1
  O  O13  1  0.005768  0.993916  0.804931  1
  O  O14  1  0.588281  0.109927  0.571436  1
  O  O15  1  0.511436  0.489449  0.831754  1
  O  O16  1  0.597559  0.095279  0.078751  1
  O  O17  1  0.427541  0.911397  0.917824  1
  O  O18  1  0.904721  0.402441  0.921249  1
