# generated using pymatgen
data_Cs8Y6BeBr20
_symmetry_space_group_name_H-M   'P 1'
_cell_length_a   12.79160981
_cell_length_b   12.79160993
_cell_length_c   12.79160900
_cell_angle_alpha   59.99999981
_cell_angle_beta   59.99999952
_cell_angle_gamma   60.00000296
_symmetry_Int_Tables_number   1
_chemical_formula_structural   Cs8Y6BeBr20
_chemical_formula_sum   'Cs8 Y6 Be1 Br20'
_cell_volume   1479.99618672
_cell_formula_units_Z   1
loop_
 _symmetry_equiv_pos_site_id
 _symmetry_equiv_pos_as_xyz
  1  'x, y, z'
loop_
 _atom_site_type_symbol
 _atom_site_label
 _atom_site_symmetry_multiplicity
 _atom_site_fract_x
 _atom_site_fract_y
 _atom_site_fract_z
 _atom_site_occupancy
  Cs  Cs0  1  0.359799  0.359799  0.359799  1
  Cs  Cs1  1  0.640201  0.640201  0.640201  1
  Cs  Cs2  1  0.359799  0.359799  0.920601  1
  Cs  Cs3  1  0.359799  0.920601  0.359799  1
  Cs  Cs4  1  0.640201  0.640201  0.079399  1
  Cs  Cs5  1  0.640201  0.079399  0.640201  1
  Cs  Cs6  1  0.920601  0.359799  0.359799  1
  Cs  Cs7  1  0.079399  0.640201  0.640201  1
  Y  Y8  1  0.849536  0.150464  0.150464  1
  Y  Y9  1  0.150464  0.849536  0.849536  1
  Y  Y10  1  0.150464  0.849536  0.150464  1
  Y  Y11  1  0.849536  0.150464  0.849536  1
  Y  Y12  1  0.150464  0.150464  0.849536  1
  Y  Y13  1  0.849536  0.849536  0.150464  1
  Be  Be14  1  0.000000  0.000000  0.000000  1
  Br  Br15  1  0.318783  0.000000  0.000000  1
  Br  Br16  1  0.681217  0.000000  0.000000  1
  Br  Br17  1  0.000000  0.318783  0.681217  1
  Br  Br18  1  0.000000  0.681217  0.318783  1
  Br  Br19  1  0.000000  0.318783  0.000000  1
  Br  Br20  1  0.681217  0.000000  0.318783  1
  Br  Br21  1  0.000000  0.681217  0.000000  1
  Br  Br22  1  0.318783  0.000000  0.681217  1
  Br  Br23  1  0.000000  0.000000  0.318783  1
  Br  Br24  1  0.000000  0.000000  0.681217  1
  Br  Br25  1  0.681217  0.318783  0.000000  1
  Br  Br26  1  0.318783  0.681217  0.000000  1
  Br  Br27  1  0.688232  0.311768  0.311768  1
  Br  Br28  1  0.311768  0.688232  0.688232  1
  Br  Br29  1  0.311768  0.688232  0.311768  1
  Br  Br30  1  0.688232  0.311768  0.688232  1
  Br  Br31  1  0.311768  0.311768  0.688232  1
  Br  Br32  1  0.688232  0.688232  0.311768  1
  Br  Br33  1  0.250000  0.250000  0.250000  1
  Br  Br34  1  0.750000  0.750000  0.750000  1
