# generated using pymatgen
data_Er2Al9RePd2
_symmetry_space_group_name_H-M   'P 1'
_cell_length_a   7.57987560
_cell_length_b   7.57997924
_cell_length_c   9.49322300
_cell_angle_alpha   90.00000000
_cell_angle_beta   90.00000000
_cell_angle_gamma   118.23741193
_symmetry_Int_Tables_number   1
_chemical_formula_structural   Er2Al9RePd2
_chemical_formula_sum   'Er4 Al18 Re2 Pd4'
_cell_volume   480.52620488
_cell_formula_units_Z   2
loop_
 _symmetry_equiv_pos_site_id
 _symmetry_equiv_pos_as_xyz
  1  'x, y, z'
loop_
 _atom_site_type_symbol
 _atom_site_label
 _atom_site_symmetry_multiplicity
 _atom_site_fract_x
 _atom_site_fract_y
 _atom_site_fract_z
 _atom_site_occupancy
  Er  Er0  1  0.993599  0.685169  0.250000  1
  Er  Er1  1  0.006401  0.314831  0.750000  1
  Er  Er2  1  0.685159  0.993636  0.250000  1
  Er  Er3  1  0.314841  0.006364  0.750000  1
  Al  Al4  1  0.134751  0.134783  0.250000  1
  Al  Al5  1  0.865249  0.865217  0.750000  1
  Al  Al6  1  0.001960  0.336718  0.077818  1
  Al  Al7  1  0.998040  0.663282  0.922182  1
  Al  Al8  1  0.998040  0.663282  0.577818  1
  Al  Al9  1  0.336716  0.001943  0.422181  1
  Al  Al10  1  0.001960  0.336718  0.422182  1
  Al  Al11  1  0.663284  0.998057  0.577819  1
  Al  Al12  1  0.663284  0.998057  0.922181  1
  Al  Al13  1  0.336716  0.001943  0.077819  1
  Al  Al14  1  0.329199  0.329167  0.548133  1
  Al  Al15  1  0.670801  0.670833  0.451867  1
  Al  Al16  1  0.670801  0.670833  0.048133  1
  Al  Al17  1  0.329199  0.329167  0.951867  1
  Al  Al18  1  0.345253  0.555099  0.250000  1
  Al  Al19  1  0.654747  0.444901  0.750000  1
  Al  Al20  1  0.554964  0.345318  0.250000  1
  Al  Al21  1  0.445036  0.654682  0.750000  1
  Re  Re22  1  0.000000  0.000000  0.000000  1
  Re  Re23  1  0.000000  0.000000  0.500000  1
  Pd  Pd24  1  0.672400  0.328023  0.999986  1
  Pd  Pd25  1  0.327600  0.671977  0.000014  1
  Pd  Pd26  1  0.327600  0.671977  0.499986  1
  Pd  Pd27  1  0.672400  0.328023  0.500014  1
