# generated using pymatgen
data_CaDy(ZnRh)2
_symmetry_space_group_name_H-M   'P 1'
_cell_length_a   4.16550900
_cell_length_b   7.01193617
_cell_length_c   7.94508144
_cell_angle_alpha   90.14247461
_cell_angle_beta   90.00000000
_cell_angle_gamma   90.00000000
_symmetry_Int_Tables_number   1
_chemical_formula_structural   CaDy(ZnRh)2
_chemical_formula_sum   'Ca2 Dy2 Zn4 Rh4'
_cell_volume   232.06147120
_cell_formula_units_Z   2
loop_
 _symmetry_equiv_pos_site_id
 _symmetry_equiv_pos_as_xyz
  1  'x, y, z'
loop_
 _atom_site_type_symbol
 _atom_site_label
 _atom_site_symmetry_multiplicity
 _atom_site_fract_x
 _atom_site_fract_y
 _atom_site_fract_z
 _atom_site_occupancy
  Ca  Ca0  1  0.250000  0.523822  0.182961  1
  Ca  Ca1  1  0.750000  0.476178  0.817039  1
  Dy  Dy2  1  0.250000  0.025317  0.315434  1
  Dy  Dy3  1  0.750000  0.974683  0.684566  1
  Zn  Zn4  1  0.250000  0.152558  0.933167  1
  Zn  Zn5  1  0.750000  0.847442  0.066833  1
  Zn  Zn6  1  0.250000  0.646628  0.567210  1
  Zn  Zn7  1  0.750000  0.353372  0.432790  1
  Rh  Rh8  1  0.750000  0.737415  0.386113  1
  Rh  Rh9  1  0.250000  0.262585  0.613887  1
  Rh  Rh10  1  0.750000  0.214350  0.125430  1
  Rh  Rh11  1  0.250000  0.785650  0.874570  1
