# generated using pymatgen
data_LiPr4Ag3(AsP)4
_symmetry_space_group_name_H-M   'P 1'
_cell_length_a   3.98300400
_cell_length_b   4.01020026
_cell_length_c   21.21837696
_cell_angle_alpha   90.03794666
_cell_angle_beta   90.00000000
_cell_angle_gamma   90.00000000
_symmetry_Int_Tables_number   1
_chemical_formula_structural   LiPr4Ag3(AsP)4
_chemical_formula_sum   'Li1 Pr4 Ag3 As4 P4'
_cell_volume   338.91350041
_cell_formula_units_Z   1
loop_
 _symmetry_equiv_pos_site_id
 _symmetry_equiv_pos_as_xyz
  1  'x, y, z'
loop_
 _atom_site_type_symbol
 _atom_site_label
 _atom_site_symmetry_multiplicity
 _atom_site_fract_x
 _atom_site_fract_y
 _atom_site_fract_z
 _atom_site_occupancy
  Li  Li0  1  0.250000  0.224363  0.250012  1
  Pr  Pr1  1  0.250000  0.773357  0.617558  1
  Pr  Pr2  1  0.750000  0.227990  0.380838  1
  Pr  Pr3  1  0.750000  0.273951  0.882288  1
  Pr  Pr4  1  0.250000  0.726593  0.119419  1
  Ag  Ag5  1  0.750000  0.724239  0.249828  1
  Ag  Ag6  1  0.750000  0.775685  0.749787  1
  Ag  Ag7  1  0.250000  0.275714  0.750205  1
  As  As8  1  0.250000  0.287202  0.500457  1
  As  As9  1  0.250000  0.209070  0.002058  1
  As  As10  1  0.750000  0.790031  0.999233  1
  As  As11  1  0.750000  0.712312  0.498210  1
  P  P12  1  0.250000  0.776089  0.835469  1
  P  P13  1  0.750000  0.223435  0.169596  1
  P  P14  1  0.750000  0.275615  0.664566  1
  P  P15  1  0.250000  0.724357  0.330477  1
