# generated using pymatgen
data_Yb28Ga11
_symmetry_space_group_name_H-M   'P 1'
_cell_length_a   5.35317598
_cell_length_b   7.29142375
_cell_length_c   30.07467502
_cell_angle_alpha   96.96263082
_cell_angle_beta   95.10596439
_cell_angle_gamma   90.00000276
_symmetry_Int_Tables_number   1
_chemical_formula_structural   Yb28Ga11
_chemical_formula_sum   'Yb28 Ga11'
_cell_volume   1160.53313869
_cell_formula_units_Z   1
loop_
 _symmetry_equiv_pos_site_id
 _symmetry_equiv_pos_as_xyz
  1  'x, y, z'
loop_
 _atom_site_type_symbol
 _atom_site_label
 _atom_site_symmetry_multiplicity
 _atom_site_fract_x
 _atom_site_fract_y
 _atom_site_fract_z
 _atom_site_occupancy
  Yb  Yb0  1  0.817732  0.915613  0.635464  1
  Yb  Yb1  1  0.559696  0.232901  0.119393  1
  Yb  Yb2  1  0.724631  0.251987  0.449262  1
  Yb  Yb3  1  0.636974  0.173146  0.273948  1
  Yb  Yb4  1  0.324104  0.239541  0.648207  1
  Yb  Yb5  1  0.852977  0.568949  0.705955  1
  Yb  Yb6  1  0.543922  0.671169  0.087843  1
  Yb  Yb7  1  0.000000  0.560198  0.000000  1
  Yb  Yb8  1  0.617353  0.593677  0.234706  1
  Yb  Yb9  1  0.916621  0.529570  0.833244  1
  Yb  Yb10  1  0.262586  0.259041  0.525172  1
  Yb  Yb11  1  0.275369  0.802726  0.550738  1
  Yb  Yb12  1  0.903967  0.993495  0.807933  1
  Yb  Yb13  1  0.363026  0.899198  0.726052  1
  Yb  Yb14  1  0.456078  0.583326  0.912157  1
  Yb  Yb15  1  0.675896  0.591334  0.351793  1
  Yb  Yb16  1  0.440304  0.113508  0.880607  1
  Yb  Yb17  1  0.147023  0.862996  0.294046  1
  Yb  Yb18  1  0.096033  0.185563  0.192067  1
  Yb  Yb19  1  0.793816  0.469651  0.587633  1
  Yb  Yb20  1  0.382647  0.358972  0.765294  1
  Yb  Yb21  1  0.500000  0.242867  0.000000  1
  Yb  Yb22  1  0.737414  0.733871  0.474828  1
  Yb  Yb23  1  0.970076  0.928258  0.940152  1
  Yb  Yb24  1  0.083379  0.696326  0.166756  1
  Yb  Yb25  1  0.206184  0.882018  0.412367  1
  Yb  Yb26  1  0.182268  0.280149  0.364536  1
  Yb  Yb27  1  0.029924  0.988108  0.059848  1
  Ga  Ga28  1  0.680122  0.003794  0.360244  1
  Ga  Ga29  1  0.139271  0.449165  0.278542  1
  Ga  Ga30  1  0.772673  0.065795  0.545347  1
  Ga  Ga31  1  0.956349  0.311410  0.912698  1
  Ga  Ga32  1  0.319878  0.643551  0.639756  1
  Ga  Ga33  1  0.860729  0.170622  0.721458  1
  Ga  Ga34  1  0.043651  0.398713  0.087302  1
  Ga  Ga35  1  0.590706  0.930232  0.181410  1
  Ga  Ga36  1  0.409294  0.748822  0.818590  1
  Ga  Ga37  1  0.227327  0.520448  0.454653  1
  Ga  Ga38  1  0.500000  0.833291  0.000000  1
