# generated using pymatgen
data_TbNd15MgAg3Ir4
_symmetry_space_group_name_H-M   'P 1'
_cell_length_a   9.86983097
_cell_length_b   9.94375274
_cell_length_c   9.89637500
_cell_angle_alpha   60.15747565
_cell_angle_beta   59.91101670
_cell_angle_gamma   60.11035834
_symmetry_Int_Tables_number   1
_chemical_formula_structural   TbNd15MgAg3Ir4
_chemical_formula_sum   'Tb1 Nd15 Mg1 Ag3 Ir4'
_cell_volume   687.70639997
_cell_formula_units_Z   1
loop_
 _symmetry_equiv_pos_site_id
 _symmetry_equiv_pos_as_xyz
  1  'x, y, z'
loop_
 _atom_site_type_symbol
 _atom_site_label
 _atom_site_symmetry_multiplicity
 _atom_site_fract_x
 _atom_site_fract_y
 _atom_site_fract_z
 _atom_site_occupancy
  Tb  Tb0  1  0.654676  0.039182  0.653072  1
  Nd  Nd1  1  0.193204  0.807807  0.808219  1
  Nd  Nd2  1  0.811655  0.189485  0.188561  1
  Nd  Nd3  1  0.062253  0.436136  0.063303  1
  Nd  Nd4  1  0.055587  0.648486  0.647964  1
  Nd  Nd5  1  0.652222  0.653239  0.651940  1
  Nd  Nd6  1  0.060382  0.060646  0.439486  1
  Nd  Nd7  1  0.193204  0.807806  0.190769  1
  Nd  Nd8  1  0.811872  0.811971  0.188079  1
  Nd  Nd9  1  0.811655  0.189485  0.810300  1
  Nd  Nd10  1  0.439284  0.061212  0.439032  1
  Nd  Nd11  1  0.439287  0.435220  0.062746  1
  Nd  Nd12  1  0.439284  0.061212  0.060472  1
  Nd  Nd13  1  0.062253  0.436136  0.438308  1
  Nd  Nd14  1  0.195262  0.192895  0.805921  1
  Nd  Nd15  1  0.652222  0.653239  0.042601  1
  Mg  Mg16  1  0.703208  0.429379  0.433707  1
  Ag  Ag17  1  0.420108  0.412539  0.750095  1
  Ag  Ag18  1  0.419990  0.749629  0.415191  1
  Ag  Ag19  1  0.420108  0.412539  0.417259  1
  Ir  Ir20  1  0.858059  0.861680  0.425701  1
  Ir  Ir21  1  0.859771  0.426048  0.857092  1
  Ir  Ir22  1  0.858059  0.861680  0.854561  1
  Ir  Ir23  1  0.426400  0.862353  0.855624  1
