# generated using pymatgen
data_Ac2Pr17LuPb16
_symmetry_space_group_name_H-M   'P 1'
_cell_length_a   8.54642967
_cell_length_b   16.40438568
_cell_length_c   8.65843500
_cell_angle_alpha   90.15053253
_cell_angle_beta   89.95474759
_cell_angle_gamma   90.00514490
_symmetry_Int_Tables_number   1
_chemical_formula_structural   Ac2Pr17LuPb16
_chemical_formula_sum   'Ac2 Pr17 Lu1 Pb16'
_cell_volume   1213.89873595
_cell_formula_units_Z   1
loop_
 _symmetry_equiv_pos_site_id
 _symmetry_equiv_pos_as_xyz
  1  'x, y, z'
loop_
 _atom_site_type_symbol
 _atom_site_label
 _atom_site_symmetry_multiplicity
 _atom_site_fract_x
 _atom_site_fract_y
 _atom_site_fract_z
 _atom_site_occupancy
  Ac  Ac0  1  0.470675  0.902837  0.679228  1
  Ac  Ac1  1  0.970254  0.596502  0.820565  1
  Pr  Pr2  1  0.621691  0.616820  0.158524  1
  Pr  Pr3  1  0.121594  0.882279  0.341093  1
  Pr  Pr4  1  0.377095  0.120281  0.842919  1
  Pr  Pr5  1  0.875456  0.379752  0.658169  1
  Pr  Pr6  1  0.378277  0.379938  0.842165  1
  Pr  Pr7  1  0.876376  0.120124  0.659057  1
  Pr  Pr8  1  0.622689  0.882985  0.158130  1
  Pr  Pr9  1  0.122597  0.617784  0.341651  1
  Pr  Pr10  1  0.467873  0.601246  0.675964  1
  Pr  Pr11  1  0.968289  0.899557  0.823305  1
  Pr  Pr12  1  0.532598  0.102677  0.319883  1
  Pr  Pr13  1  0.032081  0.396742  0.178407  1
  Pr  Pr14  1  0.531683  0.397828  0.320694  1
  Pr  Pr15  1  0.030670  0.102624  0.177438  1
  Pr  Pr16  1  0.790819  0.749994  0.497224  1
  Pr  Pr17  1  0.290934  0.749956  0.003268  1
  Pr  Pr18  1  0.209015  0.250863  0.501044  1
  Lu  Lu19  1  0.710104  0.249331  0.996856  1
  Pb  Pb20  1  0.715493  0.449069  0.972976  1
  Pb  Pb21  1  0.214084  0.047971  0.529075  1
  Pb  Pb22  1  0.278118  0.958103  0.036691  1
  Pb  Pb23  1  0.778248  0.541893  0.463547  1
  Pb  Pb24  1  0.286331  0.540983  0.038810  1
  Pb  Pb25  1  0.786802  0.959104  0.461130  1
  Pb  Pb26  1  0.720033  0.047828  0.969215  1
  Pb  Pb27  1  0.219697  0.455040  0.532746  1
  Pb  Pb28  1  0.426162  0.748939  0.371105  1
  Pb  Pb29  1  0.924920  0.751105  0.128332  1
  Pb  Pb30  1  0.575185  0.249294  0.629272  1
  Pb  Pb31  1  0.070259  0.250702  0.876628  1
  Pb  Pb32  1  0.660631  0.748273  0.855486  1
  Pb  Pb33  1  0.160797  0.751691  0.645531  1
  Pb  Pb34  1  0.343814  0.249798  0.147042  1
  Pb  Pb35  1  0.838652  0.250085  0.346834  1
