# generated using pymatgen
data_Nd9ThAl2(GaRu3)2
_symmetry_space_group_name_H-M   'P 1'
_cell_length_a   8.57411574
_cell_length_b   8.53161793
_cell_length_c   8.51074722
_cell_angle_alpha   109.04558027
_cell_angle_beta   109.80866936
_cell_angle_gamma   109.50557821
_symmetry_Int_Tables_number   1
_chemical_formula_structural   Nd9ThAl2(GaRu3)2
_chemical_formula_sum   'Nd9 Th1 Al2 Ga2 Ru6'
_cell_volume   479.55685407
_cell_formula_units_Z   1
loop_
 _symmetry_equiv_pos_site_id
 _symmetry_equiv_pos_as_xyz
  1  'x, y, z'
loop_
 _atom_site_type_symbol
 _atom_site_label
 _atom_site_symmetry_multiplicity
 _atom_site_fract_x
 _atom_site_fract_y
 _atom_site_fract_z
 _atom_site_occupancy
  Nd  Nd0  1  0.748944  0.813562  0.061355  1
  Nd  Nd1  1  0.438177  0.251449  0.687749  1
  Nd  Nd2  1  0.684201  0.436428  0.249545  1
  Nd  Nd3  1  0.062470  0.749998  0.813273  1
  Nd  Nd4  1  0.813321  0.062792  0.751852  1
  Nd  Nd5  1  0.219360  0.217784  0.220004  1
  Nd  Nd6  1  0.503568  0.000021  0.283643  1
  Nd  Nd7  1  0.281158  0.499173  0.996628  1
  Nd  Nd8  1  0.997312  0.282249  0.498132  1
  Th  Th9  1  0.250721  0.690913  0.441883  1
  Al  Al10  1  0.907263  0.497400  0.999535  1
  Al  Al11  1  0.997713  0.909162  0.501707  1
  Ga  Ga12  1  0.593957  0.591481  0.590446  1
  Ga  Ga13  1  0.501605  0.005722  0.912716  1
  Ru  Ru14  1  0.247458  0.121132  0.870853  1
  Ru  Ru15  1  0.750894  0.378490  0.631364  1
  Ru  Ru16  1  0.876214  0.253511  0.125172  1
  Ru  Ru17  1  0.127065  0.856434  0.260341  1
  Ru  Ru18  1  0.627384  0.750847  0.375000  1
  Ru  Ru19  1  0.371214  0.631452  0.728800  1
