# generated using pymatgen
data_Li2MnCr2GeO8
_symmetry_space_group_name_H-M   'P 1'
_cell_length_a   5.91164534
_cell_length_b   5.91164534
_cell_length_c   8.32271964
_cell_angle_alpha   89.92419265
_cell_angle_beta   90.07580735
_cell_angle_gamma   89.98665013
_symmetry_Int_Tables_number   1
_chemical_formula_structural   Li2MnCr2GeO8
_chemical_formula_sum   'Li4 Mn2 Cr4 Ge2 O16'
_cell_volume   290.85814829
_cell_formula_units_Z   2
loop_
 _symmetry_equiv_pos_site_id
 _symmetry_equiv_pos_as_xyz
  1  'x, y, z'
loop_
 _atom_site_type_symbol
 _atom_site_label
 _atom_site_symmetry_multiplicity
 _atom_site_fract_x
 _atom_site_fract_y
 _atom_site_fract_z
 _atom_site_occupancy
  Li  Li0  1  0.251936  0.251936  0.125000  1
  Li  Li1  1  0.253056  0.747646  0.375429  1
  Li  Li2  1  0.747646  0.253056  0.874571  1
  Li  Li3  1  0.746752  0.746752  0.625000  1
  Mn  Mn4  1  0.999679  0.754521  0.000191  1
  Mn  Mn5  1  0.754521  0.999679  0.249809  1
  Cr  Cr6  1  0.243658  0.500342  0.750227  1
  Cr  Cr7  1  0.500342  0.243658  0.499773  1
  Cr  Cr8  1  0.499964  0.756066  0.000192  1
  Cr  Cr9  1  0.756066  0.499964  0.249808  1
  Ge  Ge10  1  0.247627  0.000080  0.749984  1
  Ge  Ge11  1  0.000080  0.247627  0.500016  1
  O  O12  1  0.239159  0.464773  0.507054  1
  O  O13  1  0.464773  0.239159  0.742946  1
  O  O14  1  0.758326  0.980724  0.016595  1
  O  O15  1  0.240982  0.534662  0.991816  1
  O  O16  1  0.980724  0.758326  0.233405  1
  O  O17  1  0.020044  0.761023  0.765776  1
  O  O18  1  0.761023  0.020044  0.484224  1
  O  O19  1  0.534662  0.240982  0.258184  1
  O  O20  1  0.465019  0.760672  0.757206  1
  O  O21  1  0.240924  0.982336  0.982820  1
  O  O22  1  0.982336  0.240924  0.267180  1
  O  O23  1  0.018204  0.238289  0.733738  1
  O  O24  1  0.760672  0.465019  0.492794  1
  O  O25  1  0.238289  0.018204  0.516262  1
  O  O26  1  0.534524  0.759013  0.241665  1
  O  O27  1  0.759013  0.534524  0.008335  1
