# generated using pymatgen
data_Ba4U4N9O2
_symmetry_space_group_name_H-M   'P 1'
_cell_length_a   6.17971273
_cell_length_b   6.17848529
_cell_length_c   8.75675606
_cell_angle_alpha   89.94166611
_cell_angle_beta   89.95105306
_cell_angle_gamma   90.46968135
_symmetry_Int_Tables_number   1
_chemical_formula_structural   Ba4U4N9O2
_chemical_formula_sum   'Ba4 U4 N9 O2'
_cell_volume   334.33248541
_cell_formula_units_Z   1
loop_
 _symmetry_equiv_pos_site_id
 _symmetry_equiv_pos_as_xyz
  1  'x, y, z'
loop_
 _atom_site_type_symbol
 _atom_site_label
 _atom_site_symmetry_multiplicity
 _atom_site_fract_x
 _atom_site_fract_y
 _atom_site_fract_z
 _atom_site_occupancy
  Ba  Ba0  1  0.008090  0.994876  0.256322  1
  Ba  Ba1  1  0.494482  0.503083  0.257885  1
  Ba  Ba2  1  0.495734  0.502208  0.738937  1
  Ba  Ba3  1  0.007671  0.995153  0.740283  1
  U  U4  1  0.504085  0.000186  0.497497  1
  U  U5  1  0.997976  0.495698  0.501577  1
  U  U6  1  0.494064  0.996793  0.997600  1
  U  U7  1  0.013540  0.502213  0.993559  1
  N  N8  1  0.511554  0.009065  0.225491  1
  N  N9  1  0.725513  0.769509  0.496312  1
  N  N10  1  0.770028  0.263872  0.495659  1
  N  N11  1  0.230535  0.728029  0.497515  1
  N  N12  1  0.275674  0.225053  0.497230  1
  N  N13  1  0.512943  0.008607  0.769979  1
  N  N14  1  0.989250  0.486842  0.752006  1
  N  N15  1  0.261786  0.741172  0.997397  1
  N  N16  1  0.226223  0.252496  0.998205  1
  O  O17  1  0.774834  0.744590  0.000020  1
  O  O18  1  0.992590  0.489372  0.244594  1
