# generated using pymatgen
data_Ac5Eu3(SiN3)4
_symmetry_space_group_name_H-M   'P 1'
_cell_length_a   6.28417164
_cell_length_b   6.28417183
_cell_length_c   12.13478402
_cell_angle_alpha   90.39030239
_cell_angle_beta   89.60969848
_cell_angle_gamma   127.53311440
_symmetry_Int_Tables_number   1
_chemical_formula_structural   Ac5Eu3(SiN3)4
_chemical_formula_sum   'Ac5 Eu3 Si4 N12'
_cell_volume   380.00521400
_cell_formula_units_Z   1
loop_
 _symmetry_equiv_pos_site_id
 _symmetry_equiv_pos_as_xyz
  1  'x, y, z'
loop_
 _atom_site_type_symbol
 _atom_site_label
 _atom_site_symmetry_multiplicity
 _atom_site_fract_x
 _atom_site_fract_y
 _atom_site_fract_z
 _atom_site_occupancy
  Ac  Ac0  1  0.555909  0.444091  0.644641  1
  Ac  Ac1  1  0.639829  0.360171  0.080257  1
  Ac  Ac2  1  0.360395  0.639605  0.922897  1
  Ac  Ac3  1  0.859007  0.140993  0.575005  1
  Ac  Ac4  1  0.138921  0.861079  0.418599  1
  Eu  Eu5  1  0.061757  0.938243  0.862763  1
  Eu  Eu6  1  0.940034  0.059966  0.143056  1
  Eu  Eu7  1  0.439241  0.560759  0.353330  1
  Si  Si8  1  0.739562  0.260438  0.834642  1
  Si  Si9  1  0.263435  0.736565  0.166638  1
  Si  Si10  1  0.763582  0.236418  0.332240  1
  Si  Si11  1  0.236270  0.763730  0.667052  1
  N  N12  1  0.584127  0.415873  0.865870  1
  N  N13  1  0.417504  0.582496  0.134607  1
  N  N14  1  0.917135  0.082865  0.363097  1
  N  N15  1  0.082017  0.917983  0.636560  1
  N  N16  1  0.516809  0.984751  0.749312  1
  N  N17  1  0.984195  0.516615  0.250071  1
  N  N18  1  0.483385  0.015805  0.250071  1
  N  N19  1  0.015249  0.483191  0.749312  1
  N  N20  1  0.837651  0.162349  0.946362  1
  N  N21  1  0.165105  0.834895  0.053979  1
  N  N22  1  0.663554  0.336446  0.446592  1
  N  N23  1  0.335327  0.664673  0.553045  1
