# generated using pymatgen
data_LaU3(Si5Pt3)2
_symmetry_space_group_name_H-M   'P 1'
_cell_length_a   8.18879990
_cell_length_b   8.20750895
_cell_length_c   8.20750927
_cell_angle_alpha   135.93674568
_cell_angle_beta   104.99881379
_cell_angle_gamma   91.33348296
_symmetry_Int_Tables_number   1
_chemical_formula_structural   LaU3(Si5Pt3)2
_chemical_formula_sum   'La1 U3 Si10 Pt6'
_cell_volume   352.12428510
_cell_formula_units_Z   1
loop_
 _symmetry_equiv_pos_site_id
 _symmetry_equiv_pos_as_xyz
  1  'x, y, z'
loop_
 _atom_site_type_symbol
 _atom_site_label
 _atom_site_symmetry_multiplicity
 _atom_site_fract_x
 _atom_site_fract_y
 _atom_site_fract_z
 _atom_site_occupancy
  La  La0  1  0.359389  0.628967  0.730422  1
  U  U1  1  0.097801  0.867893  0.229908  1
  U  U2  1  0.900565  0.130673  0.769892  1
  U  U3  1  0.641293  0.371075  0.270217  1
  Si  Si4  1  0.997495  0.749356  0.749367  1
  Si  Si5  1  0.997495  0.248129  0.248140  1
  Si  Si6  1  0.273498  0.025026  0.750260  1
  Si  Si7  1  0.729004  0.478227  0.750820  1
  Si  Si8  1  0.729004  0.978184  0.250778  1
  Si  Si9  1  0.273498  0.523238  0.248472  1
  Si  Si10  1  0.761032  0.611050  0.149983  1
  Si  Si11  1  0.234542  0.383741  0.850801  1
  Si  Si12  1  0.461845  0.111994  0.349851  1
  Si  Si13  1  0.542339  0.891310  0.651030  1
  Pt  Pt14  1  0.499774  0.751121  0.250228  1
  Pt  Pt15  1  0.499774  0.249545  0.748652  1
  Pt  Pt16  1  0.027749  0.637893  0.389855  1
  Pt  Pt17  1  0.972767  0.361698  0.611070  1
  Pt  Pt18  1  0.247760  0.137703  0.110056  1
  Pt  Pt19  1  0.753376  0.863178  0.890198  1
