# generated using pymatgen
data_TmLu2Mg(AlPt)4
_symmetry_space_group_name_H-M   'P 1'
_cell_length_a   4.31069200
_cell_length_b   6.73396942
_cell_length_c   7.71684829
_cell_angle_alpha   91.93498710
_cell_angle_beta   90.00000000
_cell_angle_gamma   90.00000000
_symmetry_Int_Tables_number   1
_chemical_formula_structural   TmLu2Mg(AlPt)4
_chemical_formula_sum   'Tm1 Lu2 Mg1 Al4 Pt4'
_cell_volume   223.87746645
_cell_formula_units_Z   1
loop_
 _symmetry_equiv_pos_site_id
 _symmetry_equiv_pos_as_xyz
  1  'x, y, z'
loop_
 _atom_site_type_symbol
 _atom_site_label
 _atom_site_symmetry_multiplicity
 _atom_site_fract_x
 _atom_site_fract_y
 _atom_site_fract_z
 _atom_site_occupancy
  Tm  Tm0  1  0.250000  0.529178  0.819149  1
  Lu  Lu1  1  0.750000  0.972135  0.329839  1
  Lu  Lu2  1  0.750000  0.469511  0.178475  1
  Mg  Mg3  1  0.250000  0.029202  0.675764  1
  Al  Al4  1  0.250000  0.138775  0.054209  1
  Al  Al5  1  0.250000  0.646754  0.442207  1
  Al  Al6  1  0.750000  0.859949  0.939156  1
  Al  Al7  1  0.750000  0.355573  0.561197  1
  Pt  Pt8  1  0.250000  0.269071  0.376795  1
  Pt  Pt9  1  0.250000  0.769969  0.127617  1
  Pt  Pt10  1  0.750000  0.732457  0.622353  1
  Pt  Pt11  1  0.750000  0.227423  0.873239  1
