# generated using pymatgen
data_Ta24GaSi2As5
_symmetry_space_group_name_H-M   'P 1'
_cell_length_a   10.29368317
_cell_length_b   10.32066893
_cell_length_c   5.22730318
_cell_angle_alpha   89.99942930
_cell_angle_beta   89.97997639
_cell_angle_gamma   89.98467798
_symmetry_Int_Tables_number   1
_chemical_formula_structural   Ta24GaSi2As5
_chemical_formula_sum   'Ta24 Ga1 Si2 As5'
_cell_volume   555.33659251
_cell_formula_units_Z   1
loop_
 _symmetry_equiv_pos_site_id
 _symmetry_equiv_pos_as_xyz
  1  'x, y, z'
loop_
 _atom_site_type_symbol
 _atom_site_label
 _atom_site_symmetry_multiplicity
 _atom_site_fract_x
 _atom_site_fract_y
 _atom_site_fract_z
 _atom_site_occupancy
  Ta  Ta0  1  0.518698  0.647127  0.270736  1
  Ta  Ta1  1  0.401005  0.086030  0.027607  1
  Ta  Ta2  1  0.709878  0.808136  0.511959  1
  Ta  Ta3  1  0.898500  0.583844  0.469161  1
  Ta  Ta4  1  0.849824  0.013622  0.772791  1
  Ta  Ta5  1  0.015848  0.149334  0.227637  1
  Ta  Ta6  1  0.784436  0.688092  0.988469  1
  Ta  Ta7  1  0.287318  0.190440  0.513302  1
  Ta  Ta8  1  0.692098  0.214829  0.010049  1
  Ta  Ta9  1  0.417790  0.899907  0.530180  1
  Ta  Ta10  1  0.809375  0.290890  0.485578  1
  Ta  Ta11  1  0.353670  0.518557  0.729926  1
  Ta  Ta12  1  0.647576  0.487070  0.724522  1
  Ta  Ta13  1  0.148715  0.982403  0.774991  1
  Ta  Ta14  1  0.211374  0.311170  0.988928  1
  Ta  Ta15  1  0.913759  0.404830  0.973551  1
  Ta  Ta16  1  0.313391  0.787223  0.010295  1
  Ta  Ta17  1  0.595668  0.912028  0.024675  1
  Ta  Ta18  1  0.086467  0.599943  0.973153  1
  Ta  Ta19  1  0.096076  0.414126  0.472295  1
  Ta  Ta20  1  0.986045  0.851815  0.226551  1
  Ta  Ta21  1  0.191564  0.712359  0.490188  1
  Ta  Ta22  1  0.487587  0.353280  0.274992  1
  Ta  Ta23  1  0.585568  0.098404  0.527282  1
  Ga  Ga24  1  0.024400  0.203951  0.724211  1
  Si  Si25  1  0.704462  0.473216  0.219957  1
  Si  Si26  1  0.526741  0.704329  0.776663  1
  As  As27  1  0.972695  0.793146  0.722385  1
  As  As28  1  0.206663  0.974265  0.278670  1
  As  As29  1  0.793359  0.025081  0.275835  1
  As  As30  1  0.474518  0.295179  0.777891  1
  As  As31  1  0.294933  0.525374  0.225571  1
