# generated using pymatgen
data_Th3Co10SiB4
_symmetry_space_group_name_H-M   'P 1'
_cell_length_a   5.11957100
_cell_length_b   5.11957041
_cell_length_c   9.78535000
_cell_angle_alpha   90.00000000
_cell_angle_beta   90.00000000
_cell_angle_gamma   120.00002317
_symmetry_Int_Tables_number   1
_chemical_formula_structural   Th3Co10SiB4
_chemical_formula_sum   'Th3 Co10 Si1 B4'
_cell_volume   222.11300371
_cell_formula_units_Z   1
loop_
 _symmetry_equiv_pos_site_id
 _symmetry_equiv_pos_as_xyz
  1  'x, y, z'
loop_
 _atom_site_type_symbol
 _atom_site_label
 _atom_site_symmetry_multiplicity
 _atom_site_fract_x
 _atom_site_fract_y
 _atom_site_fract_z
 _atom_site_occupancy
  Th  Th0  1  0.000000  0.000000  0.662728  1
  Th  Th1  1  0.000000  0.000000  0.337272  1
  Th  Th2  1  0.000000  0.000000  0.000000  1
  Co  Co3  1  0.500515  0.499485  0.500000  1
  Co  Co4  1  0.998970  0.499485  0.500000  1
  Co  Co5  1  0.499712  0.999424  0.201175  1
  Co  Co6  1  0.499712  0.500288  0.201175  1
  Co  Co7  1  0.000576  0.500288  0.201175  1
  Co  Co8  1  0.499712  0.999424  0.798825  1
  Co  Co9  1  0.499712  0.500288  0.798825  1
  Co  Co10  1  0.000576  0.500288  0.798825  1
  Co  Co11  1  0.666667  0.333333  0.000000  1
  Co  Co12  1  0.500515  0.001030  0.500000  1
  Si  Si13  1  0.333333  0.666667  0.000000  1
  B  B14  1  0.333333  0.666667  0.652015  1
  B  B15  1  0.666667  0.333333  0.652862  1
  B  B16  1  0.666667  0.333333  0.347138  1
  B  B17  1  0.333333  0.666667  0.347985  1
