# generated using pymatgen
data_Ir4Pt(RhS3)4
_symmetry_space_group_name_H-M   'P 1'
_cell_length_a   7.60104693
_cell_length_b   7.59182865
_cell_length_c   6.34319451
_cell_angle_alpha   77.19557454
_cell_angle_beta   77.02628073
_cell_angle_gamma   91.88556924
_symmetry_Int_Tables_number   1
_chemical_formula_structural   Ir4Pt(RhS3)4
_chemical_formula_sum   'Ir4 Pt1 Rh4 S12'
_cell_volume   346.50688701
_cell_formula_units_Z   1
loop_
 _symmetry_equiv_pos_site_id
 _symmetry_equiv_pos_as_xyz
  1  'x, y, z'
loop_
 _atom_site_type_symbol
 _atom_site_label
 _atom_site_symmetry_multiplicity
 _atom_site_fract_x
 _atom_site_fract_y
 _atom_site_fract_z
 _atom_site_occupancy
  Ir  Ir0  1  0.163228  0.838896  0.999574  1
  Ir  Ir1  1  0.838670  0.161755  0.000372  1
  Ir  Ir2  1  0.001385  0.001323  0.499284  1
  Ir  Ir3  1  0.348759  0.348736  0.946324  1
  Pt  Pt4  1  0.774810  0.489972  0.452367  1
  Rh  Rh5  1  0.650385  0.649026  0.055216  1
  Rh  Rh6  1  0.508210  0.219016  0.548332  1
  Rh  Rh7  1  0.219176  0.509931  0.548872  1
  Rh  Rh8  1  0.488603  0.779660  0.451769  1
  S  S9  1  0.856582  0.439212  0.096057  1
  S  S10  1  0.560280  0.142463  0.899907  1
  S  S11  1  0.146198  0.561778  0.897299  1
  S  S12  1  0.439152  0.854801  0.103034  1
  S  S13  1  0.115922  0.115983  0.109965  1
  S  S14  1  0.886292  0.885369  0.889570  1
  S  S15  1  0.035217  0.719364  0.386554  1
  S  S16  1  0.285654  0.969194  0.611452  1
  S  S17  1  0.970538  0.282289  0.613570  1
  S  S18  1  0.579384  0.585512  0.735202  1
  S  S19  1  0.413904  0.414794  0.268340  1
  S  S20  1  0.717655  0.030929  0.386939  1
