# generated using pymatgen
data_Dy3Sc5Ir4
_symmetry_space_group_name_H-M   'P 1'
_cell_length_a   4.23942200
_cell_length_b   7.10860275
_cell_length_c   8.62828791
_cell_angle_alpha   90.93443633
_cell_angle_beta   90.00000000
_cell_angle_gamma   90.00000000
_symmetry_Int_Tables_number   1
_chemical_formula_structural   Dy3Sc5Ir4
_chemical_formula_sum   'Dy3 Sc5 Ir4'
_cell_volume   259.99066976
_cell_formula_units_Z   1
loop_
 _symmetry_equiv_pos_site_id
 _symmetry_equiv_pos_as_xyz
  1  'x, y, z'
loop_
 _atom_site_type_symbol
 _atom_site_label
 _atom_site_symmetry_multiplicity
 _atom_site_fract_x
 _atom_site_fract_y
 _atom_site_fract_z
 _atom_site_occupancy
  Dy  Dy0  1  0.250000  0.522563  0.174549  1
  Dy  Dy1  1  0.750000  0.983471  0.669970  1
  Dy  Dy2  1  0.750000  0.485345  0.826658  1
  Sc  Sc3  1  0.250000  0.142849  0.937614  1
  Sc  Sc4  1  0.250000  0.638598  0.564582  1
  Sc  Sc5  1  0.750000  0.866568  0.075068  1
  Sc  Sc6  1  0.750000  0.347070  0.427155  1
  Sc  Sc7  1  0.250000  0.007971  0.337159  1
  Ir  Ir8  1  0.250000  0.253024  0.597911  1
  Ir  Ir9  1  0.250000  0.761722  0.896465  1
  Ir  Ir10  1  0.750000  0.743693  0.391090  1
  Ir  Ir11  1  0.750000  0.247126  0.101777  1
