# generated using pymatgen
data_Dy3ScZn2Ir3
_symmetry_space_group_name_H-M   'P 1'
_cell_length_a   7.20879173
_cell_length_b   7.18438447
_cell_length_c   4.02416600
_cell_angle_alpha   90.00000000
_cell_angle_beta   90.00000000
_cell_angle_gamma   119.88805929
_symmetry_Int_Tables_number   1
_chemical_formula_structural   Dy3ScZn2Ir3
_chemical_formula_sum   'Dy3 Sc1 Zn2 Ir3'
_cell_volume   180.69550031
_cell_formula_units_Z   1
loop_
 _symmetry_equiv_pos_site_id
 _symmetry_equiv_pos_as_xyz
  1  'x, y, z'
loop_
 _atom_site_type_symbol
 _atom_site_label
 _atom_site_symmetry_multiplicity
 _atom_site_fract_x
 _atom_site_fract_y
 _atom_site_fract_z
 _atom_site_occupancy
  Dy  Dy0  1  0.570415  0.582661  0.000000  1
  Dy  Dy1  1  0.429585  0.012246  0.000000  1
  Dy  Dy2  1  0.000000  0.390982  0.000000  1
  Sc  Sc3  1  0.000000  0.760821  0.500000  1
  Zn  Zn4  1  0.249617  0.245784  0.500000  1
  Zn  Zn5  1  0.750383  0.996166  0.500000  1
  Ir  Ir6  1  0.000000  0.998005  0.000000  1
  Ir  Ir7  1  0.673303  0.343318  0.500000  1
  Ir  Ir8  1  0.326697  0.670016  0.500000  1
