# generated using pymatgen
data_YAl5Pt3
_symmetry_space_group_name_H-M   'P 1'
_cell_length_a   4.09248600
_cell_length_b   7.39205700
_cell_length_c   20.60443000
_cell_angle_alpha   90.00000000
_cell_angle_beta   90.00000000
_cell_angle_gamma   90.00000000
_symmetry_Int_Tables_number   1
_chemical_formula_structural   YAl5Pt3
_chemical_formula_sum   'Y4 Al20 Pt12'
_cell_volume   623.32294542
_cell_formula_units_Z   4
loop_
 _symmetry_equiv_pos_site_id
 _symmetry_equiv_pos_as_xyz
  1  'x, y, z'
loop_
 _atom_site_type_symbol
 _atom_site_label
 _atom_site_symmetry_multiplicity
 _atom_site_fract_x
 _atom_site_fract_y
 _atom_site_fract_z
 _atom_site_occupancy
  Y  Y0  1  0.250000  0.116395  0.639763  1
  Y  Y1  1  0.750000  0.883605  0.360237  1
  Y  Y2  1  0.250000  0.383605  0.139763  1
  Y  Y3  1  0.750000  0.616395  0.860237  1
  Al  Al4  1  0.750000  0.354463  0.382336  1
  Al  Al5  1  0.750000  0.884133  0.983835  1
  Al  Al6  1  0.750000  0.685751  0.200262  1
  Al  Al7  1  0.250000  0.869543  0.490974  1
  Al  Al8  1  0.250000  0.630457  0.990974  1
  Al  Al9  1  0.250000  0.314249  0.799738  1
  Al  Al10  1  0.750000  0.074659  0.209111  1
  Al  Al11  1  0.250000  0.645537  0.617664  1
  Al  Al12  1  0.250000  0.574659  0.290889  1
  Al  Al13  1  0.250000  0.185751  0.299738  1
  Al  Al14  1  0.750000  0.145537  0.882336  1
  Al  Al15  1  0.250000  0.925341  0.790889  1
  Al  Al16  1  0.750000  0.369543  0.009026  1
  Al  Al17  1  0.750000  0.615867  0.483835  1
  Al  Al18  1  0.750000  0.130457  0.509026  1
  Al  Al19  1  0.250000  0.115867  0.016165  1
  Al  Al20  1  0.250000  0.854463  0.117664  1
  Al  Al21  1  0.250000  0.384133  0.516165  1
  Al  Al22  1  0.750000  0.425341  0.709111  1
  Al  Al23  1  0.750000  0.814249  0.700262  1
  Pt  Pt24  1  0.750000  0.382532  0.259720  1
  Pt  Pt25  1  0.250000  0.882532  0.240280  1
  Pt  Pt26  1  0.250000  0.617468  0.740280  1
  Pt  Pt27  1  0.750000  0.117468  0.759720  1
  Pt  Pt28  1  0.250000  0.160139  0.426160  1
  Pt  Pt29  1  0.750000  0.418803  0.585588  1
  Pt  Pt30  1  0.750000  0.081197  0.085588  1
  Pt  Pt31  1  0.250000  0.918803  0.914412  1
  Pt  Pt32  1  0.750000  0.839861  0.573840  1
  Pt  Pt33  1  0.250000  0.339861  0.926160  1
  Pt  Pt34  1  0.750000  0.660139  0.073840  1
  Pt  Pt35  1  0.250000  0.581197  0.414412  1
