# generated using pymatgen
data_RbTiCuAs2
_symmetry_space_group_name_H-M   'P 1'
_cell_length_a   7.88543867
_cell_length_b   7.88543864
_cell_length_c   7.88543784
_cell_angle_alpha   149.82553832
_cell_angle_beta   149.82553458
_cell_angle_gamma   43.19755880
_symmetry_Int_Tables_number   1
_chemical_formula_structural   RbTiCuAs2
_chemical_formula_sum   'Rb1 Ti1 Cu1 As2'
_cell_volume   123.54709405
_cell_formula_units_Z   1
loop_
 _symmetry_equiv_pos_site_id
 _symmetry_equiv_pos_as_xyz
  1  'x, y, z'
loop_
 _atom_site_type_symbol
 _atom_site_label
 _atom_site_symmetry_multiplicity
 _atom_site_fract_x
 _atom_site_fract_y
 _atom_site_fract_z
 _atom_site_occupancy
  Rb  Rb0  1  0.000000  0.000000  0.000000  1
  Ti  Ti1  1  0.750000  0.250000  0.500000  1
  Cu  Cu2  1  0.250000  0.750000  0.500000  1
  As  As3  1  0.347280  0.347280  0.000000  1
  As  As4  1  0.652720  0.652720  0.000000  1
