# generated using pymatgen
data_WSeS2Br5
_symmetry_space_group_name_H-M   'P 1'
_cell_length_a   10.70913183
_cell_length_b   10.70913225
_cell_length_c   15.44009231
_cell_angle_alpha   67.05990229
_cell_angle_beta   67.05990285
_cell_angle_gamma   57.63390736
_symmetry_Int_Tables_number   1
_chemical_formula_structural   WSeS2Br5
_chemical_formula_sum   'W4 Se4 S8 Br20'
_cell_volume   1339.51394419
_cell_formula_units_Z   4
loop_
 _symmetry_equiv_pos_site_id
 _symmetry_equiv_pos_as_xyz
  1  'x, y, z'
loop_
 _atom_site_type_symbol
 _atom_site_label
 _atom_site_symmetry_multiplicity
 _atom_site_fract_x
 _atom_site_fract_y
 _atom_site_fract_z
 _atom_site_occupancy
  W  W0  1  0.623404  0.235641  0.239026  1
  W  W1  1  0.376596  0.764359  0.760974  1
  W  W2  1  0.235641  0.623404  0.739026  1
  W  W3  1  0.764359  0.376596  0.260974  1
  Se  Se4  1  0.229713  0.065418  0.762716  1
  Se  Se5  1  0.770287  0.934582  0.237284  1
  Se  Se6  1  0.065418  0.229713  0.262716  1
  Se  Se7  1  0.934582  0.770287  0.737284  1
  S  S8  1  0.862496  0.240806  0.134020  1
  S  S9  1  0.240806  0.862496  0.634020  1
  S  S10  1  0.137504  0.759194  0.865980  1
  S  S11  1  0.328594  0.557458  0.879533  1
  S  S12  1  0.442542  0.671406  0.620467  1
  S  S13  1  0.759194  0.137504  0.365980  1
  S  S14  1  0.671406  0.442542  0.120467  1
  S  S15  1  0.557458  0.328594  0.379533  1
  Br  Br16  1  0.447678  0.350890  0.728895  1
  Br  Br17  1  0.224991  0.138079  0.116969  1
  Br  Br18  1  0.978920  0.128609  0.869704  1
  Br  Br19  1  0.071689  0.479806  0.849582  1
  Br  Br20  1  0.166793  0.617940  0.595011  1
  Br  Br21  1  0.479806  0.071689  0.349582  1
  Br  Br22  1  0.021080  0.871391  0.130296  1
  Br  Br23  1  0.552322  0.649110  0.271105  1
  Br  Br24  1  0.350890  0.447678  0.228895  1
  Br  Br25  1  0.861921  0.775009  0.383031  1
  Br  Br26  1  0.138079  0.224991  0.616969  1
  Br  Br27  1  0.520194  0.928311  0.650418  1
  Br  Br28  1  0.775009  0.861921  0.883031  1
  Br  Br29  1  0.382060  0.833207  0.904989  1
  Br  Br30  1  0.833207  0.382060  0.404989  1
  Br  Br31  1  0.928311  0.520194  0.150418  1
  Br  Br32  1  0.617940  0.166793  0.095011  1
  Br  Br33  1  0.871391  0.021080  0.630296  1
  Br  Br34  1  0.128609  0.978920  0.369704  1
  Br  Br35  1  0.649110  0.552322  0.771105  1
