# generated using pymatgen
data_Ho2SnB2Ru5
_symmetry_space_group_name_H-M   'P 1'
_cell_length_a   9.73330700
_cell_length_b   9.73330700
_cell_length_c   3.13137000
_cell_angle_alpha   90.00000000
_cell_angle_beta   90.00000000
_cell_angle_gamma   90.00000000
_symmetry_Int_Tables_number   1
_chemical_formula_structural   Ho2SnB2Ru5
_chemical_formula_sum   'Ho4 Sn2 B4 Ru10'
_cell_volume   296.65742999
_cell_formula_units_Z   2
loop_
 _symmetry_equiv_pos_site_id
 _symmetry_equiv_pos_as_xyz
  1  'x, y, z'
loop_
 _atom_site_type_symbol
 _atom_site_label
 _atom_site_symmetry_multiplicity
 _atom_site_fract_x
 _atom_site_fract_y
 _atom_site_fract_z
 _atom_site_occupancy
  Ho  Ho0  1  0.825040  0.674960  0.000000  1
  Ho  Ho1  1  0.174960  0.325040  0.000000  1
  Ho  Ho2  1  0.325040  0.825040  0.000000  1
  Ho  Ho3  1  0.674960  0.174960  0.000000  1
  Sn  Sn4  1  0.500000  0.500000  0.000000  1
  Sn  Sn5  1  0.000000  0.000000  0.000000  1
  B  B6  1  0.620080  0.879920  0.000000  1
  B  B7  1  0.379920  0.120080  0.000000  1
  B  B8  1  0.120080  0.620080  0.000000  1
  B  B9  1  0.879920  0.379920  0.000000  1
  Ru  Ru10  1  0.570131  0.722898  0.500000  1
  Ru  Ru11  1  0.429869  0.277102  0.500000  1
  Ru  Ru12  1  0.070131  0.777102  0.500000  1
  Ru  Ru13  1  0.929869  0.222898  0.500000  1
  Ru  Ru14  1  0.277102  0.570131  0.500000  1
  Ru  Ru15  1  0.722898  0.429869  0.500000  1
  Ru  Ru16  1  0.222898  0.070131  0.500000  1
  Ru  Ru17  1  0.777102  0.929869  0.500000  1
  Ru  Ru18  1  0.500000  0.000000  0.500000  1
  Ru  Ru19  1  0.000000  0.500000  0.500000  1
