# generated using pymatgen
data_Er2ScU(Co4P3)2
_symmetry_space_group_name_H-M   'P 1'
_cell_length_a   3.72937900
_cell_length_b   10.71674700
_cell_length_c   12.24909200
_cell_angle_alpha   90.00000000
_cell_angle_beta   90.00000000
_cell_angle_gamma   90.00000000
_symmetry_Int_Tables_number   1
_chemical_formula_structural   Er2ScU(Co4P3)2
_chemical_formula_sum   'Er4 Sc2 U2 Co16 P12'
_cell_volume   489.55714746
_cell_formula_units_Z   2
loop_
 _symmetry_equiv_pos_site_id
 _symmetry_equiv_pos_as_xyz
  1  'x, y, z'
loop_
 _atom_site_type_symbol
 _atom_site_label
 _atom_site_symmetry_multiplicity
 _atom_site_fract_x
 _atom_site_fract_y
 _atom_site_fract_z
 _atom_site_occupancy
  Er  Er0  1  0.250000  0.930214  0.795676  1
  Er  Er1  1  0.250000  0.569786  0.795676  1
  Er  Er2  1  0.750000  0.069786  0.204324  1
  Er  Er3  1  0.750000  0.430214  0.204324  1
  Sc  Sc4  1  0.250000  0.250000  0.842009  1
  Sc  Sc5  1  0.750000  0.750000  0.157991  1
  U  U6  1  0.750000  0.250000  0.463698  1
  U  U7  1  0.250000  0.750000  0.536302  1
  Co  Co8  1  0.250000  0.250000  0.305776  1
  Co  Co9  1  0.750000  0.750000  0.694224  1
  Co  Co10  1  0.750000  0.250000  0.013633  1
  Co  Co11  1  0.250000  0.750000  0.986367  1
  Co  Co12  1  0.250000  0.417559  0.006784  1
  Co  Co13  1  0.250000  0.082441  0.006784  1
  Co  Co14  1  0.750000  0.582441  0.993216  1
  Co  Co15  1  0.750000  0.917559  0.993216  1
  Co  Co16  1  0.250000  0.454116  0.565377  1
  Co  Co17  1  0.250000  0.045884  0.565377  1
  Co  Co18  1  0.750000  0.545884  0.434623  1
  Co  Co19  1  0.750000  0.954116  0.434623  1
  Co  Co20  1  0.250000  0.871371  0.298190  1
  Co  Co21  1  0.250000  0.628629  0.298190  1
  Co  Co22  1  0.750000  0.128629  0.701810  1
  Co  Co23  1  0.750000  0.371371  0.701810  1
  P  P24  1  0.250000  0.250000  0.119614  1
  P  P25  1  0.750000  0.750000  0.880386  1
  P  P26  1  0.250000  0.250000  0.635715  1
  P  P27  1  0.750000  0.750000  0.364285  1
  P  P28  1  0.250000  0.443601  0.383682  1
  P  P29  1  0.250000  0.056399  0.383682  1
  P  P30  1  0.750000  0.556399  0.616318  1
  P  P31  1  0.750000  0.943601  0.616318  1
  P  P32  1  0.250000  0.910516  0.106657  1
  P  P33  1  0.250000  0.589484  0.106657  1
  P  P34  1  0.750000  0.089484  0.893343  1
  P  P35  1  0.750000  0.410516  0.893343  1
