# generated using pymatgen
data_TaNb5CN2
_symmetry_space_group_name_H-M   'P 1'
_cell_length_a   5.38097662
_cell_length_b   5.37951036
_cell_length_c   4.97536773
_cell_angle_alpha   90.11270993
_cell_angle_beta   90.18991678
_cell_angle_gamma   120.11275029
_symmetry_Int_Tables_number   1
_chemical_formula_structural   TaNb5CN2
_chemical_formula_sum   'Ta1 Nb5 C1 N2'
_cell_volume   124.58303742
_cell_formula_units_Z   1
loop_
 _symmetry_equiv_pos_site_id
 _symmetry_equiv_pos_as_xyz
  1  'x, y, z'
loop_
 _atom_site_type_symbol
 _atom_site_label
 _atom_site_symmetry_multiplicity
 _atom_site_fract_x
 _atom_site_fract_y
 _atom_site_fract_z
 _atom_site_occupancy
  Ta  Ta0  1  0.664832  0.666423  0.751735  1
  Nb  Nb1  1  0.001584  0.337525  0.752785  1
  Nb  Nb2  1  0.336697  0.000043  0.752802  1
  Nb  Nb3  1  0.334379  0.335755  0.245168  1
  Nb  Nb4  1  0.001255  0.664045  0.248630  1
  Nb  Nb5  1  0.662757  0.998843  0.247856  1
  C  C6  1  0.665958  0.334633  0.500772  1
  N  N7  1  0.335703  0.665997  0.501887  1
  N  N8  1  0.996838  0.996736  0.998365  1
