# generated using pymatgen
data_SmHo4In2(HgPd)2
_symmetry_space_group_name_H-M   'P 1'
_cell_length_a   3.63143400
_cell_length_b   8.02136200
_cell_length_c   18.41405300
_cell_angle_alpha   90.00000000
_cell_angle_beta   90.00000000
_cell_angle_gamma   90.00000000
_symmetry_Int_Tables_number   1
_chemical_formula_structural   SmHo4In2(HgPd)2
_chemical_formula_sum   'Sm2 Ho8 In4 Hg4 Pd4'
_cell_volume   536.38380965
_cell_formula_units_Z   2
loop_
 _symmetry_equiv_pos_site_id
 _symmetry_equiv_pos_as_xyz
  1  'x, y, z'
loop_
 _atom_site_type_symbol
 _atom_site_label
 _atom_site_symmetry_multiplicity
 _atom_site_fract_x
 _atom_site_fract_y
 _atom_site_fract_z
 _atom_site_occupancy
  Sm  Sm0  1  0.000000  0.500000  0.500000  1
  Sm  Sm1  1  0.000000  0.000000  0.000000  1
  Ho  Ho2  1  0.000000  0.743164  0.283650  1
  Ho  Ho3  1  0.000000  0.256836  0.716350  1
  Ho  Ho4  1  0.000000  0.756836  0.783650  1
  Ho  Ho5  1  0.000000  0.243164  0.216350  1
  Ho  Ho6  1  0.000000  0.609484  0.083981  1
  Ho  Ho7  1  0.000000  0.390516  0.916019  1
  Ho  Ho8  1  0.000000  0.890516  0.583981  1
  Ho  Ho9  1  0.000000  0.109484  0.416019  1
  In  In10  1  0.500000  0.580939  0.650612  1
  In  In11  1  0.500000  0.419061  0.349388  1
  In  In12  1  0.500000  0.919061  0.150612  1
  In  In13  1  0.500000  0.080939  0.849388  1
  Hg  Hg14  1  0.500000  0.709528  0.931759  1
  Hg  Hg15  1  0.500000  0.290472  0.068241  1
  Hg  Hg16  1  0.500000  0.790472  0.431759  1
  Hg  Hg17  1  0.500000  0.209528  0.568241  1
  Pd  Pd18  1  0.500000  0.530147  0.197746  1
  Pd  Pd19  1  0.500000  0.469853  0.802254  1
  Pd  Pd20  1  0.500000  0.969853  0.697746  1
  Pd  Pd21  1  0.500000  0.030147  0.302254  1
