# generated using pymatgen
data_SmPa3(CoGe)4
_symmetry_space_group_name_H-M   'P 1'
_cell_length_a   4.27070900
_cell_length_b   6.94787359
_cell_length_c   7.39986724
_cell_angle_alpha   93.24959464
_cell_angle_beta   90.00000000
_cell_angle_gamma   90.00000000
_symmetry_Int_Tables_number   1
_chemical_formula_structural   SmPa3(CoGe)4
_chemical_formula_sum   'Sm1 Pa3 Co4 Ge4'
_cell_volume   219.21836798
_cell_formula_units_Z   1
loop_
 _symmetry_equiv_pos_site_id
 _symmetry_equiv_pos_as_xyz
  1  'x, y, z'
loop_
 _atom_site_type_symbol
 _atom_site_label
 _atom_site_symmetry_multiplicity
 _atom_site_fract_x
 _atom_site_fract_y
 _atom_site_fract_z
 _atom_site_occupancy
  Sm  Sm0  1  0.250000  0.775425  0.480780  1
  Pa  Pa1  1  0.250000  0.697089  0.991892  1
  Pa  Pa2  1  0.750000  0.301578  0.009442  1
  Pa  Pa3  1  0.750000  0.237319  0.522782  1
  Co  Co4  1  0.250000  0.040086  0.117802  1
  Co  Co5  1  0.750000  0.958006  0.875467  1
  Co  Co6  1  0.750000  0.548103  0.242909  1
  Co  Co7  1  0.250000  0.442061  0.751788  1
  Ge  Ge8  1  0.250000  0.382555  0.295398  1
  Ge  Ge9  1  0.750000  0.617978  0.712118  1
  Ge  Ge10  1  0.750000  0.909855  0.223533  1
  Ge  Ge11  1  0.250000  0.089946  0.776088  1
