# generated using pymatgen
data_Nd5Er11Cd4Ir3Pd
_symmetry_space_group_name_H-M   'P 1'
_cell_length_a   9.68992764
_cell_length_b   9.67358476
_cell_length_c   9.67358549
_cell_angle_alpha   60.01899245
_cell_angle_beta   60.05932651
_cell_angle_gamma   60.05933803
_symmetry_Int_Tables_number   1
_chemical_formula_structural   Nd5Er11Cd4Ir3Pd
_chemical_formula_sum   'Nd5 Er11 Cd4 Ir3 Pd1'
_cell_volume   641.84735765
_cell_formula_units_Z   1
loop_
 _symmetry_equiv_pos_site_id
 _symmetry_equiv_pos_as_xyz
  1  'x, y, z'
loop_
 _atom_site_type_symbol
 _atom_site_label
 _atom_site_symmetry_multiplicity
 _atom_site_fract_x
 _atom_site_fract_y
 _atom_site_fract_z
 _atom_site_occupancy
  Nd  Nd0  1  0.558443  0.942305  0.942305  1
  Nd  Nd1  1  0.564368  0.937651  0.560991  1
  Nd  Nd2  1  0.940788  0.561933  0.935883  1
  Nd  Nd3  1  0.564368  0.560991  0.937651  1
  Nd  Nd4  1  0.940788  0.935883  0.561933  1
  Er  Er5  1  0.348180  0.346077  0.346077  1
  Er  Er6  1  0.351525  0.355647  0.952800  1
  Er  Er7  1  0.351525  0.952800  0.355647  1
  Er  Er8  1  0.948782  0.353008  0.353008  1
  Er  Er9  1  0.806467  0.187467  0.187467  1
  Er  Er10  1  0.184864  0.813856  0.813856  1
  Er  Er11  1  0.187057  0.805994  0.190255  1
  Er  Er12  1  0.812964  0.186100  0.811431  1
  Er  Er13  1  0.187057  0.190255  0.805994  1
  Er  Er14  1  0.812964  0.811431  0.186100  1
  Er  Er15  1  0.945613  0.554912  0.554912  1
  Cd  Cd16  1  0.583532  0.578831  0.578831  1
  Cd  Cd17  1  0.578366  0.579641  0.260724  1
  Cd  Cd18  1  0.578366  0.260724  0.579641  1
  Cd  Cd19  1  0.258589  0.578946  0.578946  1
  Ir  Ir20  1  0.138520  0.146735  0.574804  1
  Ir  Ir21  1  0.138520  0.574804  0.146735  1
  Ir  Ir22  1  0.575111  0.141027  0.141027  1
  Pd  Pd23  1  0.143240  0.142978  0.142978  1
