# generated using pymatgen
data_Hf16Co4MoPt3
_symmetry_space_group_name_H-M   'P 1'
_cell_length_a   8.65745068
_cell_length_b   8.59546542
_cell_length_c   8.59546400
_cell_angle_alpha   59.99999777
_cell_angle_beta   60.23655943
_cell_angle_gamma   60.23655920
_symmetry_Int_Tables_number   1
_chemical_formula_structural   Hf16Co4MoPt3
_chemical_formula_sum   'Hf16 Co4 Mo1 Pt3'
_cell_volume   453.89707646
_cell_formula_units_Z   1
loop_
 _symmetry_equiv_pos_site_id
 _symmetry_equiv_pos_as_xyz
  1  'x, y, z'
loop_
 _atom_site_type_symbol
 _atom_site_label
 _atom_site_symmetry_multiplicity
 _atom_site_fract_x
 _atom_site_fract_y
 _atom_site_fract_z
 _atom_site_occupancy
  Hf  Hf0  1  0.072385  0.642539  0.642539  1
  Hf  Hf1  1  0.648355  0.057398  0.647124  1
  Hf  Hf2  1  0.648355  0.647124  0.057398  1
  Hf  Hf3  1  0.648355  0.647124  0.647124  1
  Hf  Hf4  1  0.810026  0.802313  0.193830  1
  Hf  Hf5  1  0.193310  0.194214  0.806238  1
  Hf  Hf6  1  0.810026  0.193830  0.802313  1
  Hf  Hf7  1  0.193310  0.806238  0.194214  1
  Hf  Hf8  1  0.193310  0.806238  0.806238  1
  Hf  Hf9  1  0.810026  0.193830  0.193830  1
  Hf  Hf10  1  0.436800  0.437006  0.063097  1
  Hf  Hf11  1  0.053661  0.072170  0.437084  1
  Hf  Hf12  1  0.436800  0.063097  0.437006  1
  Hf  Hf13  1  0.053661  0.437084  0.072170  1
  Hf  Hf14  1  0.053661  0.437084  0.437084  1
  Hf  Hf15  1  0.436800  0.063097  0.063097  1
  Co  Co16  1  0.424356  0.858548  0.858548  1
  Co  Co17  1  0.861664  0.429374  0.854482  1
  Co  Co18  1  0.861664  0.854482  0.429374  1
  Co  Co19  1  0.861664  0.854482  0.854482  1
  Mo  Mo20  1  0.743345  0.418885  0.418885  1
  Pt  Pt21  1  0.416156  0.758869  0.412487  1
  Pt  Pt22  1  0.416156  0.412487  0.758869  1
  Pt  Pt23  1  0.416156  0.412487  0.412487  1
