# generated using pymatgen
data_Hf16Ta2GaCo5
_symmetry_space_group_name_H-M   'P 1'
_cell_length_a   8.59804094
_cell_length_b   8.69139003
_cell_length_c   8.69139100
_cell_angle_alpha   60.49815354
_cell_angle_beta   60.18617988
_cell_angle_gamma   60.18618083
_symmetry_Int_Tables_number   1
_chemical_formula_structural   Hf16Ta2GaCo5
_chemical_formula_sum   'Hf16 Ta2 Ga1 Co5'
_cell_volume   462.27147904
_cell_formula_units_Z   1
loop_
 _symmetry_equiv_pos_site_id
 _symmetry_equiv_pos_as_xyz
  1  'x, y, z'
loop_
 _atom_site_type_symbol
 _atom_site_label
 _atom_site_symmetry_multiplicity
 _atom_site_fract_x
 _atom_site_fract_y
 _atom_site_fract_z
 _atom_site_occupancy
  Hf  Hf0  1  0.204100  0.598096  0.598096  1
  Hf  Hf1  1  0.596398  0.202295  0.599329  1
  Hf  Hf2  1  0.596398  0.599329  0.202295  1
  Hf  Hf3  1  0.604171  0.597067  0.597067  1
  Hf  Hf4  1  0.817125  0.816009  0.188800  1
  Hf  Hf5  1  0.184003  0.188185  0.815584  1
  Hf  Hf6  1  0.817125  0.188800  0.816009  1
  Hf  Hf7  1  0.184003  0.815584  0.188185  1
  Hf  Hf8  1  0.209096  0.813426  0.813426  1
  Hf  Hf9  1  0.815990  0.185612  0.185612  1
  Hf  Hf10  1  0.449928  0.443931  0.050832  1
  Hf  Hf11  1  0.057167  0.056310  0.441754  1
  Hf  Hf12  1  0.449928  0.050832  0.443931  1
  Hf  Hf13  1  0.057167  0.441754  0.056310  1
  Hf  Hf14  1  0.045857  0.454364  0.454364  1
  Hf  Hf15  1  0.444620  0.050129  0.050129  1
  Ta  Ta16  1  0.826830  0.503771  0.834291  1
  Ta  Ta17  1  0.826830  0.834291  0.503771  1
  Ga  Ga18  1  0.825706  0.832334  0.832334  1
  Co  Co19  1  0.827777  0.387891  0.387891  1
  Co  Co20  1  0.390767  0.828344  0.387173  1
  Co  Co21  1  0.390767  0.387173  0.828344  1
  Co  Co22  1  0.392115  0.389343  0.389343  1
  Co  Co23  1  0.486133  0.835133  0.835133  1
