# generated using pymatgen
data_EuTh(Al4Ni)2
_symmetry_space_group_name_H-M   'P 1'
_cell_length_a   4.12936097
_cell_length_b   6.67277100
_cell_length_c   8.14138290
_cell_angle_alpha   90.00000000
_cell_angle_beta   104.69083214
_cell_angle_gamma   90.00000000
_symmetry_Int_Tables_number   1
_chemical_formula_structural   EuTh(Al4Ni)2
_chemical_formula_sum   'Eu1 Th1 Al8 Ni2'
_cell_volume   216.99622763
_cell_formula_units_Z   1
loop_
 _symmetry_equiv_pos_site_id
 _symmetry_equiv_pos_as_xyz
  1  'x, y, z'
loop_
 _atom_site_type_symbol
 _atom_site_label
 _atom_site_symmetry_multiplicity
 _atom_site_fract_x
 _atom_site_fract_y
 _atom_site_fract_z
 _atom_site_occupancy
  Eu  Eu0  1  0.885417  0.750000  0.770835  1
  Th  Th1  1  0.116334  0.250000  0.232670  1
  Al  Al2  1  0.499201  0.501156  0.998402  1
  Al  Al3  1  0.499201  0.998844  0.998402  1
  Al  Al4  1  0.076828  0.750000  0.153655  1
  Al  Al5  1  0.921036  0.250000  0.842072  1
  Al  Al6  1  0.692414  0.556591  0.384827  1
  Al  Al7  1  0.310388  0.448320  0.620777  1
  Al  Al8  1  0.692414  0.943409  0.384827  1
  Al  Al9  1  0.310388  0.051680  0.620777  1
  Ni  Ni10  1  0.223531  0.750000  0.447063  1
  Ni  Ni11  1  0.772848  0.250000  0.545695  1
