# generated using pymatgen
data_BaNd3Os6O19
_symmetry_space_group_name_H-M   'P 1'
_cell_length_a   8.03850664
_cell_length_b   8.03850673
_cell_length_c   7.73309800
_cell_angle_alpha   108.70338109
_cell_angle_beta   108.70338131
_cell_angle_gamma   110.22803059
_symmetry_Int_Tables_number   1
_chemical_formula_structural   BaNd3Os6O19
_chemical_formula_sum   'Ba1 Nd3 Os6 O19'
_cell_volume   388.24897811
_cell_formula_units_Z   1
loop_
 _symmetry_equiv_pos_site_id
 _symmetry_equiv_pos_as_xyz
  1  'x, y, z'
loop_
 _atom_site_type_symbol
 _atom_site_label
 _atom_site_symmetry_multiplicity
 _atom_site_fract_x
 _atom_site_fract_y
 _atom_site_fract_z
 _atom_site_occupancy
  Ba  Ba0  1  0.000000  0.000000  0.340254  1
  Nd  Nd1  1  0.985042  0.292771  0.985575  1
  Nd  Nd2  1  0.707229  0.692272  0.692805  1
  Nd  Nd3  1  0.307728  0.014958  0.000533  1
  Os  Os4  1  0.368204  0.502573  0.861167  1
  Os  Os5  1  0.865133  0.365879  0.506882  1
  Os  Os6  1  0.500746  0.134867  0.641749  1
  Os  Os7  1  0.134369  0.631796  0.492964  1
  Os  Os8  1  0.497427  0.865631  0.358595  1
  Os  Os9  1  0.634121  0.499254  0.141003  1
  O  O10  1  0.336376  0.007841  0.323002  1
  O  O11  1  0.328737  0.336995  0.012702  1
  O  O12  1  0.008257  0.671263  0.683964  1
  O  O13  1  0.671465  0.663624  0.986626  1
  O  O14  1  0.992159  0.328535  0.315162  1
  O  O15  1  0.663005  0.991743  0.675707  1
  O  O16  1  0.000000  0.000000  0.962160  1
  O  O17  1  0.368803  0.294274  0.645014  1
  O  O18  1  0.067382  0.343085  0.715183  1
  O  O19  1  0.736862  0.372138  0.685253  1
  O  O20  1  0.368989  0.638928  0.691088  1
  O  O21  1  0.275703  0.932618  0.647799  1
  O  O22  1  0.627862  0.364724  0.313114  1
  O  O23  1  0.269939  0.631011  0.322099  1
  O  O24  1  0.705726  0.074527  0.350739  1
  O  O25  1  0.925473  0.631197  0.276211  1
  O  O26  1  0.656915  0.724297  0.372097  1
  O  O27  1  0.635276  0.263138  0.948391  1
  O  O28  1  0.361072  0.730061  0.052159  1
