# generated using pymatgen
data_Y4MnTc6Ru
_symmetry_space_group_name_H-M   'P 1'
_cell_length_a   5.28087300
_cell_length_b   5.28087447
_cell_length_c   9.15421000
_cell_angle_alpha   90.00000000
_cell_angle_beta   90.00000000
_cell_angle_gamma   120.00000960
_symmetry_Int_Tables_number   1
_chemical_formula_structural   Y4MnTc6Ru
_chemical_formula_sum   'Y4 Mn1 Tc6 Ru1'
_cell_volume   221.08690897
_cell_formula_units_Z   1
loop_
 _symmetry_equiv_pos_site_id
 _symmetry_equiv_pos_as_xyz
  1  'x, y, z'
loop_
 _atom_site_type_symbol
 _atom_site_label
 _atom_site_symmetry_multiplicity
 _atom_site_fract_x
 _atom_site_fract_y
 _atom_site_fract_z
 _atom_site_occupancy
  Y  Y0  1  0.333333  0.666667  0.434518  1
  Y  Y1  1  0.666667  0.333333  0.565482  1
  Y  Y2  1  0.666667  0.333333  0.936420  1
  Y  Y3  1  0.333333  0.666667  0.063580  1
  Mn  Mn4  1  0.000000  0.000000  0.500000  1
  Tc  Tc5  1  0.830717  0.169283  0.253305  1
  Tc  Tc6  1  0.830717  0.661436  0.253305  1
  Tc  Tc7  1  0.338564  0.169283  0.253305  1
  Tc  Tc8  1  0.169283  0.830717  0.746695  1
  Tc  Tc9  1  0.169283  0.338564  0.746695  1
  Tc  Tc10  1  0.661436  0.830717  0.746695  1
  Ru  Ru11  1  0.000000  0.000000  0.000000  1
