# generated using pymatgen
data_La12Ni6Hg
_symmetry_space_group_name_H-M   'P 1'
_cell_length_a   8.80529292
_cell_length_b   8.80529230
_cell_length_c   8.80529200
_cell_angle_alpha   109.47121765
_cell_angle_beta   109.47121623
_cell_angle_gamma   109.47122646
_symmetry_Int_Tables_number   1
_chemical_formula_structural   La12Ni6Hg
_chemical_formula_sum   'La12 Ni6 Hg1'
_cell_volume   525.54446349
_cell_formula_units_Z   1
loop_
 _symmetry_equiv_pos_site_id
 _symmetry_equiv_pos_as_xyz
  1  'x, y, z'
loop_
 _atom_site_type_symbol
 _atom_site_label
 _atom_site_symmetry_multiplicity
 _atom_site_fract_x
 _atom_site_fract_y
 _atom_site_fract_z
 _atom_site_occupancy
  La  La0  1  0.815866  0.691777  0.507642  1
  La  La1  1  0.184134  0.308223  0.492358  1
  La  La2  1  0.184134  0.691777  0.875911  1
  La  La3  1  0.815866  0.308223  0.124089  1
  La  La4  1  0.691777  0.507642  0.815866  1
  La  La5  1  0.308223  0.492358  0.184134  1
  La  La6  1  0.691777  0.875911  0.184134  1
  La  La7  1  0.308223  0.124089  0.815866  1
  La  La8  1  0.507642  0.815866  0.691777  1
  La  La9  1  0.492358  0.184134  0.308223  1
  La  La10  1  0.124089  0.815866  0.308223  1
  La  La11  1  0.875911  0.184134  0.691777  1
  Ni  Ni12  1  0.875668  0.375668  0.500000  1
  Ni  Ni13  1  0.124332  0.624332  0.500000  1
  Ni  Ni14  1  0.375668  0.500000  0.875668  1
  Ni  Ni15  1  0.624332  0.500000  0.124332  1
  Ni  Ni16  1  0.500000  0.875668  0.375668  1
  Ni  Ni17  1  0.500000  0.124332  0.624332  1
  Hg  Hg18  1  0.000000  0.000000  0.000000  1
