# generated using pymatgen
data_Th4Zn3GaIr4
_symmetry_space_group_name_H-M   'P 1'
_cell_length_a   4.21970900
_cell_length_b   7.06903018
_cell_length_c   8.33107382
_cell_angle_alpha   89.61982014
_cell_angle_beta   90.00000000
_cell_angle_gamma   90.00000000
_symmetry_Int_Tables_number   1
_chemical_formula_structural   Th4Zn3GaIr4
_chemical_formula_sum   'Th4 Zn3 Ga1 Ir4'
_cell_volume   248.50421529
_cell_formula_units_Z   1
loop_
 _symmetry_equiv_pos_site_id
 _symmetry_equiv_pos_as_xyz
  1  'x, y, z'
loop_
 _atom_site_type_symbol
 _atom_site_label
 _atom_site_symmetry_multiplicity
 _atom_site_fract_x
 _atom_site_fract_y
 _atom_site_fract_z
 _atom_site_occupancy
  Th  Th0  1  0.250000  0.955239  0.314148  1
  Th  Th1  1  0.250000  0.458475  0.188198  1
  Th  Th2  1  0.750000  0.044750  0.686028  1
  Th  Th3  1  0.750000  0.542505  0.813255  1
  Zn  Zn4  1  0.250000  0.370996  0.561516  1
  Zn  Zn5  1  0.250000  0.866828  0.937354  1
  Zn  Zn6  1  0.750000  0.628200  0.439866  1
  Ga  Ga7  1  0.750000  0.129417  0.059399  1
  Ir  Ir8  1  0.250000  0.255342  0.881959  1
  Ir  Ir9  1  0.250000  0.756982  0.622922  1
  Ir  Ir10  1  0.750000  0.748490  0.121934  1
  Ir  Ir11  1  0.750000  0.242776  0.373421  1
