# generated using pymatgen
data_Nd2NiIrI
_symmetry_space_group_name_H-M   'P 1'
_cell_length_a   4.17029500
_cell_length_b   4.17029489
_cell_length_c   8.80229600
_cell_angle_alpha   90.00000000
_cell_angle_beta   90.00000000
_cell_angle_gamma   120.00000877
_symmetry_Int_Tables_number   1
_chemical_formula_structural   Nd2NiIrI
_chemical_formula_sum   'Nd2 Ni1 Ir1 I1'
_cell_volume   132.57453292
_cell_formula_units_Z   1
loop_
 _symmetry_equiv_pos_site_id
 _symmetry_equiv_pos_as_xyz
  1  'x, y, z'
loop_
 _atom_site_type_symbol
 _atom_site_label
 _atom_site_symmetry_multiplicity
 _atom_site_fract_x
 _atom_site_fract_y
 _atom_site_fract_z
 _atom_site_occupancy
  Nd  Nd0  1  0.000000  0.000000  0.214528  1
  Nd  Nd1  1  0.000000  0.000000  0.785472  1
  Ni  Ni2  1  0.666667  0.333333  0.000000  1
  Ir  Ir3  1  0.333333  0.666667  0.000000  1
  I  I4  1  0.666667  0.333333  0.500000  1
