# generated using pymatgen
data_CaNd7(ReC2)4
_symmetry_space_group_name_H-M   'P 1'
_cell_length_a   5.33389700
_cell_length_b   6.69134878
_cell_length_c   10.28004189
_cell_angle_alpha   90.34498648
_cell_angle_beta   90.00000000
_cell_angle_gamma   90.00000000
_symmetry_Int_Tables_number   1
_chemical_formula_structural   CaNd7(ReC2)4
_chemical_formula_sum   'Ca1 Nd7 Re4 C8'
_cell_volume   366.89796631
_cell_formula_units_Z   1
loop_
 _symmetry_equiv_pos_site_id
 _symmetry_equiv_pos_as_xyz
  1  'x, y, z'
loop_
 _atom_site_type_symbol
 _atom_site_label
 _atom_site_symmetry_multiplicity
 _atom_site_fract_x
 _atom_site_fract_y
 _atom_site_fract_z
 _atom_site_occupancy
  Ca  Ca0  1  0.250000  0.470524  0.779426  1
  Nd  Nd1  1  0.750000  0.028811  0.286005  1
  Nd  Nd2  1  0.250000  0.972834  0.717747  1
  Nd  Nd3  1  0.750000  0.528474  0.216679  1
  Nd  Nd4  1  0.250000  0.809081  0.049375  1
  Nd  Nd5  1  0.750000  0.689479  0.552355  1
  Nd  Nd6  1  0.250000  0.312481  0.450234  1
  Nd  Nd7  1  0.750000  0.193785  0.948044  1
  Re  Re8  1  0.250000  0.268927  0.143642  1
  Re  Re9  1  0.750000  0.227855  0.642376  1
  Re  Re10  1  0.250000  0.771181  0.356220  1
  Re  Re11  1  0.750000  0.729068  0.857015  1
  C  C12  1  0.250000  0.692688  0.534262  1
  C  C13  1  0.750000  0.807588  0.036620  1
  C  C14  1  0.250000  0.185833  0.965287  1
  C  C15  1  0.750000  0.314082  0.464183  1
  C  C16  1  0.250000  0.034260  0.258400  1
  C  C17  1  0.750000  0.465108  0.758129  1
  C  C18  1  0.250000  0.533039  0.241416  1
  C  C19  1  0.750000  0.964902  0.742584  1
