# generated using pymatgen
data_Dy5MgRu4
_symmetry_space_group_name_H-M   'P 1'
_cell_length_a   3.41334500
_cell_length_b   3.41334500
_cell_length_c   18.26722600
_cell_angle_alpha   90.00000000
_cell_angle_beta   90.00000000
_cell_angle_gamma   90.00000000
_symmetry_Int_Tables_number   1
_chemical_formula_structural   Dy5MgRu4
_chemical_formula_sum   'Dy5 Mg1 Ru4'
_cell_volume   212.83006344
_cell_formula_units_Z   1
loop_
 _symmetry_equiv_pos_site_id
 _symmetry_equiv_pos_as_xyz
  1  'x, y, z'
loop_
 _atom_site_type_symbol
 _atom_site_label
 _atom_site_symmetry_multiplicity
 _atom_site_fract_x
 _atom_site_fract_y
 _atom_site_fract_z
 _atom_site_occupancy
  Dy  Dy0  1  0.000000  0.000000  0.870872  1
  Dy  Dy1  1  0.000000  0.000000  0.129128  1
  Dy  Dy2  1  0.000000  0.000000  0.312354  1
  Dy  Dy3  1  0.000000  0.000000  0.500000  1
  Dy  Dy4  1  0.000000  0.000000  0.687646  1
  Mg  Mg5  1  0.500000  0.500000  0.000000  1
  Ru  Ru6  1  0.500000  0.500000  0.214709  1
  Ru  Ru7  1  0.500000  0.500000  0.405225  1
  Ru  Ru8  1  0.500000  0.500000  0.594775  1
  Ru  Ru9  1  0.500000  0.500000  0.785291  1
