# generated using pymatgen
data_HoLu9(In2Pd)4
_symmetry_space_group_name_H-M   'P 1'
_cell_length_a   3.57574700
_cell_length_b   8.02575414
_cell_length_c   18.04063130
_cell_angle_alpha   90.02109709
_cell_angle_beta   90.00000000
_cell_angle_gamma   90.00000000
_symmetry_Int_Tables_number   1
_chemical_formula_structural   HoLu9(In2Pd)4
_chemical_formula_sum   'Ho1 Lu9 In8 Pd4'
_cell_volume   517.73119775
_cell_formula_units_Z   1
loop_
 _symmetry_equiv_pos_site_id
 _symmetry_equiv_pos_as_xyz
  1  'x, y, z'
loop_
 _atom_site_type_symbol
 _atom_site_label
 _atom_site_symmetry_multiplicity
 _atom_site_fract_x
 _atom_site_fract_y
 _atom_site_fract_z
 _atom_site_occupancy
  Ho  Ho0  1  0.000000  0.500000  0.500000  1
  Lu  Lu1  1  0.000000  0.000000  0.000000  1
  Lu  Lu2  1  0.000000  0.742732  0.279536  1
  Lu  Lu3  1  0.000000  0.257268  0.720464  1
  Lu  Lu4  1  0.000000  0.757092  0.779628  1
  Lu  Lu5  1  0.000000  0.242908  0.220372  1
  Lu  Lu6  1  0.000000  0.618245  0.084086  1
  Lu  Lu7  1  0.000000  0.381755  0.915914  1
  Lu  Lu8  1  0.000000  0.881484  0.584464  1
  Lu  Lu9  1  0.000000  0.118516  0.415536  1
  In  In10  1  0.500000  0.708653  0.932521  1
  In  In11  1  0.500000  0.291347  0.067479  1
  In  In12  1  0.500000  0.794276  0.432799  1
  In  In13  1  0.500000  0.205724  0.567201  1
  In  In14  1  0.500000  0.578513  0.649631  1
  In  In15  1  0.500000  0.421487  0.350369  1
  In  In16  1  0.500000  0.922665  0.149116  1
  In  In17  1  0.500000  0.077335  0.850884  1
  Pd  Pd18  1  0.500000  0.525905  0.195229  1
  Pd  Pd19  1  0.500000  0.474095  0.804771  1
  Pd  Pd20  1  0.500000  0.974482  0.695825  1
  Pd  Pd21  1  0.500000  0.025518  0.304175  1
