# generated using pymatgen
data_K2HfMg(ZnAs2)2
_symmetry_space_group_name_H-M   'P 1'
_cell_length_a   7.81793086
_cell_length_b   7.81793232
_cell_length_c   6.04105100
_cell_angle_alpha   90.00000000
_cell_angle_beta   90.00000000
_cell_angle_gamma   134.51112847
_symmetry_Int_Tables_number   1
_chemical_formula_structural   K2HfMg(ZnAs2)2
_chemical_formula_sum   'K2 Hf1 Mg1 Zn2 As4'
_cell_volume   263.30274006
_cell_formula_units_Z   1
loop_
 _symmetry_equiv_pos_site_id
 _symmetry_equiv_pos_as_xyz
  1  'x, y, z'
loop_
 _atom_site_type_symbol
 _atom_site_label
 _atom_site_symmetry_multiplicity
 _atom_site_fract_x
 _atom_site_fract_y
 _atom_site_fract_z
 _atom_site_occupancy
  K  K0  1  0.500000  0.000000  0.250655  1
  K  K1  1  0.000000  0.500000  0.749345  1
  Hf  Hf2  1  0.000000  0.000000  0.000000  1
  Mg  Mg3  1  0.500000  0.500000  0.500000  1
  Zn  Zn4  1  0.500000  0.500000  0.000000  1
  Zn  Zn5  1  0.000000  0.000000  0.500000  1
  As  As6  1  0.648562  0.861179  0.755151  1
  As  As7  1  0.138821  0.351438  0.244849  1
  As  As8  1  0.861179  0.648562  0.244849  1
  As  As9  1  0.351438  0.138821  0.755151  1
