# generated using pymatgen
data_Zr8Co7Si14Os
_symmetry_space_group_name_H-M   'P 1'
_cell_length_a   9.53578997
_cell_length_b   9.52796766
_cell_length_c   9.54259409
_cell_angle_alpha   94.13226234
_cell_angle_beta   94.17607248
_cell_angle_gamma   148.75644794
_symmetry_Int_Tables_number   1
_chemical_formula_structural   Zr8Co7Si14Os
_chemical_formula_sum   'Zr8 Co7 Si14 Os1'
_cell_volume   433.12048876
_cell_formula_units_Z   1
loop_
 _symmetry_equiv_pos_site_id
 _symmetry_equiv_pos_as_xyz
  1  'x, y, z'
loop_
 _atom_site_type_symbol
 _atom_site_label
 _atom_site_symmetry_multiplicity
 _atom_site_fract_x
 _atom_site_fract_y
 _atom_site_fract_z
 _atom_site_occupancy
  Zr  Zr0  1  0.137804  0.137803  0.275572  1
  Zr  Zr1  1  0.862338  0.862316  0.724724  1
  Zr  Zr2  1  0.862100  0.137226  0.000954  1
  Zr  Zr3  1  0.138826  0.863716  0.000931  1
  Zr  Zr4  1  0.499639  0.303808  0.803740  1
  Zr  Zr5  1  0.501690  0.696484  0.197250  1
  Zr  Zr6  1  0.695654  0.500850  0.197249  1
  Zr  Zr7  1  0.303988  0.499835  0.803727  1
  Co  Co8  1  0.103661  0.603654  0.207371  1
  Co  Co9  1  0.100224  0.896024  0.498844  1
  Co  Co10  1  0.398635  0.602856  0.498845  1
  Co  Co11  1  0.600257  0.395187  0.499261  1
  Co  Co12  1  0.899068  0.104100  0.499293  1
  Co  Co13  1  0.897712  0.397782  0.795494  1
  Co  Co14  1  0.602779  0.102779  0.205589  1
  Si  Si15  1  0.503957  0.096990  0.586575  1
  Si  Si16  1  0.501583  0.909009  0.407274  1
  Si  Si17  1  0.905661  0.498220  0.407274  1
  Si  Si18  1  0.082649  0.489607  0.586570  1
  Si  Si19  1  0.749312  0.749943  0.000222  1
  Si  Si20  1  0.250896  0.250270  0.000220  1
  Si  Si21  1  0.289154  0.289155  0.578118  1
  Si  Si22  1  0.710967  0.710973  0.422059  1
  Si  Si23  1  0.721411  0.301800  0.005442  1
  Si  Si24  1  0.283978  0.703587  0.005443  1
  Si  Si25  1  0.000386  0.302596  0.302042  1
  Si  Si26  1  0.989456  0.693058  0.696854  1
  Si  Si27  1  0.707406  0.003809  0.696847  1
  Si  Si28  1  0.301664  0.999472  0.302014  1
  Os  Os29  1  0.397146  0.897095  0.794203  1
