# generated using pymatgen
data_Ba8TmLu3(CoO5)4
_symmetry_space_group_name_H-M   'P 1'
_cell_length_a   6.09562001
_cell_length_b   7.89404179
_cell_length_c   12.39133514
_cell_angle_alpha   91.66089666
_cell_angle_beta   90.00422366
_cell_angle_gamma   89.99585254
_symmetry_Int_Tables_number   1
_chemical_formula_structural   Ba8TmLu3(CoO5)4
_chemical_formula_sum   'Ba8 Tm1 Lu3 Co4 O20'
_cell_volume   596.00912861
_cell_formula_units_Z   1
loop_
 _symmetry_equiv_pos_site_id
 _symmetry_equiv_pos_as_xyz
  1  'x, y, z'
loop_
 _atom_site_type_symbol
 _atom_site_label
 _atom_site_symmetry_multiplicity
 _atom_site_fract_x
 _atom_site_fract_y
 _atom_site_fract_z
 _atom_site_occupancy
  Ba  Ba0  1  0.757344  0.493538  0.361539  1
  Ba  Ba1  1  0.742763  0.993270  0.861825  1
  Ba  Ba2  1  0.242722  0.506950  0.638280  1
  Ba  Ba3  1  0.257277  0.006563  0.138398  1
  Ba  Ba4  1  0.753473  0.992275  0.383816  1
  Ba  Ba5  1  0.746580  0.492645  0.884162  1
  Ba  Ba6  1  0.246536  0.007183  0.615945  1
  Ba  Ba7  1  0.253452  0.507501  0.116099  1
  Tm  Tm8  1  0.747937  0.262226  0.630292  1
  Lu  Lu9  1  0.752138  0.761786  0.130595  1
  Lu  Lu10  1  0.252140  0.738215  0.369367  1
  Lu  Lu11  1  0.247961  0.238119  0.869921  1
  Co  Co12  1  0.741987  0.745791  0.590835  1
  Co  Co13  1  0.758031  0.245840  0.091025  1
  Co  Co14  1  0.257952  0.254010  0.408278  1
  Co  Co15  1  0.242015  0.754125  0.908996  1
  O  O16  1  0.754111  0.972720  0.632306  1
  O  O17  1  0.745999  0.473651  0.132208  1
  O  O18  1  0.245923  0.026063  0.367826  1
  O  O19  1  0.254013  0.526595  0.867803  1
  O  O20  1  0.739917  0.051287  0.167862  1
  O  O21  1  0.760219  0.552328  0.668282  1
  O  O22  1  0.260089  0.948473  0.832145  1
  O  O23  1  0.239890  0.449030  0.332095  1
  O  O24  1  0.533327  0.747064  0.266385  1
  O  O25  1  0.967343  0.246902  0.767172  1
  O  O26  1  0.464925  0.252886  0.734012  1
  O  O27  1  0.033209  0.752942  0.233746  1
  O  O28  1  0.524129  0.230736  0.987018  1
  O  O29  1  0.976266  0.730687  0.486858  1
  O  O30  1  0.476212  0.769267  0.013151  1
  O  O31  1  0.025296  0.269354  0.512433  1
  O  O32  1  0.028598  0.233766  0.013589  1
  O  O33  1  0.471079  0.733654  0.513347  1
  O  O34  1  0.971163  0.766244  0.986681  1
  O  O35  1  0.527987  0.266312  0.485706  1
