# generated using pymatgen
data_Eu8Er5Lu7Si16
_symmetry_space_group_name_H-M   'P 1'
_cell_length_a   7.43859921
_cell_length_b   7.74646564
_cell_length_c   14.71712300
_cell_angle_alpha   89.99145718
_cell_angle_beta   90.09015775
_cell_angle_gamma   89.94516197
_symmetry_Int_Tables_number   1
_chemical_formula_structural   Eu8Er5Lu7Si16
_chemical_formula_sum   'Eu8 Er5 Lu7 Si16'
_cell_volume   848.04116953
_cell_formula_units_Z   1
loop_
 _symmetry_equiv_pos_site_id
 _symmetry_equiv_pos_as_xyz
  1  'x, y, z'
loop_
 _atom_site_type_symbol
 _atom_site_label
 _atom_site_symmetry_multiplicity
 _atom_site_fract_x
 _atom_site_fract_y
 _atom_site_fract_z
 _atom_site_occupancy
  Eu  Eu0  1  0.018564  0.175591  0.403913  1
  Eu  Eu1  1  0.518837  0.323978  0.403712  1
  Eu  Eu2  1  0.482189  0.675029  0.905810  1
  Eu  Eu3  1  0.481492  0.675265  0.595510  1
  Eu  Eu4  1  0.981890  0.824754  0.595482  1
  Eu  Eu5  1  0.982258  0.824708  0.905784  1
  Eu  Eu6  1  0.517735  0.324562  0.094515  1
  Eu  Eu7  1  0.018326  0.175742  0.095076  1
  Er  Er8  1  0.319895  0.177256  0.622899  1
  Er  Er9  1  0.680137  0.822763  0.376892  1
  Er  Er10  1  0.180434  0.677235  0.376904  1
  Er  Er11  1  0.820536  0.322954  0.878498  1
  Er  Er12  1  0.819546  0.322692  0.622822  1
  Lu  Lu13  1  0.653659  0.982425  0.750693  1
  Lu  Lu14  1  0.846164  0.483700  0.249043  1
  Lu  Lu15  1  0.345884  0.016694  0.248902  1
  Lu  Lu16  1  0.320297  0.176316  0.878079  1
  Lu  Lu17  1  0.179712  0.676768  0.122347  1
  Lu  Lu18  1  0.679589  0.823904  0.122152  1
  Lu  Lu19  1  0.153966  0.517321  0.750820  1
  Si  Si20  1  0.270433  0.885806  0.750984  1
  Si  Si21  1  0.473411  0.615349  0.248432  1
  Si  Si22  1  0.027398  0.114264  0.751185  1
  Si  Si23  1  0.525826  0.385290  0.750933  1
  Si  Si24  1  0.143750  0.468253  0.540436  1
  Si  Si25  1  0.973184  0.885116  0.248578  1
  Si  Si26  1  0.729742  0.113999  0.248748  1
  Si  Si27  1  0.856446  0.533196  0.041138  1
  Si  Si28  1  0.354858  0.967306  0.040411  1
  Si  Si29  1  0.145827  0.468221  0.960406  1
  Si  Si30  1  0.643600  0.031618  0.540384  1
  Si  Si31  1  0.356222  0.967649  0.459579  1
  Si  Si32  1  0.855968  0.532158  0.459526  1
  Si  Si33  1  0.769253  0.614447  0.750575  1
  Si  Si34  1  0.230154  0.386318  0.248760  1
  Si  Si35  1  0.642819  0.031351  0.960073  1
