# generated using pymatgen
data_Tm4Al4RuPt2Rh
_symmetry_space_group_name_H-M   'P 1'
_cell_length_a   4.23681100
_cell_length_b   6.79498235
_cell_length_c   7.90532376
_cell_angle_alpha   90.09551007
_cell_angle_beta   90.00000000
_cell_angle_gamma   90.00000000
_symmetry_Int_Tables_number   1
_chemical_formula_structural   Tm4Al4RuPt2Rh
_chemical_formula_sum   'Tm4 Al4 Ru1 Pt2 Rh1'
_cell_volume   227.58649188
_cell_formula_units_Z   1
loop_
 _symmetry_equiv_pos_site_id
 _symmetry_equiv_pos_as_xyz
  1  'x, y, z'
loop_
 _atom_site_type_symbol
 _atom_site_label
 _atom_site_symmetry_multiplicity
 _atom_site_fract_x
 _atom_site_fract_y
 _atom_site_fract_z
 _atom_site_occupancy
  Tm  Tm0  1  0.250000  0.963816  0.322977  1
  Tm  Tm1  1  0.750000  0.529692  0.821804  1
  Tm  Tm2  1  0.250000  0.463705  0.175513  1
  Tm  Tm3  1  0.750000  0.035118  0.681185  1
  Al  Al4  1  0.750000  0.638001  0.441457  1
  Al  Al5  1  0.750000  0.139277  0.056530  1
  Al  Al6  1  0.250000  0.364733  0.561956  1
  Al  Al7  1  0.250000  0.864519  0.939039  1
  Ru  Ru8  1  0.250000  0.237339  0.877139  1
  Pt  Pt9  1  0.750000  0.763902  0.126110  1
  Pt  Pt10  1  0.750000  0.263595  0.374808  1
  Rh  Rh11  1  0.250000  0.736304  0.621482  1
