# generated using pymatgen
data_Zr24GaAs3S8
_symmetry_space_group_name_H-M   'P 1'
_cell_length_a   3.63336700
_cell_length_b   12.39198081
_cell_length_c   15.31699200
_cell_angle_alpha   89.97934630
_cell_angle_beta   90.00000000
_cell_angle_gamma   90.00000000
_symmetry_Int_Tables_number   1
_chemical_formula_structural   Zr24GaAs3S8
_chemical_formula_sum   'Zr24 Ga1 As3 S8'
_cell_volume   689.64160950
_cell_formula_units_Z   1
loop_
 _symmetry_equiv_pos_site_id
 _symmetry_equiv_pos_as_xyz
  1  'x, y, z'
loop_
 _atom_site_type_symbol
 _atom_site_label
 _atom_site_symmetry_multiplicity
 _atom_site_fract_x
 _atom_site_fract_y
 _atom_site_fract_z
 _atom_site_occupancy
  Zr  Zr0  1  0.000000  0.345016  0.474041  1
  Zr  Zr1  1  0.000000  0.650171  0.525510  1
  Zr  Zr2  1  0.500000  0.153851  0.974277  1
  Zr  Zr3  1  0.500000  0.847223  0.025298  1
  Zr  Zr4  1  0.000000  0.082577  0.579876  1
  Zr  Zr5  1  0.000000  0.920953  0.423911  1
  Zr  Zr6  1  0.500000  0.417142  0.078077  1
  Zr  Zr7  1  0.500000  0.582877  0.921422  1
  Zr  Zr8  1  0.000000  0.689759  0.286137  1
  Zr  Zr9  1  0.000000  0.309942  0.710973  1
  Zr  Zr10  1  0.500000  0.809589  0.789830  1
  Zr  Zr11  1  0.500000  0.191150  0.209830  1
  Zr  Zr12  1  0.000000  0.028602  0.109923  1
  Zr  Zr13  1  0.000000  0.972151  0.889785  1
  Zr  Zr14  1  0.500000  0.471546  0.609924  1
  Zr  Zr15  1  0.500000  0.525838  0.389568  1
  Zr  Zr16  1  0.000000  0.622030  0.082369  1
  Zr  Zr17  1  0.000000  0.378000  0.917821  1
  Zr  Zr18  1  0.500000  0.877760  0.583921  1
  Zr  Zr19  1  0.500000  0.122535  0.418996  1
  Zr  Zr20  1  0.000000  0.411711  0.245304  1
  Zr  Zr21  1  0.000000  0.587262  0.753545  1
  Zr  Zr22  1  0.500000  0.086609  0.747047  1
  Zr  Zr23  1  0.500000  0.914468  0.253726  1
  Ga  Ga24  1  0.500000  0.756293  0.412468  1
  As  As25  1  0.000000  0.255375  0.085915  1
  As  As26  1  0.000000  0.744833  0.913783  1
  As  As27  1  0.500000  0.245034  0.586845  1
  S  S28  1  0.000000  0.817244  0.151461  1
  S  S29  1  0.000000  0.184405  0.848621  1
  S  S30  1  0.500000  0.683334  0.650798  1
  S  S31  1  0.500000  0.314567  0.348439  1
  S  S32  1  0.000000  0.066268  0.290764  1
  S  S33  1  0.000000  0.934688  0.709961  1
  S  S34  1  0.500000  0.435281  0.790880  1
  S  S35  1  0.500000  0.563915  0.208958  1
