# generated using pymatgen
data_Ce3Dy(Tc3Ge4)2
_symmetry_space_group_name_H-M   'P 1'
_cell_length_a   8.33868090
_cell_length_b   5.79492550
_cell_length_c   7.04100590
_cell_angle_alpha   76.12558041
_cell_angle_beta   90.10546117
_cell_angle_gamma   90.12474284
_symmetry_Int_Tables_number   1
_chemical_formula_structural   Ce3Dy(Tc3Ge4)2
_chemical_formula_sum   'Ce3 Dy1 Tc6 Ge8'
_cell_volume   330.30780250
_cell_formula_units_Z   1
loop_
 _symmetry_equiv_pos_site_id
 _symmetry_equiv_pos_as_xyz
  1  'x, y, z'
loop_
 _atom_site_type_symbol
 _atom_site_label
 _atom_site_symmetry_multiplicity
 _atom_site_fract_x
 _atom_site_fract_y
 _atom_site_fract_z
 _atom_site_occupancy
  Ce  Ce0  1  0.554677  0.077074  0.248415  1
  Ce  Ce1  1  0.055887  0.421736  0.755609  1
  Ce  Ce2  1  0.442642  0.923305  0.751941  1
  Dy  Dy3  1  0.941865  0.573886  0.246800  1
  Tc  Tc4  1  0.209210  0.117087  0.111175  1
  Tc  Tc5  1  0.709337  0.382806  0.892425  1
  Tc  Tc6  1  0.792205  0.891549  0.885135  1
  Tc  Tc7  1  0.297315  0.615792  0.107601  1
  Tc  Tc8  1  0.000537  0.998590  0.499051  1
  Tc  Tc9  1  0.499368  0.502287  0.499938  1
  Ge  Ge10  1  0.903558  0.114155  0.132204  1
  Ge  Ge11  1  0.404752  0.381320  0.870263  1
  Ge  Ge12  1  0.094775  0.875929  0.876972  1
  Ge  Ge13  1  0.600194  0.621741  0.127285  1
  Ge  Ge14  1  0.748097  0.225474  0.580190  1
  Ge  Ge15  1  0.245705  0.282234  0.416282  1
  Ge  Ge16  1  0.247907  0.773145  0.415844  1
  Ge  Ge17  1  0.751969  0.721890  0.582869  1
