# generated using pymatgen
data_DyY(Ho2Ir)2
_symmetry_space_group_name_H-M   'P 1'
_cell_length_a   6.40121500
_cell_length_b   7.24843900
_cell_length_c   9.16483600
_cell_angle_alpha   90.00000000
_cell_angle_beta   90.00000000
_cell_angle_gamma   90.00000000
_symmetry_Int_Tables_number   1
_chemical_formula_structural   DyY(Ho2Ir)2
_chemical_formula_sum   'Dy2 Y2 Ho8 Ir4'
_cell_volume   425.23754339
_cell_formula_units_Z   2
loop_
 _symmetry_equiv_pos_site_id
 _symmetry_equiv_pos_as_xyz
  1  'x, y, z'
loop_
 _atom_site_type_symbol
 _atom_site_label
 _atom_site_symmetry_multiplicity
 _atom_site_fract_x
 _atom_site_fract_y
 _atom_site_fract_z
 _atom_site_occupancy
  Dy  Dy0  1  0.129115  0.465692  0.750000  1
  Dy  Dy1  1  0.370885  0.965692  0.750000  1
  Y  Y2  1  0.873919  0.532684  0.250000  1
  Y  Y3  1  0.626081  0.032684  0.250000  1
  Ho  Ho4  1  0.327707  0.677399  0.061602  1
  Ho  Ho5  1  0.172293  0.177399  0.438398  1
  Ho  Ho6  1  0.671619  0.322680  0.562735  1
  Ho  Ho7  1  0.828381  0.822680  0.937265  1
  Ho  Ho8  1  0.671619  0.322680  0.937265  1
  Ho  Ho9  1  0.828381  0.822680  0.562735  1
  Ho  Ho10  1  0.327707  0.677399  0.438398  1
  Ho  Ho11  1  0.172293  0.177399  0.061602  1
  Ir  Ir12  1  0.047911  0.884963  0.250000  1
  Ir  Ir13  1  0.452089  0.384963  0.250000  1
  Ir  Ir14  1  0.956425  0.116499  0.750000  1
  Ir  Ir15  1  0.543575  0.616499  0.750000  1
