# generated using pymatgen
data_Cs6HoSe4
_symmetry_space_group_name_H-M   'P 1'
_cell_length_a   11.68419100
_cell_length_b   11.68419105
_cell_length_c   8.76428900
_cell_angle_alpha   90.00000000
_cell_angle_beta   90.00000000
_cell_angle_gamma   120.00000268
_symmetry_Int_Tables_number   1
_chemical_formula_structural   Cs6HoSe4
_chemical_formula_sum   'Cs12 Ho2 Se8'
_cell_volume   1036.20243182
_cell_formula_units_Z   2
loop_
 _symmetry_equiv_pos_site_id
 _symmetry_equiv_pos_as_xyz
  1  'x, y, z'
loop_
 _atom_site_type_symbol
 _atom_site_label
 _atom_site_symmetry_multiplicity
 _atom_site_fract_x
 _atom_site_fract_y
 _atom_site_fract_z
 _atom_site_occupancy
  Cs  Cs0  1  0.133130  0.866870  0.545590  1
  Cs  Cs1  1  0.266260  0.133130  0.045590  1
  Cs  Cs2  1  0.866870  0.733740  0.045590  1
  Cs  Cs3  1  0.133130  0.266260  0.545590  1
  Cs  Cs4  1  0.733740  0.866870  0.545590  1
  Cs  Cs5  1  0.866870  0.133130  0.045590  1
  Cs  Cs6  1  0.532373  0.467627  0.359106  1
  Cs  Cs7  1  0.064746  0.532373  0.859106  1
  Cs  Cs8  1  0.467627  0.935254  0.859106  1
  Cs  Cs9  1  0.532373  0.064746  0.359106  1
  Cs  Cs10  1  0.935254  0.467627  0.359106  1
  Cs  Cs11  1  0.467627  0.532373  0.859106  1
  Ho  Ho12  1  0.333333  0.666667  0.259144  1
  Ho  Ho13  1  0.666667  0.333333  0.759144  1
  Se  Se14  1  0.333333  0.666667  0.570220  1
  Se  Se15  1  0.666667  0.333333  0.070220  1
  Se  Se16  1  0.206432  0.793568  0.155417  1
  Se  Se17  1  0.412863  0.206432  0.655417  1
  Se  Se18  1  0.793568  0.587137  0.655417  1
  Se  Se19  1  0.206432  0.412863  0.155417  1
  Se  Se20  1  0.587137  0.793568  0.155417  1
  Se  Se21  1  0.793568  0.206432  0.655417  1
