# generated using pymatgen
data_Tb4Fe5Co8P12Ru7
_symmetry_space_group_name_H-M   'P 1'
_cell_length_a   3.74846800
_cell_length_b   10.44325079
_cell_length_c   11.92218453
_cell_angle_alpha   89.91076139
_cell_angle_beta   90.00000000
_cell_angle_gamma   90.00000000
_symmetry_Int_Tables_number   1
_chemical_formula_structural   Tb4Fe5Co8P12Ru7
_chemical_formula_sum   'Tb4 Fe5 Co8 P12 Ru7'
_cell_volume   466.70755134
_cell_formula_units_Z   1
loop_
 _symmetry_equiv_pos_site_id
 _symmetry_equiv_pos_as_xyz
  1  'x, y, z'
loop_
 _atom_site_type_symbol
 _atom_site_label
 _atom_site_symmetry_multiplicity
 _atom_site_fract_x
 _atom_site_fract_y
 _atom_site_fract_z
 _atom_site_occupancy
  Tb  Tb0  1  0.250000  0.580953  0.708854  1
  Tb  Tb1  1  0.250000  0.917033  0.205374  1
  Tb  Tb2  1  0.750000  0.416653  0.291401  1
  Tb  Tb3  1  0.750000  0.083361  0.791405  1
  Fe  Fe4  1  0.750000  0.379731  0.800677  1
  Fe  Fe5  1  0.250000  0.465153  0.935865  1
  Fe  Fe6  1  0.250000  0.036429  0.432988  1
  Fe  Fe7  1  0.750000  0.540047  0.067113  1
  Fe  Fe8  1  0.750000  0.961009  0.566250  1
  Co  Co9  1  0.750000  0.902163  0.012392  1
  Co  Co10  1  0.250000  0.226640  0.177146  1
  Co  Co11  1  0.250000  0.271375  0.675452  1
  Co  Co12  1  0.750000  0.775693  0.826509  1
  Co  Co13  1  0.750000  0.727911  0.320935  1
  Co  Co14  1  0.250000  0.879563  0.701206  1
  Co  Co15  1  0.250000  0.620177  0.200845  1
  Co  Co16  1  0.750000  0.116768  0.297598  1
  P  P17  1  0.250000  0.427025  0.113421  1
  P  P18  1  0.250000  0.072800  0.612061  1
  P  P19  1  0.750000  0.572377  0.886690  1
  P  P20  1  0.750000  0.925275  0.387045  1
  P  P21  1  0.250000  0.275414  0.861723  1
  P  P22  1  0.250000  0.226592  0.363017  1
  P  P23  1  0.750000  0.731459  0.134163  1
  P  P24  1  0.750000  0.771566  0.638131  1
  P  P25  1  0.250000  0.602057  0.387194  1
  P  P26  1  0.250000  0.898532  0.888614  1
  P  P27  1  0.750000  0.396986  0.613858  1
  P  P28  1  0.750000  0.100473  0.110814  1
  Ru  Ru29  1  0.250000  0.710016  0.989036  1
  Ru  Ru30  1  0.250000  0.795732  0.484315  1
  Ru  Ru31  1  0.750000  0.296525  0.017013  1
  Ru  Ru32  1  0.750000  0.203211  0.514544  1
  Ru  Ru33  1  0.250000  0.401938  0.485030  1
  Ru  Ru34  1  0.250000  0.093936  0.988175  1
  Ru  Ru35  1  0.750000  0.597423  0.513147  1
