# generated using pymatgen
data_PrMnAl10Ir
_symmetry_space_group_name_H-M   'P 1'
_cell_length_a   6.87151730
_cell_length_b   6.87151621
_cell_length_c   9.18374363
_cell_angle_alpha   90.15728344
_cell_angle_beta   90.15728565
_cell_angle_gamma   96.66387143
_symmetry_Int_Tables_number   1
_chemical_formula_structural   PrMnAl10Ir
_chemical_formula_sum   'Pr2 Mn2 Al20 Ir2'
_cell_volume   430.70233657
_cell_formula_units_Z   2
loop_
 _symmetry_equiv_pos_site_id
 _symmetry_equiv_pos_as_xyz
  1  'x, y, z'
loop_
 _atom_site_type_symbol
 _atom_site_label
 _atom_site_symmetry_multiplicity
 _atom_site_fract_x
 _atom_site_fract_y
 _atom_site_fract_z
 _atom_site_occupancy
  Pr  Pr0  1  0.876205  0.123795  0.750000  1
  Pr  Pr1  1  0.123795  0.876205  0.250000  1
  Mn  Mn2  1  0.000000  0.500000  0.000000  1
  Mn  Mn3  1  0.500000  0.000000  0.500000  1
  Al  Al4  1  0.618999  0.373535  0.550362  1
  Al  Al5  1  0.381001  0.626465  0.449638  1
  Al  Al6  1  0.373535  0.618999  0.050362  1
  Al  Al7  1  0.626465  0.381001  0.949638  1
  Al  Al8  1  0.231442  0.223300  0.496069  1
  Al  Al9  1  0.768558  0.776700  0.503931  1
  Al  Al10  1  0.776700  0.768558  0.003931  1
  Al  Al11  1  0.223300  0.231442  0.996069  1
  Al  Al12  1  0.843788  0.167189  0.100741  1
  Al  Al13  1  0.156212  0.832811  0.899259  1
  Al  Al14  1  0.167189  0.843788  0.600741  1
  Al  Al15  1  0.832811  0.156212  0.399259  1
  Al  Al16  1  0.862763  0.588487  0.754273  1
  Al  Al17  1  0.137237  0.411513  0.245727  1
  Al  Al18  1  0.411513  0.137237  0.745727  1
  Al  Al19  1  0.588487  0.862763  0.254273  1
  Al  Al20  1  0.222155  0.481152  0.755350  1
  Al  Al21  1  0.777845  0.518848  0.244650  1
  Al  Al22  1  0.518848  0.777845  0.744650  1
  Al  Al23  1  0.481152  0.222155  0.255350  1
  Ir  Ir24  1  0.000000  0.500000  0.500000  1
  Ir  Ir25  1  0.500000  0.000000  0.000000  1
