# generated using pymatgen
data_Dy3Er11Tm6(CoSb2)4
_symmetry_space_group_name_H-M   'P 1'
_cell_length_a   7.80836464
_cell_length_b   8.73799105
_cell_length_c   12.09566806
_cell_angle_alpha   90.00013131
_cell_angle_beta   90.01671602
_cell_angle_gamma   89.98816392
_symmetry_Int_Tables_number   1
_chemical_formula_structural   Dy3Er11Tm6(CoSb2)4
_chemical_formula_sum   'Dy3 Er11 Tm6 Co4 Sb8'
_cell_volume   825.28036670
_cell_formula_units_Z   1
loop_
 _symmetry_equiv_pos_site_id
 _symmetry_equiv_pos_as_xyz
  1  'x, y, z'
loop_
 _atom_site_type_symbol
 _atom_site_label
 _atom_site_symmetry_multiplicity
 _atom_site_fract_x
 _atom_site_fract_y
 _atom_site_fract_z
 _atom_site_occupancy
  Dy  Dy0  1  0.878946  0.750060  0.807187  1
  Dy  Dy1  1  0.378907  0.250040  0.692639  1
  Dy  Dy2  1  0.121269  0.249962  0.192780  1
  Er  Er3  1  0.155509  0.750035  0.203327  1
  Er  Er4  1  0.344680  0.749967  0.703241  1
  Er  Er5  1  0.844807  0.250005  0.796791  1
  Er  Er6  1  0.655202  0.249991  0.296805  1
  Er  Er7  1  0.450897  0.750044  0.998193  1
  Er  Er8  1  0.048854  0.749963  0.498170  1
  Er  Er9  1  0.548793  0.249937  0.001931  1
  Er  Er10  1  0.950593  0.250060  0.501726  1
  Er  Er11  1  0.620015  0.749943  0.308260  1
  Er  Er12  1  0.822868  0.536323  0.065157  1
  Er  Er13  1  0.677224  0.963054  0.564662  1
  Tm  Tm14  1  0.176887  0.036765  0.934937  1
  Tm  Tm15  1  0.323592  0.464381  0.434665  1
  Tm  Tm16  1  0.176999  0.463235  0.934886  1
  Tm  Tm17  1  0.323491  0.035635  0.434626  1
  Tm  Tm18  1  0.823120  0.963665  0.065143  1
  Tm  Tm19  1  0.676973  0.536936  0.564677  1
  Co  Co20  1  0.433199  0.749884  0.490888  1
  Co  Co21  1  0.067242  0.750118  0.991209  1
  Co  Co22  1  0.566870  0.250091  0.508597  1
  Co  Co23  1  0.932947  0.249907  0.008884  1
  Sb  Sb24  1  0.928752  0.509474  0.327786  1
  Sb  Sb25  1  0.570392  0.991129  0.827868  1
  Sb  Sb26  1  0.070490  0.008986  0.672205  1
  Sb  Sb27  1  0.430423  0.491755  0.172537  1
  Sb  Sb28  1  0.070376  0.491029  0.672178  1
  Sb  Sb29  1  0.430535  0.008231  0.172504  1
  Sb  Sb30  1  0.928699  0.990522  0.327731  1
  Sb  Sb31  1  0.570449  0.508874  0.827809  1
