# generated using pymatgen
data_Tm6Fe17P12Rh
_symmetry_space_group_name_H-M   'P 1'
_cell_length_a   3.68710500
_cell_length_b   10.49847600
_cell_length_c   12.17850000
_cell_angle_alpha   90.00000000
_cell_angle_beta   90.00000000
_cell_angle_gamma   90.00000000
_symmetry_Int_Tables_number   1
_chemical_formula_structural   Tm6Fe17P12Rh
_chemical_formula_sum   'Tm6 Fe17 P12 Rh1'
_cell_volume   471.41735375
_cell_formula_units_Z   1
loop_
 _symmetry_equiv_pos_site_id
 _symmetry_equiv_pos_as_xyz
  1  'x, y, z'
loop_
 _atom_site_type_symbol
 _atom_site_label
 _atom_site_symmetry_multiplicity
 _atom_site_fract_x
 _atom_site_fract_y
 _atom_site_fract_z
 _atom_site_occupancy
  Tm  Tm0  1  0.000000  0.500000  0.525822  1
  Tm  Tm1  1  0.500000  0.000000  0.479620  1
  Tm  Tm2  1  0.500000  0.815863  0.205422  1
  Tm  Tm3  1  0.500000  0.184137  0.205422  1
  Tm  Tm4  1  0.000000  0.679202  0.792779  1
  Tm  Tm5  1  0.000000  0.320798  0.792779  1
  Fe  Fe6  1  0.500000  0.500000  0.153373  1
  Fe  Fe7  1  0.000000  0.000000  0.846581  1
  Fe  Fe8  1  0.500000  0.500000  0.699177  1
  Fe  Fe9  1  0.000000  0.500000  0.988900  1
  Fe  Fe10  1  0.500000  0.000000  0.008648  1
  Fe  Fe11  1  0.500000  0.328353  0.996661  1
  Fe  Fe12  1  0.500000  0.671647  0.996661  1
  Fe  Fe13  1  0.000000  0.173894  0.001842  1
  Fe  Fe14  1  0.000000  0.826106  0.001842  1
  Fe  Fe15  1  0.500000  0.301580  0.431619  1
  Fe  Fe16  1  0.500000  0.698420  0.431619  1
  Fe  Fe17  1  0.000000  0.201026  0.570973  1
  Fe  Fe18  1  0.000000  0.798974  0.570973  1
  Fe  Fe19  1  0.500000  0.882227  0.708794  1
  Fe  Fe20  1  0.500000  0.117773  0.708794  1
  Fe  Fe21  1  0.000000  0.616906  0.290672  1
  Fe  Fe22  1  0.000000  0.383094  0.290672  1
  P  P23  1  0.500000  0.500000  0.882771  1
  P  P24  1  0.000000  0.000000  0.108469  1
  P  P25  1  0.500000  0.500000  0.341380  1
  P  P26  1  0.000000  0.000000  0.659951  1
  P  P27  1  0.500000  0.306894  0.615741  1
  P  P28  1  0.500000  0.693106  0.615741  1
  P  P29  1  0.000000  0.201848  0.388540  1
  P  P30  1  0.000000  0.798152  0.388540  1
  P  P31  1  0.500000  0.849237  0.887667  1
  P  P32  1  0.500000  0.150763  0.887667  1
  P  P33  1  0.000000  0.648964  0.111365  1
  P  P34  1  0.000000  0.351036  0.111365  1
  Rh  Rh35  1  0.000000  0.000000  0.301157  1
