# generated using pymatgen
data_NaSr20Cd3Ag8
_symmetry_space_group_name_H-M   'P 1'
_cell_length_a   8.76961200
_cell_length_b   8.76961200
_cell_length_c   15.92252700
_cell_angle_alpha   90.00000000
_cell_angle_beta   90.00000000
_cell_angle_gamma   90.00000000
_symmetry_Int_Tables_number   1
_chemical_formula_structural   NaSr20Cd3Ag8
_chemical_formula_sum   'Na1 Sr20 Cd3 Ag8'
_cell_volume   1224.53936822
_cell_formula_units_Z   1
loop_
 _symmetry_equiv_pos_site_id
 _symmetry_equiv_pos_as_xyz
  1  'x, y, z'
loop_
 _atom_site_type_symbol
 _atom_site_label
 _atom_site_symmetry_multiplicity
 _atom_site_fract_x
 _atom_site_fract_y
 _atom_site_fract_z
 _atom_site_occupancy
  Na  Na0  1  0.000000  0.000000  0.000000  1
  Sr  Sr1  1  0.658388  0.172933  0.111211  1
  Sr  Sr2  1  0.169996  0.664962  0.608261  1
  Sr  Sr3  1  0.341612  0.827067  0.111211  1
  Sr  Sr4  1  0.830004  0.335038  0.608261  1
  Sr  Sr5  1  0.827067  0.658388  0.111211  1
  Sr  Sr6  1  0.335038  0.169996  0.608261  1
  Sr  Sr7  1  0.172933  0.341612  0.111211  1
  Sr  Sr8  1  0.664962  0.830004  0.608261  1
  Sr  Sr9  1  0.827067  0.341612  0.888789  1
  Sr  Sr10  1  0.335038  0.830004  0.391739  1
  Sr  Sr11  1  0.172933  0.658388  0.888789  1
  Sr  Sr12  1  0.664962  0.169996  0.391739  1
  Sr  Sr13  1  0.658388  0.827067  0.888789  1
  Sr  Sr14  1  0.169996  0.335038  0.391739  1
  Sr  Sr15  1  0.341612  0.172933  0.888789  1
  Sr  Sr16  1  0.830004  0.664962  0.391739  1
  Sr  Sr17  1  0.500000  0.500000  0.747588  1
  Sr  Sr18  1  0.000000  0.000000  0.254245  1
  Sr  Sr19  1  0.000000  0.000000  0.745755  1
  Sr  Sr20  1  0.500000  0.500000  0.252412  1
  Cd  Cd21  1  0.500000  0.500000  0.500000  1
  Cd  Cd22  1  0.500000  0.500000  0.000000  1
  Cd  Cd23  1  0.000000  0.000000  0.500000  1
  Ag  Ag24  1  0.624815  0.121175  0.749672  1
  Ag  Ag25  1  0.121175  0.624815  0.250328  1
  Ag  Ag26  1  0.878825  0.375185  0.250328  1
  Ag  Ag27  1  0.375185  0.878825  0.749672  1
  Ag  Ag28  1  0.878825  0.624815  0.749672  1
  Ag  Ag29  1  0.375185  0.121175  0.250328  1
  Ag  Ag30  1  0.121175  0.375185  0.749672  1
  Ag  Ag31  1  0.624815  0.878825  0.250328  1
