# generated using pymatgen
data_Ba4ZnNi(TeO6)2
_symmetry_space_group_name_H-M   'P 1'
_cell_length_a   5.89965659
_cell_length_b   5.89995812
_cell_length_c   10.28407872
_cell_angle_alpha   90.00013209
_cell_angle_beta   73.33396322
_cell_angle_gamma   59.99824275
_symmetry_Int_Tables_number   1
_chemical_formula_structural   Ba4ZnNi(TeO6)2
_chemical_formula_sum   'Ba4 Zn1 Ni1 Te2 O12'
_cell_volume   292.50893207
_cell_formula_units_Z   1
loop_
 _symmetry_equiv_pos_site_id
 _symmetry_equiv_pos_as_xyz
  1  'x, y, z'
loop_
 _atom_site_type_symbol
 _atom_site_label
 _atom_site_symmetry_multiplicity
 _atom_site_fract_x
 _atom_site_fract_y
 _atom_site_fract_z
 _atom_site_occupancy
  Ba  Ba0  1  0.567892  0.716056  0.148150  1
  Ba  Ba1  1  0.434544  0.282732  0.848155  1
  Ba  Ba2  1  0.253633  0.873184  0.619579  1
  Ba  Ba3  1  0.746206  0.126898  0.380636  1
  Zn  Zn4  1  0.192449  0.403778  0.211265  1
  Ni  Ni5  1  0.813789  0.593065  0.779501  1
  Te  Te6  1  0.000282  0.499866  0.499479  1
  Te  Te7  1  0.000958  0.999521  0.998599  1
  O  O8  1  0.076496  0.729229  0.117833  1
  O  O9  1  0.611386  0.194309  0.117836  1
  O  O10  1  0.076496  0.194278  0.117834  1
  O  O11  1  0.921859  0.804799  0.882925  1
  O  O12  1  0.921857  0.273355  0.882927  1
  O  O13  1  0.390458  0.804775  0.882941  1
  O  O14  1  0.765833  0.844750  0.623619  1
  O  O15  1  0.221170  0.389417  0.623617  1
  O  O16  1  0.772122  0.613940  0.380501  1
  O  O17  1  0.233367  0.152704  0.380491  1
  O  O18  1  0.233365  0.613931  0.380492  1
  O  O19  1  0.765837  0.389414  0.623619  1
