# generated using pymatgen
data_Zr3ScGaTc7
_symmetry_space_group_name_H-M   'P 1'
_cell_length_a   5.23712800
_cell_length_b   5.23712946
_cell_length_c   8.69526300
_cell_angle_alpha   90.00000000
_cell_angle_beta   90.00000000
_cell_angle_gamma   120.00000341
_symmetry_Int_Tables_number   1
_chemical_formula_structural   Zr3ScGaTc7
_chemical_formula_sum   'Zr3 Sc1 Ga1 Tc7'
_cell_volume   206.53793825
_cell_formula_units_Z   1
loop_
 _symmetry_equiv_pos_site_id
 _symmetry_equiv_pos_as_xyz
  1  'x, y, z'
loop_
 _atom_site_type_symbol
 _atom_site_label
 _atom_site_symmetry_multiplicity
 _atom_site_fract_x
 _atom_site_fract_y
 _atom_site_fract_z
 _atom_site_occupancy
  Zr  Zr0  1  0.333333  0.666667  0.430072  1
  Zr  Zr1  1  0.666667  0.333333  0.568072  1
  Zr  Zr2  1  0.666667  0.333333  0.937891  1
  Sc  Sc3  1  0.333333  0.666667  0.063631  1
  Ga  Ga4  1  0.000000  0.000000  0.500019  1
  Tc  Tc5  1  0.000000  0.000000  0.000037  1
  Tc  Tc6  1  0.829011  0.170989  0.250141  1
  Tc  Tc7  1  0.829011  0.658024  0.250141  1
  Tc  Tc8  1  0.341976  0.170989  0.250141  1
  Tc  Tc9  1  0.170869  0.829131  0.749951  1
  Tc  Tc10  1  0.170869  0.341736  0.749951  1
  Tc  Tc11  1  0.658264  0.829131  0.749951  1
