# generated using pymatgen
data_Pr3Ho5(CdPt)2
_symmetry_space_group_name_H-M   'P 1'
_cell_length_a   9.80474727
_cell_length_b   9.80474702
_cell_length_c   9.80474600
_cell_angle_alpha   59.99999669
_cell_angle_beta   59.99999753
_cell_angle_gamma   59.99999557
_symmetry_Int_Tables_number   1
_chemical_formula_structural   Pr3Ho5(CdPt)2
_chemical_formula_sum   'Pr6 Ho10 Cd4 Pt4'
_cell_volume   666.49072819
_cell_formula_units_Z   2
loop_
 _symmetry_equiv_pos_site_id
 _symmetry_equiv_pos_as_xyz
  1  'x, y, z'
loop_
 _atom_site_type_symbol
 _atom_site_label
 _atom_site_symmetry_multiplicity
 _atom_site_fract_x
 _atom_site_fract_y
 _atom_site_fract_z
 _atom_site_occupancy
  Pr  Pr0  1  0.938915  0.561085  0.561085  1
  Pr  Pr1  1  0.561085  0.938915  0.938915  1
  Pr  Pr2  1  0.561085  0.938915  0.561085  1
  Pr  Pr3  1  0.938915  0.561085  0.938915  1
  Pr  Pr4  1  0.561085  0.561085  0.938915  1
  Pr  Pr5  1  0.938915  0.938915  0.561085  1
  Ho  Ho6  1  0.350154  0.350154  0.350154  1
  Ho  Ho7  1  0.350154  0.350154  0.949539  1
  Ho  Ho8  1  0.350154  0.949539  0.350154  1
  Ho  Ho9  1  0.949539  0.350154  0.350154  1
  Ho  Ho10  1  0.812291  0.187709  0.187709  1
  Ho  Ho11  1  0.187709  0.812291  0.812291  1
  Ho  Ho12  1  0.187709  0.812291  0.187709  1
  Ho  Ho13  1  0.812291  0.187709  0.812291  1
  Ho  Ho14  1  0.187709  0.187709  0.812291  1
  Ho  Ho15  1  0.812291  0.812291  0.187709  1
  Cd  Cd16  1  0.579226  0.579226  0.579226  1
  Cd  Cd17  1  0.579226  0.579226  0.262322  1
  Cd  Cd18  1  0.579226  0.262322  0.579226  1
  Cd  Cd19  1  0.262322  0.579226  0.579226  1
  Pt  Pt20  1  0.142894  0.142894  0.142894  1
  Pt  Pt21  1  0.142894  0.142894  0.571319  1
  Pt  Pt22  1  0.142894  0.571319  0.142894  1
  Pt  Pt23  1  0.571319  0.142894  0.142894  1
