# generated using pymatgen
data_Hf3Al3OsPd2
_symmetry_space_group_name_H-M   'P 1'
_cell_length_a   7.39896300
_cell_length_b   7.39896282
_cell_length_c   6.61995200
_cell_angle_alpha   90.00000000
_cell_angle_beta   90.00000000
_cell_angle_gamma   119.99999634
_symmetry_Int_Tables_number   1
_chemical_formula_structural   Hf3Al3OsPd2
_chemical_formula_sum   'Hf6 Al6 Os2 Pd4'
_cell_volume   313.85365362
_cell_formula_units_Z   2
loop_
 _symmetry_equiv_pos_site_id
 _symmetry_equiv_pos_as_xyz
  1  'x, y, z'
loop_
 _atom_site_type_symbol
 _atom_site_label
 _atom_site_symmetry_multiplicity
 _atom_site_fract_x
 _atom_site_fract_y
 _atom_site_fract_z
 _atom_site_occupancy
  Hf  Hf0  1  0.597146  0.608949  0.250000  1
  Hf  Hf1  1  0.013084  0.403120  0.750000  1
  Hf  Hf2  1  0.391051  0.988197  0.250000  1
  Hf  Hf3  1  0.011803  0.402854  0.250000  1
  Hf  Hf4  1  0.390036  0.986916  0.750000  1
  Hf  Hf5  1  0.596880  0.609964  0.750000  1
  Al  Al6  1  0.269831  0.266476  0.499870  1
  Al  Al7  1  0.733524  0.003355  0.499870  1
  Al  Al8  1  0.996645  0.730169  0.499870  1
  Al  Al9  1  0.733524  0.003355  0.000130  1
  Al  Al10  1  0.269831  0.266476  0.000130  1
  Al  Al11  1  0.996645  0.730169  0.000130  1
  Os  Os12  1  0.333333  0.666667  0.499543  1
  Os  Os13  1  0.333333  0.666667  0.000457  1
  Pd  Pd14  1  0.000000  0.000000  0.750000  1
  Pd  Pd15  1  0.000000  0.000000  0.250000  1
  Pd  Pd16  1  0.666667  0.333333  0.501774  1
  Pd  Pd17  1  0.666667  0.333333  0.998226  1
