# generated using pymatgen
data_Li4NiRh3O8
_symmetry_space_group_name_H-M   'P 1'
_cell_length_a   5.92130820
_cell_length_b   5.92130799
_cell_length_c   5.92130822
_cell_angle_alpha   61.95654662
_cell_angle_beta   61.95655209
_cell_angle_gamma   61.95655188
_symmetry_Int_Tables_number   1
_chemical_formula_structural   Li4NiRh3O8
_chemical_formula_sum   'Li4 Ni1 Rh3 O8'
_cell_volume   153.23067900
_cell_formula_units_Z   1
loop_
 _symmetry_equiv_pos_site_id
 _symmetry_equiv_pos_as_xyz
  1  'x, y, z'
loop_
 _atom_site_type_symbol
 _atom_site_label
 _atom_site_symmetry_multiplicity
 _atom_site_fract_x
 _atom_site_fract_y
 _atom_site_fract_z
 _atom_site_occupancy
  Li  Li0  1  0.500000  0.500000  0.500000  1
  Li  Li1  1  0.500000  0.000000  0.000000  1
  Li  Li2  1  0.000000  0.000000  0.500000  1
  Li  Li3  1  0.000000  0.500000  0.000000  1
  Ni  Ni4  1  0.000000  0.000000  0.000000  1
  Rh  Rh5  1  0.000000  0.500000  0.500000  1
  Rh  Rh6  1  0.500000  0.500000  0.000000  1
  Rh  Rh7  1  0.500000  0.000000  0.500000  1
  O  O8  1  0.743336  0.743336  0.743336  1
  O  O9  1  0.737264  0.246659  0.246659  1
  O  O10  1  0.246659  0.246659  0.737264  1
  O  O11  1  0.256664  0.256664  0.256664  1
  O  O12  1  0.246659  0.737264  0.246659  1
  O  O13  1  0.262736  0.753341  0.753341  1
  O  O14  1  0.753341  0.753341  0.262736  1
  O  O15  1  0.753341  0.262736  0.753341  1
