# generated using pymatgen
data_Ho4TiAl5Pt8
_symmetry_space_group_name_H-M   'P 1'
_cell_length_a   8.14368205
_cell_length_b   8.14368256
_cell_length_c   7.65059030
_cell_angle_alpha   89.61872364
_cell_angle_beta   90.38127821
_cell_angle_gamma   140.08013179
_symmetry_Int_Tables_number   1
_chemical_formula_structural   Ho4TiAl5Pt8
_chemical_formula_sum   'Ho4 Ti1 Al5 Pt8'
_cell_volume   325.58794548
_cell_formula_units_Z   1
loop_
 _symmetry_equiv_pos_site_id
 _symmetry_equiv_pos_as_xyz
  1  'x, y, z'
loop_
 _atom_site_type_symbol
 _atom_site_label
 _atom_site_symmetry_multiplicity
 _atom_site_fract_x
 _atom_site_fract_y
 _atom_site_fract_z
 _atom_site_occupancy
  Ho  Ho0  1  0.106911  0.893089  0.410404  1
  Ho  Ho1  1  0.893089  0.106911  0.589596  1
  Ho  Ho2  1  0.393717  0.606283  0.904444  1
  Ho  Ho3  1  0.606283  0.393717  0.095556  1
  Ti  Ti4  1  0.000000  0.000000  0.000000  1
  Al  Al5  1  0.500000  0.500000  0.500000  1
  Al  Al6  1  0.023360  0.479333  0.249373  1
  Al  Al7  1  0.479333  0.023360  0.750627  1
  Al  Al8  1  0.976640  0.520667  0.750627  1
  Al  Al9  1  0.520667  0.976640  0.249373  1
  Pt  Pt10  1  0.191198  0.312135  0.250972  1
  Pt  Pt11  1  0.312135  0.191198  0.749028  1
  Pt  Pt12  1  0.808802  0.687865  0.749028  1
  Pt  Pt13  1  0.687865  0.808802  0.250972  1
  Pt  Pt14  1  0.180615  0.819385  0.026836  1
  Pt  Pt15  1  0.819385  0.180615  0.973164  1
  Pt  Pt16  1  0.315697  0.684303  0.529576  1
  Pt  Pt17  1  0.684303  0.315697  0.470424  1
