# generated using pymatgen
data_P(S8Br)3
_symmetry_space_group_name_H-M   'P 1'
_cell_length_a   14.93502500
_cell_length_b   14.93502517
_cell_length_c   14.93502371
_cell_angle_alpha   118.76584419
_cell_angle_beta   118.76584194
_cell_angle_gamma   118.76584062
_symmetry_Int_Tables_number   1
_chemical_formula_structural   P(S8Br)3
_chemical_formula_sum   'P1 S24 Br3'
_cell_volume   956.03617792
_cell_formula_units_Z   1
loop_
 _symmetry_equiv_pos_site_id
 _symmetry_equiv_pos_as_xyz
  1  'x, y, z'
loop_
 _atom_site_type_symbol
 _atom_site_label
 _atom_site_symmetry_multiplicity
 _atom_site_fract_x
 _atom_site_fract_y
 _atom_site_fract_z
 _atom_site_occupancy
  P  P0  1  0.783068  0.783068  0.783068  1
  S  S1  1  0.805464  0.524706  0.524706  1
  S  S2  1  0.524706  0.524706  0.805464  1
  S  S3  1  0.524706  0.805464  0.524706  1
  S  S4  1  0.242390  0.373030  0.631134  1
  S  S5  1  0.357751  0.958549  0.357751  1
  S  S6  1  0.357751  0.357751  0.958549  1
  S  S7  1  0.958549  0.357751  0.357751  1
  S  S8  1  0.124552  0.739052  0.254957  1
  S  S9  1  0.254957  0.124552  0.739052  1
  S  S10  1  0.739052  0.254957  0.124552  1
  S  S11  1  0.739052  0.124552  0.254957  1
  S  S12  1  0.254957  0.739052  0.124552  1
  S  S13  1  0.124552  0.254957  0.739052  1
  S  S14  1  0.349128  0.882144  0.533778  1
  S  S15  1  0.533778  0.349128  0.882144  1
  S  S16  1  0.882144  0.533778  0.349128  1
  S  S17  1  0.882144  0.349128  0.533778  1
  S  S18  1  0.533778  0.882144  0.349128  1
  S  S19  1  0.349128  0.533778  0.882144  1
  S  S20  1  0.242390  0.631134  0.373030  1
  S  S21  1  0.373030  0.242390  0.631134  1
  S  S22  1  0.631134  0.373030  0.242390  1
  S  S23  1  0.631134  0.242390  0.373030  1
  S  S24  1  0.373030  0.631134  0.242390  1
  Br  Br25  1  0.893762  0.029605  0.029605  1
  Br  Br26  1  0.029605  0.029605  0.893762  1
  Br  Br27  1  0.029605  0.893762  0.029605  1
