# generated using pymatgen
data_Dy3Er13(ZnCo)4
_symmetry_space_group_name_H-M   'P 1'
_cell_length_a   9.29074208
_cell_length_b   9.29129981
_cell_length_c   9.28698932
_cell_angle_alpha   60.01137408
_cell_angle_beta   59.98390851
_cell_angle_gamma   59.97129585
_symmetry_Int_Tables_number   1
_chemical_formula_structural   Dy3Er13(ZnCo)4
_chemical_formula_sum   'Dy3 Er13 Zn4 Co4'
_cell_volume   566.73103792
_cell_formula_units_Z   1
loop_
 _symmetry_equiv_pos_site_id
 _symmetry_equiv_pos_as_xyz
  1  'x, y, z'
loop_
 _atom_site_type_symbol
 _atom_site_label
 _atom_site_symmetry_multiplicity
 _atom_site_fract_x
 _atom_site_fract_y
 _atom_site_fract_z
 _atom_site_occupancy
  Dy  Dy0  1  0.187838  0.812162  0.187838  1
  Dy  Dy1  1  0.812160  0.812440  0.187507  1
  Dy  Dy2  1  0.187507  0.187892  0.812160  1
  Er  Er3  1  0.599867  0.599759  0.600067  1
  Er  Er4  1  0.600012  0.599704  0.200360  1
  Er  Er5  1  0.600067  0.200308  0.599867  1
  Er  Er6  1  0.200360  0.599926  0.600012  1
  Er  Er7  1  0.059732  0.439982  0.440368  1
  Er  Er8  1  0.440368  0.059918  0.059732  1
  Er  Er9  1  0.440190  0.059810  0.440190  1
  Er  Er10  1  0.059771  0.440229  0.059771  1
  Er  Er11  1  0.440447  0.440065  0.059628  1
  Er  Er12  1  0.059628  0.059860  0.440447  1
  Er  Er13  1  0.187755  0.812218  0.811959  1
  Er  Er14  1  0.811959  0.188068  0.187755  1
  Er  Er15  1  0.812157  0.187843  0.812157  1
  Zn  Zn16  1  0.828030  0.828001  0.827858  1
  Zn  Zn17  1  0.827841  0.827990  0.516367  1
  Zn  Zn18  1  0.827858  0.516111  0.828030  1
  Zn  Zn19  1  0.516367  0.827803  0.827841  1
  Co  Co20  1  0.391942  0.391684  0.391614  1
  Co  Co21  1  0.391841  0.391900  0.824692  1
  Co  Co22  1  0.391614  0.824761  0.391942  1
  Co  Co23  1  0.824692  0.391568  0.391841  1
