# generated using pymatgen
data_Ti3Nb11P8
_symmetry_space_group_name_H-M   'P 1'
_cell_length_a   7.67270644
_cell_length_b   7.67270643
_cell_length_c   13.84472859
_cell_angle_alpha   75.74895497
_cell_angle_beta   75.74895539
_cell_angle_gamma   26.04022615
_symmetry_Int_Tables_number   1
_chemical_formula_structural   Ti3Nb11P8
_chemical_formula_sum   'Ti3 Nb11 P8'
_cell_volume   346.19683817
_cell_formula_units_Z   1
loop_
 _symmetry_equiv_pos_site_id
 _symmetry_equiv_pos_as_xyz
  1  'x, y, z'
loop_
 _atom_site_type_symbol
 _atom_site_label
 _atom_site_symmetry_multiplicity
 _atom_site_fract_x
 _atom_site_fract_y
 _atom_site_fract_z
 _atom_site_occupancy
  Ti  Ti0  1  0.000238  0.000238  0.999754  1
  Ti  Ti1  1  0.499919  0.499919  0.500230  1
  Ti  Ti2  1  0.822743  0.822743  0.542656  1
  Nb  Nb3  1  0.431071  0.431071  0.170712  1
  Nb  Nb4  1  0.569595  0.569595  0.828064  1
  Nb  Nb5  1  0.195997  0.195997  0.687494  1
  Nb  Nb6  1  0.805050  0.805050  0.312184  1
  Nb  Nb7  1  0.208817  0.208817  0.200595  1
  Nb  Nb8  1  0.791349  0.791349  0.799555  1
  Nb  Nb9  1  0.337226  0.337226  0.971452  1
  Nb  Nb10  1  0.662769  0.662769  0.028347  1
  Nb  Nb11  1  0.002435  0.002435  0.335440  1
  Nb  Nb12  1  0.997258  0.997258  0.664682  1
  Nb  Nb13  1  0.176310  0.176310  0.457330  1
  P  P14  1  0.174146  0.174146  0.888796  1
  P  P15  1  0.826128  0.826128  0.110937  1
  P  P16  1  0.373656  0.373656  0.405378  1
  P  P17  1  0.625826  0.625826  0.598870  1
  P  P18  1  0.370880  0.370880  0.660043  1
  P  P19  1  0.628476  0.628476  0.337611  1
  P  P20  1  0.061989  0.061989  0.149480  1
  P  P21  1  0.938122  0.938122  0.850388  1
