# generated using pymatgen
data_Rb4Zr6PBr18
_symmetry_space_group_name_H-M   'P 1'
_cell_length_a   10.72931436
_cell_length_b   10.91001830
_cell_length_c   11.01749237
_cell_angle_alpha   118.31915490
_cell_angle_beta   100.28743775
_cell_angle_gamma   104.05386620
_symmetry_Int_Tables_number   1
_chemical_formula_structural   Rb4Zr6PBr18
_chemical_formula_sum   'Rb4 Zr6 P1 Br18'
_cell_volume   1034.11874218
_cell_formula_units_Z   1
loop_
 _symmetry_equiv_pos_site_id
 _symmetry_equiv_pos_as_xyz
  1  'x, y, z'
loop_
 _atom_site_type_symbol
 _atom_site_label
 _atom_site_symmetry_multiplicity
 _atom_site_fract_x
 _atom_site_fract_y
 _atom_site_fract_z
 _atom_site_occupancy
  Rb  Rb0  1  0.190166  0.726534  0.564116  1
  Rb  Rb1  1  0.844610  0.963182  0.771601  1
  Rb  Rb2  1  0.155390  0.036818  0.228399  1
  Rb  Rb3  1  0.809834  0.273466  0.435884  1
  Zr  Zr4  1  0.347717  0.443734  0.768028  1
  Zr  Zr5  1  0.360777  0.626913  0.133406  1
  Zr  Zr6  1  0.647189  0.740933  0.045160  1
  Zr  Zr7  1  0.652283  0.556266  0.231972  1
  Zr  Zr8  1  0.352811  0.259067  0.954840  1
  Zr  Zr9  1  0.639223  0.373087  0.866594  1
  P  P10  1  0.500000  0.500000  0.000000  1
  Br  Br11  1  0.819641  0.424688  0.109719  1
  Br  Br12  1  0.515931  0.702659  0.403973  1
  Br  Br13  1  0.182310  0.986652  0.901150  1
  Br  Br14  1  0.180359  0.575312  0.890281  1
  Br  Br15  1  0.828130  0.830233  0.307934  1
  Br  Br16  1  0.504074  0.297271  0.207719  1
  Br  Br17  1  0.792429  0.230831  0.718010  1
  Br  Br18  1  0.171870  0.169767  0.692066  1
  Br  Br19  1  0.508835  0.905638  0.195018  1
  Br  Br20  1  0.815732  0.627335  0.905339  1
  Br  Br21  1  0.207571  0.769169  0.281990  1
  Br  Br22  1  0.171088  0.380143  0.506690  1
  Br  Br23  1  0.495926  0.702729  0.792281  1
  Br  Br24  1  0.817690  0.013348  0.098850  1
  Br  Br25  1  0.484069  0.297341  0.596027  1
  Br  Br26  1  0.184268  0.372665  0.094661  1
  Br  Br27  1  0.828912  0.619857  0.493310  1
  Br  Br28  1  0.491165  0.094362  0.804982  1
