# generated using pymatgen
data_CaLa4Si2Ge
_symmetry_space_group_name_H-M   'P 1'
_cell_length_a   7.91069800
_cell_length_b   9.07557681
_cell_length_c   7.91069800
_cell_angle_alpha   115.83770849
_cell_angle_beta   90.00000000
_cell_angle_gamma   115.83770849
_symmetry_Int_Tables_number   1
_chemical_formula_structural   CaLa4Si2Ge
_chemical_formula_sum   'Ca2 La8 Si4 Ge2'
_cell_volume   447.23955425
_cell_formula_units_Z   2
loop_
 _symmetry_equiv_pos_site_id
 _symmetry_equiv_pos_as_xyz
  1  'x, y, z'
loop_
 _atom_site_type_symbol
 _atom_site_label
 _atom_site_symmetry_multiplicity
 _atom_site_fract_x
 _atom_site_fract_y
 _atom_site_fract_z
 _atom_site_occupancy
  Ca  Ca0  1  0.000000  0.000000  0.000000  1
  Ca  Ca1  1  0.500000  0.000000  0.500000  1
  La  La2  1  0.530999  0.707948  0.676950  1
  La  La3  1  0.176950  0.707948  0.030999  1
  La  La4  1  0.676950  0.707948  0.176950  1
  La  La5  1  0.030999  0.707948  0.530999  1
  La  La6  1  0.469001  0.292052  0.323050  1
  La  La7  1  0.823050  0.292052  0.969001  1
  La  La8  1  0.323050  0.292052  0.823050  1
  La  La9  1  0.969001  0.292052  0.469001  1
  Si  Si10  1  0.886142  0.000000  0.613858  1
  Si  Si11  1  0.113858  0.000000  0.386142  1
  Si  Si12  1  0.613858  0.000000  0.113858  1
  Si  Si13  1  0.386142  0.000000  0.886142  1
  Ge  Ge14  1  0.750000  0.500000  0.750000  1
  Ge  Ge15  1  0.250000  0.500000  0.250000  1
