# generated using pymatgen
data_Tb2Y2Al4PtRh3
_symmetry_space_group_name_H-M   'P 1'
_cell_length_a   4.29587600
_cell_length_b   6.89258570
_cell_length_c   7.92104119
_cell_angle_alpha   90.07001853
_cell_angle_beta   90.00000000
_cell_angle_gamma   90.00000000
_symmetry_Int_Tables_number   1
_chemical_formula_structural   Tb2Y2Al4PtRh3
_chemical_formula_sum   'Tb2 Y2 Al4 Pt1 Rh3'
_cell_volume   234.53942637
_cell_formula_units_Z   1
loop_
 _symmetry_equiv_pos_site_id
 _symmetry_equiv_pos_as_xyz
  1  'x, y, z'
loop_
 _atom_site_type_symbol
 _atom_site_label
 _atom_site_symmetry_multiplicity
 _atom_site_fract_x
 _atom_site_fract_y
 _atom_site_fract_z
 _atom_site_occupancy
  Tb  Tb0  1  0.250000  0.031343  0.678335  1
  Tb  Tb1  1  0.750000  0.967017  0.319348  1
  Y  Y2  1  0.250000  0.535971  0.818955  1
  Y  Y3  1  0.750000  0.467898  0.183389  1
  Al  Al4  1  0.250000  0.138377  0.063825  1
  Al  Al5  1  0.250000  0.637020  0.438199  1
  Al  Al6  1  0.750000  0.858490  0.937482  1
  Al  Al7  1  0.750000  0.363891  0.562159  1
  Pt  Pt8  1  0.750000  0.230208  0.880111  1
  Rh  Rh9  1  0.250000  0.266278  0.383714  1
  Rh  Rh10  1  0.250000  0.768422  0.118030  1
  Rh  Rh11  1  0.750000  0.735086  0.616453  1
