# generated using pymatgen
data_Nd3TlIn2Pd2Au
_symmetry_space_group_name_H-M   'P 1'
_cell_length_a   7.90599213
_cell_length_b   7.90694806
_cell_length_c   4.00350400
_cell_angle_alpha   90.00000000
_cell_angle_beta   90.00000000
_cell_angle_gamma   119.48331198
_symmetry_Int_Tables_number   1
_chemical_formula_structural   Nd3TlIn2Pd2Au
_chemical_formula_sum   'Nd3 Tl1 In2 Pd2 Au1'
_cell_volume   217.85816846
_cell_formula_units_Z   1
loop_
 _symmetry_equiv_pos_site_id
 _symmetry_equiv_pos_as_xyz
  1  'x, y, z'
loop_
 _atom_site_type_symbol
 _atom_site_label
 _atom_site_symmetry_multiplicity
 _atom_site_fract_x
 _atom_site_fract_y
 _atom_site_fract_z
 _atom_site_occupancy
  Nd  Nd0  1  0.993262  0.588982  0.000000  1
  Nd  Nd1  1  0.410593  0.403634  0.000000  1
  Nd  Nd2  1  0.596782  0.008217  0.000000  1
  Tl  Tl3  1  0.747415  0.742463  0.500000  1
  In  In4  1  0.997483  0.250539  0.500000  1
  In  In5  1  0.254214  0.004978  0.500000  1
  Pd  Pd6  1  0.008796  0.009133  0.000000  1
  Pd  Pd7  1  0.665047  0.326175  0.500000  1
  Au  Au8  1  0.326405  0.665880  0.500000  1
