# generated using pymatgen
data_SrAg(S2O7)2
_symmetry_space_group_name_H-M   'P 1'
_cell_length_a   5.35764784
_cell_length_b   7.17533260
_cell_length_c   9.25083300
_cell_angle_alpha   92.85225943
_cell_angle_beta   96.49216480
_cell_angle_gamma   108.51961089
_symmetry_Int_Tables_number   1
_chemical_formula_structural   SrAg(S2O7)2
_chemical_formula_sum   'Sr1 Ag1 S4 O14'
_cell_volume   333.66200634
_cell_formula_units_Z   1
loop_
 _symmetry_equiv_pos_site_id
 _symmetry_equiv_pos_as_xyz
  1  'x, y, z'
loop_
 _atom_site_type_symbol
 _atom_site_label
 _atom_site_symmetry_multiplicity
 _atom_site_fract_x
 _atom_site_fract_y
 _atom_site_fract_z
 _atom_site_occupancy
  Sr  Sr0  1  0.000000  0.500000  0.000000  1
  Ag  Ag1  1  0.500000  0.000000  0.500000  1
  S  S2  1  0.509135  0.681060  0.760309  1
  S  S3  1  0.490865  0.318940  0.239691  1
  S  S4  1  0.185927  0.274984  0.665286  1
  S  S5  1  0.814073  0.725016  0.334714  1
  O  O6  1  0.701818  0.599139  0.831090  1
  O  O7  1  0.298182  0.400861  0.168910  1
  O  O8  1  0.333919  0.723516  0.856781  1
  O  O9  1  0.666081  0.276484  0.143219  1
  O  O10  1  0.635737  0.842518  0.674854  1
  O  O11  1  0.364263  0.157482  0.325146  1
  O  O12  1  0.323829  0.512005  0.632420  1
  O  O13  1  0.676171  0.487995  0.367580  1
  O  O14  1  0.986809  0.206425  0.539385  1
  O  O15  1  0.013191  0.793575  0.460615  1
  O  O16  1  0.404059  0.189982  0.672765  1
  O  O17  1  0.595941  0.810018  0.327235  1
  O  O18  1  0.094509  0.281795  0.807337  1
  O  O19  1  0.905491  0.718205  0.192663  1
