# generated using pymatgen
data_PtSe23
_symmetry_space_group_name_H-M   'P 1'
_cell_length_a   6.12113826
_cell_length_b   10.09588829
_cell_length_c   16.23841400
_cell_angle_alpha   89.63401781
_cell_angle_beta   90.46346231
_cell_angle_gamma   87.71809494
_symmetry_Int_Tables_number   1
_chemical_formula_structural   PtSe23
_chemical_formula_sum   'Pt1 Se23'
_cell_volume   1002.65566271
_cell_formula_units_Z   1
loop_
 _symmetry_equiv_pos_site_id
 _symmetry_equiv_pos_as_xyz
  1  'x, y, z'
loop_
 _atom_site_type_symbol
 _atom_site_label
 _atom_site_symmetry_multiplicity
 _atom_site_fract_x
 _atom_site_fract_y
 _atom_site_fract_z
 _atom_site_occupancy
  Pt  Pt0  1  0.506182  0.305655  0.426060  1
  Se  Se1  1  0.527683  0.815685  0.374811  1
  Se  Se2  1  0.000970  0.323113  0.124894  1
  Se  Se3  1  0.871433  0.263886  0.476302  1
  Se  Se4  1  0.302445  0.771557  0.487779  1
  Se  Se5  1  0.198434  0.263484  0.005568  1
  Se  Se6  1  0.786131  0.734113  0.000639  1
  Se  Se7  1  0.127309  0.323639  0.377078  1
  Se  Se8  1  0.766091  0.626815  0.358475  1
  Se  Se9  1  0.794505  0.138755  0.161309  1
  Se  Se10  1  0.217707  0.857243  0.144966  1
  Se  Se11  1  0.701733  0.610524  0.634944  1
  Se  Se12  1  0.243859  0.361922  0.628246  1
  Se  Se13  1  0.208692  0.860323  0.855455  1
  Se  Se14  1  0.779851  0.139198  0.853500  1
  Se  Se15  1  0.998778  0.674824  0.117989  1
  Se  Se16  1  0.504462  0.812751  0.608929  1
  Se  Se17  1  0.426292  0.188145  0.557022  1
  Se  Se18  1  0.994524  0.675998  0.883739  1
  Se  Se19  1  0.986314  0.324215  0.888193  1
  Se  Se20  1  0.537899  0.460819  0.310769  1
  Se  Se21  1  0.027870  0.994608  0.240146  1
  Se  Se22  1  0.490838  0.469345  0.715880  1
  Se  Se23  1  0.000000  0.003386  0.767308  1
