# generated using pymatgen
data_Rb8YEr5BBr20
_symmetry_space_group_name_H-M   'P 1'
_cell_length_a   12.27663940
_cell_length_b   12.29314665
_cell_length_c   12.29314707
_cell_angle_alpha   59.91117221
_cell_angle_beta   60.04441766
_cell_angle_gamma   60.04441461
_symmetry_Int_Tables_number   1
_chemical_formula_structural   Rb8YEr5BBr20
_chemical_formula_sum   'Rb8 Y1 Er5 B1 Br20'
_cell_volume   1311.86483868
_cell_formula_units_Z   1
loop_
 _symmetry_equiv_pos_site_id
 _symmetry_equiv_pos_as_xyz
  1  'x, y, z'
loop_
 _atom_site_type_symbol
 _atom_site_label
 _atom_site_symmetry_multiplicity
 _atom_site_fract_x
 _atom_site_fract_y
 _atom_site_fract_z
 _atom_site_occupancy
  Rb  Rb0  1  0.360008  0.359614  0.359614  1
  Rb  Rb1  1  0.640037  0.640412  0.640412  1
  Rb  Rb2  1  0.359588  0.359963  0.920861  1
  Rb  Rb3  1  0.359588  0.920861  0.359963  1
  Rb  Rb4  1  0.640386  0.639992  0.079237  1
  Rb  Rb5  1  0.640386  0.079237  0.639992  1
  Rb  Rb6  1  0.920763  0.359614  0.359614  1
  Rb  Rb7  1  0.079139  0.640412  0.640412  1
  Y  Y8  1  0.850297  0.149703  0.149703  1
  Er  Er9  1  0.149365  0.850635  0.850635  1
  Er  Er10  1  0.149454  0.850546  0.149268  1
  Er  Er11  1  0.850732  0.149268  0.850546  1
  Er  Er12  1  0.149454  0.149268  0.850546  1
  Er  Er13  1  0.850732  0.850546  0.149268  1
  B  B14  1  0.000848  0.999152  0.999152  1
  Br  Br15  1  0.325995  0.000018  0.000018  1
  Br  Br16  1  0.673969  0.000018  0.000018  1
  Br  Br17  1  0.999982  0.326031  0.674005  1
  Br  Br18  1  0.999982  0.674005  0.326031  1
  Br  Br19  1  0.001583  0.327815  0.998417  1
  Br  Br20  1  0.672185  0.998417  0.327815  1
  Br  Br21  1  0.999801  0.673412  0.000199  1
  Br  Br22  1  0.326588  0.000199  0.673412  1
  Br  Br23  1  0.001583  0.998417  0.327815  1
  Br  Br24  1  0.999801  0.000199  0.673412  1
  Br  Br25  1  0.672185  0.327815  0.998417  1
  Br  Br26  1  0.326588  0.673412  0.000199  1
  Br  Br27  1  0.682969  0.317031  0.317031  1
  Br  Br28  1  0.315882  0.684118  0.684118  1
  Br  Br29  1  0.315689  0.684311  0.315593  1
  Br  Br30  1  0.684407  0.315593  0.684311  1
  Br  Br31  1  0.315689  0.315593  0.684311  1
  Br  Br32  1  0.684407  0.684311  0.315593  1
  Br  Br33  1  0.249968  0.250032  0.250032  1
  Br  Br34  1  0.749968  0.750032  0.750032  1
