# generated using pymatgen
data_CsKRbGaTe3
_symmetry_space_group_name_H-M   'P 1'
_cell_length_a   14.59024400
_cell_length_b   8.97088904
_cell_length_c   11.67405714
_cell_angle_alpha   53.12994063
_cell_angle_beta   90.00000000
_cell_angle_gamma   90.00000000
_symmetry_Int_Tables_number   1
_chemical_formula_structural   CsKRbGaTe3
_chemical_formula_sum   'Cs4 K4 Rb4 Ga4 Te12'
_cell_volume   1222.38756152
_cell_formula_units_Z   4
loop_
 _symmetry_equiv_pos_site_id
 _symmetry_equiv_pos_as_xyz
  1  'x, y, z'
loop_
 _atom_site_type_symbol
 _atom_site_label
 _atom_site_symmetry_multiplicity
 _atom_site_fract_x
 _atom_site_fract_y
 _atom_site_fract_z
 _atom_site_occupancy
  Cs  Cs0  1  0.191330  0.133242  0.581475  1
  Cs  Cs1  1  0.691330  0.866758  0.918525  1
  Cs  Cs2  1  0.808670  0.866758  0.418525  1
  Cs  Cs3  1  0.308670  0.133242  0.081475  1
  K  K4  1  0.613319  0.355836  0.479477  1
  K  K5  1  0.113319  0.644164  0.020523  1
  K  K6  1  0.386681  0.644164  0.520523  1
  K  K7  1  0.886681  0.355836  0.979477  1
  Rb  Rb8  1  0.908039  0.333897  0.401065  1
  Rb  Rb9  1  0.408039  0.666103  0.098935  1
  Rb  Rb10  1  0.091961  0.666103  0.598935  1
  Rb  Rb11  1  0.591961  0.333897  0.901065  1
  Ga  Ga12  1  0.937309  0.058650  0.839765  1
  Ga  Ga13  1  0.437309  0.941350  0.660235  1
  Ga  Ga14  1  0.062691  0.941350  0.160235  1
  Ga  Ga15  1  0.562691  0.058650  0.339765  1
  Te  Te16  1  0.397443  0.159282  0.373646  1
  Te  Te17  1  0.897443  0.840718  0.126354  1
  Te  Te18  1  0.602557  0.840718  0.626354  1
  Te  Te19  1  0.102557  0.159282  0.873646  1
  Te  Te20  1  0.678708  0.341872  0.195113  1
  Te  Te21  1  0.178708  0.658128  0.304887  1
  Te  Te22  1  0.321292  0.658128  0.804887  1
  Te  Te23  1  0.821292  0.341872  0.695113  1
  Te  Te24  1  0.555902  0.856863  0.244992  1
  Te  Te25  1  0.055902  0.143137  0.255008  1
  Te  Te26  1  0.444098  0.143137  0.755008  1
  Te  Te27  1  0.944098  0.856863  0.744992  1
