# generated using pymatgen
data_Dy4MgPb4
_symmetry_space_group_name_H-M   'P 1'
_cell_length_a   7.85315136
_cell_length_b   8.33655732
_cell_length_c   15.57064600
_cell_angle_alpha   89.96745025
_cell_angle_beta   89.83299669
_cell_angle_gamma   90.14292835
_symmetry_Int_Tables_number   1
_chemical_formula_structural   Dy4MgPb4
_chemical_formula_sum   'Dy16 Mg4 Pb16'
_cell_volume   1019.37521884
_cell_formula_units_Z   4
loop_
 _symmetry_equiv_pos_site_id
 _symmetry_equiv_pos_as_xyz
  1  'x, y, z'
loop_
 _atom_site_type_symbol
 _atom_site_label
 _atom_site_symmetry_multiplicity
 _atom_site_fract_x
 _atom_site_fract_y
 _atom_site_fract_z
 _atom_site_occupancy
  Dy  Dy0  1  0.841948  0.661643  0.627478  1
  Dy  Dy1  1  0.656660  0.161886  0.372420  1
  Dy  Dy2  1  0.157052  0.339492  0.126654  1
  Dy  Dy3  1  0.654269  0.162642  0.127873  1
  Dy  Dy4  1  0.154944  0.335861  0.372348  1
  Dy  Dy5  1  0.347505  0.836456  0.628090  1
  Dy  Dy6  1  0.844196  0.663038  0.872423  1
  Dy  Dy7  1  0.509391  0.312899  0.909740  1
  Dy  Dy8  1  0.011547  0.187035  0.591613  1
  Dy  Dy9  1  0.491397  0.685732  0.409624  1
  Dy  Dy10  1  0.988546  0.812535  0.090695  1
  Dy  Dy11  1  0.490214  0.686646  0.090265  1
  Dy  Dy12  1  0.991503  0.813903  0.408592  1
  Dy  Dy13  1  0.509318  0.314050  0.590880  1
  Dy  Dy14  1  0.009730  0.186805  0.907778  1
  Dy  Dy15  1  0.342983  0.840603  0.872716  1
  Mg  Mg16  1  0.165830  0.504496  0.748740  1
  Mg  Mg17  1  0.669416  0.995638  0.750896  1
  Mg  Mg18  1  0.832157  0.495033  0.250306  1
  Mg  Mg19  1  0.331579  0.003822  0.251346  1
  Pb  Pb20  1  0.305694  0.038178  0.041697  1
  Pb  Pb21  1  0.807339  0.460977  0.459283  1
  Pb  Pb22  1  0.695558  0.962113  0.540993  1
  Pb  Pb23  1  0.192759  0.539077  0.957568  1
  Pb  Pb24  1  0.693147  0.962002  0.959306  1
  Pb  Pb25  1  0.193940  0.539269  0.540320  1
  Pb  Pb26  1  0.307150  0.038171  0.460042  1
  Pb  Pb27  1  0.806574  0.461185  0.040629  1
  Pb  Pb28  1  0.527875  0.598012  0.752256  1
  Pb  Pb29  1  0.030714  0.900271  0.748969  1
  Pb  Pb30  1  0.470085  0.401865  0.250660  1
  Pb  Pb31  1  0.970335  0.098414  0.248529  1
  Pb  Pb32  1  0.317063  0.162872  0.750082  1
  Pb  Pb33  1  0.814247  0.338197  0.749845  1
  Pb  Pb34  1  0.683408  0.837130  0.249812  1
  Pb  Pb35  1  0.183930  0.662054  0.249527  1
