# generated using pymatgen
data_Ca20(CdAu3)3
_symmetry_space_group_name_H-M   'P 1'
_cell_length_a   8.06774700
_cell_length_b   8.06774700
_cell_length_c   14.58692800
_cell_angle_alpha   90.00000000
_cell_angle_beta   90.00000000
_cell_angle_gamma   90.00000000
_symmetry_Int_Tables_number   1
_chemical_formula_structural   Ca20(CdAu3)3
_chemical_formula_sum   'Ca20 Cd3 Au9'
_cell_volume   949.44187076
_cell_formula_units_Z   1
loop_
 _symmetry_equiv_pos_site_id
 _symmetry_equiv_pos_as_xyz
  1  'x, y, z'
loop_
 _atom_site_type_symbol
 _atom_site_label
 _atom_site_symmetry_multiplicity
 _atom_site_fract_x
 _atom_site_fract_y
 _atom_site_fract_z
 _atom_site_occupancy
  Ca  Ca0  1  0.673855  0.159787  0.107652  1
  Ca  Ca1  1  0.166622  0.666106  0.611696  1
  Ca  Ca2  1  0.326145  0.840213  0.107652  1
  Ca  Ca3  1  0.833378  0.333894  0.611696  1
  Ca  Ca4  1  0.840213  0.673855  0.107652  1
  Ca  Ca5  1  0.333894  0.166622  0.611696  1
  Ca  Ca6  1  0.159787  0.326145  0.107652  1
  Ca  Ca7  1  0.666106  0.833378  0.611696  1
  Ca  Ca8  1  0.840213  0.326145  0.892348  1
  Ca  Ca9  1  0.333894  0.833378  0.388304  1
  Ca  Ca10  1  0.159787  0.673855  0.892348  1
  Ca  Ca11  1  0.666106  0.166622  0.388304  1
  Ca  Ca12  1  0.673855  0.840213  0.892348  1
  Ca  Ca13  1  0.166622  0.333894  0.388304  1
  Ca  Ca14  1  0.326145  0.159787  0.892348  1
  Ca  Ca15  1  0.833378  0.666106  0.388304  1
  Ca  Ca16  1  0.500000  0.500000  0.754729  1
  Ca  Ca17  1  0.000000  0.000000  0.249317  1
  Ca  Ca18  1  0.000000  0.000000  0.750683  1
  Ca  Ca19  1  0.500000  0.500000  0.245271  1
  Cd  Cd20  1  0.500000  0.500000  0.500000  1
  Cd  Cd21  1  0.500000  0.500000  0.000000  1
  Cd  Cd22  1  0.000000  0.000000  0.500000  1
  Au  Au23  1  0.629934  0.130476  0.751647  1
  Au  Au24  1  0.130476  0.629934  0.248353  1
  Au  Au25  1  0.869524  0.370066  0.248353  1
  Au  Au26  1  0.370066  0.869524  0.751647  1
  Au  Au27  1  0.869524  0.629934  0.751647  1
  Au  Au28  1  0.370066  0.130476  0.248353  1
  Au  Au29  1  0.130476  0.370066  0.751647  1
  Au  Au30  1  0.629934  0.869524  0.248353  1
  Au  Au31  1  0.000000  0.000000  0.000000  1
