# generated using pymatgen
data_Er4Lu4Tc3B24Ru
_symmetry_space_group_name_H-M   'P 1'
_cell_length_a   3.62629000
_cell_length_b   9.07696826
_cell_length_c   11.45452700
_cell_angle_alpha   89.92240308
_cell_angle_beta   90.00000000
_cell_angle_gamma   90.00000000
_symmetry_Int_Tables_number   1
_chemical_formula_structural   Er4Lu4Tc3B24Ru
_chemical_formula_sum   'Er4 Lu4 Tc3 B24 Ru1'
_cell_volume   377.03364881
_cell_formula_units_Z   1
loop_
 _symmetry_equiv_pos_site_id
 _symmetry_equiv_pos_as_xyz
  1  'x, y, z'
loop_
 _atom_site_type_symbol
 _atom_site_label
 _atom_site_symmetry_multiplicity
 _atom_site_fract_x
 _atom_site_fract_y
 _atom_site_fract_z
 _atom_site_occupancy
  Er  Er0  1  0.000000  0.323103  0.413877  1
  Er  Er1  1  0.000000  0.675730  0.584226  1
  Er  Er2  1  0.000000  0.822446  0.087449  1
  Er  Er3  1  0.000000  0.178571  0.914316  1
  Lu  Lu4  1  0.000000  0.942794  0.370480  1
  Lu  Lu5  1  0.000000  0.057585  0.630145  1
  Lu  Lu6  1  0.000000  0.443294  0.129859  1
  Lu  Lu7  1  0.000000  0.557437  0.869572  1
  Tc  Tc8  1  0.000000  0.638868  0.320166  1
  Tc  Tc9  1  0.000000  0.361123  0.680475  1
  Tc  Tc10  1  0.000000  0.138531  0.178823  1
  B  B11  1  0.500000  0.553244  0.433054  1
  B  B12  1  0.500000  0.446553  0.566766  1
  B  B13  1  0.500000  0.053184  0.066585  1
  B  B14  1  0.500000  0.945877  0.932943  1
  B  B15  1  0.500000  0.749920  0.419062  1
  B  B16  1  0.500000  0.249595  0.581115  1
  B  B17  1  0.500000  0.250479  0.080869  1
  B  B18  1  0.500000  0.750153  0.918776  1
  B  B19  1  0.500000  0.792561  0.265507  1
  B  B20  1  0.500000  0.207491  0.735383  1
  B  B21  1  0.500000  0.292475  0.234709  1
  B  B22  1  0.500000  0.708301  0.765002  1
  B  B23  1  0.500000  0.630526  0.184945  1
  B  B24  1  0.500000  0.369565  0.815737  1
  B  B25  1  0.500000  0.129885  0.314725  1
  B  B26  1  0.500000  0.869390  0.684894  1
  B  B27  1  0.500000  0.981188  0.212083  1
  B  B28  1  0.500000  0.017393  0.787879  1
  B  B29  1  0.500000  0.481434  0.287661  1
  B  B30  1  0.500000  0.518579  0.712149  1
  B  B31  1  0.500000  0.600824  0.027660  1
  B  B32  1  0.500000  0.400968  0.972155  1
  B  B33  1  0.500000  0.100123  0.472447  1
  B  B34  1  0.500000  0.899687  0.528270  1
  Ru  Ru35  1  0.000000  0.861124  0.820237  1
