# generated using pymatgen
data_Pr3Er5(MoO6)4
_symmetry_space_group_name_H-M   'P 1'
_cell_length_a   5.46704300
_cell_length_b   7.79953802
_cell_length_c   11.49791546
_cell_angle_alpha   75.94330126
_cell_angle_beta   90.00000000
_cell_angle_gamma   90.00000000
_symmetry_Int_Tables_number   1
_chemical_formula_structural   Pr3Er5(MoO6)4
_chemical_formula_sum   'Pr3 Er5 Mo4 O24'
_cell_volume   475.59493346
_cell_formula_units_Z   1
loop_
 _symmetry_equiv_pos_site_id
 _symmetry_equiv_pos_as_xyz
  1  'x, y, z'
loop_
 _atom_site_type_symbol
 _atom_site_label
 _atom_site_symmetry_multiplicity
 _atom_site_fract_x
 _atom_site_fract_y
 _atom_site_fract_z
 _atom_site_occupancy
  Pr  Pr0  1  0.743124  0.000000  0.750000  1
  Pr  Pr1  1  0.680287  0.500000  0.750000  1
  Pr  Pr2  1  0.315725  0.500000  0.250000  1
  Er  Er3  1  0.259509  0.000000  0.250000  1
  Er  Er4  1  0.184782  0.797968  0.576076  1
  Er  Er5  1  0.818680  0.797955  0.080368  1
  Er  Er6  1  0.184782  0.202032  0.923924  1
  Er  Er7  1  0.818680  0.202045  0.419632  1
  Mo  Mo8  1  0.253387  0.721448  0.888606  1
  Mo  Mo9  1  0.745187  0.729341  0.384801  1
  Mo  Mo10  1  0.253387  0.278552  0.611394  1
  Mo  Mo11  1  0.745187  0.270659  0.115199  1
  O  O12  1  0.051254  0.938312  0.903436  1
  O  O13  1  0.531984  0.832633  0.935760  1
  O  O14  1  0.961363  0.941783  0.395306  1
  O  O15  1  0.450398  0.786439  0.725703  1
  O  O16  1  0.467360  0.847008  0.429555  1
  O  O17  1  0.991222  0.715908  0.770658  1
  O  O18  1  0.539688  0.795325  0.224589  1
  O  O19  1  0.850213  0.646776  0.545249  1
  O  O20  1  0.344345  0.490134  0.891360  1
  O  O21  1  0.010795  0.722555  0.267320  1
  O  O22  1  0.344345  0.509866  0.608640  1
  O  O23  1  0.850213  0.353224  0.954751  1
  O  O24  1  0.140528  0.635122  0.047302  1
  O  O25  1  0.659491  0.497726  0.386075  1
  O  O26  1  0.991222  0.284092  0.729342  1
  O  O27  1  0.659491  0.502274  0.113925  1
  O  O28  1  0.140528  0.364878  0.452698  1
  O  O29  1  0.450398  0.213561  0.774297  1
  O  O30  1  0.010795  0.277445  0.232680  1
  O  O31  1  0.531984  0.167367  0.564240  1
  O  O32  1  0.539688  0.204675  0.275411  1
  O  O33  1  0.051254  0.061688  0.596564  1
  O  O34  1  0.467360  0.152992  0.070445  1
  O  O35  1  0.961363  0.058217  0.104694  1
