# generated using pymatgen
data_Sr3InFeO6
_symmetry_space_group_name_H-M   'P 1'
_cell_length_a   6.83391213
_cell_length_b   6.83372485
_cell_length_c   6.83369292
_cell_angle_alpha   92.40867759
_cell_angle_beta   92.40462722
_cell_angle_gamma   92.40476812
_symmetry_Int_Tables_number   1
_chemical_formula_structural   Sr3InFeO6
_chemical_formula_sum   'Sr6 In2 Fe2 O12'
_cell_volume   318.27234143
_cell_formula_units_Z   2
loop_
 _symmetry_equiv_pos_site_id
 _symmetry_equiv_pos_as_xyz
  1  'x, y, z'
loop_
 _atom_site_type_symbol
 _atom_site_label
 _atom_site_symmetry_multiplicity
 _atom_site_fract_x
 _atom_site_fract_y
 _atom_site_fract_z
 _atom_site_occupancy
  Sr  Sr0  1  0.615659  0.884337  0.249993  1
  Sr  Sr1  1  0.884341  0.250000  0.615664  1
  Sr  Sr2  1  0.249999  0.615660  0.884343  1
  Sr  Sr3  1  0.115658  0.750000  0.384337  1
  Sr  Sr4  1  0.750002  0.384339  0.115656  1
  Sr  Sr5  1  0.384341  0.115661  0.750005  1
  In  In6  1  0.249999  0.250009  0.250000  1
  In  In7  1  0.750000  0.749992  0.750001  1
  Fe  Fe8  1  0.499999  0.500001  0.499999  1
  Fe  Fe9  1  0.000000  0.000001  0.000001  1
  O  O10  1  0.540723  0.212281  0.409711  1
  O  O11  1  0.212264  0.409722  0.540732  1
  O  O12  1  0.409715  0.540746  0.212276  1
  O  O13  1  0.040719  0.909707  0.712279  1
  O  O14  1  0.909710  0.712275  0.040740  1
  O  O15  1  0.712266  0.040730  0.909718  1
  O  O16  1  0.459278  0.787719  0.590290  1
  O  O17  1  0.787735  0.590277  0.459267  1
  O  O18  1  0.590286  0.459256  0.787724  1
  O  O19  1  0.959282  0.090293  0.287723  1
  O  O20  1  0.090289  0.287726  0.959262  1
  O  O21  1  0.287734  0.959269  0.090281  1
