# generated using pymatgen
data_SrDyZn4
_symmetry_space_group_name_H-M   'P 1'
_cell_length_a   4.56081300
_cell_length_b   4.56081369
_cell_length_c   7.59165200
_cell_angle_alpha   90.00000000
_cell_angle_beta   90.00000000
_cell_angle_gamma   119.99998778
_symmetry_Int_Tables_number   1
_chemical_formula_structural   SrDyZn4
_chemical_formula_sum   'Sr1 Dy1 Zn4'
_cell_volume   136.75763260
_cell_formula_units_Z   1
loop_
 _symmetry_equiv_pos_site_id
 _symmetry_equiv_pos_as_xyz
  1  'x, y, z'
loop_
 _atom_site_type_symbol
 _atom_site_label
 _atom_site_symmetry_multiplicity
 _atom_site_fract_x
 _atom_site_fract_y
 _atom_site_fract_z
 _atom_site_occupancy
  Sr  Sr0  1  0.000000  0.000000  0.499999  1
  Dy  Dy1  1  0.000000  0.000000  0.000000  1
  Zn  Zn2  1  0.666668  0.333335  0.201199  1
  Zn  Zn3  1  0.333333  0.666666  0.201199  1
  Zn  Zn4  1  0.666668  0.333335  0.798801  1
  Zn  Zn5  1  0.333333  0.666666  0.798801  1
