# generated using pymatgen
data_Dy4YIn4PtRh
_symmetry_space_group_name_H-M   'P 1'
_cell_length_a   3.63234900
_cell_length_b   8.14215793
_cell_length_c   18.29692801
_cell_angle_alpha   90.14053273
_cell_angle_beta   90.00000000
_cell_angle_gamma   90.00000000
_symmetry_Int_Tables_number   1
_chemical_formula_structural   Dy4YIn4PtRh
_chemical_formula_sum   'Dy8 Y2 In8 Pt2 Rh2'
_cell_volume   541.13293148
_cell_formula_units_Z   2
loop_
 _symmetry_equiv_pos_site_id
 _symmetry_equiv_pos_as_xyz
  1  'x, y, z'
loop_
 _atom_site_type_symbol
 _atom_site_label
 _atom_site_symmetry_multiplicity
 _atom_site_fract_x
 _atom_site_fract_y
 _atom_site_fract_z
 _atom_site_occupancy
  Dy  Dy0  1  0.000000  0.115175  0.411906  1
  Dy  Dy1  1  0.000000  0.884825  0.588094  1
  Dy  Dy2  1  0.000000  0.383398  0.913626  1
  Dy  Dy3  1  0.000000  0.616602  0.086374  1
  Dy  Dy4  1  0.000000  0.239904  0.221563  1
  Dy  Dy5  1  0.000000  0.760096  0.778437  1
  Dy  Dy6  1  0.000000  0.249922  0.720560  1
  Dy  Dy7  1  0.000000  0.750078  0.279440  1
  Y  Y8  1  0.000000  0.000000  0.000000  1
  Y  Y9  1  0.000000  0.500000  0.500000  1
  In  In10  1  0.500000  0.424263  0.351262  1
  In  In11  1  0.500000  0.575737  0.648738  1
  In  In12  1  0.500000  0.072010  0.850055  1
  In  In13  1  0.500000  0.927990  0.149945  1
  In  In14  1  0.500000  0.292172  0.066821  1
  In  In15  1  0.500000  0.707828  0.933179  1
  In  In16  1  0.500000  0.206238  0.568226  1
  In  In17  1  0.500000  0.793762  0.431774  1
  Pt  Pt18  1  0.500000  0.476800  0.803130  1
  Pt  Pt19  1  0.500000  0.523200  0.196870  1
  Rh  Rh20  1  0.500000  0.022219  0.304356  1
  Rh  Rh21  1  0.500000  0.977781  0.695644  1
