# generated using pymatgen
data_MgCo6SiAs3
_symmetry_space_group_name_H-M   'P 1'
_cell_length_a   6.82272400
_cell_length_b   6.82272423
_cell_length_c   3.46880000
_cell_angle_alpha   90.00000000
_cell_angle_beta   90.00000000
_cell_angle_gamma   120.00000856
_symmetry_Int_Tables_number   1
_chemical_formula_structural   MgCo6SiAs3
_chemical_formula_sum   'Mg1 Co6 Si1 As3'
_cell_volume   139.83808755
_cell_formula_units_Z   1
loop_
 _symmetry_equiv_pos_site_id
 _symmetry_equiv_pos_as_xyz
  1  'x, y, z'
loop_
 _atom_site_type_symbol
 _atom_site_label
 _atom_site_symmetry_multiplicity
 _atom_site_fract_x
 _atom_site_fract_y
 _atom_site_fract_z
 _atom_site_occupancy
  Mg  Mg0  1  0.000000  0.000000  0.000000  1
  Co  Co1  1  0.203516  0.796484  0.500000  1
  Co  Co2  1  0.203516  0.407031  0.500000  1
  Co  Co3  1  0.533468  0.066937  0.000000  1
  Co  Co4  1  0.933063  0.466532  0.000000  1
  Co  Co5  1  0.533468  0.466532  0.000000  1
  Co  Co6  1  0.592969  0.796484  0.500000  1
  Si  Si7  1  0.333333  0.666667  0.000000  1
  As  As8  1  0.814217  0.185783  0.500000  1
  As  As9  1  0.371565  0.185783  0.500000  1
  As  As10  1  0.814217  0.628435  0.500000  1
