# generated using pymatgen
data_HoPa7Ti12Si15As
_symmetry_space_group_name_H-M   'P 1'
_cell_length_a   7.03948142
_cell_length_b   7.03011081
_cell_length_c   13.02081096
_cell_angle_alpha   90.08523983
_cell_angle_beta   89.76760368
_cell_angle_gamma   90.04778727
_symmetry_Int_Tables_number   1
_chemical_formula_structural   HoPa7Ti12Si15As
_chemical_formula_sum   'Ho1 Pa7 Ti12 Si15 As1'
_cell_volume   644.37201269
_cell_formula_units_Z   1
loop_
 _symmetry_equiv_pos_site_id
 _symmetry_equiv_pos_as_xyz
  1  'x, y, z'
loop_
 _atom_site_type_symbol
 _atom_site_label
 _atom_site_symmetry_multiplicity
 _atom_site_fract_x
 _atom_site_fract_y
 _atom_site_fract_z
 _atom_site_occupancy
  Ho  Ho0  1  0.000491  0.661636  0.031800  1
  Pa  Pa1  1  0.336532  0.001712  0.466762  1
  Pa  Pa2  1  0.496869  0.836281  0.719382  1
  Pa  Pa3  1  0.505259  0.164238  0.217938  1
  Pa  Pa4  1  0.834488  0.493983  0.282104  1
  Pa  Pa5  1  0.164873  0.504133  0.781991  1
  Pa  Pa6  1  0.660851  0.000202  0.968581  1
  Pa  Pa7  1  0.996701  0.340840  0.529365  1
  Ti  Ti8  1  0.334854  0.325398  0.999959  1
  Ti  Ti9  1  0.172808  0.831228  0.250982  1
  Ti  Ti10  1  0.827907  0.169728  0.750557  1
  Ti  Ti11  1  0.669720  0.668358  0.500109  1
  Ti  Ti12  1  0.161985  0.005237  0.875091  1
  Ti  Ti13  1  0.498281  0.657243  0.126025  1
  Ti  Ti14  1  0.501725  0.341567  0.626535  1
  Ti  Ti15  1  0.656941  0.501148  0.874956  1
  Ti  Ti16  1  0.341297  0.502354  0.373448  1
  Ti  Ti17  1  0.841944  0.999576  0.374816  1
  Ti  Ti18  1  0.000892  0.157979  0.125302  1
  Ti  Ti19  1  0.995137  0.837038  0.623049  1
  Si  Si20  1  0.371903  0.704770  0.935263  1
  Si  Si21  1  0.623490  0.296541  0.434307  1
  Si  Si22  1  0.704600  0.374391  0.065800  1
  Si  Si23  1  0.296901  0.625529  0.566121  1
  Si  Si24  1  0.798704  0.870072  0.183516  1
  Si  Si25  1  0.127821  0.202285  0.315579  1
  Si  Si26  1  0.873663  0.799029  0.816722  1
  Si  Si27  1  0.290209  0.959115  0.066376  1
  Si  Si28  1  0.543016  0.789877  0.315436  1
  Si  Si29  1  0.467312  0.212995  0.819244  1
  Si  Si30  1  0.789871  0.540456  0.685514  1
  Si  Si31  1  0.208964  0.458413  0.183485  1
  Si  Si32  1  0.708915  0.039894  0.565465  1
  Si  Si33  1  0.958559  0.291903  0.935221  1
  Si  Si34  1  0.039346  0.709937  0.433033  1
  As  As35  1  0.197174  0.124910  0.680167  1
