# generated using pymatgen
data_Hf6Ti3Al13Pt7
_symmetry_space_group_name_H-M   'P 1'
_cell_length_a   8.81458481
_cell_length_b   8.81458473
_cell_length_c   8.81458512
_cell_angle_alpha   59.78563309
_cell_angle_beta   59.78563547
_cell_angle_gamma   59.78563457
_symmetry_Int_Tables_number   1
_chemical_formula_structural   Hf6Ti3Al13Pt7
_chemical_formula_sum   'Hf6 Ti3 Al13 Pt7'
_cell_volume   481.91655732
_cell_formula_units_Z   1
loop_
 _symmetry_equiv_pos_site_id
 _symmetry_equiv_pos_as_xyz
  1  'x, y, z'
loop_
 _atom_site_type_symbol
 _atom_site_label
 _atom_site_symmetry_multiplicity
 _atom_site_fract_x
 _atom_site_fract_y
 _atom_site_fract_z
 _atom_site_occupancy
  Hf  Hf0  1  0.682821  0.682821  0.316433  1
  Hf  Hf1  1  0.317159  0.681581  0.317159  1
  Hf  Hf2  1  0.681581  0.317159  0.317159  1
  Hf  Hf3  1  0.317159  0.317159  0.681581  1
  Hf  Hf4  1  0.682821  0.316433  0.682821  1
  Hf  Hf5  1  0.316433  0.682821  0.682821  1
  Ti  Ti6  1  0.879780  0.879780  0.360214  1
  Ti  Ti7  1  0.879780  0.360214  0.879780  1
  Ti  Ti8  1  0.360214  0.879780  0.879780  1
  Al  Al9  1  0.882249  0.882249  0.882249  1
  Al  Al10  1  0.120046  0.120046  0.640875  1
  Al  Al11  1  0.120046  0.640875  0.120046  1
  Al  Al12  1  0.640875  0.120046  0.120046  1
  Al  Al13  1  0.120815  0.120815  0.120815  1
  Al  Al14  1  0.665152  0.665152  0.003433  1
  Al  Al15  1  0.665152  0.003433  0.665152  1
  Al  Al16  1  0.003433  0.665152  0.665152  1
  Al  Al17  1  0.663402  0.663402  0.663402  1
  Al  Al18  1  0.334618  0.334618  0.996071  1
  Al  Al19  1  0.334618  0.996071  0.334618  1
  Al  Al20  1  0.996071  0.334618  0.334618  1
  Al  Al21  1  0.334104  0.334104  0.334104  1
  Pt  Pt22  1  0.002128  0.002128  0.002128  1
  Pt  Pt23  1  0.998598  0.998598  0.502757  1
  Pt  Pt24  1  0.500200  0.999191  0.500200  1
  Pt  Pt25  1  0.999191  0.500200  0.500200  1
  Pt  Pt26  1  0.500200  0.500200  0.999191  1
  Pt  Pt27  1  0.998598  0.502757  0.998598  1
  Pt  Pt28  1  0.502757  0.998598  0.998598  1
