# generated using pymatgen
data_Pr4Tm4Tc3B24Os
_symmetry_space_group_name_H-M   'P 1'
_cell_length_a   3.72110000
_cell_length_b   9.21949735
_cell_length_c   11.69068402
_cell_angle_alpha   89.95486662
_cell_angle_beta   90.00000000
_cell_angle_gamma   90.00000000
_symmetry_Int_Tables_number   1
_chemical_formula_structural   Pr4Tm4Tc3B24Os
_chemical_formula_sum   'Pr4 Tm4 Tc3 B24 Os1'
_cell_volume   401.06833311
_cell_formula_units_Z   1
loop_
 _symmetry_equiv_pos_site_id
 _symmetry_equiv_pos_as_xyz
  1  'x, y, z'
loop_
 _atom_site_type_symbol
 _atom_site_label
 _atom_site_symmetry_multiplicity
 _atom_site_fract_x
 _atom_site_fract_y
 _atom_site_fract_z
 _atom_site_occupancy
  Pr  Pr0  1  0.000000  0.322783  0.414373  1
  Pr  Pr1  1  0.000000  0.676180  0.584020  1
  Pr  Pr2  1  0.000000  0.822512  0.086603  1
  Pr  Pr3  1  0.000000  0.178345  0.915304  1
  Tm  Tm4  1  0.000000  0.942582  0.368989  1
  Tm  Tm5  1  0.000000  0.058358  0.630864  1
  Tm  Tm6  1  0.000000  0.442971  0.131347  1
  Tm  Tm7  1  0.000000  0.556791  0.868561  1
  Tc  Tc8  1  0.000000  0.639989  0.318392  1
  Tc  Tc9  1  0.000000  0.360095  0.682150  1
  Tc  Tc10  1  0.000000  0.139262  0.180779  1
  B  B11  1  0.500000  0.555654  0.429559  1
  B  B12  1  0.500000  0.444226  0.570185  1
  B  B13  1  0.500000  0.055743  0.070275  1
  B  B14  1  0.500000  0.943781  0.929616  1
  B  B15  1  0.500000  0.750491  0.415278  1
  B  B16  1  0.500000  0.249241  0.584860  1
  B  B17  1  0.500000  0.251131  0.084790  1
  B  B18  1  0.500000  0.749652  0.914862  1
  B  B19  1  0.500000  0.791498  0.266071  1
  B  B20  1  0.500000  0.208696  0.734394  1
  B  B21  1  0.500000  0.291302  0.234093  1
  B  B22  1  0.500000  0.709189  0.765660  1
  B  B23  1  0.500000  0.629093  0.185888  1
  B  B24  1  0.500000  0.370949  0.814569  1
  B  B25  1  0.500000  0.128746  0.313863  1
  B  B26  1  0.500000  0.870892  0.685999  1
  B  B27  1  0.500000  0.983820  0.213637  1
  B  B28  1  0.500000  0.015141  0.786649  1
  B  B29  1  0.500000  0.484164  0.286166  1
  B  B30  1  0.500000  0.515637  0.713553  1
  B  B31  1  0.500000  0.596207  0.026043  1
  B  B32  1  0.500000  0.404687  0.973730  1
  B  B33  1  0.500000  0.095773  0.473982  1
  B  B34  1  0.500000  0.904367  0.526560  1
  Os  Os35  1  0.000000  0.860049  0.818338  1
