# generated using pymatgen
data_Tb4Er8TlNi5
_symmetry_space_group_name_H-M   'P 1'
_cell_length_a   8.26785805
_cell_length_b   8.26785750
_cell_length_c   8.26785900
_cell_angle_alpha   107.21043919
_cell_angle_beta   109.71325180
_cell_angle_gamma   111.51870351
_symmetry_Int_Tables_number   1
_chemical_formula_structural   Tb4Er8TlNi5
_chemical_formula_sum   'Tb4 Er8 Tl1 Ni5'
_cell_volume   434.44993395
_cell_formula_units_Z   1
loop_
 _symmetry_equiv_pos_site_id
 _symmetry_equiv_pos_as_xyz
  1  'x, y, z'
loop_
 _atom_site_type_symbol
 _atom_site_label
 _atom_site_symmetry_multiplicity
 _atom_site_fract_x
 _atom_site_fract_y
 _atom_site_fract_z
 _atom_site_occupancy
  Tb  Tb0  1  0.476398  0.294020  0.182377  1
  Tb  Tb1  1  0.111644  0.294020  0.817623  1
  Tb  Tb2  1  0.888356  0.705980  0.182377  1
  Tb  Tb3  1  0.523602  0.705980  0.817623  1
  Er  Er4  1  0.306032  0.628136  0.322104  1
  Er  Er5  1  0.306032  0.983929  0.677896  1
  Er  Er6  1  0.693968  0.371864  0.677896  1
  Er  Er7  1  0.693968  0.016071  0.322104  1
  Er  Er8  1  0.190134  0.212111  0.402246  1
  Er  Er9  1  0.809866  0.787889  0.597754  1
  Er  Er10  1  0.190134  0.787889  0.978022  1
  Er  Er11  1  0.809866  0.212111  0.021978  1
  Tl  Tl12  1  0.000000  0.500000  0.500000  1
  Ni  Ni13  1  0.500000  0.626086  0.126086  1
  Ni  Ni14  1  0.500000  0.373914  0.873914  1
  Ni  Ni15  1  0.364879  0.000000  0.364879  1
  Ni  Ni16  1  0.635121  0.000000  0.635121  1
  Ni  Ni17  1  0.000000  0.000000  0.000000  1
