# generated using pymatgen
data_Yb2MgSi2Rh5
_symmetry_space_group_name_H-M   'P 1'
_cell_length_a   9.83071800
_cell_length_b   9.83071800
_cell_length_c   3.37161300
_cell_angle_alpha   90.00000000
_cell_angle_beta   90.00000000
_cell_angle_gamma   90.00000000
_symmetry_Int_Tables_number   1
_chemical_formula_structural   Yb2MgSi2Rh5
_chemical_formula_sum   'Yb4 Mg2 Si4 Rh10'
_cell_volume   325.84285044
_cell_formula_units_Z   2
loop_
 _symmetry_equiv_pos_site_id
 _symmetry_equiv_pos_as_xyz
  1  'x, y, z'
loop_
 _atom_site_type_symbol
 _atom_site_label
 _atom_site_symmetry_multiplicity
 _atom_site_fract_x
 _atom_site_fract_y
 _atom_site_fract_z
 _atom_site_occupancy
  Yb  Yb0  1  0.673105  0.173105  0.000000  1
  Yb  Yb1  1  0.326895  0.826895  0.000000  1
  Yb  Yb2  1  0.173105  0.326895  0.000000  1
  Yb  Yb3  1  0.826895  0.673105  0.000000  1
  Mg  Mg4  1  0.000000  0.000000  0.000000  1
  Mg  Mg5  1  0.500000  0.500000  0.000000  1
  Si  Si6  1  0.125099  0.625099  0.000000  1
  Si  Si7  1  0.874901  0.374901  0.000000  1
  Si  Si8  1  0.625099  0.874901  0.000000  1
  Si  Si9  1  0.374901  0.125099  0.000000  1
  Rh  Rh10  1  0.500000  0.000000  0.500000  1
  Rh  Rh11  1  0.000000  0.500000  0.500000  1
  Rh  Rh12  1  0.213939  0.069340  0.500000  1
  Rh  Rh13  1  0.786061  0.930660  0.500000  1
  Rh  Rh14  1  0.069340  0.786061  0.500000  1
  Rh  Rh15  1  0.713939  0.430660  0.500000  1
  Rh  Rh16  1  0.930660  0.213939  0.500000  1
  Rh  Rh17  1  0.286061  0.569340  0.500000  1
  Rh  Rh18  1  0.569340  0.713939  0.500000  1
  Rh  Rh19  1  0.430660  0.286061  0.500000  1
