# generated using pymatgen
data_Hf3(BeZn2)2
_symmetry_space_group_name_H-M   'P 1'
_cell_length_a   6.39037600
_cell_length_b   6.39037467
_cell_length_c   3.93211700
_cell_angle_alpha   90.00000000
_cell_angle_beta   90.00000000
_cell_angle_gamma   119.99999652
_symmetry_Int_Tables_number   1
_chemical_formula_structural   Hf3(BeZn2)2
_chemical_formula_sum   'Hf3 Be2 Zn4'
_cell_volume   139.06242958
_cell_formula_units_Z   1
loop_
 _symmetry_equiv_pos_site_id
 _symmetry_equiv_pos_as_xyz
  1  'x, y, z'
loop_
 _atom_site_type_symbol
 _atom_site_label
 _atom_site_symmetry_multiplicity
 _atom_site_fract_x
 _atom_site_fract_y
 _atom_site_fract_z
 _atom_site_occupancy
  Hf  Hf0  1  0.000000  0.563050  0.500000  1
  Hf  Hf1  1  0.436950  0.436950  0.500000  1
  Hf  Hf2  1  0.563050  0.000000  0.500000  1
  Be  Be3  1  0.666667  0.333333  0.000000  1
  Be  Be4  1  0.333333  0.666667  0.000000  1
  Zn  Zn5  1  0.000000  0.000000  0.500000  1
  Zn  Zn6  1  0.254399  0.000000  0.000000  1
  Zn  Zn7  1  0.745601  0.745601  0.000000  1
  Zn  Zn8  1  0.000000  0.254399  0.000000  1
