# generated using pymatgen
data_Tm2Zr5PtF30
_symmetry_space_group_name_H-M   'P 1'
_cell_length_a   8.14449541
_cell_length_b   8.14449543
_cell_length_c   8.14834817
_cell_angle_alpha   79.74423770
_cell_angle_beta   79.74422747
_cell_angle_gamma   100.03274093
_symmetry_Int_Tables_number   1
_chemical_formula_structural   Tm2Zr5PtF30
_chemical_formula_sum   'Tm2 Zr5 Pt1 F30'
_cell_volume   511.39892619
_cell_formula_units_Z   1
loop_
 _symmetry_equiv_pos_site_id
 _symmetry_equiv_pos_as_xyz
  1  'x, y, z'
loop_
 _atom_site_type_symbol
 _atom_site_label
 _atom_site_symmetry_multiplicity
 _atom_site_fract_x
 _atom_site_fract_y
 _atom_site_fract_z
 _atom_site_occupancy
  Tm  Tm0  1  0.177713  0.822287  0.250000  1
  Tm  Tm1  1  0.822170  0.177830  0.750000  1
  Zr  Zr2  1  0.248180  0.751820  0.750000  1
  Zr  Zr3  1  0.749264  0.678467  0.673498  1
  Zr  Zr4  1  0.321533  0.250736  0.826502  1
  Zr  Zr5  1  0.251384  0.322695  0.327771  1
  Zr  Zr6  1  0.677305  0.748616  0.172229  1
  Pt  Pt7  1  0.749808  0.250192  0.250000  1
  F  F8  1  0.312918  0.349630  0.056062  1
  F  F9  1  0.936896  0.810406  0.152655  1
  F  F10  1  0.843371  0.456707  0.685363  1
  F  F11  1  0.457998  0.842854  0.183161  1
  F  F12  1  0.814245  0.938729  0.653884  1
  F  F13  1  0.350933  0.318738  0.552649  1
  F  F14  1  0.681262  0.649067  0.947350  1
  F  F15  1  0.061271  0.185755  0.846116  1
  F  F16  1  0.157146  0.542002  0.316839  1
  F  F17  1  0.543293  0.156629  0.814637  1
  F  F18  1  0.189594  0.063104  0.347345  1
  F  F19  1  0.650370  0.687082  0.443938  1
  F  F20  1  0.775253  0.286208  0.999874  1
  F  F21  1  0.000599  0.274816  0.210704  1
  F  F22  1  0.787292  0.502126  0.222895  1
  F  F23  1  0.507726  0.777688  0.722844  1
  F  F24  1  0.276144  0.010262  0.718660  1
  F  F25  1  0.279411  0.774093  0.494454  1
  F  F26  1  0.225907  0.720589  0.005546  1
  F  F27  1  0.989738  0.723856  0.781340  1
  F  F28  1  0.222312  0.492274  0.777156  1
  F  F29  1  0.497874  0.212708  0.277105  1
  F  F30  1  0.725184  0.999401  0.289296  1
  F  F31  1  0.713792  0.224747  0.500126  1
  F  F32  1  0.470649  0.529351  0.250000  1
  F  F33  1  0.748073  0.958415  0.971141  1
  F  F34  1  0.041585  0.251927  0.528859  1
  F  F35  1  0.252289  0.042680  0.030509  1
  F  F36  1  0.957320  0.747711  0.469491  1
  F  F37  1  0.532199  0.467801  0.750000  1
