# generated using pymatgen
data_TbDy2Hf(Al8Pt3)3
_symmetry_space_group_name_H-M   'P 1'
_cell_length_a   7.51845391
_cell_length_b   7.52511351
_cell_length_c   13.08225618
_cell_angle_alpha   84.53611752
_cell_angle_beta   79.01204004
_cell_angle_gamma   59.88917955
_symmetry_Int_Tables_number   1
_chemical_formula_structural   TbDy2Hf(Al8Pt3)3
_chemical_formula_sum   'Tb1 Dy2 Hf1 Al24 Pt9'
_cell_volume   628.54022264
_cell_formula_units_Z   1
loop_
 _symmetry_equiv_pos_site_id
 _symmetry_equiv_pos_as_xyz
  1  'x, y, z'
loop_
 _atom_site_type_symbol
 _atom_site_label
 _atom_site_symmetry_multiplicity
 _atom_site_fract_x
 _atom_site_fract_y
 _atom_site_fract_z
 _atom_site_occupancy
  Tb  Tb0  1  0.606502  0.832013  0.191689  1
  Dy  Dy1  1  0.733918  0.498676  0.807756  1
  Dy  Dy2  1  0.266677  0.501109  0.191951  1
  Hf  Hf3  1  0.393762  0.168271  0.807348  1
  Al  Al4  1  0.681557  0.836965  0.941451  1
  Al  Al5  1  0.316422  0.166444  0.053615  1
  Al  Al6  1  0.146446  0.832817  0.562486  1
  Al  Al7  1  0.853087  0.167215  0.438392  1
  Al  Al8  1  0.480044  0.166775  0.560420  1
  Al  Al9  1  0.519319  0.833852  0.441420  1
  Al  Al10  1  0.217001  0.165418  0.330184  1
  Al  Al11  1  0.780080  0.836565  0.673030  1
  Al  Al12  1  0.435994  0.504929  0.673333  1
  Al  Al13  1  0.562378  0.493520  0.329615  1
  Al  Al14  1  0.110829  0.159555  0.672318  1
  Al  Al15  1  0.890217  0.839836  0.330815  1
  Al  Al16  1  0.354046  0.495922  0.941461  1
  Al  Al17  1  0.647728  0.500077  0.055343  1
  Al  Al18  1  0.019316  0.167978  0.949922  1
  Al  Al19  1  0.984814  0.832662  0.046439  1
  Al  Al20  1  0.186704  0.499150  0.441433  1
  Al  Al21  1  0.813717  0.500397  0.559174  1
  Al  Al22  1  0.734091  0.163964  0.183582  1
  Al  Al23  1  0.265551  0.841860  0.816420  1
  Al  Al24  1  0.066601  0.626307  0.815113  1
  Al  Al25  1  0.939164  0.368328  0.184529  1
  Al  Al26  1  0.850243  0.041340  0.815713  1
  Al  Al27  1  0.144714  0.958646  0.183840  1
  Pt  Pt28  1  0.120730  0.489768  0.639815  1
  Pt  Pt29  1  0.879069  0.508479  0.361737  1
  Pt  Pt30  1  0.657329  0.171862  0.998756  1
  Pt  Pt31  1  0.343822  0.827825  0.999053  1
  Pt  Pt32  1  0.537282  0.166720  0.361832  1
  Pt  Pt33  1  0.463307  0.833649  0.639695  1
  Pt  Pt34  1  0.777101  0.176404  0.638325  1
  Pt  Pt35  1  0.220660  0.824597  0.363268  1
  Pt  Pt36  1  0.999782  0.500104  0.998728  1
