# generated using pymatgen
data_Eu3Ho(ReB4)4
_symmetry_space_group_name_H-M   'P 1'
_cell_length_a   3.63736200
_cell_length_b   6.06466974
_cell_length_c   11.73376016
_cell_angle_alpha   90.11697660
_cell_angle_beta   90.00000000
_cell_angle_gamma   90.00000000
_symmetry_Int_Tables_number   1
_chemical_formula_structural   Eu3Ho(ReB4)4
_chemical_formula_sum   'Eu3 Ho1 Re4 B16'
_cell_volume   258.83916064
_cell_formula_units_Z   1
loop_
 _symmetry_equiv_pos_site_id
 _symmetry_equiv_pos_as_xyz
  1  'x, y, z'
loop_
 _atom_site_type_symbol
 _atom_site_label
 _atom_site_symmetry_multiplicity
 _atom_site_fract_x
 _atom_site_fract_y
 _atom_site_fract_z
 _atom_site_occupancy
  Eu  Eu0  1  0.000000  0.626652  0.150395  1
  Eu  Eu1  1  0.000000  0.373884  0.849495  1
  Eu  Eu2  1  0.000000  0.126680  0.349380  1
  Ho  Ho3  1  0.000000  0.873663  0.650282  1
  Re  Re4  1  0.000000  0.631572  0.417253  1
  Re  Re5  1  0.000000  0.369635  0.585667  1
  Re  Re6  1  0.000000  0.129611  0.083810  1
  Re  Re7  1  0.000000  0.870400  0.913418  1
  B  B8  1  0.500000  0.975958  0.190372  1
  B  B9  1  0.500000  0.023319  0.807317  1
  B  B10  1  0.500000  0.476181  0.310153  1
  B  B11  1  0.500000  0.525872  0.691337  1
  B  B12  1  0.500000  0.782153  0.316787  1
  B  B13  1  0.500000  0.215327  0.684272  1
  B  B14  1  0.500000  0.282229  0.183835  1
  B  B15  1  0.500000  0.717148  0.814359  1
  B  B16  1  0.500000  0.862811  0.469764  1
  B  B17  1  0.500000  0.137057  0.533086  1
  B  B18  1  0.500000  0.361721  0.031560  1
  B  B19  1  0.500000  0.638007  0.966835  1
  B  B20  1  0.500000  0.886721  0.045666  1
  B  B21  1  0.500000  0.112140  0.952365  1
  B  B22  1  0.500000  0.387379  0.454488  1
  B  B23  1  0.500000  0.613878  0.548104  1
