# generated using pymatgen
data_Zr2P2OsRu
_symmetry_space_group_name_H-M   'P 1'
_cell_length_a   3.91568400
_cell_length_b   6.48943500
_cell_length_c   7.36049600
_cell_angle_alpha   90.00000000
_cell_angle_beta   90.00000000
_cell_angle_gamma   90.00000000
_symmetry_Int_Tables_number   1
_chemical_formula_structural   Zr2P2OsRu
_chemical_formula_sum   'Zr4 P4 Os2 Ru2'
_cell_volume   187.03444888
_cell_formula_units_Z   2
loop_
 _symmetry_equiv_pos_site_id
 _symmetry_equiv_pos_as_xyz
  1  'x, y, z'
loop_
 _atom_site_type_symbol
 _atom_site_label
 _atom_site_symmetry_multiplicity
 _atom_site_fract_x
 _atom_site_fract_y
 _atom_site_fract_z
 _atom_site_occupancy
  Zr  Zr0  1  0.750000  0.522383  0.319506  1
  Zr  Zr1  1  0.250000  0.977954  0.820541  1
  Zr  Zr2  1  0.750000  0.022383  0.180494  1
  Zr  Zr3  1  0.250000  0.477954  0.679459  1
  P  P4  1  0.250000  0.723175  0.122253  1
  P  P5  1  0.250000  0.223175  0.377747  1
  P  P6  1  0.750000  0.275903  0.878358  1
  P  P7  1  0.750000  0.775903  0.621642  1
  Os  Os8  1  0.250000  0.348671  0.059549  1
  Os  Os9  1  0.250000  0.848671  0.440451  1
  Ru  Ru10  1  0.750000  0.151914  0.560454  1
  Ru  Ru11  1  0.750000  0.651914  0.939546  1
