# generated using pymatgen
data_YEr2Ni8Ir
_symmetry_space_group_name_H-M   'P 1'
_cell_length_a   8.76390052
_cell_length_b   8.76390032
_cell_length_c   8.76390100
_cell_angle_alpha   32.73311992
_cell_angle_beta   32.73312190
_cell_angle_gamma   32.73311762
_symmetry_Int_Tables_number   1
_chemical_formula_structural   YEr2Ni8Ir
_chemical_formula_sum   'Y1 Er2 Ni8 Ir1'
_cell_volume   175.06883068
_cell_formula_units_Z   1
loop_
 _symmetry_equiv_pos_site_id
 _symmetry_equiv_pos_as_xyz
  1  'x, y, z'
loop_
 _atom_site_type_symbol
 _atom_site_label
 _atom_site_symmetry_multiplicity
 _atom_site_fract_x
 _atom_site_fract_y
 _atom_site_fract_z
 _atom_site_occupancy
  Y  Y0  1  0.000000  0.000000  0.000000  1
  Er  Er1  1  0.861765  0.861765  0.861765  1
  Er  Er2  1  0.138235  0.138235  0.138235  1
  Ni  Ni3  1  0.666686  0.666686  0.666686  1
  Ni  Ni4  1  0.333314  0.333314  0.333314  1
  Ni  Ni5  1  0.418495  0.922192  0.418495  1
  Ni  Ni6  1  0.418495  0.418495  0.922192  1
  Ni  Ni7  1  0.922192  0.418495  0.418495  1
  Ni  Ni8  1  0.581505  0.077808  0.581505  1
  Ni  Ni9  1  0.581505  0.581505  0.077808  1
  Ni  Ni10  1  0.077808  0.581505  0.581505  1
  Ir  Ir11  1  0.500000  0.500000  0.500000  1
