# generated using pymatgen
data_ErTm7B24Rh3W
_symmetry_space_group_name_H-M   'P 1'
_cell_length_a   3.62322500
_cell_length_b   9.12334347
_cell_length_c   11.48498503
_cell_angle_alpha   90.24070896
_cell_angle_beta   90.00000000
_cell_angle_gamma   90.00000000
_symmetry_Int_Tables_number   1
_chemical_formula_structural   ErTm7B24Rh3W
_chemical_formula_sum   'Er1 Tm7 B24 Rh3 W1'
_cell_volume   379.64346666
_cell_formula_units_Z   1
loop_
 _symmetry_equiv_pos_site_id
 _symmetry_equiv_pos_as_xyz
  1  'x, y, z'
loop_
 _atom_site_type_symbol
 _atom_site_label
 _atom_site_symmetry_multiplicity
 _atom_site_fract_x
 _atom_site_fract_y
 _atom_site_fract_z
 _atom_site_occupancy
  Er  Er0  1  0.500000  0.318559  0.410706  1
  Tm  Tm1  1  0.500000  0.677083  0.585044  1
  Tm  Tm2  1  0.500000  0.179101  0.916579  1
  Tm  Tm3  1  0.500000  0.823211  0.086640  1
  Tm  Tm4  1  0.500000  0.445679  0.125336  1
  Tm  Tm5  1  0.500000  0.557313  0.871675  1
  Tm  Tm6  1  0.500000  0.055817  0.629064  1
  Tm  Tm7  1  0.500000  0.944337  0.374716  1
  B  B8  1  0.000000  0.106003  0.473056  1
  B  B9  1  0.000000  0.892009  0.530646  1
  B  B10  1  0.000000  0.395851  0.969135  1
  B  B11  1  0.000000  0.608579  0.028275  1
  B  B12  1  0.000000  0.131742  0.317644  1
  B  B13  1  0.000000  0.866720  0.683716  1
  B  B14  1  0.000000  0.368683  0.816281  1
  B  B15  1  0.000000  0.633128  0.183431  1
  B  B16  1  0.000000  0.051363  0.064040  1
  B  B17  1  0.000000  0.946712  0.933171  1
  B  B18  1  0.000000  0.445243  0.565244  1
  B  B19  1  0.000000  0.552751  0.434135  1
  B  B20  1  0.000000  0.483111  0.287241  1
  B  B21  1  0.000000  0.517744  0.711829  1
  B  B22  1  0.000000  0.018084  0.787756  1
  B  B23  1  0.000000  0.978802  0.214145  1
  B  B24  1  0.000000  0.251840  0.077827  1
  B  B25  1  0.000000  0.751233  0.919788  1
  B  B26  1  0.000000  0.249776  0.579508  1
  B  B27  1  0.000000  0.748614  0.421496  1
  B  B28  1  0.000000  0.296163  0.236055  1
  B  B29  1  0.000000  0.706018  0.763229  1
  B  B30  1  0.000000  0.207584  0.736469  1
  B  B31  1  0.000000  0.792087  0.266106  1
  Rh  Rh32  1  0.500000  0.861000  0.820694  1
  Rh  Rh33  1  0.500000  0.361072  0.679086  1
  Rh  Rh34  1  0.500000  0.638917  0.321183  1
  W  W35  1  0.500000  0.138069  0.179056  1
