# generated using pymatgen
data_Ho7Tm9(In3Co)2
_symmetry_space_group_name_H-M   'P 1'
_cell_length_a   10.25862700
_cell_length_b   10.25867311
_cell_length_c   6.96451800
_cell_angle_alpha   90.00025262
_cell_angle_beta   89.99878878
_cell_angle_gamma   119.99349861
_symmetry_Int_Tables_number   1
_chemical_formula_structural   Ho7Tm9(In3Co)2
_chemical_formula_sum   'Ho7 Tm9 In6 Co2'
_cell_volume   634.79072940
_cell_formula_units_Z   1
loop_
 _symmetry_equiv_pos_site_id
 _symmetry_equiv_pos_as_xyz
  1  'x, y, z'
loop_
 _atom_site_type_symbol
 _atom_site_label
 _atom_site_symmetry_multiplicity
 _atom_site_fract_x
 _atom_site_fract_y
 _atom_site_fract_z
 _atom_site_occupancy
  Ho  Ho0  1  0.534571  0.069187  0.791336  1
  Ho  Ho1  1  0.930802  0.465434  0.791355  1
  Ho  Ho2  1  0.534447  0.465560  0.791529  1
  Ho  Ho3  1  0.465324  0.930549  0.291307  1
  Ho  Ho4  1  0.069447  0.534682  0.291289  1
  Ho  Ho5  1  0.000047  0.999977  0.779659  1
  Ho  Ho6  1  0.999971  0.000013  0.279781  1
  Tm  Tm7  1  0.465091  0.534911  0.291684  1
  Tm  Tm8  1  0.820888  0.642448  0.498380  1
  Tm  Tm9  1  0.357558  0.179109  0.498356  1
  Tm  Tm10  1  0.821347  0.178663  0.498662  1
  Tm  Tm11  1  0.179099  0.357676  0.999102  1
  Tm  Tm12  1  0.642319  0.820898  0.999092  1
  Tm  Tm13  1  0.178726  0.821284  0.998701  1
  Tm  Tm14  1  0.666465  0.333518  0.183480  1
  Tm  Tm15  1  0.333524  0.666470  0.683340  1
  In  In16  1  0.837122  0.674245  0.039197  1
  In  In17  1  0.325723  0.162851  0.039091  1
  In  In18  1  0.837128  0.162872  0.038992  1
  In  In19  1  0.163128  0.325930  0.538920  1
  In  In20  1  0.674087  0.836888  0.538922  1
  In  In21  1  0.162838  0.837163  0.539089  1
  Co  Co22  1  0.666672  0.333340  0.567198  1
  Co  Co23  1  0.333674  0.666329  0.067443  1
