# generated using pymatgen
data_VHg(PO4)2
_symmetry_space_group_name_H-M   'P 1'
_cell_length_a   4.90473249
_cell_length_b   4.90473193
_cell_length_c   7.46384743
_cell_angle_alpha   84.34504396
_cell_angle_beta   84.34504782
_cell_angle_gamma   65.60049756
_symmetry_Int_Tables_number   1
_chemical_formula_structural   VHg(PO4)2
_chemical_formula_sum   'V1 Hg1 P2 O8'
_cell_volume   162.38944829
_cell_formula_units_Z   1
loop_
 _symmetry_equiv_pos_site_id
 _symmetry_equiv_pos_as_xyz
  1  'x, y, z'
loop_
 _atom_site_type_symbol
 _atom_site_label
 _atom_site_symmetry_multiplicity
 _atom_site_fract_x
 _atom_site_fract_y
 _atom_site_fract_z
 _atom_site_occupancy
  V  V0  1  0.000000  0.000000  0.000000  1
  Hg  Hg1  1  0.000000  0.000000  0.500000  1
  P  P2  1  0.333171  0.333171  0.206566  1
  P  P3  1  0.666829  0.666829  0.793434  1
  O  O4  1  0.216709  0.216709  0.058739  1
  O  O5  1  0.681504  0.202720  0.186135  1
  O  O6  1  0.202720  0.681504  0.186135  1
  O  O7  1  0.245537  0.245537  0.401324  1
  O  O8  1  0.754462  0.754462  0.598677  1
  O  O9  1  0.797280  0.318495  0.813864  1
  O  O10  1  0.318495  0.797280  0.813864  1
  O  O11  1  0.783292  0.783292  0.941260  1
