# generated using pymatgen
data_Ac3Nd2Cd2Ru3
_symmetry_space_group_name_H-M   'P 1'
_cell_length_a   8.95647293
_cell_length_b   8.95647226
_cell_length_c   8.95647300
_cell_angle_alpha   109.47121553
_cell_angle_beta   109.47121402
_cell_angle_gamma   109.47122877
_symmetry_Int_Tables_number   1
_chemical_formula_structural   Ac3Nd2Cd2Ru3
_chemical_formula_sum   'Ac6 Nd4 Cd4 Ru6'
_cell_volume   553.08152535
_cell_formula_units_Z   2
loop_
 _symmetry_equiv_pos_site_id
 _symmetry_equiv_pos_as_xyz
  1  'x, y, z'
loop_
 _atom_site_type_symbol
 _atom_site_label
 _atom_site_symmetry_multiplicity
 _atom_site_fract_x
 _atom_site_fract_y
 _atom_site_fract_z
 _atom_site_occupancy
  Ac  Ac0  1  0.250000  0.683286  0.433286  1
  Ac  Ac1  1  0.750000  0.816714  0.066714  1
  Ac  Ac2  1  0.433286  0.250000  0.683286  1
  Ac  Ac3  1  0.683286  0.433286  0.250000  1
  Ac  Ac4  1  0.066714  0.750000  0.816714  1
  Ac  Ac5  1  0.816714  0.066714  0.750000  1
  Nd  Nd6  1  0.212034  0.212034  0.212034  1
  Nd  Nd7  1  0.500000  0.000000  0.287966  1
  Nd  Nd8  1  0.287966  0.500000  0.000000  1
  Nd  Nd9  1  0.000000  0.287966  0.500000  1
  Cd  Cd10  1  0.585075  0.585075  0.585075  1
  Cd  Cd11  1  0.500000  0.000000  0.914925  1
  Cd  Cd12  1  0.914925  0.500000  0.000000  1
  Cd  Cd13  1  0.000000  0.914925  0.500000  1
  Ru  Ru14  1  0.250000  0.139521  0.889521  1
  Ru  Ru15  1  0.750000  0.360479  0.610479  1
  Ru  Ru16  1  0.889520  0.250000  0.139521  1
  Ru  Ru17  1  0.139521  0.889520  0.250000  1
  Ru  Ru18  1  0.610479  0.750000  0.360479  1
  Ru  Ru19  1  0.360479  0.610479  0.750000  1
