# generated using pymatgen
data_Ac9Nd3(Si7Br3)2
_symmetry_space_group_name_H-M   'P 1'
_cell_length_a   4.24208800
_cell_length_b   12.22668586
_cell_length_c   17.24775740
_cell_angle_alpha   89.03721998
_cell_angle_beta   90.00000000
_cell_angle_gamma   90.00000000
_symmetry_Int_Tables_number   1
_chemical_formula_structural   Ac9Nd3(Si7Br3)2
_chemical_formula_sum   'Ac9 Nd3 Si14 Br6'
_cell_volume   894.45757272
_cell_formula_units_Z   1
loop_
 _symmetry_equiv_pos_site_id
 _symmetry_equiv_pos_as_xyz
  1  'x, y, z'
loop_
 _atom_site_type_symbol
 _atom_site_label
 _atom_site_symmetry_multiplicity
 _atom_site_fract_x
 _atom_site_fract_y
 _atom_site_fract_z
 _atom_site_occupancy
  Ac  Ac0  1  0.500000  0.343035  0.507335  1
  Ac  Ac1  1  0.000000  0.657667  0.992802  1
  Ac  Ac2  1  0.500000  0.359046  0.242655  1
  Ac  Ac3  1  0.000000  0.639897  0.252164  1
  Ac  Ac4  1  0.500000  0.068234  0.876376  1
  Ac  Ac5  1  0.000000  0.933563  0.624661  1
  Ac  Ac6  1  0.500000  0.069359  0.117579  1
  Ac  Ac7  1  0.000000  0.932542  0.381319  1
  Ac  Ac8  1  0.000000  0.638033  0.504349  1
  Nd  Nd9  1  0.500000  0.366112  0.761325  1
  Nd  Nd10  1  0.000000  0.632403  0.744010  1
  Nd  Nd11  1  0.500000  0.359733  0.995510  1
  Si  Si12  1  0.000000  0.163092  0.996150  1
  Si  Si13  1  0.500000  0.840415  0.503952  1
  Si  Si14  1  0.500000  0.560509  0.872945  1
  Si  Si15  1  0.000000  0.434848  0.632106  1
  Si  Si16  1  0.500000  0.558327  0.115564  1
  Si  Si17  1  0.000000  0.437146  0.379725  1
  Si  Si18  1  0.000000  0.262469  0.873449  1
  Si  Si19  1  0.500000  0.739537  0.630369  1
  Si  Si20  1  0.000000  0.260689  0.117912  1
  Si  Si21  1  0.500000  0.741530  0.377853  1
  Si  Si22  1  0.000000  0.458594  0.874681  1
  Si  Si23  1  0.500000  0.539661  0.631396  1
  Si  Si24  1  0.500000  0.541863  0.375843  1
  Si  Si25  1  0.000000  0.456603  0.117909  1
  Br  Br26  1  0.500000  0.117647  0.692392  1
  Br  Br27  1  0.000000  0.884247  0.809383  1
  Br  Br28  1  0.000000  0.136853  0.499709  1
  Br  Br29  1  0.500000  0.864673  0.000365  1
  Br  Br30  1  0.500000  0.107788  0.306470  1
  Br  Br31  1  0.000000  0.893886  0.191742  1
