# generated using pymatgen
data_Li3Ta2InRh6
_symmetry_space_group_name_H-M   'P 1'
_cell_length_a   4.38254800
_cell_length_b   6.15528400
_cell_length_c   13.13947300
_cell_angle_alpha   90.00000000
_cell_angle_beta   89.99840016
_cell_angle_gamma   90.00000000
_symmetry_Int_Tables_number   1
_chemical_formula_structural   Li3Ta2InRh6
_chemical_formula_sum   'Li6 Ta4 In2 Rh12'
_cell_volume   354.44815812
_cell_formula_units_Z   2
loop_
 _symmetry_equiv_pos_site_id
 _symmetry_equiv_pos_as_xyz
  1  'x, y, z'
loop_
 _atom_site_type_symbol
 _atom_site_label
 _atom_site_symmetry_multiplicity
 _atom_site_fract_x
 _atom_site_fract_y
 _atom_site_fract_z
 _atom_site_occupancy
  Li  Li0  1  0.999944  0.499999  0.003306  1
  Li  Li1  1  0.500034  0.000000  0.163230  1
  Li  Li2  1  0.999860  0.499999  0.334557  1
  Li  Li3  1  0.500049  0.000000  0.499554  1
  Li  Li4  1  0.000035  0.499999  0.666922  1
  Li  Li5  1  0.500097  0.000000  0.832271  1
  Ta  Ta6  1  0.999963  0.000000  0.334545  1
  Ta  Ta7  1  0.499953  0.499999  0.499573  1
  Ta  Ta8  1  0.000060  0.000000  0.667042  1
  Ta  Ta9  1  0.500151  0.499999  0.832132  1
  In  In10  1  0.999978  0.000000  0.003925  1
  In  In11  1  0.499838  0.499999  0.162921  1
  Rh  Rh12  1  0.499946  0.257876  0.988423  1
  Rh  Rh13  1  0.499946  0.742125  0.988423  1
  Rh  Rh14  1  0.999971  0.242188  0.178319  1
  Rh  Rh15  1  0.999971  0.757813  0.178319  1
  Rh  Rh16  1  0.499925  0.249258  0.338558  1
  Rh  Rh17  1  0.499925  0.750743  0.338558  1
  Rh  Rh18  1  0.999969  0.252392  0.502306  1
  Rh  Rh19  1  0.999969  0.747608  0.502306  1
  Rh  Rh20  1  0.500069  0.247591  0.664315  1
  Rh  Rh21  1  0.500069  0.752410  0.664315  1
  Rh  Rh22  1  0.000143  0.250713  0.828091  1
  Rh  Rh23  1  0.000143  0.749288  0.828091  1
