# generated using pymatgen
data_Ca2Sm2Os6O19
_symmetry_space_group_name_H-M   'P 1'
_cell_length_a   7.89028568
_cell_length_b   7.87945286
_cell_length_c   7.87945341
_cell_angle_alpha   109.39134294
_cell_angle_beta   109.50539847
_cell_angle_gamma   109.46122605
_symmetry_Int_Tables_number   1
_chemical_formula_structural   Ca2Sm2Os6O19
_chemical_formula_sum   'Ca2 Sm2 Os6 O19'
_cell_volume   377.36430164
_cell_formula_units_Z   1
loop_
 _symmetry_equiv_pos_site_id
 _symmetry_equiv_pos_as_xyz
  1  'x, y, z'
loop_
 _atom_site_type_symbol
 _atom_site_label
 _atom_site_symmetry_multiplicity
 _atom_site_fract_x
 _atom_site_fract_y
 _atom_site_fract_z
 _atom_site_occupancy
  Ca  Ca0  1  0.998808  0.000725  0.294287  1
  Ca  Ca1  1  0.001192  0.295479  0.001916  1
  Sm  Sm2  1  0.706696  0.708206  0.706580  1
  Sm  Sm3  1  0.293304  0.999884  0.001510  1
  Os  Os4  1  0.361672  0.499174  0.862569  1
  Os  Os5  1  0.863447  0.361828  0.499899  1
  Os  Os6  1  0.500000  0.138941  0.638941  1
  Os  Os7  1  0.136553  0.636451  0.498381  1
  Os  Os8  1  0.500000  0.864247  0.364247  1
  Os  Os9  1  0.638328  0.500897  0.137501  1
  O  O10  1  0.325125  0.002108  0.323886  1
  O  O11  1  0.326247  0.322594  0.001578  1
  O  O12  1  0.000000  0.676346  0.676346  1
  O  O13  1  0.673753  0.675330  0.996347  1
  O  O14  1  0.000000  0.324506  0.324506  1
  O  O15  1  0.674875  0.998761  0.676983  1
  O  O16  1  0.000000  0.987950  0.987950  1
  O  O17  1  0.338483  0.276706  0.633338  1
  O  O18  1  0.062408  0.355639  0.722008  1
  O  O19  1  0.705219  0.372010  0.644854  1
  O  O20  1  0.372734  0.647041  0.706210  1
  O  O21  1  0.294781  0.939635  0.666791  1
  O  O22  1  0.627266  0.333475  0.274306  1
  O  O23  1  0.278021  0.633255  0.339378  1
  O  O24  1  0.721979  0.061356  0.355233  1
  O  O25  1  0.937592  0.659599  0.293231  1
  O  O26  1  0.647039  0.706984  0.373052  1
  O  O27  1  0.661517  0.294855  0.938225  1
  O  O28  1  0.352961  0.726014  0.059945  1
