# generated using pymatgen
data_Y6Tm4(InBi)3
_symmetry_space_group_name_H-M   'P 1'
_cell_length_a   9.02269200
_cell_length_b   9.03675848
_cell_length_c   6.45408000
_cell_angle_alpha   90.00000000
_cell_angle_beta   90.00000000
_cell_angle_gamma   119.88409152
_symmetry_Int_Tables_number   1
_chemical_formula_structural   Y6Tm4(InBi)3
_chemical_formula_sum   'Y6 Tm4 In3 Bi3'
_cell_volume   456.26782343
_cell_formula_units_Z   1
loop_
 _symmetry_equiv_pos_site_id
 _symmetry_equiv_pos_as_xyz
  1  'x, y, z'
loop_
 _atom_site_type_symbol
 _atom_site_label
 _atom_site_symmetry_multiplicity
 _atom_site_fract_x
 _atom_site_fract_y
 _atom_site_fract_z
 _atom_site_occupancy
  Y  Y0  1  0.761311  0.753073  0.250000  1
  Y  Y1  1  0.007075  0.246143  0.250000  1
  Y  Y2  1  0.766190  0.007859  0.750000  1
  Y  Y3  1  0.235908  0.999285  0.250000  1
  Y  Y4  1  0.999013  0.755899  0.750000  1
  Y  Y5  1  0.236100  0.244545  0.750000  1
  Tm  Tm6  1  0.323822  0.656551  0.496777  1
  Tm  Tm7  1  0.672778  0.339363  0.497116  1
  Tm  Tm8  1  0.323822  0.656551  0.003223  1
  Tm  Tm9  1  0.672778  0.339363  0.002884  1
  In  In10  1  0.997227  0.396055  0.750000  1
  In  In11  1  0.396598  0.392607  0.250000  1
  In  In12  1  0.000586  0.605132  0.250000  1
  Bi  Bi13  1  0.606137  0.609147  0.750000  1
  Bi  Bi14  1  0.393891  0.000980  0.750000  1
  Bi  Bi15  1  0.606763  0.997447  0.250000  1
