# generated using pymatgen
data_Y2HoZn2Co9B4
_symmetry_space_group_name_H-M   'P 1'
_cell_length_a   5.10785739
_cell_length_b   5.10517131
_cell_length_c   9.67375600
_cell_angle_alpha   89.99990715
_cell_angle_beta   90.00015640
_cell_angle_gamma   120.02097642
_symmetry_Int_Tables_number   1
_chemical_formula_structural   Y2HoZn2Co9B4
_chemical_formula_sum   'Y2 Ho1 Zn2 Co9 B4'
_cell_volume   218.41527456
_cell_formula_units_Z   1
loop_
 _symmetry_equiv_pos_site_id
 _symmetry_equiv_pos_as_xyz
  1  'x, y, z'
loop_
 _atom_site_type_symbol
 _atom_site_label
 _atom_site_symmetry_multiplicity
 _atom_site_fract_x
 _atom_site_fract_y
 _atom_site_fract_z
 _atom_site_occupancy
  Y  Y0  1  0.999988  0.000000  0.999762  1
  Y  Y1  1  0.999995  0.000003  0.342243  1
  Ho  Ho2  1  0.999998  0.999998  0.658151  1
  Zn  Zn3  1  0.333352  0.666656  0.999950  1
  Zn  Zn4  1  0.666628  0.333344  0.999950  1
  Co  Co5  1  0.499996  0.000000  0.500222  1
  Co  Co6  1  0.499997  0.500000  0.500230  1
  Co  Co7  1  0.999996  0.500000  0.500211  1
  Co  Co8  1  0.499993  0.000000  0.210682  1
  Co  Co9  1  0.499994  0.500001  0.210689  1
  Co  Co10  1  0.999993  0.500003  0.210692  1
  Co  Co11  1  0.499997  0.999999  0.789040  1
  Co  Co12  1  0.499996  0.499999  0.789015  1
  Co  Co13  1  0.999996  0.499997  0.789033  1
  B  B14  1  0.333367  0.666780  0.350988  1
  B  B15  1  0.666622  0.333221  0.350988  1
  B  B16  1  0.666668  0.333250  0.649077  1
  B  B17  1  0.333326  0.666748  0.649077  1
