# generated using pymatgen
data_Tb2ThCo11B4
_symmetry_space_group_name_H-M   'P 1'
_cell_length_a   5.05598209
_cell_length_b   5.05803364
_cell_length_c   9.80958500
_cell_angle_alpha   89.99976217
_cell_angle_beta   90.00057126
_cell_angle_gamma   120.00764195
_symmetry_Int_Tables_number   1
_chemical_formula_structural   Tb2ThCo11B4
_chemical_formula_sum   'Tb2 Th1 Co11 B4'
_cell_volume   217.23763124
_cell_formula_units_Z   1
loop_
 _symmetry_equiv_pos_site_id
 _symmetry_equiv_pos_as_xyz
  1  'x, y, z'
loop_
 _atom_site_type_symbol
 _atom_site_label
 _atom_site_symmetry_multiplicity
 _atom_site_fract_x
 _atom_site_fract_y
 _atom_site_fract_z
 _atom_site_occupancy
  Tb  Tb0  1  0.999984  0.000003  0.343620  1
  Tb  Tb1  1  0.999994  0.000004  0.656183  1
  Th  Th2  1  0.000017  0.999997  0.000558  1
  Co  Co3  1  0.333248  0.666330  0.000044  1
  Co  Co4  1  0.666709  0.333660  0.000117  1
  Co  Co5  1  0.499874  0.999772  0.499803  1
  Co  Co6  1  0.499879  0.500108  0.499715  1
  Co  Co7  1  0.000220  0.500114  0.499798  1
  Co  Co8  1  0.500109  0.000242  0.204806  1
  Co  Co9  1  0.500111  0.499881  0.204831  1
  Co  Co10  1  0.999759  0.499891  0.204743  1
  Co  Co11  1  0.500130  0.000262  0.795502  1
  Co  Co12  1  0.500136  0.499861  0.795331  1
  Co  Co13  1  0.999749  0.499878  0.795449  1
  B  B14  1  0.333120  0.666782  0.349641  1
  B  B15  1  0.666857  0.333212  0.350166  1
  B  B16  1  0.666813  0.333397  0.649569  1
  B  B17  1  0.333192  0.666605  0.650127  1
