# generated using pymatgen
data_Dy8Er7Sc5Si15Rh
_symmetry_space_group_name_H-M   'P 1'
_cell_length_a   7.19129621
_cell_length_b   7.63785744
_cell_length_c   14.26395358
_cell_angle_alpha   90.11937789
_cell_angle_beta   90.05572013
_cell_angle_gamma   90.14629165
_symmetry_Int_Tables_number   1
_chemical_formula_structural   Dy8Er7Sc5Si15Rh
_chemical_formula_sum   'Dy8 Er7 Sc5 Si15 Rh1'
_cell_volume   783.45864470
_cell_formula_units_Z   1
loop_
 _symmetry_equiv_pos_site_id
 _symmetry_equiv_pos_as_xyz
  1  'x, y, z'
loop_
 _atom_site_type_symbol
 _atom_site_label
 _atom_site_symmetry_multiplicity
 _atom_site_fract_x
 _atom_site_fract_y
 _atom_site_fract_z
 _atom_site_occupancy
  Dy  Dy0  1  0.017382  0.182554  0.096877  1
  Dy  Dy1  1  0.986863  0.821947  0.907208  1
  Dy  Dy2  1  0.483615  0.681842  0.905204  1
  Dy  Dy3  1  0.984979  0.822457  0.595055  1
  Dy  Dy4  1  0.516115  0.319318  0.096046  1
  Dy  Dy5  1  0.017604  0.183829  0.401486  1
  Dy  Dy6  1  0.516914  0.319220  0.402019  1
  Dy  Dy7  1  0.484282  0.681151  0.594957  1
  Er  Er8  1  0.310623  0.172453  0.628271  1
  Er  Er9  1  0.678067  0.825625  0.372651  1
  Er  Er10  1  0.176827  0.678534  0.372934  1
  Er  Er11  1  0.677057  0.825183  0.125531  1
  Er  Er12  1  0.829879  0.318852  0.628295  1
  Er  Er13  1  0.310970  0.173086  0.873148  1
  Er  Er14  1  0.830096  0.320795  0.873578  1
  Sc  Sc15  1  0.156809  0.520662  0.750531  1
  Sc  Sc16  1  0.844097  0.488620  0.248494  1
  Sc  Sc17  1  0.343379  0.013531  0.248082  1
  Sc  Sc18  1  0.664136  0.986155  0.750529  1
  Sc  Sc19  1  0.176605  0.678182  0.127721  1
  Si  Si20  1  0.982295  0.897937  0.247266  1
  Si  Si21  1  0.476994  0.600012  0.246883  1
  Si  Si22  1  0.519718  0.401821  0.750736  1
  Si  Si23  1  0.284682  0.860954  0.750591  1
  Si  Si24  1  0.718113  0.137175  0.248909  1
  Si  Si25  1  0.218998  0.367991  0.248112  1
  Si  Si26  1  0.775679  0.631224  0.750543  1
  Si  Si27  1  0.155636  0.471720  0.538648  1
  Si  Si28  1  0.844743  0.531067  0.460327  1
  Si  Si29  1  0.346592  0.970904  0.459232  1
  Si  Si30  1  0.853366  0.531901  0.042347  1
  Si  Si31  1  0.651749  0.031397  0.539720  1
  Si  Si32  1  0.159267  0.474174  0.965821  1
  Si  Si33  1  0.651777  0.030798  0.960094  1
  Si  Si34  1  0.341010  0.964418  0.041254  1
  Rh  Rh35  1  0.013076  0.082508  0.750900  1
