# generated using pymatgen
data_Sc20GaTc5
_symmetry_space_group_name_H-M   'P 1'
_cell_length_a   8.86042900
_cell_length_b   8.83065630
_cell_length_c   8.20797100
_cell_angle_alpha   90.00000000
_cell_angle_beta   90.00000000
_cell_angle_gamma   120.11158792
_symmetry_Int_Tables_number   1
_chemical_formula_structural   Sc20GaTc5
_chemical_formula_sum   'Sc20 Ga1 Tc5'
_cell_volume   555.55203438
_cell_formula_units_Z   1
loop_
 _symmetry_equiv_pos_site_id
 _symmetry_equiv_pos_as_xyz
  1  'x, y, z'
loop_
 _atom_site_type_symbol
 _atom_site_label
 _atom_site_symmetry_multiplicity
 _atom_site_fract_x
 _atom_site_fract_y
 _atom_site_fract_z
 _atom_site_occupancy
  Sc  Sc0  1  0.997870  0.995740  0.987320  1
  Sc  Sc1  1  0.404013  0.200499  0.048507  1
  Sc  Sc2  1  0.796487  0.200499  0.048507  1
  Sc  Sc3  1  0.796337  0.592675  0.054428  1
  Sc  Sc4  1  0.095437  0.555317  0.250000  1
  Sc  Sc5  1  0.459880  0.555317  0.250000  1
  Sc  Sc6  1  0.454740  0.909481  0.250000  1
  Sc  Sc7  1  0.404013  0.200499  0.451493  1
  Sc  Sc8  1  0.796487  0.200499  0.451493  1
  Sc  Sc9  1  0.796337  0.592675  0.445572  1
  Sc  Sc10  1  0.997870  0.995740  0.512680  1
  Sc  Sc11  1  0.203648  0.407296  0.566317  1
  Sc  Sc12  1  0.201682  0.795341  0.553356  1
  Sc  Sc13  1  0.593659  0.795341  0.553356  1
  Sc  Sc14  1  0.546241  0.092483  0.750001  1
  Sc  Sc15  1  0.548892  0.452817  0.750001  1
  Sc  Sc16  1  0.903926  0.452817  0.750001  1
  Sc  Sc17  1  0.203648  0.407296  0.933683  1
  Sc  Sc18  1  0.201682  0.795341  0.946644  1
  Sc  Sc19  1  0.593659  0.795341  0.946644  1
  Ga  Ga20  1  0.115262  0.230525  0.250000  1
  Tc  Tc21  1  0.118061  0.883467  0.250000  1
  Tc  Tc22  1  0.765406  0.883467  0.250000  1
  Tc  Tc23  1  0.241582  0.126893  0.750001  1
  Tc  Tc24  1  0.885310  0.126893  0.750001  1
  Tc  Tc25  1  0.877868  0.755738  0.750001  1
