# generated using pymatgen
data_Er5TmFe7Co16
_symmetry_space_group_name_H-M   'P 1'
_cell_length_a   8.35615920
_cell_length_b   8.35615950
_cell_length_c   8.35038300
_cell_angle_alpha   60.02286099
_cell_angle_beta   60.02285980
_cell_angle_gamma   59.95428371
_symmetry_Int_Tables_number   1
_chemical_formula_structural   Er5TmFe7Co16
_chemical_formula_sum   'Er5 Tm1 Fe7 Co16'
_cell_volume   412.29154103
_cell_formula_units_Z   1
loop_
 _symmetry_equiv_pos_site_id
 _symmetry_equiv_pos_as_xyz
  1  'x, y, z'
loop_
 _atom_site_type_symbol
 _atom_site_label
 _atom_site_symmetry_multiplicity
 _atom_site_fract_x
 _atom_site_fract_y
 _atom_site_fract_z
 _atom_site_occupancy
  Er  Er0  1  0.713883  0.286270  0.286117  1
  Er  Er1  1  0.286270  0.713883  0.713730  1
  Er  Er2  1  0.286270  0.713883  0.286117  1
  Er  Er3  1  0.286118  0.286118  0.713882  1
  Er  Er4  1  0.713883  0.286270  0.713730  1
  Tm  Tm5  1  0.714610  0.714610  0.285390  1
  Fe  Fe6  1  0.500015  0.999820  0.000180  1
  Fe  Fe7  1  0.999820  0.500015  0.499985  1
  Fe  Fe8  1  0.999820  0.500015  0.000180  1
  Fe  Fe9  1  0.000061  0.000061  0.499939  1
  Fe  Fe10  1  0.500015  0.999820  0.499985  1
  Fe  Fe11  1  0.500061  0.500061  0.999939  1
  Fe  Fe12  1  0.000066  0.000066  0.999934  1
  Co  Co13  1  0.323509  0.323509  0.323481  1
  Co  Co14  1  0.323509  0.323509  0.029502  1
  Co  Co15  1  0.029209  0.323654  0.323570  1
  Co  Co16  1  0.323654  0.029209  0.323570  1
  Co  Co17  1  0.676430  0.676430  0.676346  1
  Co  Co18  1  0.676430  0.676430  0.970791  1
  Co  Co19  1  0.676519  0.970498  0.676491  1
  Co  Co20  1  0.970498  0.676519  0.676491  1
  Co  Co21  1  0.123012  0.123012  0.122968  1
  Co  Co22  1  0.123012  0.123012  0.631007  1
  Co  Co23  1  0.631150  0.122499  0.123175  1
  Co  Co24  1  0.122499  0.631150  0.123175  1
  Co  Co25  1  0.876825  0.876825  0.877501  1
  Co  Co26  1  0.876825  0.876825  0.368850  1
  Co  Co27  1  0.877032  0.368993  0.876988  1
  Co  Co28  1  0.368993  0.877032  0.876988  1
