# generated using pymatgen
data_Ba2PaCu2S5
_symmetry_space_group_name_H-M   'P 1'
_cell_length_a   4.05788881
_cell_length_b   7.16950366
_cell_length_c   9.09960170
_cell_angle_alpha   103.13518654
_cell_angle_beta   102.88357573
_cell_angle_gamma   106.43911904
_symmetry_Int_Tables_number   1
_chemical_formula_structural   Ba2PaCu2S5
_chemical_formula_sum   'Ba2 Pa1 Cu2 S5'
_cell_volume   235.28328724
_cell_formula_units_Z   1
loop_
 _symmetry_equiv_pos_site_id
 _symmetry_equiv_pos_as_xyz
  1  'x, y, z'
loop_
 _atom_site_type_symbol
 _atom_site_label
 _atom_site_symmetry_multiplicity
 _atom_site_fract_x
 _atom_site_fract_y
 _atom_site_fract_z
 _atom_site_occupancy
  Ba  Ba0  1  0.474610  0.650665  0.298554  1
  Ba  Ba1  1  0.525390  0.349335  0.701446  1
  Pa  Pa2  1  0.000000  0.000000  0.000000  1
  Cu  Cu3  1  0.743412  0.190179  0.296645  1
  Cu  Cu4  1  0.256588  0.809821  0.703355  1
  S  S5  1  0.676869  0.288435  0.065304  1
  S  S6  1  0.162801  0.018284  0.307319  1
  S  S7  1  0.000001  0.500001  0.500000  1
  S  S8  1  0.837199  0.981716  0.692682  1
  S  S9  1  0.323132  0.711567  0.934696  1
