# generated using pymatgen
data_LiTi3Al2(Co5B2)2
_symmetry_space_group_name_H-M   'P 1'
_cell_length_a   8.54591883
_cell_length_b   8.54591883
_cell_length_c   2.88948800
_cell_angle_alpha   90.00000000
_cell_angle_beta   90.00000000
_cell_angle_gamma   90.34545458
_symmetry_Int_Tables_number   1
_chemical_formula_structural   LiTi3Al2(Co5B2)2
_chemical_formula_sum   'Li1 Ti3 Al2 Co10 B4'
_cell_volume   211.02335751
_cell_formula_units_Z   1
loop_
 _symmetry_equiv_pos_site_id
 _symmetry_equiv_pos_as_xyz
  1  'x, y, z'
loop_
 _atom_site_type_symbol
 _atom_site_label
 _atom_site_symmetry_multiplicity
 _atom_site_fract_x
 _atom_site_fract_y
 _atom_site_fract_z
 _atom_site_occupancy
  Li  Li0  1  0.823630  0.323630  0.000000  1
  Ti  Ti1  1  0.325462  0.177845  0.000000  1
  Ti  Ti2  1  0.677845  0.825462  0.000000  1
  Ti  Ti3  1  0.172196  0.672196  0.000000  1
  Al  Al4  1  0.999980  0.000647  0.000000  1
  Al  Al5  1  0.500647  0.499980  0.000000  1
  Co  Co6  1  0.499067  0.999067  0.500000  1
  Co  Co7  1  0.000757  0.500757  0.500000  1
  Co  Co8  1  0.078407  0.218242  0.500000  1
  Co  Co9  1  0.219526  0.927921  0.500000  1
  Co  Co10  1  0.778001  0.063456  0.500000  1
  Co  Co11  1  0.931970  0.780696  0.500000  1
  Co  Co12  1  0.427921  0.719526  0.500000  1
  Co  Co13  1  0.563456  0.278001  0.500000  1
  Co  Co14  1  0.718242  0.578407  0.500000  1
  Co  Co15  1  0.280696  0.431970  0.500000  1
  B  B16  1  0.624444  0.124444  0.000000  1
  B  B17  1  0.120763  0.378919  0.000000  1
  B  B18  1  0.878919  0.620763  0.000000  1
  B  B19  1  0.378072  0.878072  0.000000  1
