# generated using pymatgen
data_Lu10AlZnSb4
_symmetry_space_group_name_H-M   'P 1'
_cell_length_a   8.66659600
_cell_length_b   8.67218624
_cell_length_c   6.27182600
_cell_angle_alpha   90.00000000
_cell_angle_beta   90.00000000
_cell_angle_gamma   119.87622818
_symmetry_Int_Tables_number   1
_chemical_formula_structural   Lu10AlZnSb4
_chemical_formula_sum   'Lu10 Al1 Zn1 Sb4'
_cell_volume   408.73524292
_cell_formula_units_Z   1
loop_
 _symmetry_equiv_pos_site_id
 _symmetry_equiv_pos_as_xyz
  1  'x, y, z'
loop_
 _atom_site_type_symbol
 _atom_site_label
 _atom_site_symmetry_multiplicity
 _atom_site_fract_x
 _atom_site_fract_y
 _atom_site_fract_z
 _atom_site_occupancy
  Lu  Lu0  1  0.670026  0.326984  0.004699  1
  Lu  Lu1  1  0.323858  0.665256  0.004757  1
  Lu  Lu2  1  0.323858  0.665256  0.495243  1
  Lu  Lu3  1  0.670026  0.326984  0.495301  1
  Lu  Lu4  1  0.761474  0.761278  0.750000  1
  Lu  Lu5  1  0.236840  0.997807  0.750000  1
  Lu  Lu6  1  0.997892  0.237561  0.750000  1
  Lu  Lu7  1  0.233872  0.237376  0.250000  1
  Lu  Lu8  1  0.768857  0.016045  0.250000  1
  Lu  Lu9  1  0.012174  0.764869  0.250000  1
  Al  Al10  1  0.396981  0.001150  0.250000  1
  Zn  Zn11  1  0.001166  0.395990  0.250000  1
  Sb  Sb12  1  0.394938  0.393893  0.750000  1
  Sb  Sb13  1  0.600496  0.994489  0.750000  1
  Sb  Sb14  1  0.995264  0.602232  0.750000  1
  Sb  Sb15  1  0.612282  0.612833  0.250000  1
