# generated using pymatgen
data_K10Ti4Mn4S17
_symmetry_space_group_name_H-M   'P 1'
_cell_length_a   9.97937094
_cell_length_b   9.97937167
_cell_length_c   9.97937222
_cell_angle_alpha   89.43823559
_cell_angle_beta   89.43823379
_cell_angle_gamma   89.43823694
_symmetry_Int_Tables_number   1
_chemical_formula_structural   K10Ti4Mn4S17
_chemical_formula_sum   'K10 Ti4 Mn4 S17'
_cell_volume   993.68186507
_cell_formula_units_Z   1
loop_
 _symmetry_equiv_pos_site_id
 _symmetry_equiv_pos_as_xyz
  1  'x, y, z'
loop_
 _atom_site_type_symbol
 _atom_site_label
 _atom_site_symmetry_multiplicity
 _atom_site_fract_x
 _atom_site_fract_y
 _atom_site_fract_z
 _atom_site_occupancy
  K  K0  1  0.000209  0.000209  0.499544  1
  K  K1  1  0.499544  0.000209  0.000209  1
  K  K2  1  0.000209  0.499544  0.000209  1
  K  K3  1  0.498242  0.958880  0.498242  1
  K  K4  1  0.498242  0.498242  0.958880  1
  K  K5  1  0.958880  0.498242  0.498242  1
  K  K6  1  0.656372  0.329786  0.329786  1
  K  K7  1  0.329786  0.656372  0.329786  1
  K  K8  1  0.329786  0.329786  0.656372  1
  K  K9  1  0.671899  0.671899  0.671899  1
  Ti  Ti10  1  0.219768  0.219768  0.219768  1
  Ti  Ti11  1  0.222921  0.778037  0.778037  1
  Ti  Ti12  1  0.778037  0.778037  0.222921  1
  Ti  Ti13  1  0.778037  0.222921  0.778037  1
  Mn  Mn14  1  0.862178  0.137678  0.137678  1
  Mn  Mn15  1  0.137678  0.862178  0.137678  1
  Mn  Mn16  1  0.137678  0.137678  0.862178  1
  Mn  Mn17  1  0.862953  0.862953  0.862953  1
  S  S18  1  0.999282  0.999282  0.999282  1
  S  S19  1  0.346393  0.346393  0.346393  1
  S  S20  1  0.358090  0.652115  0.652115  1
  S  S21  1  0.652115  0.652115  0.358090  1
  S  S22  1  0.652115  0.358090  0.652115  1
  S  S23  1  0.273304  0.999151  0.273304  1
  S  S24  1  0.273304  0.273304  0.999151  1
  S  S25  1  0.999151  0.273304  0.273304  1
  S  S26  1  0.273979  0.998050  0.724656  1
  S  S27  1  0.273979  0.724656  0.998050  1
  S  S28  1  0.003436  0.725408  0.725408  1
  S  S29  1  0.724656  0.998050  0.273979  1
  S  S30  1  0.725408  0.725408  0.003436  1
  S  S31  1  0.998050  0.724656  0.273979  1
  S  S32  1  0.725408  0.003436  0.725408  1
  S  S33  1  0.724656  0.273979  0.998050  1
  S  S34  1  0.998050  0.273979  0.724656  1
