# generated using pymatgen
data_Ho5Tm11(InIr)4
_symmetry_space_group_name_H-M   'P 1'
_cell_length_a   9.57981717
_cell_length_b   9.57751152
_cell_length_c   9.59045900
_cell_angle_alpha   59.95527411
_cell_angle_beta   59.96324971
_cell_angle_gamma   59.97252772
_symmetry_Int_Tables_number   1
_chemical_formula_structural   Ho5Tm11(InIr)4
_chemical_formula_sum   'Ho5 Tm11 In4 Ir4'
_cell_volume   621.69369303
_cell_formula_units_Z   1
loop_
 _symmetry_equiv_pos_site_id
 _symmetry_equiv_pos_as_xyz
  1  'x, y, z'
loop_
 _atom_site_type_symbol
 _atom_site_label
 _atom_site_symmetry_multiplicity
 _atom_site_fract_x
 _atom_site_fract_y
 _atom_site_fract_z
 _atom_site_occupancy
  Ho  Ho0  1  0.439055  0.060758  0.060009  1
  Ho  Ho1  1  0.059936  0.060454  0.439805  1
  Ho  Ho2  1  0.649886  0.048033  0.651041  1
  Ho  Ho3  1  0.810223  0.808977  0.190400  1
  Ho  Ho4  1  0.439055  0.060758  0.440178  1
  Tm  Tm5  1  0.439656  0.440164  0.060090  1
  Tm  Tm6  1  0.650920  0.650571  0.046168  1
  Tm  Tm7  1  0.191277  0.809224  0.189964  1
  Tm  Tm8  1  0.060169  0.439642  0.059898  1
  Tm  Tm9  1  0.191277  0.809224  0.809535  1
  Tm  Tm10  1  0.060169  0.439642  0.440291  1
  Tm  Tm11  1  0.810126  0.191293  0.189425  1
  Tm  Tm12  1  0.650920  0.650571  0.652342  1
  Tm  Tm13  1  0.810126  0.191293  0.809155  1
  Tm  Tm14  1  0.190001  0.190557  0.809721  1
  Tm  Tm15  1  0.047243  0.649899  0.651430  1
  In  In16  1  0.416055  0.417181  0.416107  1
  In  In17  1  0.416055  0.417181  0.750658  1
  In  In18  1  0.416260  0.749564  0.417089  1
  In  In19  1  0.750531  0.417025  0.416222  1
  Ir  Ir20  1  0.423135  0.857830  0.859517  1
  Ir  Ir21  1  0.859653  0.858081  0.858672  1
  Ir  Ir22  1  0.858621  0.423995  0.858691  1
  Ir  Ir23  1  0.859653  0.858081  0.423592  1
