# generated using pymatgen
data_CeHo9(Sn3P)2
_symmetry_space_group_name_H-M   'P 1'
_cell_length_a   9.06357046
_cell_length_b   9.06357198
_cell_length_c   6.66000500
_cell_angle_alpha   90.00000000
_cell_angle_beta   90.00000000
_cell_angle_gamma   120.19744641
_symmetry_Int_Tables_number   1
_chemical_formula_structural   CeHo9(Sn3P)2
_chemical_formula_sum   'Ce1 Ho9 Sn6 P2'
_cell_volume   472.86413379
_cell_formula_units_Z   1
loop_
 _symmetry_equiv_pos_site_id
 _symmetry_equiv_pos_as_xyz
  1  'x, y, z'
loop_
 _atom_site_type_symbol
 _atom_site_label
 _atom_site_symmetry_multiplicity
 _atom_site_fract_x
 _atom_site_fract_y
 _atom_site_fract_z
 _atom_site_occupancy
  Ce  Ce0  1  0.759546  0.759546  0.750000  1
  Ho  Ho1  1  0.666549  0.332709  0.000523  1
  Ho  Ho2  1  0.332709  0.666549  0.000523  1
  Ho  Ho3  1  0.332709  0.666549  0.499477  1
  Ho  Ho4  1  0.666549  0.332709  0.499477  1
  Ho  Ho5  1  0.241912  0.000466  0.750000  1
  Ho  Ho6  1  0.000466  0.241912  0.750000  1
  Ho  Ho7  1  0.241443  0.241443  0.250000  1
  Ho  Ho8  1  0.758907  0.000979  0.250000  1
  Ho  Ho9  1  0.000979  0.758907  0.250000  1
  Sn  Sn10  1  0.397274  0.397274  0.750000  1
  Sn  Sn11  1  0.599867  0.001416  0.750000  1
  Sn  Sn12  1  0.001416  0.599867  0.750000  1
  Sn  Sn13  1  0.600409  0.600409  0.250000  1
  Sn  Sn14  1  0.398428  0.000176  0.250000  1
  Sn  Sn15  1  0.000176  0.398428  0.250000  1
  P  P16  1  0.000331  0.000331  0.001055  1
  P  P17  1  0.000331  0.000331  0.498945  1
