# generated using pymatgen
data_Li8Er4Tm4Sn5Sb3
_symmetry_space_group_name_H-M   'P 1'
_cell_length_a   9.35262830
_cell_length_b   9.35462087
_cell_length_c   7.07300611
_cell_angle_alpha   90.07411729
_cell_angle_beta   89.92252473
_cell_angle_gamma   120.02662553
_symmetry_Int_Tables_number   1
_chemical_formula_structural   Li8Er4Tm4Sn5Sb3
_chemical_formula_sum   'Li8 Er4 Tm4 Sn5 Sb3'
_cell_volume   535.76882725
_cell_formula_units_Z   1
loop_
 _symmetry_equiv_pos_site_id
 _symmetry_equiv_pos_as_xyz
  1  'x, y, z'
loop_
 _atom_site_type_symbol
 _atom_site_label
 _atom_site_symmetry_multiplicity
 _atom_site_fract_x
 _atom_site_fract_y
 _atom_site_fract_z
 _atom_site_occupancy
  Li  Li0  1  0.165977  0.333055  0.217021  1
  Li  Li1  1  0.166846  0.833278  0.215558  1
  Li  Li2  1  0.666919  0.834050  0.216727  1
  Li  Li3  1  0.667002  0.333059  0.317931  1
  Li  Li4  1  0.833239  0.666409  0.720473  1
  Li  Li5  1  0.333572  0.166776  0.720505  1
  Li  Li6  1  0.833004  0.166756  0.720675  1
  Li  Li7  1  0.333249  0.666454  0.819560  1
  Er  Er8  1  0.999142  0.000876  0.501994  1
  Er  Er9  1  0.492324  0.980972  0.509157  1
  Er  Er10  1  0.019000  0.507589  0.509297  1
  Er  Er11  1  0.490196  0.509797  0.510561  1
  Tm  Tm12  1  0.998950  0.000992  0.996463  1
  Tm  Tm13  1  0.511696  0.021264  0.003650  1
  Tm  Tm14  1  0.509746  0.490238  0.002829  1
  Tm  Tm15  1  0.978689  0.488294  0.003693  1
  Sn  Sn16  1  0.833253  0.166934  0.264518  1
  Sn  Sn17  1  0.666408  0.333725  0.741953  1
  Sn  Sn18  1  0.167195  0.333752  0.766115  1
  Sn  Sn19  1  0.166939  0.833091  0.766412  1
  Sn  Sn20  1  0.666151  0.832616  0.765990  1
  Sb  Sb21  1  0.333804  0.666363  0.241751  1
  Sb  Sb22  1  0.832679  0.666164  0.262543  1
  Sb  Sb23  1  0.334021  0.167493  0.262613  1
