# generated using pymatgen
data_NdYGaCu(Ni3B)2
_symmetry_space_group_name_H-M   'P 1'
_cell_length_a   5.13304000
_cell_length_b   5.13304083
_cell_length_c   6.87649800
_cell_angle_alpha   90.00000000
_cell_angle_beta   90.00000000
_cell_angle_gamma   119.99999463
_symmetry_Int_Tables_number   1
_chemical_formula_structural   NdYGaCu(Ni3B)2
_chemical_formula_sum   'Nd1 Y1 Ga1 Cu1 Ni6 B2'
_cell_volume   156.90881545
_cell_formula_units_Z   1
loop_
 _symmetry_equiv_pos_site_id
 _symmetry_equiv_pos_as_xyz
  1  'x, y, z'
loop_
 _atom_site_type_symbol
 _atom_site_label
 _atom_site_symmetry_multiplicity
 _atom_site_fract_x
 _atom_site_fract_y
 _atom_site_fract_z
 _atom_site_occupancy
  Nd  Nd0  1  0.000000  0.000000  0.000000  1
  Y  Y1  1  0.000000  0.000000  0.500000  1
  Ga  Ga2  1  0.333333  0.666667  0.000000  1
  Cu  Cu3  1  0.666667  0.333333  0.000000  1
  Ni  Ni4  1  0.500127  0.000257  0.298732  1
  Ni  Ni5  1  0.500127  0.499873  0.298732  1
  Ni  Ni6  1  0.999743  0.499873  0.298732  1
  Ni  Ni7  1  0.500127  0.000257  0.701268  1
  Ni  Ni8  1  0.500127  0.499873  0.701268  1
  Ni  Ni9  1  0.999743  0.499873  0.701268  1
  B  B10  1  0.666667  0.333333  0.500000  1
  B  B11  1  0.333333  0.666667  0.500000  1
