# generated using pymatgen
data_Hf18GaFeReMo7
_symmetry_space_group_name_H-M   'P 1'
_cell_length_a   8.57772500
_cell_length_b   8.68255590
_cell_length_c   8.67391700
_cell_angle_alpha   119.96695545
_cell_angle_beta   90.00000000
_cell_angle_gamma   90.00000000
_symmetry_Int_Tables_number   1
_chemical_formula_structural   Hf18GaFeReMo7
_chemical_formula_sum   'Hf18 Ga1 Fe1 Re1 Mo7'
_cell_volume   559.64176216
_cell_formula_units_Z   1
loop_
 _symmetry_equiv_pos_site_id
 _symmetry_equiv_pos_as_xyz
  1  'x, y, z'
loop_
 _atom_site_type_symbol
 _atom_site_label
 _atom_site_symmetry_multiplicity
 _atom_site_fract_x
 _atom_site_fract_y
 _atom_site_fract_z
 _atom_site_occupancy
  Hf  Hf0  1  0.547407  0.805230  0.610608  1
  Hf  Hf1  1  0.547408  0.805227  0.194630  1
  Hf  Hf2  1  0.546895  0.388440  0.194218  1
  Hf  Hf3  1  0.440495  0.202983  0.405571  1
  Hf  Hf4  1  0.440494  0.202986  0.797403  1
  Hf  Hf5  1  0.441969  0.593529  0.796765  1
  Hf  Hf6  1  0.059505  0.202983  0.405571  1
  Hf  Hf7  1  0.059506  0.202986  0.797403  1
  Hf  Hf8  1  0.058031  0.593529  0.796765  1
  Hf  Hf9  1  0.952593  0.805230  0.610608  1
  Hf  Hf10  1  0.952592  0.805227  0.194630  1
  Hf  Hf11  1  0.953105  0.388440  0.194218  1
  Hf  Hf12  1  0.750000  0.460034  0.921073  1
  Hf  Hf13  1  0.750000  0.460032  0.538970  1
  Hf  Hf14  1  0.750000  0.078534  0.539269  1
  Hf  Hf15  1  0.250000  0.538998  0.080390  1
  Hf  Hf16  1  0.250000  0.538999  0.458603  1
  Hf  Hf17  1  0.250000  0.919278  0.459637  1
  Ga  Ga18  1  0.750000  0.665385  0.332702  1
  Fe  Fe19  1  0.250000  0.334322  0.667149  1
  Re  Re20  1  0.250000  0.226135  0.113061  1
  Mo  Mo21  1  0.750000  0.111527  0.222277  1
  Mo  Mo22  1  0.750000  0.111531  0.889259  1
  Mo  Mo23  1  0.750000  0.776597  0.888306  1
  Mo  Mo24  1  0.250000  0.890316  0.778533  1
  Mo  Mo25  1  0.250000  0.890314  0.111774  1
  Mo  Mo26  1  0.498772  0.000602  0.000301  1
  Mo  Mo27  1  0.001228  0.000602  0.000301  1
