# generated using pymatgen
data_Be3V3FeCo5
_symmetry_space_group_name_H-M   'P 1'
_cell_length_a   3.86662600
_cell_length_b   5.55464300
_cell_length_c   11.58924600
_cell_angle_alpha   90.00000000
_cell_angle_beta   89.99967881
_cell_angle_gamma   90.00000000
_symmetry_Int_Tables_number   1
_chemical_formula_structural   Be3V3FeCo5
_chemical_formula_sum   'Be6 V6 Fe2 Co10'
_cell_volume   248.91066224
_cell_formula_units_Z   2
loop_
 _symmetry_equiv_pos_site_id
 _symmetry_equiv_pos_as_xyz
  1  'x, y, z'
loop_
 _atom_site_type_symbol
 _atom_site_label
 _atom_site_symmetry_multiplicity
 _atom_site_fract_x
 _atom_site_fract_y
 _atom_site_fract_z
 _atom_site_occupancy
  Be  Be0  1  0.000000  0.500000  0.000000  1
  Be  Be1  1  0.499958  0.000000  0.166105  1
  Be  Be2  1  0.999976  0.500000  0.333321  1
  Be  Be3  1  0.499999  0.000000  0.500000  1
  Be  Be4  1  0.000024  0.500000  0.666679  1
  Be  Be5  1  0.500043  0.000000  0.833895  1
  V  V6  1  0.000000  0.000000  0.000000  1
  V  V7  1  0.499973  0.500000  0.163724  1
  V  V8  1  0.999967  0.000000  0.332932  1
  V  V9  1  0.499999  0.500000  0.500000  1
  V  V10  1  0.000033  0.000000  0.667068  1
  V  V11  1  0.500028  0.500000  0.836276  1
  Fe  Fe12  1  0.500000  0.250995  0.000000  1
  Fe  Fe13  1  0.500000  0.749005  0.000000  1
  Co  Co14  1  0.999972  0.249841  0.167837  1
  Co  Co15  1  0.999972  0.750159  0.167837  1
  Co  Co16  1  0.499968  0.249672  0.334048  1
  Co  Co17  1  0.499968  0.750328  0.334048  1
  Co  Co18  1  0.000000  0.250218  0.500000  1
  Co  Co19  1  0.000000  0.749782  0.500000  1
  Co  Co20  1  0.500033  0.249672  0.665952  1
  Co  Co21  1  0.500033  0.750328  0.665952  1
  Co  Co22  1  0.000028  0.249841  0.832163  1
  Co  Co23  1  0.000028  0.750159  0.832163  1
