# generated using pymatgen
data_ScSi2(AsRh3)2
_symmetry_space_group_name_H-M   'P 1'
_cell_length_a   7.16538600
_cell_length_b   7.16165422
_cell_length_c   3.72466000
_cell_angle_alpha   90.00000000
_cell_angle_beta   90.00000000
_cell_angle_gamma   120.01722012
_symmetry_Int_Tables_number   1
_chemical_formula_structural   ScSi2(AsRh3)2
_chemical_formula_sum   'Sc1 Si2 As2 Rh6'
_cell_volume   165.49878915
_cell_formula_units_Z   1
loop_
 _symmetry_equiv_pos_site_id
 _symmetry_equiv_pos_as_xyz
  1  'x, y, z'
loop_
 _atom_site_type_symbol
 _atom_site_label
 _atom_site_symmetry_multiplicity
 _atom_site_fract_x
 _atom_site_fract_y
 _atom_site_fract_z
 _atom_site_occupancy
  Sc  Sc0  1  0.989783  0.979564  0.000000  1
  Si  Si1  1  0.806656  0.613311  0.500000  1
  Si  Si2  1  0.334006  0.668013  0.000000  1
  As  As3  1  0.379340  0.192191  0.500000  1
  As  As4  1  0.812852  0.192191  0.500000  1
  Rh  Rh5  1  0.531653  0.063305  0.000000  1
  Rh  Rh6  1  0.608921  0.801158  0.500000  1
  Rh  Rh7  1  0.201704  0.403410  0.500000  1
  Rh  Rh8  1  0.542636  0.476182  0.000000  1
  Rh  Rh9  1  0.192237  0.801158  0.500000  1
  Rh  Rh10  1  0.933545  0.476182  0.000000  1
