# generated using pymatgen
data_Gd4Ho2MnB14Ru
_symmetry_space_group_name_H-M   'P 1'
_cell_length_a   8.11338131
_cell_length_b   8.11338169
_cell_length_c   9.30145600
_cell_angle_alpha   90.00000000
_cell_angle_beta   90.00000000
_cell_angle_gamma   155.18102386
_symmetry_Int_Tables_number   1
_chemical_formula_structural   Gd4Ho2MnB14Ru
_chemical_formula_sum   'Gd4 Ho2 Mn1 B14 Ru1'
_cell_volume   257.00894665
_cell_formula_units_Z   1
loop_
 _symmetry_equiv_pos_site_id
 _symmetry_equiv_pos_as_xyz
  1  'x, y, z'
loop_
 _atom_site_type_symbol
 _atom_site_label
 _atom_site_symmetry_multiplicity
 _atom_site_fract_x
 _atom_site_fract_y
 _atom_site_fract_z
 _atom_site_occupancy
  Gd  Gd0  1  0.894304  0.105696  0.440218  1
  Gd  Gd1  1  0.105071  0.894929  0.565509  1
  Gd  Gd2  1  0.894304  0.105696  0.059782  1
  Gd  Gd3  1  0.105071  0.894929  0.934491  1
  Ho  Ho4  1  0.242450  0.757550  0.250000  1
  Ho  Ho5  1  0.760619  0.239381  0.750000  1
  Mn  Mn6  1  0.945684  0.054316  0.750000  1
  B  B7  1  0.727074  0.272926  0.466641  1
  B  B8  1  0.272301  0.727699  0.533886  1
  B  B9  1  0.727074  0.272926  0.033359  1
  B  B10  1  0.272301  0.727699  0.966114  1
  B  B11  1  0.632120  0.367880  0.150045  1
  B  B12  1  0.369591  0.630409  0.846856  1
  B  B13  1  0.632120  0.367880  0.349955  1
  B  B14  1  0.369591  0.630409  0.653144  1
  B  B15  1  0.521767  0.478233  0.095649  1
  B  B16  1  0.477112  0.522888  0.901901  1
  B  B17  1  0.521767  0.478233  0.404351  1
  B  B18  1  0.477112  0.522888  0.598099  1
  B  B19  1  0.460145  0.539855  0.250000  1
  B  B20  1  0.536989  0.463011  0.750000  1
  Ru  Ru21  1  0.055432  0.944568  0.250000  1
