# generated using pymatgen
data_RbMnRhSe4
_symmetry_space_group_name_H-M   'P 1'
_cell_length_a   6.34268400
_cell_length_b   7.19701332
_cell_length_c   17.38135700
_cell_angle_alpha   89.82564479
_cell_angle_beta   90.00000000
_cell_angle_gamma   90.00000000
_symmetry_Int_Tables_number   1
_chemical_formula_structural   RbMnRhSe4
_chemical_formula_sum   'Rb4 Mn4 Rh4 Se16'
_cell_volume   793.42713733
_cell_formula_units_Z   4
loop_
 _symmetry_equiv_pos_site_id
 _symmetry_equiv_pos_as_xyz
  1  'x, y, z'
loop_
 _atom_site_type_symbol
 _atom_site_label
 _atom_site_symmetry_multiplicity
 _atom_site_fract_x
 _atom_site_fract_y
 _atom_site_fract_z
 _atom_site_occupancy
  Rb  Rb0  1  0.376304  0.000000  0.000000  1
  Rb  Rb1  1  0.609555  0.500000  0.500000  1
  Rb  Rb2  1  0.023879  0.000000  0.500000  1
  Rb  Rb3  1  0.953559  0.500000  0.000000  1
  Mn  Mn4  1  0.003902  0.005243  0.249869  1
  Mn  Mn5  1  0.003902  0.994757  0.750131  1
  Mn  Mn6  1  0.502672  0.249568  0.249209  1
  Mn  Mn7  1  0.502672  0.750432  0.750791  1
  Rh  Rh8  1  0.999743  0.495529  0.248333  1
  Rh  Rh9  1  0.999743  0.504471  0.751667  1
  Rh  Rh10  1  0.500816  0.760777  0.248937  1
  Rh  Rh11  1  0.500816  0.239223  0.751063  1
  Se  Se12  1  0.826809  0.247944  0.330444  1
  Se  Se13  1  0.826809  0.752056  0.669556  1
  Se  Se14  1  0.164150  0.753822  0.171758  1
  Se  Se15  1  0.164150  0.246178  0.828242  1
  Se  Se16  1  0.176959  0.246525  0.168295  1
  Se  Se17  1  0.176959  0.753475  0.831705  1
  Se  Se18  1  0.837217  0.750529  0.326256  1
  Se  Se19  1  0.837217  0.249471  0.673744  1
  Se  Se20  1  0.680641  0.009896  0.168845  1
  Se  Se21  1  0.680641  0.990104  0.831155  1
  Se  Se22  1  0.335428  0.502761  0.324914  1
  Se  Se23  1  0.335428  0.497239  0.675086  1
  Se  Se24  1  0.329093  0.008415  0.330202  1
  Se  Se25  1  0.329093  0.991585  0.669798  1
  Se  Se26  1  0.660923  0.503899  0.172145  1
  Se  Se27  1  0.660923  0.496101  0.827855  1
