# generated using pymatgen
data_TbSm3Sn5SbRh7
_symmetry_space_group_name_H-M   'P 1'
_cell_length_a   7.66777059
_cell_length_b   7.66777144
_cell_length_c   7.66459216
_cell_angle_alpha   109.38696168
_cell_angle_beta   109.38696898
_cell_angle_gamma   109.52279464
_symmetry_Int_Tables_number   1
_chemical_formula_structural   TbSm3Sn5SbRh7
_chemical_formula_sum   'Tb1 Sm3 Sn5 Sb1 Rh7'
_cell_volume   347.40014314
_cell_formula_units_Z   1
loop_
 _symmetry_equiv_pos_site_id
 _symmetry_equiv_pos_as_xyz
  1  'x, y, z'
loop_
 _atom_site_type_symbol
 _atom_site_label
 _atom_site_symmetry_multiplicity
 _atom_site_fract_x
 _atom_site_fract_y
 _atom_site_fract_z
 _atom_site_occupancy
  Tb  Tb0  1  0.495881  0.495881  0.497302  1
  Sm  Sm1  1  0.495994  0.998878  0.999994  1
  Sm  Sm2  1  0.998878  0.495994  0.999994  1
  Sm  Sm3  1  0.998732  0.998732  0.502807  1
  Sn  Sn4  1  0.998688  0.316130  0.318999  1
  Sn  Sn5  1  0.677905  0.995356  0.681140  1
  Sn  Sn6  1  0.688872  0.688872  0.998183  1
  Sn  Sn7  1  0.995356  0.677905  0.681140  1
  Sn  Sn8  1  0.316130  0.998688  0.318999  1
  Sb  Sb9  1  0.323467  0.323467  0.001543  1
  Rh  Rh10  1  0.008214  0.008214  0.000175  1
  Rh  Rh11  1  0.501539  0.749687  0.249525  1
  Rh  Rh12  1  0.749687  0.501539  0.249525  1
  Rh  Rh13  1  0.248421  0.746869  0.499879  1
  Rh  Rh14  1  0.253606  0.501766  0.750458  1
  Rh  Rh15  1  0.501766  0.253606  0.750458  1
  Rh  Rh16  1  0.746869  0.248421  0.499879  1
