# generated using pymatgen
data_La3MnCdSb3O14
_symmetry_space_group_name_H-M   'P 1'
_cell_length_a   7.44864030
_cell_length_b   7.44865002
_cell_length_c   7.44860200
_cell_angle_alpha   118.48321688
_cell_angle_beta   61.51687381
_cell_angle_gamma   118.48355190
_symmetry_Int_Tables_number   1
_chemical_formula_structural   La3MnCdSb3O14
_chemical_formula_sum   'La3 Mn1 Cd1 Sb3 O14'
_cell_volume   302.17084163
_cell_formula_units_Z   1
loop_
 _symmetry_equiv_pos_site_id
 _symmetry_equiv_pos_as_xyz
  1  'x, y, z'
loop_
 _atom_site_type_symbol
 _atom_site_label
 _atom_site_symmetry_multiplicity
 _atom_site_fract_x
 _atom_site_fract_y
 _atom_site_fract_z
 _atom_site_occupancy
  La  La0  1  0.000057  0.500075  0.000057  1
  La  La1  1  0.500061  0.999879  0.000126  1
  La  La2  1  0.499942  0.500101  0.499877  1
  Mn  Mn3  1  0.999881  0.000154  0.499964  1
  Cd  Cd4  1  0.500090  0.498931  0.998898  1
  Sb  Sb5  1  0.499999  0.000040  0.500025  1
  Sb  Sb6  1  0.000008  0.500172  0.500070  1
  Sb  Sb7  1  0.999997  0.000039  0.000089  1
  O  O8  1  0.619551  0.380345  0.119473  1
  O  O9  1  0.380477  0.619424  0.880396  1
  O  O10  1  0.076405  0.318269  0.181877  1
  O  O11  1  0.681810  0.923723  0.181880  1
  O  O12  1  0.681733  0.318335  0.576644  1
  O  O13  1  0.923532  0.681788  0.818360  1
  O  O14  1  0.318287  0.076573  0.818361  1
  O  O15  1  0.318214  0.681852  0.423795  1
  O  O16  1  0.648057  0.911638  0.588512  1
  O  O17  1  0.088412  0.351952  0.588511  1
  O  O18  1  0.088523  0.911546  0.148047  1
  O  O19  1  0.351913  0.088576  0.411569  1
  O  O20  1  0.911472  0.648095  0.411561  1
  O  O21  1  0.911581  0.088495  0.851908  1
