# generated using pymatgen
data_LaFe2BC
_symmetry_space_group_name_H-M   'P 1'
_cell_length_a   5.66231350
_cell_length_b   5.66231320
_cell_length_c   5.66231401
_cell_angle_alpha   142.91464900
_cell_angle_beta   142.91464439
_cell_angle_gamma   53.45341163
_symmetry_Int_Tables_number   1
_chemical_formula_structural   LaFe2BC
_chemical_formula_sum   'La1 Fe2 B1 C1'
_cell_volume   65.59277299
_cell_formula_units_Z   1
loop_
 _symmetry_equiv_pos_site_id
 _symmetry_equiv_pos_as_xyz
  1  'x, y, z'
loop_
 _atom_site_type_symbol
 _atom_site_label
 _atom_site_symmetry_multiplicity
 _atom_site_fract_x
 _atom_site_fract_y
 _atom_site_fract_z
 _atom_site_occupancy
  La  La0  1  0.000364  0.000364  0.000000  1
  Fe  Fe1  1  0.745049  0.245049  0.500000  1
  Fe  Fe2  1  0.245049  0.745049  0.500000  1
  B  B3  1  0.330247  0.330247  0.000000  1
  C  C4  1  0.679290  0.679290  0.000000  1
