# generated using pymatgen
data_La3Pr6Nd5Pt6
_symmetry_space_group_name_H-M   'P 1'
_cell_length_a   6.52257200
_cell_length_b   10.27741766
_cell_length_c   10.27741636
_cell_angle_alpha   120.00871760
_cell_angle_beta   90.00059257
_cell_angle_gamma   89.99941009
_symmetry_Int_Tables_number   1
_chemical_formula_structural   La3Pr6Nd5Pt6
_chemical_formula_sum   'La3 Pr6 Nd5 Pt6'
_cell_volume   596.59459338
_cell_formula_units_Z   1
loop_
 _symmetry_equiv_pos_site_id
 _symmetry_equiv_pos_as_xyz
  1  'x, y, z'
loop_
 _atom_site_type_symbol
 _atom_site_label
 _atom_site_symmetry_multiplicity
 _atom_site_fract_x
 _atom_site_fract_y
 _atom_site_fract_z
 _atom_site_occupancy
  La  La0  1  0.746718  0.871253  0.128747  1
  La  La1  1  0.746659  0.257291  0.128633  1
  La  La2  1  0.746659  0.871367  0.742709  1
  Pr  Pr3  1  0.439720  0.537411  0.462589  1
  Pr  Pr4  1  0.439662  0.925174  0.462622  1
  Pr  Pr5  1  0.439662  0.537378  0.074826  1
  Pr  Pr6  1  0.944088  0.461620  0.538380  1
  Pr  Pr7  1  0.943986  0.076741  0.538318  1
  Pr  Pr8  1  0.943986  0.461682  0.923259  1
  Nd  Nd9  1  0.459860  0.333387  0.666613  1
  Nd  Nd10  1  0.959646  0.666610  0.333390  1
  Nd  Nd11  1  0.245686  0.127769  0.872231  1
  Nd  Nd12  1  0.245682  0.744693  0.872368  1
  Nd  Nd13  1  0.245682  0.127632  0.255307  1
  Pt  Pt14  1  0.189178  0.811628  0.188372  1
  Pt  Pt15  1  0.189086  0.376637  0.188376  1
  Pt  Pt16  1  0.189086  0.811624  0.623363  1
  Pt  Pt17  1  0.690360  0.187955  0.812045  1
  Pt  Pt18  1  0.690296  0.624173  0.812025  1
  Pt  Pt19  1  0.690296  0.187975  0.375827  1
