# generated using pymatgen
data_Sc8Cu4IrAu3
_symmetry_space_group_name_H-M   'P 1'
_cell_length_a   6.79351800
_cell_length_b   4.63344600
_cell_length_c   9.28109300
_cell_angle_alpha   90.00000000
_cell_angle_beta   89.99987697
_cell_angle_gamma   90.00000000
_symmetry_Int_Tables_number   1
_chemical_formula_structural   Sc8Cu4IrAu3
_chemical_formula_sum   'Sc8 Cu4 Ir1 Au3'
_cell_volume   292.14466569
_cell_formula_units_Z   1
loop_
 _symmetry_equiv_pos_site_id
 _symmetry_equiv_pos_as_xyz
  1  'x, y, z'
loop_
 _atom_site_type_symbol
 _atom_site_label
 _atom_site_symmetry_multiplicity
 _atom_site_fract_x
 _atom_site_fract_y
 _atom_site_fract_z
 _atom_site_occupancy
  Sc  Sc0  1  0.993622  0.750000  0.117499  1
  Sc  Sc1  1  0.506457  0.750000  0.117534  1
  Sc  Sc2  1  0.001049  0.249999  0.374988  1
  Sc  Sc3  1  0.499011  0.249999  0.375038  1
  Sc  Sc4  1  0.506360  0.750000  0.632442  1
  Sc  Sc5  1  0.993542  0.750000  0.632501  1
  Sc  Sc6  1  0.510960  0.249999  0.874983  1
  Sc  Sc7  1  0.988980  0.249999  0.875039  1
  Cu  Cu8  1  0.749961  0.249999  0.124782  1
  Cu  Cu9  1  0.249963  0.750000  0.374937  1
  Cu  Cu10  1  0.750033  0.249999  0.625218  1
  Cu  Cu11  1  0.250069  0.750000  0.874964  1
  Ir  Ir12  1  0.749945  0.750000  0.874993  1
  Au  Au13  1  0.250085  0.249999  0.123010  1
  Au  Au14  1  0.750083  0.750000  0.375016  1
  Au  Au15  1  0.249880  0.249999  0.627058  1
