# generated using pymatgen
data_Sm3Be2Rh5
_symmetry_space_group_name_H-M   'P 1'
_cell_length_a   9.94802500
_cell_length_b   9.94802500
_cell_length_c   3.42780900
_cell_angle_alpha   90.00000000
_cell_angle_beta   90.00000000
_cell_angle_gamma   90.00000000
_symmetry_Int_Tables_number   1
_chemical_formula_structural   Sm3Be2Rh5
_chemical_formula_sum   'Sm6 Be4 Rh10'
_cell_volume   339.22695243
_cell_formula_units_Z   2
loop_
 _symmetry_equiv_pos_site_id
 _symmetry_equiv_pos_as_xyz
  1  'x, y, z'
loop_
 _atom_site_type_symbol
 _atom_site_label
 _atom_site_symmetry_multiplicity
 _atom_site_fract_x
 _atom_site_fract_y
 _atom_site_fract_z
 _atom_site_occupancy
  Sm  Sm0  1  0.825197  0.325197  0.000000  1
  Sm  Sm1  1  0.325197  0.174803  0.000000  1
  Sm  Sm2  1  0.674803  0.825197  0.000000  1
  Sm  Sm3  1  0.174803  0.674803  0.000000  1
  Sm  Sm4  1  0.000000  0.000000  0.000000  1
  Sm  Sm5  1  0.500000  0.500000  0.000000  1
  Be  Be6  1  0.619219  0.119219  0.000000  1
  Be  Be7  1  0.119219  0.380781  0.000000  1
  Be  Be8  1  0.880781  0.619219  0.000000  1
  Be  Be9  1  0.380781  0.880781  0.000000  1
  Rh  Rh10  1  0.070342  0.225526  0.500000  1
  Rh  Rh11  1  0.225526  0.929658  0.500000  1
  Rh  Rh12  1  0.774474  0.070342  0.500000  1
  Rh  Rh13  1  0.929658  0.774474  0.500000  1
  Rh  Rh14  1  0.429658  0.725526  0.500000  1
  Rh  Rh15  1  0.570342  0.274474  0.500000  1
  Rh  Rh16  1  0.725526  0.570342  0.500000  1
  Rh  Rh17  1  0.274474  0.429658  0.500000  1
  Rh  Rh18  1  0.500000  0.000000  0.500000  1
  Rh  Rh19  1  0.000000  0.500000  0.500000  1
