# generated using pymatgen
data_K3Ta2SbSe11
_symmetry_space_group_name_H-M   'P 1'
_cell_length_a   10.25845016
_cell_length_b   10.25845020
_cell_length_c   10.07161489
_cell_angle_alpha   83.01867495
_cell_angle_beta   83.01867890
_cell_angle_gamma   82.14150245
_symmetry_Int_Tables_number   1
_chemical_formula_structural   K3Ta2SbSe11
_chemical_formula_sum   'K6 Ta4 Sb2 Se22'
_cell_volume   1036.20541917
_cell_formula_units_Z   2
loop_
 _symmetry_equiv_pos_site_id
 _symmetry_equiv_pos_as_xyz
  1  'x, y, z'
loop_
 _atom_site_type_symbol
 _atom_site_label
 _atom_site_symmetry_multiplicity
 _atom_site_fract_x
 _atom_site_fract_y
 _atom_site_fract_z
 _atom_site_occupancy
  K  K0  1  0.664925  0.799175  0.918832  1
  K  K1  1  0.443023  0.269972  0.160843  1
  K  K2  1  0.799175  0.664925  0.418832  1
  K  K3  1  0.893397  0.045293  0.262923  1
  K  K4  1  0.269972  0.443023  0.660843  1
  K  K5  1  0.045293  0.893397  0.762923  1
  Ta  Ta6  1  0.824093  0.409964  0.830533  1
  Ta  Ta7  1  0.708333  0.163844  0.644088  1
  Ta  Ta8  1  0.409964  0.824093  0.330532  1
  Ta  Ta9  1  0.163844  0.708333  0.144088  1
  Sb  Sb10  1  0.046788  0.351607  0.112051  1
  Sb  Sb11  1  0.351607  0.046788  0.612051  1
  Se  Se12  1  0.205843  0.512426  0.987661  1
  Se  Se13  1  0.812543  0.312288  0.436411  1
  Se  Se14  1  0.641168  0.440882  0.665310  1
  Se  Se15  1  0.945193  0.786890  0.088894  1
  Se  Se16  1  0.786890  0.945193  0.588894  1
  Se  Se17  1  0.447073  0.804570  0.588025  1
  Se  Se18  1  0.594299  0.937469  0.245157  1
  Se  Se19  1  0.940045  0.261318  0.626575  1
  Se  Se20  1  0.261318  0.940045  0.126575  1
  Se  Se21  1  0.312288  0.812543  0.936411  1
  Se  Se22  1  0.804570  0.447073  0.088025  1
  Se  Se23  1  0.575608  0.493806  0.890216  1
  Se  Se24  1  0.222174  0.023564  0.402411  1
  Se  Se25  1  0.023564  0.222174  0.902411  1
  Se  Se26  1  0.146158  0.741940  0.401688  1
  Se  Se27  1  0.135366  0.520505  0.340375  1
  Se  Se28  1  0.440882  0.641168  0.165310  1
  Se  Se29  1  0.520505  0.135366  0.840375  1
  Se  Se30  1  0.512426  0.205843  0.487661  1
  Se  Se31  1  0.937469  0.594299  0.745157  1
  Se  Se32  1  0.741940  0.146158  0.901688  1
  Se  Se33  1  0.493806  0.575608  0.390216  1
