# generated using pymatgen
data_Ho5Ga5P7Ir19
_symmetry_space_group_name_H-M   'P 1'
_cell_length_a   12.92930712
_cell_length_b   12.90892655
_cell_length_c   3.96463700
_cell_angle_alpha   90.00000000
_cell_angle_beta   90.00000000
_cell_angle_gamma   119.95395718
_symmetry_Int_Tables_number   1
_chemical_formula_structural   Ho5Ga5P7Ir19
_chemical_formula_sum   'Ho5 Ga5 P7 Ir19'
_cell_volume   573.32482901
_cell_formula_units_Z   1
loop_
 _symmetry_equiv_pos_site_id
 _symmetry_equiv_pos_as_xyz
  1  'x, y, z'
loop_
 _atom_site_type_symbol
 _atom_site_label
 _atom_site_symmetry_multiplicity
 _atom_site_fract_x
 _atom_site_fract_y
 _atom_site_fract_z
 _atom_site_occupancy
  Ho  Ho0  1  0.334921  0.665959  0.500000  1
  Ho  Ho1  1  0.665189  0.333337  0.500000  1
  Ho  Ho2  1  0.003407  0.815853  0.000000  1
  Ho  Ho3  1  0.182266  0.183338  0.000000  1
  Ho  Ho4  1  0.813838  0.997385  0.000000  1
  Ga  Ga5  1  0.998519  0.638049  0.500000  1
  Ga  Ga6  1  0.360059  0.360888  0.500000  1
  Ga  Ga7  1  0.639301  0.003831  0.500000  1
  Ga  Ga8  1  0.519012  0.679342  0.000000  1
  Ga  Ga9  1  0.322032  0.836102  0.000000  1
  P  P10  1  0.167003  0.479648  0.000000  1
  P  P11  1  0.481248  0.177820  0.000000  1
  P  P12  1  0.693404  0.516318  0.000000  1
  P  P13  1  0.819954  0.304761  0.000000  1
  P  P14  1  0.996402  0.178080  0.500000  1
  P  P15  1  0.824822  0.820423  0.500000  1
  P  P16  1  0.179170  0.000787  0.500000  1
  Ir  Ir17  1  0.525742  0.875634  0.000000  1
  Ir  Ir18  1  0.131332  0.634956  0.000000  1
  Ir  Ir19  1  0.346603  0.478322  0.000000  1
  Ir  Ir20  1  0.498509  0.368777  0.000000  1
  Ir  Ir21  1  0.867889  0.499701  0.000000  1
  Ir  Ir22  1  0.630577  0.132734  0.000000  1
  Ir  Ir23  1  0.000013  0.447752  0.500000  1
  Ir  Ir24  1  0.549976  0.557559  0.500000  1
  Ir  Ir25  1  0.441637  0.995684  0.500000  1
  Ir  Ir26  1  0.995537  0.280479  0.000000  1
  Ir  Ir27  1  0.731001  0.719089  0.000000  1
  Ir  Ir28  1  0.280304  0.008224  0.000000  1
  Ir  Ir29  1  0.639466  0.809715  0.500000  1
  Ir  Ir30  1  0.192500  0.824981  0.500000  1
  Ir  Ir31  1  0.168758  0.374615  0.500000  1
  Ir  Ir32  1  0.383733  0.178874  0.500000  1
  Ir  Ir33  1  0.791574  0.610964  0.500000  1
  Ir  Ir34  1  0.823115  0.207714  0.500000  1
  Ir  Ir35  1  0.001184  0.002304  0.500000  1
