# generated using pymatgen
data_Sm5(SiHg)2
_symmetry_space_group_name_H-M   'P 1'
_cell_length_a   8.98011757
_cell_length_b   8.98011721
_cell_length_c   7.74929600
_cell_angle_alpha   90.00000000
_cell_angle_beta   90.00000000
_cell_angle_gamma   128.99921896
_symmetry_Int_Tables_number   1
_chemical_formula_structural   Sm5(SiHg)2
_chemical_formula_sum   'Sm10 Si4 Hg4'
_cell_volume   485.66148834
_cell_formula_units_Z   2
loop_
 _symmetry_equiv_pos_site_id
 _symmetry_equiv_pos_as_xyz
  1  'x, y, z'
loop_
 _atom_site_type_symbol
 _atom_site_label
 _atom_site_symmetry_multiplicity
 _atom_site_fract_x
 _atom_site_fract_y
 _atom_site_fract_z
 _atom_site_occupancy
  Sm  Sm0  1  0.056131  0.311103  0.323767  1
  Sm  Sm1  1  0.943869  0.688897  0.676233  1
  Sm  Sm2  1  0.443869  0.188897  0.823767  1
  Sm  Sm3  1  0.811103  0.556131  0.176233  1
  Sm  Sm4  1  0.556131  0.811103  0.176233  1
  Sm  Sm5  1  0.188897  0.443869  0.823767  1
  Sm  Sm6  1  0.688897  0.943869  0.676233  1
  Sm  Sm7  1  0.311103  0.056131  0.323767  1
  Sm  Sm8  1  0.000000  0.000000  0.000000  1
  Sm  Sm9  1  0.500000  0.500000  0.500000  1
  Si  Si10  1  0.384235  0.384235  0.118139  1
  Si  Si11  1  0.615765  0.615765  0.881861  1
  Si  Si12  1  0.115765  0.115765  0.618139  1
  Si  Si13  1  0.884235  0.884235  0.381861  1
  Hg  Hg14  1  0.782881  0.217119  0.000000  1
  Hg  Hg15  1  0.217120  0.782881  0.000000  1
  Hg  Hg16  1  0.717119  0.282881  0.500000  1
  Hg  Hg17  1  0.282881  0.717119  0.500000  1
