# generated using pymatgen
data_Tb2Dy6Ti11Si16Ru
_symmetry_space_group_name_H-M   'P 1'
_cell_length_a   7.03755354
_cell_length_b   7.03831167
_cell_length_c   12.90212200
_cell_angle_alpha   89.96152643
_cell_angle_beta   90.03634881
_cell_angle_gamma   89.84894803
_symmetry_Int_Tables_number   1
_chemical_formula_structural   Tb2Dy6Ti11Si16Ru
_chemical_formula_sum   'Tb2 Dy6 Ti11 Si16 Ru1'
_cell_volume   639.07180213
_cell_formula_units_Z   1
loop_
 _symmetry_equiv_pos_site_id
 _symmetry_equiv_pos_as_xyz
  1  'x, y, z'
loop_
 _atom_site_type_symbol
 _atom_site_label
 _atom_site_symmetry_multiplicity
 _atom_site_fract_x
 _atom_site_fract_y
 _atom_site_fract_z
 _atom_site_occupancy
  Tb  Tb0  1  0.995546  0.659965  0.032603  1
  Tb  Tb1  1  0.001890  0.341541  0.531823  1
  Dy  Dy2  1  0.659660  0.995956  0.967350  1
  Dy  Dy3  1  0.159264  0.503245  0.781928  1
  Dy  Dy4  1  0.840447  0.499698  0.284970  1
  Dy  Dy5  1  0.503205  0.159148  0.217990  1
  Dy  Dy6  1  0.499695  0.840484  0.715001  1
  Dy  Dy7  1  0.341728  0.001558  0.468199  1
  Ti  Ti8  1  0.344371  0.507532  0.374410  1
  Ti  Ti9  1  0.849110  0.995890  0.375679  1
  Ti  Ti10  1  0.006267  0.151990  0.124752  1
  Ti  Ti11  1  0.995852  0.849121  0.624318  1
  Ti  Ti12  1  0.507523  0.344264  0.625604  1
  Ti  Ti13  1  0.151949  0.006234  0.875206  1
  Ti  Ti14  1  0.825124  0.172258  0.748685  1
  Ti  Ti15  1  0.172386  0.825232  0.251356  1
  Ti  Ti16  1  0.326186  0.325968  0.999996  1
  Ti  Ti17  1  0.492818  0.651387  0.127981  1
  Ti  Ti18  1  0.651300  0.492725  0.871997  1
  Si  Si19  1  0.046630  0.713325  0.435492  1
  Si  Si20  1  0.952120  0.290849  0.934314  1
  Si  Si21  1  0.712690  0.046256  0.564504  1
  Si  Si22  1  0.208014  0.452820  0.184503  1
  Si  Si23  1  0.790209  0.550617  0.682280  1
  Si  Si24  1  0.453133  0.207813  0.815592  1
  Si  Si25  1  0.550281  0.790508  0.317872  1
  Si  Si26  1  0.291445  0.952452  0.065646  1
  Si  Si27  1  0.797297  0.868991  0.185662  1
  Si  Si28  1  0.300432  0.627209  0.565778  1
  Si  Si29  1  0.703292  0.368913  0.065493  1
  Si  Si30  1  0.626578  0.300116  0.434262  1
  Si  Si31  1  0.369569  0.703548  0.934462  1
  Si  Si32  1  0.130825  0.203130  0.315599  1
  Si  Si33  1  0.203485  0.130469  0.684372  1
  Si  Si34  1  0.868703  0.797543  0.814334  1
  Ru  Ru35  1  0.670974  0.671247  0.499984  1
