# generated using pymatgen
data_Yb2Al20Fe3Ni
_symmetry_space_group_name_H-M   'P 1'
_cell_length_a   6.76465749
_cell_length_b   6.77043080
_cell_length_c   8.93493832
_cell_angle_alpha   90.09604982
_cell_angle_beta   90.21653167
_cell_angle_gamma   97.29985305
_symmetry_Int_Tables_number   1
_chemical_formula_structural   Yb2Al20Fe3Ni
_chemical_formula_sum   'Yb2 Al20 Fe3 Ni1'
_cell_volume   405.89635039
_cell_formula_units_Z   1
loop_
 _symmetry_equiv_pos_site_id
 _symmetry_equiv_pos_as_xyz
  1  'x, y, z'
loop_
 _atom_site_type_symbol
 _atom_site_label
 _atom_site_symmetry_multiplicity
 _atom_site_fract_x
 _atom_site_fract_y
 _atom_site_fract_z
 _atom_site_occupancy
  Yb  Yb0  1  0.878012  0.124258  0.249683  1
  Yb  Yb1  1  0.121988  0.875742  0.750317  1
  Al  Al2  1  0.223995  0.229070  0.498529  1
  Al  Al3  1  0.774240  0.773456  0.000065  1
  Al  Al4  1  0.776005  0.770930  0.501471  1
  Al  Al5  1  0.225760  0.226544  0.999935  1
  Al  Al6  1  0.373538  0.621417  0.548553  1
  Al  Al7  1  0.625518  0.375004  0.047586  1
  Al  Al8  1  0.586325  0.865146  0.751772  1
  Al  Al9  1  0.413675  0.134854  0.248228  1
  Al  Al10  1  0.866983  0.584375  0.249277  1
  Al  Al11  1  0.133017  0.415625  0.750723  1
  Al  Al12  1  0.476549  0.223615  0.753281  1
  Al  Al13  1  0.523451  0.776385  0.246719  1
  Al  Al14  1  0.221369  0.476307  0.250710  1
  Al  Al15  1  0.778631  0.523693  0.749290  1
  Al  Al16  1  0.155602  0.840371  0.401637  1
  Al  Al17  1  0.841589  0.157496  0.904479  1
  Al  Al18  1  0.844398  0.159629  0.598363  1
  Al  Al19  1  0.158411  0.842504  0.095521  1
  Al  Al20  1  0.374482  0.624996  0.952414  1
  Al  Al21  1  0.626462  0.378583  0.451447  1
  Fe  Fe22  1  0.000000  0.500000  0.500000  1
  Fe  Fe23  1  0.000000  0.500000  0.000000  1
  Fe  Fe24  1  0.500000  0.000000  0.000000  1
  Ni  Ni25  1  0.500000  0.000000  0.500000  1
