# generated using pymatgen
data_Dy3Ho3(CoSn6)2
_symmetry_space_group_name_H-M   'P 1'
_cell_length_a   8.47771056
_cell_length_b   8.47770904
_cell_length_c   13.11213740
_cell_angle_alpha   89.98704309
_cell_angle_beta   90.01295618
_cell_angle_gamma   148.85120873
_symmetry_Int_Tables_number   1
_chemical_formula_structural   Dy3Ho3(CoSn6)2
_chemical_formula_sum   'Dy3 Ho3 Co2 Sn12'
_cell_volume   487.46272065
_cell_formula_units_Z   1
loop_
 _symmetry_equiv_pos_site_id
 _symmetry_equiv_pos_as_xyz
  1  'x, y, z'
loop_
 _atom_site_type_symbol
 _atom_site_label
 _atom_site_symmetry_multiplicity
 _atom_site_fract_x
 _atom_site_fract_y
 _atom_site_fract_z
 _atom_site_occupancy
  Dy  Dy0  1  0.100838  0.899162  0.593390  1
  Dy  Dy1  1  0.100753  0.899247  0.906651  1
  Dy  Dy2  1  0.899274  0.100726  0.406578  1
  Ho  Ho3  1  0.898909  0.101091  0.093559  1
  Ho  Ho4  1  0.899762  0.100238  0.750197  1
  Ho  Ho5  1  0.100288  0.899712  0.249766  1
  Co  Co6  1  0.300485  0.699515  0.249710  1
  Co  Co7  1  0.699751  0.300249  0.750152  1
  Sn  Sn8  1  0.755662  0.244338  0.571538  1
  Sn  Sn9  1  0.427598  0.572402  0.576502  1
  Sn  Sn10  1  0.572056  0.427944  0.423823  1
  Sn  Sn11  1  0.734409  0.265591  0.250021  1
  Sn  Sn12  1  0.266049  0.733951  0.750007  1
  Sn  Sn13  1  0.244264  0.755736  0.071588  1
  Sn  Sn14  1  0.244480  0.755520  0.428001  1
  Sn  Sn15  1  0.572098  0.427902  0.075953  1
  Sn  Sn16  1  0.454508  0.545492  0.249654  1
  Sn  Sn17  1  0.545576  0.454424  0.750109  1
  Sn  Sn18  1  0.756089  0.243911  0.928607  1
  Sn  Sn19  1  0.427150  0.572850  0.924193  1
