# generated using pymatgen
data_Er10In8Pd3Pt
_symmetry_space_group_name_H-M   'P 1'
_cell_length_a   3.61139000
_cell_length_b   8.08747241
_cell_length_c   18.16336990
_cell_angle_alpha   90.03634838
_cell_angle_beta   90.00000000
_cell_angle_gamma   90.00000000
_symmetry_Int_Tables_number   1
_chemical_formula_structural   Er10In8Pd3Pt
_chemical_formula_sum   'Er10 In8 Pd3 Pt1'
_cell_volume   530.49774665
_cell_formula_units_Z   1
loop_
 _symmetry_equiv_pos_site_id
 _symmetry_equiv_pos_as_xyz
  1  'x, y, z'
loop_
 _atom_site_type_symbol
 _atom_site_label
 _atom_site_symmetry_multiplicity
 _atom_site_fract_x
 _atom_site_fract_y
 _atom_site_fract_z
 _atom_site_occupancy
  Er  Er0  1  0.000000  0.117644  0.415385  1
  Er  Er1  1  0.000000  0.882180  0.584583  1
  Er  Er2  1  0.000000  0.382297  0.915445  1
  Er  Er3  1  0.000000  0.617094  0.085313  1
  Er  Er4  1  0.000000  0.246833  0.219884  1
  Er  Er5  1  0.000000  0.756707  0.780083  1
  Er  Er6  1  0.000000  0.256697  0.719786  1
  Er  Er7  1  0.000000  0.740080  0.279224  1
  Er  Er8  1  0.000000  0.999926  0.000143  1
  Er  Er9  1  0.000000  0.500123  0.499916  1
  In  In10  1  0.500000  0.422261  0.351607  1
  In  In11  1  0.500000  0.576617  0.649115  1
  In  In12  1  0.500000  0.076588  0.850892  1
  In  In13  1  0.500000  0.925081  0.149239  1
  In  In14  1  0.500000  0.291718  0.066400  1
  In  In15  1  0.500000  0.707782  0.932947  1
  In  In16  1  0.500000  0.207677  0.567035  1
  In  In17  1  0.500000  0.792678  0.432889  1
  Pd  Pd18  1  0.500000  0.024672  0.303467  1
  Pd  Pd19  1  0.500000  0.975196  0.696676  1
  Pd  Pd20  1  0.500000  0.475207  0.803341  1
  Pt  Pt21  1  0.500000  0.524941  0.196631  1
