# generated using pymatgen
data_Sm4ZnGa3Te2
_symmetry_space_group_name_H-M   'P 1'
_cell_length_a   4.26817800
_cell_length_b   4.26817700
_cell_length_c   16.62665100
_cell_angle_alpha   90.00000000
_cell_angle_beta   90.00000000
_cell_angle_gamma   119.99999224
_symmetry_Int_Tables_number   1
_chemical_formula_structural   Sm4ZnGa3Te2
_chemical_formula_sum   'Sm4 Zn1 Ga3 Te2'
_cell_volume   262.31334815
_cell_formula_units_Z   1
loop_
 _symmetry_equiv_pos_site_id
 _symmetry_equiv_pos_as_xyz
  1  'x, y, z'
loop_
 _atom_site_type_symbol
 _atom_site_label
 _atom_site_symmetry_multiplicity
 _atom_site_fract_x
 _atom_site_fract_y
 _atom_site_fract_z
 _atom_site_occupancy
  Sm  Sm0  1  0.000000  0.000000  0.122668  1
  Sm  Sm1  1  0.000000  0.000000  0.877754  1
  Sm  Sm2  1  0.000000  0.000000  0.626288  1
  Sm  Sm3  1  0.000000  0.000000  0.373227  1
  Zn  Zn4  1  0.333333  0.666667  0.996300  1
  Ga  Ga5  1  0.333333  0.666667  0.518336  1
  Ga  Ga6  1  0.666667  0.333333  0.481090  1
  Ga  Ga7  1  0.666667  0.333333  0.004834  1
  Te  Te8  1  0.333333  0.666667  0.248240  1
  Te  Te9  1  0.666667  0.333333  0.751263  1
