# generated using pymatgen
data_CsRb2Ag3P2
_symmetry_space_group_name_H-M   'P 1'
_cell_length_a   8.04297901
_cell_length_b   8.04297999
_cell_length_c   8.04297854
_cell_angle_alpha   46.14858553
_cell_angle_beta   46.14857697
_cell_angle_gamma   46.14858480
_symmetry_Int_Tables_number   1
_chemical_formula_structural   CsRb2Ag3P2
_chemical_formula_sum   'Cs1 Rb2 Ag3 P2'
_cell_volume   246.87802033
_cell_formula_units_Z   1
loop_
 _symmetry_equiv_pos_site_id
 _symmetry_equiv_pos_as_xyz
  1  'x, y, z'
loop_
 _atom_site_type_symbol
 _atom_site_label
 _atom_site_symmetry_multiplicity
 _atom_site_fract_x
 _atom_site_fract_y
 _atom_site_fract_z
 _atom_site_occupancy
  Cs  Cs0  1  0.500000  0.500000  0.500000  1
  Rb  Rb1  1  0.907970  0.907970  0.907970  1
  Rb  Rb2  1  0.092030  0.092030  0.092030  1
  Ag  Ag3  1  0.000000  0.500000  0.500000  1
  Ag  Ag4  1  0.500000  0.500000  0.000000  1
  Ag  Ag5  1  0.500000  0.000000  0.500000  1
  P  P6  1  0.255690  0.255690  0.255690  1
  P  P7  1  0.744310  0.744310  0.744310  1
