# generated using pymatgen
data_Dy2Zr3Si7Pt9
_symmetry_space_group_name_H-M   'P 1'
_cell_length_a   10.04469100
_cell_length_b   10.04469025
_cell_length_c   4.03026400
_cell_angle_alpha   90.00000000
_cell_angle_beta   90.00000000
_cell_angle_gamma   119.99999918
_symmetry_Int_Tables_number   1
_chemical_formula_structural   Dy2Zr3Si7Pt9
_chemical_formula_sum   'Dy2 Zr3 Si7 Pt9'
_cell_volume   352.15775828
_cell_formula_units_Z   1
loop_
 _symmetry_equiv_pos_site_id
 _symmetry_equiv_pos_as_xyz
  1  'x, y, z'
loop_
 _atom_site_type_symbol
 _atom_site_label
 _atom_site_symmetry_multiplicity
 _atom_site_fract_x
 _atom_site_fract_y
 _atom_site_fract_z
 _atom_site_occupancy
  Dy  Dy0  1  0.000000  0.000000  0.000000  1
  Dy  Dy1  1  0.333333  0.666667  0.500000  1
  Zr  Zr2  1  0.892437  0.456826  0.500000  1
  Zr  Zr3  1  0.564389  0.107563  0.500000  1
  Zr  Zr4  1  0.543174  0.435611  0.500000  1
  Si  Si5  1  0.246986  0.196974  0.500000  1
  Si  Si6  1  0.803026  0.050013  0.500000  1
  Si  Si7  1  0.949987  0.753014  0.500000  1
  Si  Si8  1  0.557612  0.646700  0.000000  1
  Si  Si9  1  0.353300  0.910909  0.000000  1
  Si  Si10  1  0.089091  0.442388  0.000000  1
  Si  Si11  1  0.666667  0.333333  0.000000  1
  Pt  Pt12  1  0.218140  0.937144  0.500000  1
  Pt  Pt13  1  0.062856  0.280997  0.500000  1
  Pt  Pt14  1  0.719003  0.781860  0.500000  1
  Pt  Pt15  1  0.312276  0.413374  0.000000  1
  Pt  Pt16  1  0.586626  0.898903  0.000000  1
  Pt  Pt17  1  0.101097  0.687724  0.000000  1
  Pt  Pt18  1  0.383359  0.172379  0.000000  1
  Pt  Pt19  1  0.827621  0.210979  0.000000  1
  Pt  Pt20  1  0.789021  0.616641  0.000000  1
