# generated using pymatgen
data_Er3Tm3ZrCo17P12
_symmetry_space_group_name_H-M   'P 1'
_cell_length_a   3.69374100
_cell_length_b   10.56515003
_cell_length_c   12.26165004
_cell_angle_alpha   89.99099896
_cell_angle_beta   90.00000000
_cell_angle_gamma   90.00000000
_symmetry_Int_Tables_number   1
_chemical_formula_structural   Er3Tm3ZrCo17P12
_chemical_formula_sum   'Er3 Tm3 Zr1 Co17 P12'
_cell_volume   478.51000210
_cell_formula_units_Z   1
loop_
 _symmetry_equiv_pos_site_id
 _symmetry_equiv_pos_as_xyz
  1  'x, y, z'
loop_
 _atom_site_type_symbol
 _atom_site_label
 _atom_site_symmetry_multiplicity
 _atom_site_fract_x
 _atom_site_fract_y
 _atom_site_fract_z
 _atom_site_occupancy
  Er  Er0  1  0.000000  0.499929  0.529600  1
  Er  Er1  1  0.500000  0.000024  0.477050  1
  Er  Er2  1  0.000000  0.682640  0.795900  1
  Tm  Tm3  1  0.500000  0.821944  0.207490  1
  Tm  Tm4  1  0.500000  0.178092  0.207535  1
  Tm  Tm5  1  0.000000  0.317317  0.795904  1
  Zr  Zr6  1  0.500000  0.499985  0.154993  1
  Co  Co7  1  0.000000  0.000006  0.836040  1
  Co  Co8  1  0.500000  0.499770  0.702447  1
  Co  Co9  1  0.000000  0.000017  0.296443  1
  Co  Co10  1  0.000000  0.499899  0.983055  1
  Co  Co11  1  0.500000  0.000041  0.014197  1
  Co  Co12  1  0.500000  0.326729  0.987559  1
  Co  Co13  1  0.500000  0.673235  0.987741  1
  Co  Co14  1  0.000000  0.161358  0.001592  1
  Co  Co15  1  0.000000  0.838716  0.001687  1
  Co  Co16  1  0.500000  0.294106  0.434746  1
  Co  Co17  1  0.500000  0.705903  0.434741  1
  Co  Co18  1  0.000000  0.201735  0.570399  1
  Co  Co19  1  0.000000  0.798318  0.570294  1
  Co  Co20  1  0.500000  0.879867  0.707166  1
  Co  Co21  1  0.500000  0.120358  0.707287  1
  Co  Co22  1  0.000000  0.623708  0.297584  1
  Co  Co23  1  0.000000  0.376246  0.297592  1
  P  P24  1  0.500000  0.499774  0.880690  1
  P  P25  1  0.000000  0.999998  0.117491  1
  P  P26  1  0.500000  0.500012  0.363164  1
  P  P27  1  0.000000  0.999995  0.653733  1
  P  P28  1  0.500000  0.309916  0.618464  1
  P  P29  1  0.500000  0.690093  0.618182  1
  P  P30  1  0.000000  0.187283  0.385985  1
  P  P31  1  0.000000  0.812747  0.385973  1
  P  P32  1  0.500000  0.852425  0.887936  1
  P  P33  1  0.500000  0.147803  0.887747  1
  P  P34  1  0.000000  0.666024  0.100782  1
  P  P35  1  0.000000  0.333988  0.100809  1
