# generated using pymatgen
data_Cs4Na2LuInSb4
_symmetry_space_group_name_H-M   'P 1'
_cell_length_a   10.36684394
_cell_length_b   10.36684312
_cell_length_c   10.36684292
_cell_angle_alpha   137.27134876
_cell_angle_beta   61.08636275
_cell_angle_gamma   138.49651164
_symmetry_Int_Tables_number   1
_chemical_formula_structural   Cs4Na2LuInSb4
_chemical_formula_sum   'Cs4 Na2 Lu1 In1 Sb4'
_cell_volume   495.42472920
_cell_formula_units_Z   1
loop_
 _symmetry_equiv_pos_site_id
 _symmetry_equiv_pos_as_xyz
  1  'x, y, z'
loop_
 _atom_site_type_symbol
 _atom_site_label
 _atom_site_symmetry_multiplicity
 _atom_site_fract_x
 _atom_site_fract_y
 _atom_site_fract_z
 _atom_site_occupancy
  Cs  Cs0  1  0.331020  0.770961  0.094173  1
  Cs  Cs1  1  0.168980  0.263154  0.439942  1
  Cs  Cs2  1  0.823213  0.729039  0.560059  1
  Cs  Cs3  1  0.676788  0.236846  0.905827  1
  Na  Na4  1  0.750000  0.250000  0.500000  1
  Na  Na5  1  0.250000  0.750000  0.500000  1
  Lu  Lu6  1  0.250000  0.250000  0.000000  1
  In  In7  1  0.750000  0.750000  0.000000  1
  Sb  Sb8  1  0.904102  0.218111  0.127007  1
  Sb  Sb9  1  0.595898  0.722905  0.314010  1
  Sb  Sb10  1  0.408896  0.281889  0.685991  1
  Sb  Sb11  1  0.091104  0.777095  0.872993  1
