# generated using pymatgen
data_Dy2YScO6
_symmetry_space_group_name_H-M   'P 1'
_cell_length_a   6.61375274
_cell_length_b   6.61376845
_cell_length_c   6.61424602
_cell_angle_alpha   92.00960587
_cell_angle_beta   92.02158528
_cell_angle_gamma   92.01571285
_symmetry_Int_Tables_number   1
_chemical_formula_structural   Dy2YScO6
_chemical_formula_sum   'Dy4 Y2 Sc2 O12'
_cell_volume   288.76923717
_cell_formula_units_Z   2
loop_
 _symmetry_equiv_pos_site_id
 _symmetry_equiv_pos_as_xyz
  1  'x, y, z'
loop_
 _atom_site_type_symbol
 _atom_site_label
 _atom_site_symmetry_multiplicity
 _atom_site_fract_x
 _atom_site_fract_y
 _atom_site_fract_z
 _atom_site_occupancy
  Dy  Dy0  1  0.439339  0.747071  0.931743  1
  Dy  Dy1  1  0.252914  0.068219  0.560667  1
  Dy  Dy2  1  0.068226  0.560663  0.252917  1
  Dy  Dy3  1  0.560637  0.252941  0.068223  1
  Y  Y4  1  0.747044  0.931764  0.439305  1
  Y  Y5  1  0.931779  0.439280  0.747025  1
  Sc  Sc6  1  0.500001  0.499986  0.499983  1
  Sc  Sc7  1  0.000040  0.999950  0.000016  1
  O  O8  1  0.592624  0.463356  0.806445  1
  O  O9  1  0.462881  0.806153  0.593325  1
  O  O10  1  0.806278  0.592843  0.462900  1
  O  O11  1  0.406870  0.536645  0.193678  1
  O  O12  1  0.536381  0.194072  0.406830  1
  O  O13  1  0.194073  0.406851  0.536387  1
  O  O14  1  0.069629  0.913970  0.306165  1
  O  O15  1  0.913962  0.306179  0.069626  1
  O  O16  1  0.693560  0.930719  0.085541  1
  O  O17  1  0.086349  0.694250  0.931129  1
  O  O18  1  0.931078  0.085843  0.694122  1
  O  O19  1  0.306334  0.069244  0.913972  1
