# generated using pymatgen
data_Tb4Tm2Ga3Si
_symmetry_space_group_name_H-M   'P 1'
_cell_length_a   7.60115977
_cell_length_b   7.60115977
_cell_length_c   4.30016800
_cell_angle_alpha   90.00000000
_cell_angle_beta   90.00000000
_cell_angle_gamma   89.48497272
_symmetry_Int_Tables_number   1
_chemical_formula_structural   Tb4Tm2Ga3Si
_chemical_formula_sum   'Tb4 Tm2 Ga3 Si1'
_cell_volume   248.44347760
_cell_formula_units_Z   1
loop_
 _symmetry_equiv_pos_site_id
 _symmetry_equiv_pos_as_xyz
  1  'x, y, z'
loop_
 _atom_site_type_symbol
 _atom_site_label
 _atom_site_symmetry_multiplicity
 _atom_site_fract_x
 _atom_site_fract_y
 _atom_site_fract_z
 _atom_site_occupancy
  Tb  Tb0  1  0.672225  0.175244  0.500000  1
  Tb  Tb1  1  0.324756  0.827775  0.500000  1
  Tb  Tb2  1  0.180655  0.319345  0.500000  1
  Tb  Tb3  1  0.822252  0.677748  0.500000  1
  Tm  Tm4  1  0.002642  0.999848  0.000000  1
  Tm  Tm5  1  0.500152  0.497358  0.000000  1
  Ga  Ga6  1  0.119904  0.620079  0.000000  1
  Ga  Ga7  1  0.879921  0.380096  0.000000  1
  Ga  Ga8  1  0.617676  0.882324  0.000000  1
  Si  Si9  1  0.379818  0.120182  0.000000  1
