# generated using pymatgen
data_Ce2NbReH18
_symmetry_space_group_name_H-M   'P 1'
_cell_length_a   4.85908900
_cell_length_b   4.85908967
_cell_length_c   9.09351800
_cell_angle_alpha   90.00000000
_cell_angle_beta   90.00000000
_cell_angle_gamma   120.00000224
_symmetry_Int_Tables_number   1
_chemical_formula_structural   Ce2NbReH18
_chemical_formula_sum   'Ce2 Nb1 Re1 H18'
_cell_volume   185.93978319
_cell_formula_units_Z   1
loop_
 _symmetry_equiv_pos_site_id
 _symmetry_equiv_pos_as_xyz
  1  'x, y, z'
loop_
 _atom_site_type_symbol
 _atom_site_label
 _atom_site_symmetry_multiplicity
 _atom_site_fract_x
 _atom_site_fract_y
 _atom_site_fract_z
 _atom_site_occupancy
  Ce  Ce0  1  0.000000  0.000000  0.021714  1
  Ce  Ce1  1  0.000000  0.000000  0.478286  1
  Nb  Nb2  1  0.333333  0.666667  0.250000  1
  Re  Re3  1  0.666667  0.333333  0.750000  1
  H  H4  1  0.486311  0.513689  0.399435  1
  H  H5  1  0.486311  0.972623  0.399435  1
  H  H6  1  0.027377  0.513689  0.399435  1
  H  H7  1  0.954045  0.477022  0.883580  1
  H  H8  1  0.120558  0.241116  0.250000  1
  H  H9  1  0.865654  0.134346  0.750000  1
  H  H10  1  0.268691  0.134346  0.750000  1
  H  H11  1  0.758884  0.879442  0.250000  1
  H  H12  1  0.120558  0.879442  0.250000  1
  H  H13  1  0.865654  0.731309  0.750000  1
  H  H14  1  0.486311  0.972623  0.100565  1
  H  H15  1  0.522978  0.477022  0.616420  1
  H  H16  1  0.954045  0.477022  0.616420  1
  H  H17  1  0.027377  0.513689  0.100565  1
  H  H18  1  0.486311  0.513689  0.100565  1
  H  H19  1  0.522978  0.045955  0.883580  1
  H  H20  1  0.522978  0.477022  0.883580  1
  H  H21  1  0.522978  0.045955  0.616420  1
