# generated using pymatgen
data_LiHo3Mg2Si2Ag
_symmetry_space_group_name_H-M   'P 1'
_cell_length_a   7.15188700
_cell_length_b   7.20241173
_cell_length_c   4.27197500
_cell_angle_alpha   90.00000000
_cell_angle_beta   90.00000000
_cell_angle_gamma   119.76821197
_symmetry_Int_Tables_number   1
_chemical_formula_structural   LiHo3Mg2Si2Ag
_chemical_formula_sum   'Li1 Ho3 Mg2 Si2 Ag1'
_cell_volume   191.01503470
_cell_formula_units_Z   1
loop_
 _symmetry_equiv_pos_site_id
 _symmetry_equiv_pos_as_xyz
  1  'x, y, z'
loop_
 _atom_site_type_symbol
 _atom_site_label
 _atom_site_symmetry_multiplicity
 _atom_site_fract_x
 _atom_site_fract_y
 _atom_site_fract_z
 _atom_site_occupancy
  Li  Li0  1  0.252227  0.000000  0.500000  1
  Ho  Ho1  1  0.568699  0.000000  0.000000  1
  Ho  Ho2  1  0.002341  0.578475  0.000000  1
  Ho  Ho3  1  0.423866  0.421525  0.000000  1
  Mg  Mg4  1  0.001689  0.248357  0.500000  1
  Mg  Mg5  1  0.753332  0.751643  0.500000  1
  Si  Si6  1  0.331735  0.668172  0.500000  1
  Si  Si7  1  0.663564  0.331828  0.500000  1
  Ag  Ag8  1  0.002547  0.000000  0.000000  1
