# generated using pymatgen
data_Li8Pr8Si5Bi3
_symmetry_space_group_name_H-M   'P 1'
_cell_length_a   9.41857400
_cell_length_b   9.41857456
_cell_length_c   7.53238900
_cell_angle_alpha   90.00000000
_cell_angle_beta   90.00000000
_cell_angle_gamma   119.99999803
_symmetry_Int_Tables_number   1
_chemical_formula_structural   Li8Pr8Si5Bi3
_chemical_formula_sum   'Li8 Pr8 Si5 Bi3'
_cell_volume   578.67366087
_cell_formula_units_Z   1
loop_
 _symmetry_equiv_pos_site_id
 _symmetry_equiv_pos_as_xyz
  1  'x, y, z'
loop_
 _atom_site_type_symbol
 _atom_site_label
 _atom_site_symmetry_multiplicity
 _atom_site_fract_x
 _atom_site_fract_y
 _atom_site_fract_z
 _atom_site_occupancy
  Li  Li0  1  0.830440  0.169560  0.724746  1
  Li  Li1  1  0.830440  0.660878  0.724746  1
  Li  Li2  1  0.339122  0.169560  0.724746  1
  Li  Li3  1  0.173867  0.826133  0.209649  1
  Li  Li4  1  0.173867  0.347734  0.209649  1
  Li  Li5  1  0.652266  0.826133  0.209649  1
  Li  Li6  1  0.666667  0.333333  0.348158  1
  Li  Li7  1  0.333333  0.666667  0.824714  1
  Pr  Pr8  1  0.481508  0.518492  0.512892  1
  Pr  Pr9  1  0.481508  0.963017  0.512892  1
  Pr  Pr10  1  0.036983  0.518492  0.512892  1
  Pr  Pr11  1  0.506603  0.493397  0.991208  1
  Pr  Pr12  1  0.506603  0.013205  0.991208  1
  Pr  Pr13  1  0.986795  0.493397  0.991208  1
  Pr  Pr14  1  0.000000  0.000000  0.515959  1
  Pr  Pr15  1  0.000000  0.000000  0.983308  1
  Si  Si16  1  0.166992  0.833008  0.765340  1
  Si  Si17  1  0.166992  0.333984  0.765340  1
  Si  Si18  1  0.666016  0.833008  0.765340  1
  Si  Si19  1  0.666667  0.333333  0.742959  1
  Si  Si20  1  0.333333  0.666667  0.240244  1
  Bi  Bi21  1  0.833444  0.166556  0.263720  1
  Bi  Bi22  1  0.833444  0.666886  0.263720  1
  Bi  Bi23  1  0.333114  0.166556  0.263720  1
