# generated using pymatgen
data_Dy3Tm7OsRu3
_symmetry_space_group_name_H-M   'P 1'
_cell_length_a   6.28399722
_cell_length_b   7.24057037
_cell_length_c   8.38341995
_cell_angle_alpha   96.78476712
_cell_angle_beta   112.14200133
_cell_angle_gamma   90.16068136
_symmetry_Int_Tables_number   1
_chemical_formula_structural   Dy3Tm7OsRu3
_chemical_formula_sum   'Dy3 Tm7 Os1 Ru3'
_cell_volume   350.37371804
_cell_formula_units_Z   1
loop_
 _symmetry_equiv_pos_site_id
 _symmetry_equiv_pos_as_xyz
  1  'x, y, z'
loop_
 _atom_site_type_symbol
 _atom_site_label
 _atom_site_symmetry_multiplicity
 _atom_site_fract_x
 _atom_site_fract_y
 _atom_site_fract_z
 _atom_site_occupancy
  Dy  Dy0  1  0.790514  0.082129  0.810816  1
  Dy  Dy1  1  0.975394  0.416266  0.183883  1
  Dy  Dy2  1  0.209729  0.916010  0.187678  1
  Tm  Tm3  1  0.022688  0.584053  0.813351  1
  Tm  Tm4  1  0.205432  0.184599  0.566507  1
  Tm  Tm5  1  0.639342  0.317957  0.436672  1
  Tm  Tm6  1  0.795747  0.815493  0.434159  1
  Tm  Tm7  1  0.359344  0.683786  0.565463  1
  Tm  Tm8  1  0.420806  0.250498  0.999135  1
  Tm  Tm9  1  0.578590  0.749997  0.999560  1
  Os  Os10  1  0.602993  0.424435  0.780618  1
  Ru  Ru11  1  0.821427  0.076898  0.222846  1
  Ru  Ru12  1  0.399745  0.575909  0.220770  1
  Ru  Ru13  1  0.178248  0.921970  0.778542  1
