# generated using pymatgen
data_Tm4VRu7
_symmetry_space_group_name_H-M   'P 1'
_cell_length_a   5.42150016
_cell_length_b   5.13692165
_cell_length_c   8.89799300
_cell_angle_alpha   90.00000000
_cell_angle_beta   90.00000000
_cell_angle_gamma   121.87978139
_symmetry_Int_Tables_number   1
_chemical_formula_structural   Tm4VRu7
_chemical_formula_sum   'Tm4 V1 Ru7'
_cell_volume   210.42776316
_cell_formula_units_Z   1
loop_
 _symmetry_equiv_pos_site_id
 _symmetry_equiv_pos_as_xyz
  1  'x, y, z'
loop_
 _atom_site_type_symbol
 _atom_site_label
 _atom_site_symmetry_multiplicity
 _atom_site_fract_x
 _atom_site_fract_y
 _atom_site_fract_z
 _atom_site_occupancy
  Tm  Tm0  1  0.669350  0.338865  0.564230  1
  Tm  Tm1  1  0.331616  0.663248  0.431269  1
  Tm  Tm2  1  0.331616  0.663248  0.068731  1
  Tm  Tm3  1  0.669350  0.338865  0.935770  1
  V  V4  1  0.170442  0.341645  0.750000  1
  Ru  Ru5  1  0.005230  0.010008  0.502663  1
  Ru  Ru6  1  0.005230  0.010008  0.997337  1
  Ru  Ru7  1  0.168178  0.817818  0.750000  1
  Ru  Ru8  1  0.649753  0.817852  0.750000  1
  Ru  Ru9  1  0.829705  0.659404  0.250000  1
  Ru  Ru10  1  0.827929  0.169560  0.250000  1
  Ru  Ru11  1  0.341601  0.169480  0.250000  1
