# generated using pymatgen
data_Al21Ir8
_symmetry_space_group_name_H-M   'P 1'
_cell_length_a   10.41474497
_cell_length_b   10.41474480
_cell_length_c   10.41474500
_cell_angle_alpha   104.70962226
_cell_angle_beta   104.70962201
_cell_angle_gamma   119.48259788
_symmetry_Int_Tables_number   1
_chemical_formula_structural   Al21Ir8
_chemical_formula_sum   'Al42 Ir16'
_cell_volume   849.39536401
_cell_formula_units_Z   2
loop_
 _symmetry_equiv_pos_site_id
 _symmetry_equiv_pos_as_xyz
  1  'x, y, z'
loop_
 _atom_site_type_symbol
 _atom_site_label
 _atom_site_symmetry_multiplicity
 _atom_site_fract_x
 _atom_site_fract_y
 _atom_site_fract_z
 _atom_site_occupancy
  Al  Al0  1  0.500001  0.500001  0.000002  1
  Al  Al1  1  0.749999  0.249999  0.499998  1
  Al  Al2  1  0.185719  0.034635  0.027028  1
  Al  Al3  1  0.284636  0.757608  0.348915  1
  Al  Al4  1  0.408691  0.935718  0.651082  1
  Al  Al5  1  0.007609  0.158692  0.972974  1
  Al  Al6  1  0.064281  0.715365  0.472972  1
  Al  Al7  1  0.965364  0.992392  0.151085  1
  Al  Al8  1  0.841309  0.814282  0.848918  1
  Al  Al9  1  0.242391  0.591308  0.527026  1
  Al  Al10  1  0.157974  0.305466  0.335262  1
  Al  Al11  1  0.555466  0.720203  0.647490  1
  Al  Al12  1  0.072710  0.907973  0.352508  1
  Al  Al13  1  0.970202  0.822712  0.664737  1
  Al  Al14  1  0.092026  0.444534  0.164738  1
  Al  Al15  1  0.694534  0.029797  0.852510  1
  Al  Al16  1  0.177290  0.842027  0.147492  1
  Al  Al17  1  0.279798  0.927288  0.835263  1
  Al  Al18  1  0.272690  0.260606  0.567128  1
  Al  Al19  1  0.510607  0.443479  0.487916  1
  Al  Al20  1  0.955562  0.022690  0.512083  1
  Al  Al21  1  0.693479  0.705562  0.432872  1
  Al  Al22  1  0.977310  0.489394  0.932872  1
  Al  Al23  1  0.739393  0.306521  0.012084  1
  Al  Al24  1  0.294438  0.727310  0.987917  1
  Al  Al25  1  0.556521  0.044438  0.067128  1
  Al  Al26  1  0.510183  0.282055  0.793882  1
  Al  Al27  1  0.532053  0.238172  0.271872  1
  Al  Al28  1  0.966300  0.260182  0.728128  1
  Al  Al29  1  0.488171  0.716299  0.206119  1
  Al  Al30  1  0.739817  0.467945  0.706118  1
  Al  Al31  1  0.717947  0.511828  0.228128  1
  Al  Al32  1  0.283700  0.489818  0.771872  1
  Al  Al33  1  0.761829  0.033701  0.293881  1
  Al  Al34  1  0.192374  0.186496  0.833164  1
  Al  Al35  1  0.436495  0.103331  0.494120  1
  Al  Al36  1  0.609209  0.942372  0.505876  1
  Al  Al37  1  0.353333  0.359210  0.166837  1
  Al  Al38  1  0.057626  0.563504  0.666836  1
  Al  Al39  1  0.813505  0.646669  0.005880  1
  Al  Al40  1  0.640791  0.807628  0.994124  1
  Al  Al41  1  0.896667  0.390790  0.333163  1
  Ir  Ir42  1  0.029911  0.305854  0.514021  1
  Ir  Ir43  1  0.555856  0.541834  0.775945  1
  Ir  Ir44  1  0.765888  0.779912  0.224059  1
  Ir  Ir45  1  0.791833  0.515889  0.485976  1
  Ir  Ir46  1  0.220089  0.444146  0.985979  1
  Ir  Ir47  1  0.694144  0.208166  0.724055  1
  Ir  Ir48  1  0.484112  0.970088  0.275941  1
  Ir  Ir49  1  0.458167  0.234111  0.014024  1
  Ir  Ir50  1  0.978409  0.610208  0.195575  1
  Ir  Ir51  1  0.860207  0.164632  0.131802  1
  Ir  Ir52  1  0.032834  0.728408  0.868201  1
  Ir  Ir53  1  0.414633  0.782832  0.804426  1
  Ir  Ir54  1  0.271591  0.139792  0.304425  1
  Ir  Ir55  1  0.389793  0.585368  0.368198  1
  Ir  Ir56  1  0.217166  0.021592  0.631799  1
  Ir  Ir57  1  0.835367  0.967168  0.695574  1
