# generated using pymatgen
data_Dy7Lu5AlCo4Sn
_symmetry_space_group_name_H-M   'P 1'
_cell_length_a   8.26642264
_cell_length_b   8.26642281
_cell_length_c   8.26354340
_cell_angle_alpha   112.02402327
_cell_angle_beta   109.53255162
_cell_angle_gamma   106.91241579
_symmetry_Int_Tables_number   1
_chemical_formula_structural   Dy7Lu5AlCo4Sn
_chemical_formula_sum   'Dy7 Lu5 Al1 Co4 Sn1'
_cell_volume   433.74495266
_cell_formula_units_Z   1
loop_
 _symmetry_equiv_pos_site_id
 _symmetry_equiv_pos_as_xyz
  1  'x, y, z'
loop_
 _atom_site_type_symbol
 _atom_site_label
 _atom_site_symmetry_multiplicity
 _atom_site_fract_x
 _atom_site_fract_y
 _atom_site_fract_z
 _atom_site_occupancy
  Dy  Dy0  1  0.438947  0.234204  0.202597  1
  Dy  Dy1  1  0.563502  0.766989  0.798030  1
  Dy  Dy2  1  0.031040  0.234527  0.798030  1
  Dy  Dy3  1  0.968394  0.763651  0.202597  1
  Dy  Dy4  1  0.181177  0.282656  0.463833  1
  Dy  Dy5  1  0.817934  0.718079  0.536013  1
  Dy  Dy6  1  0.181795  0.718203  0.899998  1
  Lu  Lu7  1  0.818935  0.281354  0.100288  1
  Lu  Lu8  1  0.323780  0.638290  0.313376  1
  Lu  Lu9  1  0.674923  0.359783  0.686344  1
  Lu  Lu10  1  0.326561  0.011421  0.686344  1
  Lu  Lu11  1  0.675085  0.989596  0.313376  1
  Al  Al12  1  0.000369  0.001971  0.002341  1
  Co  Co13  1  0.341267  0.000286  0.341553  1
  Co  Co14  1  0.660125  0.001926  0.662051  1
  Co  Co15  1  0.112162  0.613559  0.495201  1
  Co  Co16  1  0.881642  0.383039  0.495201  1
  Sn  Sn17  1  0.502362  0.500465  0.002826  1
