# generated using pymatgen
data_YTaNb5Br18
_symmetry_space_group_name_H-M   'P 1'
_cell_length_a   10.73673893
_cell_length_b   10.73546210
_cell_length_c   10.73800484
_cell_angle_alpha   56.02624395
_cell_angle_beta   56.02397638
_cell_angle_gamma   56.04410220
_symmetry_Int_Tables_number   1
_chemical_formula_structural   YTaNb5Br18
_chemical_formula_sum   'Y1 Ta1 Nb5 Br18'
_cell_volume   794.73540276
_cell_formula_units_Z   1
loop_
 _symmetry_equiv_pos_site_id
 _symmetry_equiv_pos_as_xyz
  1  'x, y, z'
loop_
 _atom_site_type_symbol
 _atom_site_label
 _atom_site_symmetry_multiplicity
 _atom_site_fract_x
 _atom_site_fract_y
 _atom_site_fract_z
 _atom_site_occupancy
  Y  Y0  1  0.999699  0.999846  0.000152  1
  Ta  Ta1  1  0.412209  0.309099  0.643183  1
  Nb  Nb2  1  0.356068  0.588290  0.691915  1
  Nb  Nb3  1  0.692043  0.356160  0.588123  1
  Nb  Nb4  1  0.308106  0.643990  0.411740  1
  Nb  Nb5  1  0.644076  0.411866  0.307960  1
  Nb  Nb6  1  0.588660  0.692585  0.355497  1
  Br  Br7  1  0.566951  0.162092  0.443788  1
  Br  Br8  1  0.224646  0.369511  0.906299  1
  Br  Br9  1  0.907421  0.223896  0.371072  1
  Br  Br10  1  0.371104  0.907398  0.224076  1
  Br  Br11  1  0.776133  0.629096  0.092452  1
  Br  Br12  1  0.092526  0.775907  0.629071  1
  Br  Br13  1  0.700110  0.960158  0.160580  1
  Br  Br14  1  0.959418  0.160322  0.700607  1
  Br  Br15  1  0.161002  0.700153  0.959582  1
  Br  Br16  1  0.300519  0.042762  0.837644  1
  Br  Br17  1  0.040608  0.838825  0.299686  1
  Br  Br18  1  0.839119  0.299187  0.040830  1
  Br  Br19  1  0.558394  0.431444  0.837855  1
  Br  Br20  1  0.163387  0.439385  0.569995  1
  Br  Br21  1  0.441593  0.568430  0.162211  1
  Br  Br22  1  0.431519  0.837862  0.558348  1
  Br  Br23  1  0.837927  0.558594  0.431329  1
  Br  Br24  1  0.626762  0.093144  0.776003  1
