# generated using pymatgen
data_Tm5ThFe16(CoP6)2
_symmetry_space_group_name_H-M   'P 1'
_cell_length_a   3.71635600
_cell_length_b   10.52743100
_cell_length_c   12.21780500
_cell_angle_alpha   90.00000000
_cell_angle_beta   90.00000000
_cell_angle_gamma   90.00000000
_symmetry_Int_Tables_number   1
_chemical_formula_structural   Tm5ThFe16(CoP6)2
_chemical_formula_sum   'Tm5 Th1 Fe16 Co2 P12'
_cell_volume   478.00550976
_cell_formula_units_Z   1
loop_
 _symmetry_equiv_pos_site_id
 _symmetry_equiv_pos_as_xyz
  1  'x, y, z'
loop_
 _atom_site_type_symbol
 _atom_site_label
 _atom_site_symmetry_multiplicity
 _atom_site_fract_x
 _atom_site_fract_y
 _atom_site_fract_z
 _atom_site_occupancy
  Tm  Tm0  1  0.500000  0.000000  0.474741  1
  Tm  Tm1  1  0.500000  0.820056  0.206711  1
  Tm  Tm2  1  0.500000  0.179944  0.206711  1
  Tm  Tm3  1  0.000000  0.681477  0.795074  1
  Tm  Tm4  1  0.000000  0.318523  0.795074  1
  Th  Th5  1  0.000000  0.500000  0.526767  1
  Fe  Fe6  1  0.500000  0.500000  0.150747  1
  Fe  Fe7  1  0.000000  0.000000  0.847184  1
  Fe  Fe8  1  0.000000  0.500000  0.988713  1
  Fe  Fe9  1  0.500000  0.000000  0.011634  1
  Fe  Fe10  1  0.500000  0.327245  0.996347  1
  Fe  Fe11  1  0.500000  0.672755  0.996347  1
  Fe  Fe12  1  0.000000  0.171845  0.003184  1
  Fe  Fe13  1  0.000000  0.828155  0.003184  1
  Fe  Fe14  1  0.500000  0.298031  0.429406  1
  Fe  Fe15  1  0.500000  0.701969  0.429406  1
  Fe  Fe16  1  0.000000  0.198709  0.570869  1
  Fe  Fe17  1  0.000000  0.801291  0.570869  1
  Fe  Fe18  1  0.500000  0.883331  0.710193  1
  Fe  Fe19  1  0.500000  0.116669  0.710193  1
  Fe  Fe20  1  0.000000  0.618642  0.288680  1
  Fe  Fe21  1  0.000000  0.381358  0.288680  1
  Co  Co22  1  0.500000  0.500000  0.701511  1
  Co  Co23  1  0.000000  0.000000  0.299736  1
  P  P24  1  0.500000  0.500000  0.884452  1
  P  P25  1  0.000000  0.000000  0.116393  1
  P  P26  1  0.500000  0.500000  0.335815  1
  P  P27  1  0.000000  0.000000  0.658497  1
  P  P28  1  0.500000  0.300964  0.616781  1
  P  P29  1  0.500000  0.699036  0.616781  1
  P  P30  1  0.000000  0.192862  0.385450  1
  P  P31  1  0.000000  0.807138  0.385450  1
  P  P32  1  0.500000  0.850976  0.888886  1
  P  P33  1  0.500000  0.149024  0.888886  1
  P  P34  1  0.000000  0.650444  0.110323  1
  P  P35  1  0.000000  0.349556  0.110323  1
