# generated using pymatgen
data_Rb2GdIO6
_symmetry_space_group_name_H-M   'P 1'
_cell_length_a   5.99079481
_cell_length_b   5.99079413
_cell_length_c   5.99080000
_cell_angle_alpha   59.99996758
_cell_angle_beta   59.99997136
_cell_angle_gamma   60.00007003
_symmetry_Int_Tables_number   1
_chemical_formula_structural   Rb2GdIO6
_chemical_formula_sum   'Rb2 Gd1 I1 O6'
_cell_volume   152.03328987
_cell_formula_units_Z   1
loop_
 _symmetry_equiv_pos_site_id
 _symmetry_equiv_pos_as_xyz
  1  'x, y, z'
loop_
 _atom_site_type_symbol
 _atom_site_label
 _atom_site_symmetry_multiplicity
 _atom_site_fract_x
 _atom_site_fract_y
 _atom_site_fract_z
 _atom_site_occupancy
  Rb  Rb0  1  0.250000  0.250000  0.250000  1
  Rb  Rb1  1  0.750000  0.750000  0.750000  1
  Gd  Gd2  1  0.500000  0.500000  0.500000  1
  I  I3  1  0.000000  0.000000  0.000000  1
  O  O4  1  0.773628  0.226372  0.226372  1
  O  O5  1  0.226372  0.773628  0.773628  1
  O  O6  1  0.226372  0.773628  0.226372  1
  O  O7  1  0.773628  0.226372  0.773628  1
  O  O8  1  0.226371  0.226371  0.773629  1
  O  O9  1  0.773629  0.773629  0.226371  1
