# generated using pymatgen
data_Lu6Al16Os7
_symmetry_space_group_name_H-M   'P 1'
_cell_length_a   8.87467900
_cell_length_b   8.87467871
_cell_length_c   8.87467900
_cell_angle_alpha   119.99999735
_cell_angle_beta   90.00000000
_cell_angle_gamma   119.99999735
_symmetry_Int_Tables_number   1
_chemical_formula_structural   Lu6Al16Os7
_chemical_formula_sum   'Lu6 Al16 Os7'
_cell_volume   494.24579508
_cell_formula_units_Z   1
loop_
 _symmetry_equiv_pos_site_id
 _symmetry_equiv_pos_as_xyz
  1  'x, y, z'
loop_
 _atom_site_type_symbol
 _atom_site_label
 _atom_site_symmetry_multiplicity
 _atom_site_fract_x
 _atom_site_fract_y
 _atom_site_fract_z
 _atom_site_occupancy
  Lu  Lu0  1  0.710693  0.000000  0.289306  1
  Lu  Lu1  1  0.289307  0.000000  0.289307  1
  Lu  Lu2  1  0.289307  0.578614  0.289307  1
  Lu  Lu3  1  0.710693  0.000000  0.710693  1
  Lu  Lu4  1  0.289306  0.000000  0.710693  1
  Lu  Lu5  1  0.710693  0.421387  0.710693  1
  Al  Al6  1  0.333298  0.666594  0.999891  1
  Al  Al7  1  0.879067  0.758132  0.120934  1
  Al  Al8  1  0.362803  0.241869  0.120934  1
  Al  Al9  1  0.879067  0.241869  0.120934  1
  Al  Al10  1  0.666703  0.333407  0.333298  1
  Al  Al11  1  0.999891  0.666594  0.333298  1
  Al  Al12  1  0.666703  0.666594  0.333298  1
  Al  Al13  1  0.120934  0.241869  0.362803  1
  Al  Al14  1  0.879067  0.758132  0.637198  1
  Al  Al15  1  0.333298  0.333407  0.666703  1
  Al  Al16  1  0.000108  0.333407  0.666703  1
  Al  Al17  1  0.333298  0.666594  0.666703  1
  Al  Al18  1  0.120934  0.241869  0.879067  1
  Al  Al19  1  0.120934  0.758132  0.879067  1
  Al  Al20  1  0.637198  0.758132  0.879067  1
  Al  Al21  1  0.666703  0.333407  0.000108  1
  Os  Os22  1  0.000000  0.000000  0.000000  1
  Os  Os23  1  0.500000  0.000000  0.000000  1
  Os  Os24  1  0.000000  0.500000  0.000000  1
  Os  Os25  1  0.500000  0.500000  0.000000  1
  Os  Os26  1  0.000000  0.000000  0.500000  1
  Os  Os27  1  0.000000  0.500000  0.500000  1
  Os  Os28  1  0.500000  0.500000  0.500000  1
