# generated using pymatgen
data_Ho10In8Pd3Pt
_symmetry_space_group_name_H-M   'P 1'
_cell_length_a   3.61677400
_cell_length_b   8.13458463
_cell_length_c   18.22494600
_cell_angle_alpha   90.03620022
_cell_angle_beta   90.00000000
_cell_angle_gamma   90.00000000
_symmetry_Int_Tables_number   1
_chemical_formula_structural   Ho10In8Pd3Pt
_chemical_formula_sum   'Ho10 In8 Pd3 Pt1'
_cell_volume   536.19519414
_cell_formula_units_Z   1
loop_
 _symmetry_equiv_pos_site_id
 _symmetry_equiv_pos_as_xyz
  1  'x, y, z'
loop_
 _atom_site_type_symbol
 _atom_site_label
 _atom_site_symmetry_multiplicity
 _atom_site_fract_x
 _atom_site_fract_y
 _atom_site_fract_z
 _atom_site_occupancy
  Ho  Ho0  1  0.000000  0.117658  0.415672  1
  Ho  Ho1  1  0.000000  0.881945  0.584185  1
  Ho  Ho2  1  0.000000  0.382212  0.915806  1
  Ho  Ho3  1  0.000000  0.617387  0.084958  1
  Ho  Ho4  1  0.000000  0.246783  0.219688  1
  Ho  Ho5  1  0.000000  0.756977  0.780370  1
  Ho  Ho6  1  0.000000  0.257055  0.719633  1
  Ho  Ho7  1  0.000000  0.739562  0.279405  1
  Ho  Ho8  1  0.000000  0.999804  0.000165  1
  Ho  Ho9  1  0.000000  0.500290  0.499947  1
  In  In10  1  0.500000  0.421963  0.351531  1
  In  In11  1  0.500000  0.576730  0.649322  1
  In  In12  1  0.500000  0.076727  0.850676  1
  In  In13  1  0.500000  0.925224  0.149430  1
  In  In14  1  0.500000  0.291737  0.066359  1
  In  In15  1  0.500000  0.707673  0.932884  1
  In  In16  1  0.500000  0.207597  0.567084  1
  In  In17  1  0.500000  0.792710  0.432791  1
  Pd  Pd18  1  0.500000  0.024700  0.303561  1
  Pd  Pd19  1  0.500000  0.975061  0.696560  1
  Pd  Pd20  1  0.500000  0.475095  0.803429  1
  Pt  Pt21  1  0.500000  0.525108  0.196544  1
