# generated using pymatgen
data_Cu2B3Ir3Rh
_symmetry_space_group_name_H-M   'P 1'
_cell_length_a   12.78904770
_cell_length_b   12.78904772
_cell_length_c   2.78252200
_cell_angle_alpha   90.00000000
_cell_angle_beta   90.00000000
_cell_angle_gamma   166.83925968
_symmetry_Int_Tables_number   1
_chemical_formula_structural   Cu2B3Ir3Rh
_chemical_formula_sum   'Cu2 B3 Ir3 Rh1'
_cell_volume   103.62080957
_cell_formula_units_Z   1
loop_
 _symmetry_equiv_pos_site_id
 _symmetry_equiv_pos_as_xyz
  1  'x, y, z'
loop_
 _atom_site_type_symbol
 _atom_site_label
 _atom_site_symmetry_multiplicity
 _atom_site_fract_x
 _atom_site_fract_y
 _atom_site_fract_z
 _atom_site_occupancy
  Cu  Cu0  1  0.276556  0.723444  0.500000  1
  Cu  Cu1  1  0.719758  0.280242  0.000000  1
  B  B2  1  0.381861  0.618139  0.500000  1
  B  B3  1  0.615072  0.384928  0.000000  1
  B  B4  1  0.990543  0.009457  0.500000  1
  Ir  Ir5  1  0.849112  0.150888  0.000000  1
  Ir  Ir6  1  0.550145  0.449855  0.500000  1
  Ir  Ir7  1  0.451468  0.548532  0.000000  1
  Rh  Rh8  1  0.149484  0.850516  0.500000  1
