# generated using pymatgen
data_Eu3UO8
_symmetry_space_group_name_H-M   'P 1'
_cell_length_a   6.66320378
_cell_length_b   6.66320333
_cell_length_c   6.66320393
_cell_angle_alpha   131.81115108
_cell_angle_beta   131.81114911
_cell_angle_gamma   70.52745239
_symmetry_Int_Tables_number   1
_chemical_formula_structural   Eu3UO8
_chemical_formula_sum   'Eu3 U1 O8'
_cell_volume   161.02814078
_cell_formula_units_Z   1
loop_
 _symmetry_equiv_pos_site_id
 _symmetry_equiv_pos_as_xyz
  1  'x, y, z'
loop_
 _atom_site_type_symbol
 _atom_site_label
 _atom_site_symmetry_multiplicity
 _atom_site_fract_x
 _atom_site_fract_y
 _atom_site_fract_z
 _atom_site_occupancy
  Eu  Eu0  1  0.500000  0.500000  0.000000  1
  Eu  Eu1  1  0.250000  0.750000  0.500000  1
  Eu  Eu2  1  0.750000  0.250000  0.500000  1
  U  U3  1  0.000000  0.000000  0.000000  1
  O  O4  1  0.882331  0.882331  0.528085  1
  O  O5  1  0.882331  0.354245  0.000000  1
  O  O6  1  0.354245  0.882331  0.000000  1
  O  O7  1  0.354245  0.354245  0.471915  1
  O  O8  1  0.645755  0.645755  0.528085  1
  O  O9  1  0.645755  0.117669  0.000000  1
  O  O10  1  0.117669  0.645755  0.000000  1
  O  O11  1  0.117669  0.117669  0.471915  1
