# generated using pymatgen
data_La6Dy9Ho(CdIr)4
_symmetry_space_group_name_H-M   'P 1'
_cell_length_a   9.83979548
_cell_length_b   9.83979564
_cell_length_c   9.84470700
_cell_angle_alpha   59.98348410
_cell_angle_beta   59.98348356
_cell_angle_gamma   59.96596568
_symmetry_Int_Tables_number   1
_chemical_formula_structural   La6Dy9Ho(CdIr)4
_chemical_formula_sum   'La6 Dy9 Ho1 Cd4 Ir4'
_cell_volume   673.65836843
_cell_formula_units_Z   1
loop_
 _symmetry_equiv_pos_site_id
 _symmetry_equiv_pos_as_xyz
  1  'x, y, z'
loop_
 _atom_site_type_symbol
 _atom_site_label
 _atom_site_symmetry_multiplicity
 _atom_site_fract_x
 _atom_site_fract_y
 _atom_site_fract_z
 _atom_site_occupancy
  La  La0  1  0.193244  0.806635  0.806674  1
  La  La1  1  0.806635  0.193244  0.193447  1
  La  La2  1  0.806635  0.193244  0.806674  1
  La  La3  1  0.193244  0.806635  0.193447  1
  La  La4  1  0.806896  0.806896  0.193104  1
  La  La5  1  0.193474  0.193474  0.806526  1
  Dy  Dy6  1  0.596627  0.596627  0.596439  1
  Dy  Dy7  1  0.596627  0.596627  0.210307  1
  Dy  Dy8  1  0.596893  0.210067  0.596520  1
  Dy  Dy9  1  0.210067  0.596893  0.596520  1
  Dy  Dy10  1  0.063079  0.436354  0.436962  1
  Dy  Dy11  1  0.436354  0.063079  0.063605  1
  Dy  Dy12  1  0.436354  0.063079  0.436962  1
  Dy  Dy13  1  0.063079  0.436354  0.063605  1
  Dy  Dy14  1  0.436704  0.436704  0.063296  1
  Ho  Ho15  1  0.063317  0.063317  0.436683  1
  Cd  Cd16  1  0.828735  0.828735  0.828557  1
  Cd  Cd17  1  0.828735  0.828735  0.513972  1
  Cd  Cd18  1  0.828828  0.513819  0.828676  1
  Cd  Cd19  1  0.513819  0.828828  0.828676  1
  Ir  Ir20  1  0.391325  0.391325  0.390835  1
  Ir  Ir21  1  0.391325  0.391325  0.826514  1
  Ir  Ir22  1  0.391124  0.826877  0.391000  1
  Ir  Ir23  1  0.826877  0.391124  0.391000  1
