# generated using pymatgen
data_Ca3Dy12Nb5(ReN4)12
_symmetry_space_group_name_H-M   'P 1'
_cell_length_a   11.14040561
_cell_length_b   11.22229484
_cell_length_c   11.22317149
_cell_angle_alpha   109.55501143
_cell_angle_beta   109.48126740
_cell_angle_gamma   109.25424896
_symmetry_Int_Tables_number   1
_chemical_formula_structural   Ca3Dy12Nb5(ReN4)12
_chemical_formula_sum   'Ca3 Dy12 Nb5 Re12 N48'
_cell_volume   1081.76311399
_cell_formula_units_Z   1
loop_
 _symmetry_equiv_pos_site_id
 _symmetry_equiv_pos_as_xyz
  1  'x, y, z'
loop_
 _atom_site_type_symbol
 _atom_site_label
 _atom_site_symmetry_multiplicity
 _atom_site_fract_x
 _atom_site_fract_y
 _atom_site_fract_z
 _atom_site_occupancy
  Ca  Ca0  1  0.999990  0.000005  0.500003  1
  Ca  Ca1  1  0.500007  0.000012  0.500007  1
  Ca  Ca2  1  0.499989  0.499988  0.500000  1
  Dy  Dy3  1  0.248634  0.377459  0.120505  1
  Dy  Dy4  1  0.375724  0.746348  0.121902  1
  Dy  Dy5  1  0.371303  0.123440  0.246487  1
  Dy  Dy6  1  0.876652  0.622978  0.249908  1
  Dy  Dy7  1  0.748352  0.127700  0.371506  1
  Dy  Dy8  1  0.125857  0.247593  0.373825  1
  Dy  Dy9  1  0.874137  0.752404  0.626169  1
  Dy  Dy10  1  0.251644  0.872302  0.628494  1
  Dy  Dy11  1  0.123346  0.377015  0.750093  1
  Dy  Dy12  1  0.628700  0.876558  0.753508  1
  Dy  Dy13  1  0.624277  0.253649  0.878097  1
  Dy  Dy14  1  0.751366  0.622542  0.879491  1
  Nb  Nb15  1  0.000030  0.000027  0.000036  1
  Nb  Nb16  1  0.499998  0.000000  0.000001  1
  Nb  Nb17  1  0.000008  0.500006  0.000003  1
  Nb  Nb18  1  0.500005  0.499999  0.999998  1
  Nb  Nb19  1  0.000001  0.499996  0.500004  1
  Re  Re20  1  0.874402  0.251293  0.126873  1
  Re  Re21  1  0.749375  0.876892  0.122484  1
  Re  Re22  1  0.622752  0.367957  0.242993  1
  Re  Re23  1  0.120525  0.868612  0.239159  1
  Re  Re24  1  0.242422  0.620226  0.371642  1
  Re  Re25  1  0.627365  0.746450  0.371255  1
  Re  Re26  1  0.372631  0.253542  0.628740  1
  Re  Re27  1  0.757584  0.379786  0.628362  1
  Re  Re28  1  0.879480  0.131373  0.760848  1
  Re  Re29  1  0.377250  0.632042  0.757004  1
  Re  Re30  1  0.250633  0.123116  0.877514  1
  Re  Re31  1  0.125586  0.748710  0.873129  1
  N  N32  1  0.313586  0.898647  0.013436  1
  N  N33  1  0.206338  0.120675  0.022234  1
  N  N34  1  0.883588  0.401104  0.086151  1
  N  N35  1  0.704641  0.688496  0.089777  1
  N  N36  1  0.621556  0.413545  0.097171  1
  N  N37  1  0.970063  0.679728  0.091421  1
  N  N38  1  0.595723  0.909487  0.111787  1
  N  N39  1  0.010470  0.198719  0.111981  1
  N  N40  1  0.208442  0.594165  0.186763  1
  N  N41  1  0.472812  0.590897  0.183580  1
  N  N42  1  0.113832  0.020561  0.207373  1
  N  N43  1  0.587617  0.181791  0.205545  1
  N  N44  1  0.474037  0.369700  0.271878  1
  N  N45  1  0.299636  0.900842  0.264442  1
  N  N46  1  0.896433  0.028980  0.299630  1
  N  N47  1  0.914443  0.297615  0.315511  1
  N  N48  1  0.265213  0.465542  0.362295  1
  N  N49  1  0.603289  0.897564  0.364144  1
  N  N50  1  0.808276  0.510943  0.399625  1
  N  N51  1  0.101847  0.869287  0.393409  1
  N  N52  1  0.092713  0.618102  0.410631  1
  N  N53  1  0.805128  0.765557  0.401801  1
  N  N54  1  0.603927  0.205946  0.473367  1
  N  N55  1  0.369402  0.266784  0.470239  1
  N  N56  1  0.630588  0.733199  0.529751  1
  N  N57  1  0.396077  0.794068  0.526637  1
  N  N58  1  0.194875  0.234440  0.598198  1
  N  N59  1  0.907289  0.381898  0.589366  1
  N  N60  1  0.898150  0.130715  0.606597  1
  N  N61  1  0.191728  0.489059  0.600374  1
  N  N62  1  0.396712  0.102433  0.635856  1
  N  N63  1  0.734786  0.534467  0.637706  1
  N  N64  1  0.085555  0.702386  0.684496  1
  N  N65  1  0.103570  0.971026  0.700372  1
  N  N66  1  0.700368  0.099156  0.735559  1
  N  N67  1  0.525969  0.630299  0.728125  1
  N  N68  1  0.412382  0.818205  0.794451  1
  N  N69  1  0.886156  0.979419  0.792620  1
  N  N70  1  0.527187  0.409100  0.816418  1
  N  N71  1  0.791560  0.405840  0.813234  1
  N  N72  1  0.404282  0.090514  0.888209  1
  N  N73  1  0.989512  0.801273  0.888014  1
  N  N74  1  0.029931  0.320265  0.908580  1
  N  N75  1  0.378444  0.586453  0.902825  1
  N  N76  1  0.295356  0.311516  0.910222  1
  N  N77  1  0.116409  0.598893  0.913842  1
  N  N78  1  0.686412  0.101348  0.986555  1
  N  N79  1  0.793662  0.879323  0.977758  1
