# generated using pymatgen
data_TbDy2Ho2Sn3
_symmetry_space_group_name_H-M   'P 1'
_cell_length_a   8.97243848
_cell_length_b   8.96732626
_cell_length_c   6.53926200
_cell_angle_alpha   90.00000000
_cell_angle_beta   90.00000000
_cell_angle_gamma   119.98115368
_symmetry_Int_Tables_number   1
_chemical_formula_structural   TbDy2Ho2Sn3
_chemical_formula_sum   'Tb2 Dy4 Ho4 Sn6'
_cell_volume   455.73803457
_cell_formula_units_Z   2
loop_
 _symmetry_equiv_pos_site_id
 _symmetry_equiv_pos_as_xyz
  1  'x, y, z'
loop_
 _atom_site_type_symbol
 _atom_site_label
 _atom_site_symmetry_multiplicity
 _atom_site_fract_x
 _atom_site_fract_y
 _atom_site_fract_z
 _atom_site_occupancy
  Tb  Tb0  1  0.000000  0.761416  0.750000  1
  Tb  Tb1  1  0.000000  0.238584  0.250000  1
  Dy  Dy2  1  0.761118  0.761155  0.250000  1
  Dy  Dy3  1  0.761118  0.999963  0.750000  1
  Dy  Dy4  1  0.238882  0.238845  0.750000  1
  Dy  Dy5  1  0.238882  0.000037  0.250000  1
  Ho  Ho6  1  0.333427  0.666714  0.500000  1
  Ho  Ho7  1  0.666573  0.333286  0.000000  1
  Ho  Ho8  1  0.666573  0.333286  0.500000  1
  Ho  Ho9  1  0.333427  0.666714  0.000000  1
  Sn  Sn10  1  0.395798  0.000164  0.750000  1
  Sn  Sn11  1  0.395798  0.395634  0.250000  1
  Sn  Sn12  1  0.000000  0.604716  0.250000  1
  Sn  Sn13  1  0.000000  0.395284  0.750000  1
  Sn  Sn14  1  0.604202  0.604366  0.750000  1
  Sn  Sn15  1  0.604202  0.999836  0.250000  1
