# generated using pymatgen
data_Dy12GaNi4Pb
_symmetry_space_group_name_H-M   'P 1'
_cell_length_a   8.36558848
_cell_length_b   8.36558849
_cell_length_c   8.36558800
_cell_angle_alpha   109.61872349
_cell_angle_beta   106.18019650
_cell_angle_gamma   112.67984093
_symmetry_Int_Tables_number   1
_chemical_formula_structural   Dy12GaNi4Pb
_chemical_formula_sum   'Dy12 Ga1 Ni4 Pb1'
_cell_volume   449.23087109
_cell_formula_units_Z   1
loop_
 _symmetry_equiv_pos_site_id
 _symmetry_equiv_pos_as_xyz
  1  'x, y, z'
loop_
 _atom_site_type_symbol
 _atom_site_label
 _atom_site_symmetry_multiplicity
 _atom_site_fract_x
 _atom_site_fract_y
 _atom_site_fract_z
 _atom_site_occupancy
  Dy  Dy0  1  0.729623  0.302232  0.031856  1
  Dy  Dy1  1  0.785775  0.965346  0.179572  1
  Dy  Dy2  1  0.214225  0.393797  0.179572  1
  Dy  Dy3  1  0.133616  0.810776  0.322840  1
  Dy  Dy4  1  0.512063  0.189224  0.322840  1
  Dy  Dy5  1  0.729623  0.697767  0.427391  1
  Dy  Dy6  1  0.270378  0.302232  0.572610  1
  Dy  Dy7  1  0.487937  0.810776  0.677160  1
  Dy  Dy8  1  0.866384  0.189224  0.677160  1
  Dy  Dy9  1  0.785775  0.606202  0.820427  1
  Dy  Dy10  1  0.214225  0.034653  0.820427  1
  Dy  Dy11  1  0.270378  0.697767  0.968145  1
  Ga  Ga12  1  0.500000  0.500000  0.000000  1
  Ni  Ni13  1  0.121517  0.000000  0.121517  1
  Ni  Ni14  1  0.500000  0.849399  0.349399  1
  Ni  Ni15  1  0.500000  0.150601  0.650601  1
  Ni  Ni16  1  0.878483  0.000000  0.878483  1
  Pb  Pb17  1  0.000000  0.500000  0.500000  1
