# generated using pymatgen
data_Y2Ho3Ag2B4Rh13
_symmetry_space_group_name_H-M   'P 1'
_cell_length_a   4.20544400
_cell_length_b   4.20544400
_cell_length_c   20.97162100
_cell_angle_alpha   90.00000000
_cell_angle_beta   90.00000000
_cell_angle_gamma   90.00000000
_symmetry_Int_Tables_number   1
_chemical_formula_structural   Y2Ho3Ag2B4Rh13
_chemical_formula_sum   'Y2 Ho3 Ag2 B4 Rh13'
_cell_volume   370.89903982
_cell_formula_units_Z   1
loop_
 _symmetry_equiv_pos_site_id
 _symmetry_equiv_pos_as_xyz
  1  'x, y, z'
loop_
 _atom_site_type_symbol
 _atom_site_label
 _atom_site_symmetry_multiplicity
 _atom_site_fract_x
 _atom_site_fract_y
 _atom_site_fract_z
 _atom_site_occupancy
  Y  Y0  1  0.000000  0.000000  0.499969  1
  Y  Y1  1  0.000000  0.000000  0.699092  1
  Ho  Ho2  1  0.000000  0.000000  0.892294  1
  Ho  Ho3  1  0.000000  0.000000  0.107767  1
  Ho  Ho4  1  0.000000  0.000000  0.300877  1
  Ag  Ag5  1  0.500000  0.000000  0.999998  1
  Ag  Ag6  1  0.000000  0.500000  0.999998  1
  B  B7  1  0.500000  0.500000  0.193857  1
  B  B8  1  0.500000  0.500000  0.398876  1
  B  B9  1  0.500000  0.500000  0.601205  1
  B  B10  1  0.500000  0.500000  0.806094  1
  Rh  Rh11  1  0.500000  0.500000  0.903381  1
  Rh  Rh12  1  0.500000  0.500000  0.096653  1
  Rh  Rh13  1  0.500000  0.500000  0.298959  1
  Rh  Rh14  1  0.500000  0.500000  0.499962  1
  Rh  Rh15  1  0.500000  0.500000  0.701084  1
  Rh  Rh16  1  0.500000  0.000000  0.201718  1
  Rh  Rh17  1  0.500000  0.000000  0.399736  1
  Rh  Rh18  1  0.500000  0.000000  0.599819  1
  Rh  Rh19  1  0.500000  0.000000  0.798694  1
  Rh  Rh20  1  0.000000  0.500000  0.201718  1
  Rh  Rh21  1  0.000000  0.500000  0.399736  1
  Rh  Rh22  1  0.000000  0.500000  0.599819  1
  Rh  Rh23  1  0.000000  0.500000  0.798694  1
