# generated using pymatgen
data_Cs2Zn3CrAs4
_symmetry_space_group_name_H-M   'P 1'
_cell_length_a   8.13256189
_cell_length_b   8.13256304
_cell_length_c   5.91617700
_cell_angle_alpha   90.00000000
_cell_angle_beta   90.00000000
_cell_angle_gamma   137.02804457
_symmetry_Int_Tables_number   1
_chemical_formula_structural   Cs2Zn3CrAs4
_chemical_formula_sum   'Cs2 Zn3 Cr1 As4'
_cell_volume   266.71732993
_cell_formula_units_Z   1
loop_
 _symmetry_equiv_pos_site_id
 _symmetry_equiv_pos_as_xyz
  1  'x, y, z'
loop_
 _atom_site_type_symbol
 _atom_site_label
 _atom_site_symmetry_multiplicity
 _atom_site_fract_x
 _atom_site_fract_y
 _atom_site_fract_z
 _atom_site_occupancy
  Cs  Cs0  1  0.500000  0.000000  0.256409  1
  Cs  Cs1  1  0.000000  0.500000  0.743591  1
  Zn  Zn2  1  0.500000  0.500000  0.500000  1
  Zn  Zn3  1  0.500000  0.500000  0.000000  1
  Zn  Zn4  1  0.000000  0.000000  0.500000  1
  Cr  Cr5  1  0.000000  0.000000  0.000000  1
  As  As6  1  0.670497  0.859367  0.765696  1
  As  As7  1  0.140633  0.329503  0.234304  1
  As  As8  1  0.859367  0.670497  0.234304  1
  As  As9  1  0.329503  0.140633  0.765696  1
