# generated using pymatgen
data_RbLaDy(H6Ir)2
_symmetry_space_group_name_H-M   'P 1'
_cell_length_a   5.12430300
_cell_length_b   5.12430262
_cell_length_c   9.31085500
_cell_angle_alpha   90.00000000
_cell_angle_beta   90.00000000
_cell_angle_gamma   119.99998310
_symmetry_Int_Tables_number   1
_chemical_formula_structural   RbLaDy(H6Ir)2
_chemical_formula_sum   'Rb1 La1 Dy1 H12 Ir2'
_cell_volume   211.73362843
_cell_formula_units_Z   1
loop_
 _symmetry_equiv_pos_site_id
 _symmetry_equiv_pos_as_xyz
  1  'x, y, z'
loop_
 _atom_site_type_symbol
 _atom_site_label
 _atom_site_symmetry_multiplicity
 _atom_site_fract_x
 _atom_site_fract_y
 _atom_site_fract_z
 _atom_site_occupancy
  Rb  Rb0  1  0.000000  0.000000  0.004388  1
  La  La1  1  0.333333  0.666667  0.629895  1
  Dy  Dy2  1  0.666667  0.333333  0.364849  1
  H  H3  1  0.170687  0.829313  0.385265  1
  H  H4  1  0.658627  0.829313  0.385265  1
  H  H5  1  0.170687  0.341373  0.385265  1
  H  H6  1  0.824307  0.175693  0.606717  1
  H  H7  1  0.351387  0.175693  0.606717  1
  H  H8  1  0.824307  0.648613  0.606717  1
  H  H9  1  0.520658  0.041315  0.828454  1
  H  H10  1  0.520658  0.479342  0.828454  1
  H  H11  1  0.958685  0.479342  0.828454  1
  H  H12  1  0.488187  0.976374  0.179544  1
  H  H13  1  0.488187  0.511813  0.179544  1
  H  H14  1  0.023626  0.511813  0.179544  1
  Ir  Ir15  1  0.666667  0.333333  0.714040  1
  Ir  Ir16  1  0.333333  0.666667  0.286887  1
