# generated using pymatgen
data_Ag2HgF8
_symmetry_space_group_name_H-M   'P 1'
_cell_length_a   5.85046100
_cell_length_b   5.85046100
_cell_length_c   10.63155900
_cell_angle_alpha   90.00000000
_cell_angle_beta   90.00000000
_cell_angle_gamma   90.00000000
_symmetry_Int_Tables_number   1
_chemical_formula_structural   Ag2HgF8
_chemical_formula_sum   'Ag4 Hg2 F16'
_cell_volume   363.89587358
_cell_formula_units_Z   2
loop_
 _symmetry_equiv_pos_site_id
 _symmetry_equiv_pos_as_xyz
  1  'x, y, z'
loop_
 _atom_site_type_symbol
 _atom_site_label
 _atom_site_symmetry_multiplicity
 _atom_site_fract_x
 _atom_site_fract_y
 _atom_site_fract_z
 _atom_site_occupancy
  Ag  Ag0  1  0.500000  0.000000  0.500000  1
  Ag  Ag1  1  0.000000  0.500000  0.500000  1
  Ag  Ag2  1  0.500000  0.000000  0.000000  1
  Ag  Ag3  1  0.000000  0.500000  0.000000  1
  Hg  Hg4  1  0.000000  0.000000  0.750000  1
  Hg  Hg5  1  0.000000  0.000000  0.250000  1
  F  F6  1  0.688471  0.844995  0.627822  1
  F  F7  1  0.311529  0.155005  0.627822  1
  F  F8  1  0.844995  0.688471  0.872178  1
  F  F9  1  0.844995  0.311529  0.627822  1
  F  F10  1  0.155005  0.688471  0.627822  1
  F  F11  1  0.311529  0.844995  0.872178  1
  F  F12  1  0.844995  0.688471  0.127822  1
  F  F13  1  0.311529  0.844995  0.127822  1
  F  F14  1  0.688471  0.155005  0.127822  1
  F  F15  1  0.844995  0.311529  0.372178  1
  F  F16  1  0.155005  0.688471  0.372178  1
  F  F17  1  0.155005  0.311529  0.127822  1
  F  F18  1  0.688471  0.844995  0.372178  1
  F  F19  1  0.311529  0.155005  0.372178  1
  F  F20  1  0.155005  0.311529  0.872178  1
  F  F21  1  0.688471  0.155005  0.872178  1
