# generated using pymatgen
data_Pt4Se11
_symmetry_space_group_name_H-M   'P 1'
_cell_length_a   16.20094097
_cell_length_b   16.20094219
_cell_length_c   6.75146622
_cell_angle_alpha   87.94697819
_cell_angle_beta   87.94697828
_cell_angle_gamma   13.50255900
_symmetry_Int_Tables_number   1
_chemical_formula_structural   Pt4Se11
_chemical_formula_sum   'Pt4 Se11'
_cell_volume   413.48701712
_cell_formula_units_Z   1
loop_
 _symmetry_equiv_pos_site_id
 _symmetry_equiv_pos_as_xyz
  1  'x, y, z'
loop_
 _atom_site_type_symbol
 _atom_site_label
 _atom_site_symmetry_multiplicity
 _atom_site_fract_x
 _atom_site_fract_y
 _atom_site_fract_z
 _atom_site_occupancy
  Pt  Pt0  1  0.005530  0.005530  0.002518  1
  Pt  Pt1  1  0.605474  0.605474  0.000638  1
  Pt  Pt2  1  0.205868  0.205868  0.997170  1
  Pt  Pt3  1  0.805930  0.805930  0.998448  1
  Se  Se4  1  0.405767  0.405767  0.001292  1
  Se  Se5  1  0.674783  0.674783  0.808459  1
  Se  Se6  1  0.275537  0.275537  0.807202  1
  Se  Se7  1  0.873479  0.873479  0.787055  1
  Se  Se8  1  0.536082  0.536082  0.193001  1
  Se  Se9  1  0.136567  0.136567  0.188985  1
  Se  Se10  1  0.736751  0.736751  0.186170  1
  Se  Se11  1  0.332845  0.332845  0.201862  1
  Se  Se12  1  0.938146  0.938146  0.215361  1
  Se  Se13  1  0.074418  0.074418  0.812363  1
  Se  Se14  1  0.478544  0.478544  0.799477  1
