# generated using pymatgen
data_Er5Sc3Cr2(B12Rh)2
_symmetry_space_group_name_H-M   'P 1'
_cell_length_a   3.52216400
_cell_length_b   9.00029467
_cell_length_c   11.38457405
_cell_angle_alpha   89.84764776
_cell_angle_beta   90.00000000
_cell_angle_gamma   90.00000000
_symmetry_Int_Tables_number   1
_chemical_formula_structural   Er5Sc3Cr2(B12Rh)2
_chemical_formula_sum   'Er5 Sc3 Cr2 B24 Rh2'
_cell_volume   360.89557169
_cell_formula_units_Z   1
loop_
 _symmetry_equiv_pos_site_id
 _symmetry_equiv_pos_as_xyz
  1  'x, y, z'
loop_
 _atom_site_type_symbol
 _atom_site_label
 _atom_site_symmetry_multiplicity
 _atom_site_fract_x
 _atom_site_fract_y
 _atom_site_fract_z
 _atom_site_occupancy
  Er  Er0  1  0.000000  0.817936  0.088056  1
  Er  Er1  1  0.000000  0.182433  0.910171  1
  Er  Er2  1  0.000000  0.324116  0.418052  1
  Er  Er3  1  0.000000  0.676206  0.583622  1
  Er  Er4  1  0.000000  0.447046  0.128091  1
  Sc  Sc5  1  0.000000  0.552441  0.869364  1
  Sc  Sc6  1  0.000000  0.940426  0.374974  1
  Sc  Sc7  1  0.000000  0.059704  0.625946  1
  Cr  Cr8  1  0.000000  0.642863  0.319586  1
  Cr  Cr9  1  0.000000  0.359236  0.681728  1
  B  B10  1  0.500000  0.052831  0.066019  1
  B  B11  1  0.500000  0.945224  0.933170  1
  B  B12  1  0.500000  0.554650  0.433617  1
  B  B13  1  0.500000  0.446247  0.567827  1
  B  B14  1  0.500000  0.249963  0.079371  1
  B  B15  1  0.500000  0.746429  0.918967  1
  B  B16  1  0.500000  0.752141  0.419478  1
  B  B17  1  0.500000  0.248588  0.581335  1
  B  B18  1  0.500000  0.291448  0.237100  1
  B  B19  1  0.500000  0.705971  0.763933  1
  B  B20  1  0.500000  0.795110  0.266456  1
  B  B21  1  0.500000  0.206074  0.734079  1
  B  B22  1  0.500000  0.127995  0.319139  1
  B  B23  1  0.500000  0.871327  0.681549  1
  B  B24  1  0.500000  0.632849  0.185354  1
  B  B25  1  0.500000  0.370281  0.815401  1
  B  B26  1  0.500000  0.482948  0.289068  1
  B  B27  1  0.500000  0.518606  0.713215  1
  B  B28  1  0.500000  0.979953  0.215113  1
  B  B29  1  0.500000  0.019642  0.785074  1
  B  B30  1  0.500000  0.099445  0.473124  1
  B  B31  1  0.500000  0.900516  0.527761  1
  B  B32  1  0.500000  0.603859  0.024714  1
  B  B33  1  0.500000  0.397991  0.969730  1
  Rh  Rh34  1  0.000000  0.136669  0.180923  1
  Rh  Rh35  1  0.000000  0.860837  0.818891  1
