# generated using pymatgen
data_LaPrNi2I
_symmetry_space_group_name_H-M   'P 1'
_cell_length_a   4.11253700
_cell_length_b   4.11253767
_cell_length_c   17.70565500
_cell_angle_alpha   90.00000000
_cell_angle_beta   90.00000000
_cell_angle_gamma   120.00000266
_symmetry_Int_Tables_number   1
_chemical_formula_structural   LaPrNi2I
_chemical_formula_sum   'La2 Pr2 Ni4 I2'
_cell_volume   259.33571150
_cell_formula_units_Z   2
loop_
 _symmetry_equiv_pos_site_id
 _symmetry_equiv_pos_as_xyz
  1  'x, y, z'
loop_
 _atom_site_type_symbol
 _atom_site_label
 _atom_site_symmetry_multiplicity
 _atom_site_fract_x
 _atom_site_fract_y
 _atom_site_fract_z
 _atom_site_occupancy
  La  La0  1  0.000000  0.000000  0.605458  1
  La  La1  1  0.000000  0.000000  0.394542  1
  Pr  Pr2  1  0.000000  0.000000  0.104520  1
  Pr  Pr3  1  0.000000  0.000000  0.895480  1
  Ni  Ni4  1  0.666667  0.333333  0.500458  1
  Ni  Ni5  1  0.333333  0.666667  0.000667  1
  Ni  Ni6  1  0.666667  0.333333  0.999333  1
  Ni  Ni7  1  0.333333  0.666667  0.499542  1
  I  I8  1  0.666667  0.333333  0.249062  1
  I  I9  1  0.333333  0.666667  0.750938  1
