# generated using pymatgen
data_Nd2NiB8Rh
_symmetry_space_group_name_H-M   'P 1'
_cell_length_a   7.01672399
_cell_length_b   7.01672438
_cell_length_c   7.01672424
_cell_angle_alpha   111.27279762
_cell_angle_beta   113.15346678
_cell_angle_gamma   104.12249714
_symmetry_Int_Tables_number   1
_chemical_formula_structural   Nd2NiB8Rh
_chemical_formula_sum   'Nd4 Ni2 B16 Rh2'
_cell_volume   264.14333433
_cell_formula_units_Z   2
loop_
 _symmetry_equiv_pos_site_id
 _symmetry_equiv_pos_as_xyz
  1  'x, y, z'
loop_
 _atom_site_type_symbol
 _atom_site_label
 _atom_site_symmetry_multiplicity
 _atom_site_fract_x
 _atom_site_fract_y
 _atom_site_fract_z
 _atom_site_occupancy
  Nd  Nd0  1  0.791530  0.791530  0.000000  1
  Nd  Nd1  1  0.208470  0.208470  0.000000  1
  Nd  Nd2  1  0.750470  0.250470  0.500000  1
  Nd  Nd3  1  0.249530  0.749530  0.500000  1
  Ni  Ni4  1  0.500000  0.741172  0.241172  1
  Ni  Ni5  1  0.500000  0.258828  0.758828  1
  B  B6  1  0.274578  0.109806  0.384384  1
  B  B7  1  0.725422  0.890194  0.615616  1
  B  B8  1  0.274578  0.890194  0.164772  1
  B  B9  1  0.725422  0.109806  0.835228  1
  B  B10  1  0.111467  0.730062  0.841529  1
  B  B11  1  0.888533  0.269938  0.158471  1
  B  B12  1  0.111467  0.269938  0.381406  1
  B  B13  1  0.888533  0.730062  0.618594  1
  B  B14  1  0.113906  0.109304  0.525602  1
  B  B15  1  0.583702  0.588303  0.474398  1
  B  B16  1  0.113906  0.588303  0.004602  1
  B  B17  1  0.583702  0.109304  0.995398  1
  B  B18  1  0.886094  0.890696  0.474398  1
  B  B19  1  0.416298  0.411697  0.525602  1
  B  B20  1  0.886095  0.411697  0.995398  1
  B  B21  1  0.416298  0.890697  0.004602  1
  Rh  Rh22  1  0.276008  0.500000  0.776008  1
  Rh  Rh23  1  0.723992  0.500000  0.223992  1
