# generated using pymatgen
data_K4SrUSe6
_symmetry_space_group_name_H-M   'P 1'
_cell_length_a   7.77697896
_cell_length_b   7.77704347
_cell_length_c   8.00067289
_cell_angle_alpha   80.46927930
_cell_angle_beta   80.46934673
_cell_angle_gamma   119.87994124
_symmetry_Int_Tables_number   1
_chemical_formula_structural   K4SrUSe6
_chemical_formula_sum   'K4 Sr1 U1 Se6'
_cell_volume   395.98714243
_cell_formula_units_Z   1
loop_
 _symmetry_equiv_pos_site_id
 _symmetry_equiv_pos_as_xyz
  1  'x, y, z'
loop_
 _atom_site_type_symbol
 _atom_site_label
 _atom_site_symmetry_multiplicity
 _atom_site_fract_x
 _atom_site_fract_y
 _atom_site_fract_z
 _atom_site_occupancy
  K  K0  1  0.340362  0.659625  0.500001  1
  K  K1  1  0.657169  0.342833  0.500009  1
  K  K2  1  0.000986  0.999031  0.499995  1
  K  K3  1  0.499863  0.500131  0.999986  1
  Sr  Sr4  1  0.167557  0.832434  0.999998  1
  U  U5  1  0.832932  0.167103  0.999986  1
  Se  Se6  1  0.777712  0.814933  0.208989  1
  Se  Se7  1  0.468284  0.080992  0.211895  1
  Se  Se8  1  0.039633  0.388560  0.208068  1
  Se  Se9  1  0.611439  0.960363  0.791932  1
  Se  Se10  1  0.919011  0.531708  0.788121  1
  Se  Se11  1  0.185053  0.222287  0.791021  1
