# generated using pymatgen
data_LaZn4Pd
_symmetry_space_group_name_H-M   'P 1'
_cell_length_a   4.39324600
_cell_length_b   5.40950902
_cell_length_c   5.40952833
_cell_angle_alpha   60.00182180
_cell_angle_beta   90.00000000
_cell_angle_gamma   90.00000000
_symmetry_Int_Tables_number   1
_chemical_formula_structural   LaZn4Pd
_chemical_formula_sum   'La1 Zn4 Pd1'
_cell_volume   111.33747676
_cell_formula_units_Z   1
loop_
 _symmetry_equiv_pos_site_id
 _symmetry_equiv_pos_as_xyz
  1  'x, y, z'
loop_
 _atom_site_type_symbol
 _atom_site_label
 _atom_site_symmetry_multiplicity
 _atom_site_fract_x
 _atom_site_fract_y
 _atom_site_fract_z
 _atom_site_occupancy
  La  La0  1  0.000000  0.999966  0.999986  1
  Zn  Zn1  1  0.000000  0.666611  0.666612  1
  Zn  Zn2  1  0.500000  0.499639  0.499631  1
  Zn  Zn3  1  0.500000  0.499568  0.000798  1
  Zn  Zn4  1  0.500000  0.000758  0.499590  1
  Pd  Pd5  1  0.000000  0.333358  0.333483  1
