# generated using pymatgen
data_Li2La10Pr6CdInIr4
_symmetry_space_group_name_H-M   'P 1'
_cell_length_a   10.10779299
_cell_length_b   10.10779266
_cell_length_c   10.10620900
_cell_angle_alpha   60.00518597
_cell_angle_beta   60.00518704
_cell_angle_gamma   59.99157467
_symmetry_Int_Tables_number   1
_chemical_formula_structural   Li2La10Pr6CdInIr4
_chemical_formula_sum   'Li2 La10 Pr6 Cd1 In1 Ir4'
_cell_volume   730.11675879
_cell_formula_units_Z   1
loop_
 _symmetry_equiv_pos_site_id
 _symmetry_equiv_pos_as_xyz
  1  'x, y, z'
loop_
 _atom_site_type_symbol
 _atom_site_label
 _atom_site_symmetry_multiplicity
 _atom_site_fract_x
 _atom_site_fract_y
 _atom_site_fract_z
 _atom_site_occupancy
  Li  Li0  1  0.571804  0.571530  0.576746  1
  Li  Li1  1  0.571804  0.571530  0.279921  1
  La  La2  1  0.347588  0.347645  0.347797  1
  La  La3  1  0.347588  0.347645  0.956969  1
  La  La4  1  0.347125  0.960541  0.346167  1
  La  La5  1  0.960137  0.346796  0.346533  1
  La  La6  1  0.810134  0.190295  0.191353  1
  La  La7  1  0.189573  0.811318  0.809418  1
  La  La8  1  0.189573  0.811318  0.189689  1
  La  La9  1  0.810134  0.190295  0.808217  1
  La  La10  1  0.193434  0.192208  0.807179  1
  La  La11  1  0.814491  0.814959  0.185275  1
  Pr  Pr12  1  0.937537  0.562611  0.563828  1
  Pr  Pr13  1  0.562568  0.937386  0.936673  1
  Pr  Pr14  1  0.562568  0.937386  0.563372  1
  Pr  Pr15  1  0.937537  0.562611  0.936025  1
  Pr  Pr16  1  0.563828  0.563049  0.936561  1
  Pr  Pr17  1  0.938255  0.937005  0.562370  1
  Cd  Cd18  1  0.257452  0.582533  0.580007  1
  In  In19  1  0.582488  0.257618  0.579947  1
  Ir  Ir20  1  0.141956  0.141712  0.140256  1
  Ir  Ir21  1  0.141956  0.141712  0.576075  1
  Ir  Ir22  1  0.142697  0.578063  0.139620  1
  Ir  Ir23  1  0.577770  0.142231  0.139999  1
