# generated using pymatgen
data_TmTaSnB2Ru5
_symmetry_space_group_name_H-M   'P 1'
_cell_length_a   9.60561534
_cell_length_b   9.60561580
_cell_length_c   3.08784500
_cell_angle_alpha   90.00000000
_cell_angle_beta   90.00000000
_cell_angle_gamma   91.45182832
_symmetry_Int_Tables_number   1
_chemical_formula_structural   TmTaSnB2Ru5
_chemical_formula_sum   'Tm2 Ta2 Sn2 B4 Ru10'
_cell_volume   284.81735919
_cell_formula_units_Z   2
loop_
 _symmetry_equiv_pos_site_id
 _symmetry_equiv_pos_as_xyz
  1  'x, y, z'
loop_
 _atom_site_type_symbol
 _atom_site_label
 _atom_site_symmetry_multiplicity
 _atom_site_fract_x
 _atom_site_fract_y
 _atom_site_fract_z
 _atom_site_occupancy
  Tm  Tm0  1  0.823992  0.676008  0.000000  1
  Tm  Tm1  1  0.176008  0.323992  0.000000  1
  Ta  Ta2  1  0.325318  0.825318  0.000000  1
  Ta  Ta3  1  0.674682  0.174682  0.000000  1
  Sn  Sn4  1  0.500000  0.500000  0.000000  1
  Sn  Sn5  1  0.000000  0.000000  0.000000  1
  B  B6  1  0.620308  0.879692  0.000000  1
  B  B7  1  0.379692  0.120308  0.000000  1
  B  B8  1  0.121660  0.621660  0.000000  1
  B  B9  1  0.878340  0.378340  0.000000  1
  Ru  Ru10  1  0.555845  0.727615  0.500000  1
  Ru  Ru11  1  0.444155  0.272385  0.500000  1
  Ru  Ru12  1  0.085685  0.783300  0.500000  1
  Ru  Ru13  1  0.914315  0.216700  0.500000  1
  Ru  Ru14  1  0.283300  0.585685  0.500000  1
  Ru  Ru15  1  0.716700  0.414315  0.500000  1
  Ru  Ru16  1  0.227615  0.055845  0.500000  1
  Ru  Ru17  1  0.772385  0.944155  0.500000  1
  Ru  Ru18  1  0.500000  0.000000  0.500000  1
  Ru  Ru19  1  0.000000  0.500000  0.500000  1
