# generated using pymatgen
data_Nd8Be2ZnSi12Pd
_symmetry_space_group_name_H-M   'P 1'
_cell_length_a   8.08590700
_cell_length_b   8.08591219
_cell_length_c   8.60810500
_cell_angle_alpha   89.99999291
_cell_angle_beta   90.00001417
_cell_angle_gamma   119.99999105
_symmetry_Int_Tables_number   1
_chemical_formula_structural   Nd8Be2ZnSi12Pd
_chemical_formula_sum   'Nd8 Be2 Zn1 Si12 Pd1'
_cell_volume   487.41174423
_cell_formula_units_Z   1
loop_
 _symmetry_equiv_pos_site_id
 _symmetry_equiv_pos_as_xyz
  1  'x, y, z'
loop_
 _atom_site_type_symbol
 _atom_site_label
 _atom_site_symmetry_multiplicity
 _atom_site_fract_x
 _atom_site_fract_y
 _atom_site_fract_z
 _atom_site_occupancy
  Nd  Nd0  1  0.499672  0.500327  0.754422  1
  Nd  Nd1  1  0.499757  0.500243  0.245590  1
  Nd  Nd2  1  0.000655  0.500327  0.754422  1
  Nd  Nd3  1  0.000486  0.500243  0.245590  1
  Nd  Nd4  1  0.499672  0.999345  0.754422  1
  Nd  Nd5  1  0.499757  0.999514  0.245590  1
  Nd  Nd6  1  0.000000  0.000000  0.751642  1
  Nd  Nd7  1  0.000000  0.000000  0.248372  1
  Be  Be8  1  0.666667  0.333333  0.999294  1
  Be  Be9  1  0.333333  0.666667  0.000695  1
  Zn  Zn10  1  0.333333  0.666667  0.499780  1
  Si  Si11  1  0.827588  0.172412  0.000102  1
  Si  Si12  1  0.172149  0.827851  0.999957  1
  Si  Si13  1  0.344825  0.172412  0.000102  1
  Si  Si14  1  0.163720  0.836280  0.499923  1
  Si  Si15  1  0.655703  0.827851  0.999957  1
  Si  Si16  1  0.832161  0.167839  0.500095  1
  Si  Si17  1  0.827588  0.655175  0.000102  1
  Si  Si18  1  0.672559  0.836279  0.499923  1
  Si  Si19  1  0.172149  0.344297  0.999957  1
  Si  Si20  1  0.335679  0.167839  0.500095  1
  Si  Si21  1  0.163721  0.327441  0.499923  1
  Si  Si22  1  0.832161  0.664321  0.500095  1
  Pd  Pd23  1  0.666667  0.333333  0.499953  1
