# generated using pymatgen
data_CeEuFe4Co8P7
_symmetry_space_group_name_H-M   'P 1'
_cell_length_a   9.02301062
_cell_length_b   9.01552520
_cell_length_c   3.62994300
_cell_angle_alpha   90.00000000
_cell_angle_beta   90.00000000
_cell_angle_gamma   120.07194638
_symmetry_Int_Tables_number   1
_chemical_formula_structural   CeEuFe4Co8P7
_chemical_formula_sum   'Ce1 Eu1 Fe4 Co8 P7'
_cell_volume   255.53925589
_cell_formula_units_Z   1
loop_
 _symmetry_equiv_pos_site_id
 _symmetry_equiv_pos_as_xyz
  1  'x, y, z'
loop_
 _atom_site_type_symbol
 _atom_site_label
 _atom_site_symmetry_multiplicity
 _atom_site_fract_x
 _atom_site_fract_y
 _atom_site_fract_z
 _atom_site_occupancy
  Ce  Ce0  1  0.001231  0.000412  0.000000  1
  Eu  Eu1  1  0.333437  0.667058  0.500000  1
  Fe  Fe2  1  0.393317  0.216039  0.000000  1
  Fe  Fe3  1  0.883709  0.429628  0.500000  1
  Fe  Fe4  1  0.546552  0.115507  0.500000  1
  Fe  Fe5  1  0.568410  0.455046  0.500000  1
  Co  Co6  1  0.096427  0.389720  0.000000  1
  Co  Co7  1  0.293576  0.902660  0.000000  1
  Co  Co8  1  0.610487  0.706872  0.000000  1
  Co  Co9  1  0.821950  0.605194  0.000000  1
  Co  Co10  1  0.783925  0.177371  0.000000  1
  Co  Co11  1  0.047261  0.768976  0.500000  1
  Co  Co12  1  0.721357  0.952388  0.500000  1
  Co  Co13  1  0.231201  0.279171  0.500000  1
  P  P14  1  0.074121  0.630078  0.000000  1
  P  P15  1  0.555441  0.926351  0.000000  1
  P  P16  1  0.369904  0.443686  0.000000  1
  P  P17  1  0.773275  0.730250  0.500000  1
  P  P18  1  0.957398  0.227198  0.500000  1
  P  P19  1  0.271874  0.044545  0.500000  1
  P  P20  1  0.665147  0.331849  0.000000  1
