# generated using pymatgen
data_Dy3Ho3Ni20P13
_symmetry_space_group_name_H-M   'P 1'
_cell_length_a   12.67424300
_cell_length_b   12.67424413
_cell_length_c   3.75877500
_cell_angle_alpha   90.00000000
_cell_angle_beta   90.00000000
_cell_angle_gamma   119.99999445
_symmetry_Int_Tables_number   1
_chemical_formula_structural   Dy3Ho3Ni20P13
_chemical_formula_sum   'Dy3 Ho3 Ni20 P13'
_cell_volume   522.90293943
_cell_formula_units_Z   1
loop_
 _symmetry_equiv_pos_site_id
 _symmetry_equiv_pos_as_xyz
  1  'x, y, z'
loop_
 _atom_site_type_symbol
 _atom_site_label
 _atom_site_symmetry_multiplicity
 _atom_site_fract_x
 _atom_site_fract_y
 _atom_site_fract_z
 _atom_site_occupancy
  Dy  Dy0  1  0.469976  0.281618  0.000000  1
  Dy  Dy1  1  0.718382  0.188357  0.000000  1
  Dy  Dy2  1  0.811643  0.530024  0.000000  1
  Ho  Ho3  1  0.188345  0.470218  0.500000  1
  Ho  Ho4  1  0.529782  0.718126  0.500000  1
  Ho  Ho5  1  0.281874  0.811655  0.500000  1
  Ni  Ni6  1  0.195910  0.104093  0.000000  1
  Ni  Ni7  1  0.895907  0.091817  0.000000  1
  Ni  Ni8  1  0.908183  0.804090  0.000000  1
  Ni  Ni9  1  0.666667  0.333333  0.500000  1
  Ni  Ni10  1  0.072843  0.151136  0.500000  1
  Ni  Ni11  1  0.848864  0.921707  0.500000  1
  Ni  Ni12  1  0.078293  0.927157  0.500000  1
  Ni  Ni13  1  0.333333  0.666667  0.000000  1
  Ni  Ni14  1  0.437910  0.020551  0.000000  1
  Ni  Ni15  1  0.979449  0.417360  0.000000  1
  Ni  Ni16  1  0.582640  0.562090  0.000000  1
  Ni  Ni17  1  0.316998  0.069532  0.500000  1
  Ni  Ni18  1  0.930468  0.247468  0.500000  1
  Ni  Ni19  1  0.752532  0.683002  0.500000  1
  Ni  Ni20  1  0.022563  0.587926  0.500000  1
  Ni  Ni21  1  0.412074  0.434636  0.500000  1
  Ni  Ni22  1  0.565364  0.977437  0.500000  1
  Ni  Ni23  1  0.241501  0.320270  0.000000  1
  Ni  Ni24  1  0.679730  0.921231  0.000000  1
  Ni  Ni25  1  0.078769  0.758499  0.000000  1
  P  P26  1  0.523817  0.136619  0.500000  1
  P  P27  1  0.863381  0.387197  0.500000  1
  P  P28  1  0.612803  0.476183  0.500000  1
  P  P29  1  0.278725  0.231864  0.500000  1
  P  P30  1  0.768136  0.046861  0.500000  1
  P  P31  1  0.953139  0.721275  0.500000  1
  P  P32  1  0.138227  0.614907  0.000000  1
  P  P33  1  0.385093  0.523319  0.000000  1
  P  P34  1  0.476681  0.861773  0.000000  1
  P  P35  1  0.048739  0.283678  0.000000  1
  P  P36  1  0.716322  0.765060  0.000000  1
  P  P37  1  0.234940  0.951261  0.000000  1
  P  P38  1  0.000000  0.000000  0.000000  1
