# generated using pymatgen
data_Ce10Al3Tc6Ge
_symmetry_space_group_name_H-M   'P 1'
_cell_length_a   8.38610315
_cell_length_b   8.38610417
_cell_length_c   8.38610437
_cell_angle_alpha   109.57706955
_cell_angle_beta   109.57706876
_cell_angle_gamma   109.57706972
_symmetry_Int_Tables_number   1
_chemical_formula_structural   Ce10Al3Tc6Ge
_chemical_formula_sum   'Ce10 Al3 Tc6 Ge1'
_cell_volume   452.21514445
_cell_formula_units_Z   1
loop_
 _symmetry_equiv_pos_site_id
 _symmetry_equiv_pos_as_xyz
  1  'x, y, z'
loop_
 _atom_site_type_symbol
 _atom_site_label
 _atom_site_symmetry_multiplicity
 _atom_site_fract_x
 _atom_site_fract_y
 _atom_site_fract_z
 _atom_site_occupancy
  Ce  Ce0  1  0.779505  0.779505  0.779505  1
  Ce  Ce1  1  0.306558  0.555476  0.749484  1
  Ce  Ce2  1  0.749484  0.306558  0.555476  1
  Ce  Ce3  1  0.555476  0.749484  0.306558  1
  Ce  Ce4  1  0.713364  0.499610  0.002150  1
  Ce  Ce5  1  0.002150  0.713364  0.499610  1
  Ce  Ce6  1  0.499610  0.002150  0.713364  1
  Ce  Ce7  1  0.247890  0.196883  0.950202  1
  Ce  Ce8  1  0.950202  0.247890  0.196883  1
  Ce  Ce9  1  0.196883  0.950202  0.247890  1
  Al  Al10  1  0.089178  0.501339  0.000039  1
  Al  Al11  1  0.000039  0.089178  0.501339  1
  Al  Al12  1  0.501339  0.000039  0.089178  1
  Tc  Tc13  1  0.871890  0.119757  0.750584  1
  Tc  Tc14  1  0.750584  0.871890  0.119757  1
  Tc  Tc15  1  0.119757  0.750584  0.871890  1
  Tc  Tc16  1  0.255209  0.629200  0.379172  1
  Tc  Tc17  1  0.379172  0.255209  0.629200  1
  Tc  Tc18  1  0.629200  0.379172  0.255209  1
  Ge  Ge19  1  0.402510  0.402510  0.402510  1
