# generated using pymatgen
data_Ca3Pa(Si3Ni5)4
_symmetry_space_group_name_H-M   'P 1'
_cell_length_a   18.78243396
_cell_length_b   3.78006500
_cell_length_c   6.68255100
_cell_angle_alpha   90.00000000
_cell_angle_beta   89.87052150
_cell_angle_gamma   90.00000000
_symmetry_Int_Tables_number   1
_chemical_formula_structural   Ca3Pa(Si3Ni5)4
_chemical_formula_sum   'Ca3 Pa1 Si12 Ni20'
_cell_volume   474.45203230
_cell_formula_units_Z   1
loop_
 _symmetry_equiv_pos_site_id
 _symmetry_equiv_pos_as_xyz
  1  'x, y, z'
loop_
 _atom_site_type_symbol
 _atom_site_label
 _atom_site_symmetry_multiplicity
 _atom_site_fract_x
 _atom_site_fract_y
 _atom_site_fract_z
 _atom_site_occupancy
  Ca  Ca0  1  0.643666  0.250000  0.622132  1
  Ca  Ca1  1  0.141343  0.250000  0.877616  1
  Ca  Ca2  1  0.358338  0.750000  0.377106  1
  Pa  Pa3  1  0.857048  0.750000  0.124980  1
  Si  Si4  1  0.913241  0.250000  0.424334  1
  Si  Si5  1  0.414334  0.250000  0.077168  1
  Si  Si6  1  0.086528  0.750000  0.576676  1
  Si  Si7  1  0.587465  0.750000  0.920847  1
  Si  Si8  1  0.734655  0.250000  0.117170  1
  Si  Si9  1  0.238245  0.250000  0.377286  1
  Si  Si10  1  0.261479  0.750000  0.877502  1
  Si  Si11  1  0.763154  0.750000  0.617143  1
  Si  Si12  1  0.927912  0.250000  0.846210  1
  Si  Si13  1  0.425485  0.250000  0.659063  1
  Si  Si14  1  0.073693  0.750000  0.160300  1
  Si  Si15  1  0.572984  0.750000  0.345931  1
  Ni  Ni16  1  0.802914  0.250000  0.817088  1
  Ni  Ni17  1  0.299716  0.250000  0.686565  1
  Ni  Ni18  1  0.200108  0.750000  0.186399  1
  Ni  Ni19  1  0.699472  0.750000  0.309977  1
  Ni  Ni20  1  0.994310  0.250000  0.137325  1
  Ni  Ni21  1  0.494577  0.250000  0.367152  1
  Ni  Ni22  1  0.005447  0.750000  0.867047  1
  Ni  Ni23  1  0.503705  0.750000  0.636195  1
  Ni  Ni24  1  0.516012  0.250000  0.884709  1
  Ni  Ni25  1  0.015892  0.250000  0.613791  1
  Ni  Ni26  1  0.485206  0.750000  0.112587  1
  Ni  Ni27  1  0.982994  0.750000  0.387184  1
  Ni  Ni28  1  0.613530  0.250000  0.146565  1
  Ni  Ni29  1  0.116396  0.250000  0.356457  1
  Ni  Ni30  1  0.383431  0.750000  0.859957  1
  Ni  Ni31  1  0.885215  0.750000  0.648438  1
  Ni  Ni32  1  0.792162  0.250000  0.421868  1
  Ni  Ni33  1  0.292921  0.250000  0.066297  1
  Ni  Ni34  1  0.207627  0.750000  0.566452  1
  Ni  Ni35  1  0.708796  0.750000  0.926480  1
