# generated using pymatgen
data_YbDy(Si7Ir3)2
_symmetry_space_group_name_H-M   'P 1'
_cell_length_a   8.02564430
_cell_length_b   8.02564456
_cell_length_c   8.02564404
_cell_angle_alpha   56.77834779
_cell_angle_beta   56.77834841
_cell_angle_gamma   56.77835065
_symmetry_Int_Tables_number   1
_chemical_formula_structural   YbDy(Si7Ir3)2
_chemical_formula_sum   'Yb1 Dy1 Si14 Ir6'
_cell_volume   338.34883117
_cell_formula_units_Z   1
loop_
 _symmetry_equiv_pos_site_id
 _symmetry_equiv_pos_as_xyz
  1  'x, y, z'
loop_
 _atom_site_type_symbol
 _atom_site_label
 _atom_site_symmetry_multiplicity
 _atom_site_fract_x
 _atom_site_fract_y
 _atom_site_fract_z
 _atom_site_occupancy
  Yb  Yb0  1  0.000000  0.000000  0.000000  1
  Dy  Dy1  1  0.500000  0.500000  0.500000  1
  Si  Si2  1  0.749996  0.749996  0.749996  1
  Si  Si3  1  0.250004  0.250004  0.250004  1
  Si  Si4  1  0.851697  0.065102  0.673158  1
  Si  Si5  1  0.673158  0.851697  0.065102  1
  Si  Si6  1  0.065102  0.673158  0.851697  1
  Si  Si7  1  0.650496  0.827947  0.434367  1
  Si  Si8  1  0.434367  0.650496  0.827947  1
  Si  Si9  1  0.827947  0.434367  0.650496  1
  Si  Si10  1  0.172053  0.565633  0.349504  1
  Si  Si11  1  0.565633  0.349504  0.172053  1
  Si  Si12  1  0.349504  0.172053  0.565633  1
  Si  Si13  1  0.934898  0.326842  0.148303  1
  Si  Si14  1  0.326842  0.148303  0.934898  1
  Si  Si15  1  0.148303  0.934898  0.326842  1
  Ir  Ir16  1  0.072083  0.430630  0.748480  1
  Ir  Ir17  1  0.251520  0.927917  0.569370  1
  Ir  Ir18  1  0.569370  0.251520  0.927917  1
  Ir  Ir19  1  0.927917  0.569370  0.251520  1
  Ir  Ir20  1  0.430630  0.748480  0.072083  1
  Ir  Ir21  1  0.748480  0.072083  0.430630  1
