# generated using pymatgen
data_YbCe3(B4W)4
_symmetry_space_group_name_H-M   'P 1'
_cell_length_a   3.67582800
_cell_length_b   6.06508030
_cell_length_c   11.73324606
_cell_angle_alpha   89.89926762
_cell_angle_beta   90.00000000
_cell_angle_gamma   90.00000000
_symmetry_Int_Tables_number   1
_chemical_formula_structural   YbCe3(B4W)4
_chemical_formula_sum   'Yb1 Ce3 B16 W4'
_cell_volume   261.58283612
_cell_formula_units_Z   1
loop_
 _symmetry_equiv_pos_site_id
 _symmetry_equiv_pos_as_xyz
  1  'x, y, z'
loop_
 _atom_site_type_symbol
 _atom_site_label
 _atom_site_symmetry_multiplicity
 _atom_site_fract_x
 _atom_site_fract_y
 _atom_site_fract_z
 _atom_site_occupancy
  Yb  Yb0  1  0.000000  0.874383  0.849937  1
  Ce  Ce1  1  0.000000  0.625318  0.349003  1
  Ce  Ce2  1  0.000000  0.373987  0.652269  1
  Ce  Ce3  1  0.000000  0.125389  0.149103  1
  B  B4  1  0.500000  0.786870  0.184505  1
  B  B5  1  0.500000  0.214593  0.814720  1
  B  B6  1  0.500000  0.285472  0.314303  1
  B  B7  1  0.500000  0.714488  0.686079  1
  B  B8  1  0.500000  0.864967  0.032091  1
  B  B9  1  0.500000  0.135794  0.967313  1
  B  B10  1  0.500000  0.364246  0.468151  1
  B  B11  1  0.500000  0.635961  0.532584  1
  B  B12  1  0.500000  0.886431  0.453617  1
  B  B13  1  0.500000  0.113475  0.547652  1
  B  B14  1  0.500000  0.387278  0.045988  1
  B  B15  1  0.500000  0.615513  0.952450  1
  B  B16  1  0.500000  0.974817  0.308183  1
  B  B17  1  0.500000  0.024604  0.692690  1
  B  B18  1  0.500000  0.475619  0.191304  1
  B  B19  1  0.500000  0.521936  0.808053  1
  W  W20  1  0.000000  0.629742  0.084674  1
  W  W21  1  0.000000  0.370209  0.915024  1
  W  W22  1  0.000000  0.130919  0.414911  1
  W  W23  1  0.000000  0.867988  0.585398  1
