# generated using pymatgen
data_Er19Lu(Bi2Pt)4
_symmetry_space_group_name_H-M   'P 1'
_cell_length_a   8.01633179
_cell_length_b   8.99309311
_cell_length_c   12.33414927
_cell_angle_alpha   89.98587820
_cell_angle_beta   90.04977637
_cell_angle_gamma   89.98934565
_symmetry_Int_Tables_number   1
_chemical_formula_structural   Er19Lu(Bi2Pt)4
_chemical_formula_sum   'Er19 Lu1 Bi8 Pt4'
_cell_volume   889.18840080
_cell_formula_units_Z   1
loop_
 _symmetry_equiv_pos_site_id
 _symmetry_equiv_pos_as_xyz
  1  'x, y, z'
loop_
 _atom_site_type_symbol
 _atom_site_label
 _atom_site_symmetry_multiplicity
 _atom_site_fract_x
 _atom_site_fract_y
 _atom_site_fract_z
 _atom_site_occupancy
  Er  Er0  1  0.665230  0.750144  0.710567  1
  Er  Er1  1  0.335095  0.249927  0.289887  1
  Er  Er2  1  0.164238  0.250352  0.789894  1
  Er  Er3  1  0.835541  0.750036  0.209865  1
  Er  Er4  1  0.125919  0.749571  0.804023  1
  Er  Er5  1  0.872544  0.250559  0.195496  1
  Er  Er6  1  0.626404  0.249896  0.696625  1
  Er  Er7  1  0.372610  0.750422  0.304424  1
  Er  Er8  1  0.552914  0.748943  0.000071  1
  Er  Er9  1  0.449984  0.250686  0.999360  1
  Er  Er10  1  0.051296  0.250067  0.499561  1
  Er  Er11  1  0.949137  0.750185  0.500332  1
  Er  Er12  1  0.177491  0.546851  0.066878  1
  Er  Er13  1  0.322489  0.546805  0.567423  1
  Er  Er14  1  0.178017  0.953756  0.066760  1
  Er  Er15  1  0.677591  0.453443  0.433025  1
  Er  Er16  1  0.822475  0.046839  0.932635  1
  Er  Er17  1  0.677635  0.046449  0.432858  1
  Er  Er18  1  0.322439  0.953394  0.567413  1
  Lu  Lu19  1  0.825604  0.452227  0.933030  1
  Bi  Bi20  1  0.932400  0.010514  0.672313  1
  Bi  Bi21  1  0.066732  0.990143  0.327093  1
  Bi  Bi22  1  0.432153  0.989657  0.827919  1
  Bi  Bi23  1  0.067007  0.510150  0.327324  1
  Bi  Bi24  1  0.567071  0.010011  0.172310  1
  Bi  Bi25  1  0.932020  0.489504  0.672485  1
  Bi  Bi26  1  0.566444  0.490181  0.173066  1
  Bi  Bi27  1  0.433459  0.510130  0.827683  1
  Pt  Pt28  1  0.921890  0.748807  0.988306  1
  Pt  Pt29  1  0.076407  0.250628  0.010879  1
  Pt  Pt30  1  0.422603  0.249887  0.511396  1
  Pt  Pt31  1  0.577162  0.749837  0.489100  1
