# generated using pymatgen
data_Zr6ZnGaAs2
_symmetry_space_group_name_H-M   'P 1'
_cell_length_a   7.29291883
_cell_length_b   7.29333670
_cell_length_c   3.70769700
_cell_angle_alpha   90.00000000
_cell_angle_beta   90.00000000
_cell_angle_gamma   89.59851151
_symmetry_Int_Tables_number   1
_chemical_formula_structural   Zr6ZnGaAs2
_chemical_formula_sum   'Zr6 Zn1 Ga1 As2'
_cell_volume   197.20649585
_cell_formula_units_Z   1
loop_
 _symmetry_equiv_pos_site_id
 _symmetry_equiv_pos_as_xyz
  1  'x, y, z'
loop_
 _atom_site_type_symbol
 _atom_site_label
 _atom_site_symmetry_multiplicity
 _atom_site_fract_x
 _atom_site_fract_y
 _atom_site_fract_z
 _atom_site_occupancy
  Zr  Zr0  1  0.999700  0.002245  0.000000  1
  Zr  Zr1  1  0.500000  0.496696  0.000000  1
  Zr  Zr2  1  0.670405  0.177594  0.500000  1
  Zr  Zr3  1  0.170406  0.324571  0.500000  1
  Zr  Zr4  1  0.826067  0.667064  0.500000  1
  Zr  Zr5  1  0.323918  0.832455  0.500000  1
  Zn  Zn6  1  0.630080  0.870442  0.000000  1
  Ga  Ga7  1  0.130650  0.631002  0.000000  1
  As  As8  1  0.873170  0.374019  0.000000  1
  As  As9  1  0.375605  0.123912  0.000000  1
