# generated using pymatgen
data_LaNdTa2Bi2O11
_symmetry_space_group_name_H-M   'P 1'
_cell_length_a   6.72141129
_cell_length_b   7.77453844
_cell_length_c   9.96043956
_cell_angle_alpha   101.19981587
_cell_angle_beta   90.83321053
_cell_angle_gamma   90.04398507
_symmetry_Int_Tables_number   1
_chemical_formula_structural   LaNdTa2Bi2O11
_chemical_formula_sum   'La2 Nd2 Ta4 Bi4 O22'
_cell_volume   510.52167470
_cell_formula_units_Z   2
loop_
 _symmetry_equiv_pos_site_id
 _symmetry_equiv_pos_as_xyz
  1  'x, y, z'
loop_
 _atom_site_type_symbol
 _atom_site_label
 _atom_site_symmetry_multiplicity
 _atom_site_fract_x
 _atom_site_fract_y
 _atom_site_fract_z
 _atom_site_occupancy
  La  La0  1  0.750068  0.369874  0.485935  1
  La  La1  1  0.249932  0.630126  0.514065  1
  Nd  Nd2  1  0.758842  0.873393  0.487470  1
  Nd  Nd3  1  0.241158  0.126607  0.512530  1
  Ta  Ta4  1  0.915678  0.702164  0.808072  1
  Ta  Ta5  1  0.084322  0.297836  0.191928  1
  Ta  Ta6  1  0.916657  0.200601  0.809964  1
  Ta  Ta7  1  0.083343  0.799399  0.190036  1
  Bi  Bi8  1  0.430512  0.954899  0.815967  1
  Bi  Bi9  1  0.569488  0.045101  0.184033  1
  Bi  Bi10  1  0.397464  0.455078  0.827237  1
  Bi  Bi11  1  0.602536  0.544922  0.172763  1
  O  O12  1  0.216998  0.727775  0.765587  1
  O  O13  1  0.783002  0.272225  0.234413  1
  O  O14  1  0.635851  0.662003  0.838449  1
  O  O15  1  0.364149  0.337997  0.161551  1
  O  O16  1  0.636606  0.255147  0.841452  1
  O  O17  1  0.363394  0.744853  0.158548  1
  O  O18  1  0.896075  0.152666  0.596317  1
  O  O19  1  0.103925  0.847334  0.403683  1
  O  O20  1  0.216115  0.151916  0.761560  1
  O  O21  1  0.783885  0.848084  0.238440  1
  O  O22  1  0.897428  0.646323  0.597596  1
  O  O23  1  0.102572  0.353677  0.402404  1
  O  O24  1  0.025740  0.550286  0.198476  1
  O  O25  1  0.974260  0.449714  0.801524  1
  O  O26  1  0.997093  0.779178  0.000560  1
  O  O27  1  0.002907  0.220822  0.999440  1
  O  O28  1  0.575493  0.600726  0.388795  1
  O  O29  1  0.424507  0.399274  0.611205  1
  O  O30  1  0.156711  0.053867  0.214210  1
  O  O31  1  0.843289  0.946133  0.785790  1
  O  O32  1  0.545540  0.098266  0.397963  1
  O  O33  1  0.454460  0.901734  0.602037  1
