# generated using pymatgen
data_Ho8Tm2In8CoPt3
_symmetry_space_group_name_H-M   'P 1'
_cell_length_a   3.62446700
_cell_length_b   8.06118922
_cell_length_c   18.06646723
_cell_angle_alpha   89.96542994
_cell_angle_beta   90.00000000
_cell_angle_gamma   90.00000000
_symmetry_Int_Tables_number   1
_chemical_formula_structural   Ho8Tm2In8CoPt3
_chemical_formula_sum   'Ho8 Tm2 In8 Co1 Pt3'
_cell_volume   527.85716844
_cell_formula_units_Z   1
loop_
 _symmetry_equiv_pos_site_id
 _symmetry_equiv_pos_as_xyz
  1  'x, y, z'
loop_
 _atom_site_type_symbol
 _atom_site_label
 _atom_site_symmetry_multiplicity
 _atom_site_fract_x
 _atom_site_fract_y
 _atom_site_fract_z
 _atom_site_occupancy
  Ho  Ho0  1  0.000000  0.383771  0.915735  1
  Ho  Ho1  1  0.000000  0.617796  0.087503  1
  Ho  Ho2  1  0.000000  0.232329  0.224640  1
  Ho  Ho3  1  0.000000  0.758954  0.778779  1
  Ho  Ho4  1  0.000000  0.257440  0.720481  1
  Ho  Ho5  1  0.000000  0.754599  0.279386  1
  Ho  Ho6  1  0.000000  0.000509  0.001434  1
  Ho  Ho7  1  0.000000  0.500789  0.498457  1
  Tm  Tm8  1  0.000000  0.110990  0.408541  1
  Tm  Tm9  1  0.000000  0.884415  0.584186  1
  In  In10  1  0.500000  0.421107  0.351788  1
  In  In11  1  0.500000  0.577354  0.646951  1
  In  In12  1  0.500000  0.076073  0.852245  1
  In  In13  1  0.500000  0.929722  0.151844  1
  In  In14  1  0.500000  0.290915  0.069108  1
  In  In15  1  0.500000  0.710187  0.934086  1
  In  In16  1  0.500000  0.206886  0.563913  1
  In  In17  1  0.500000  0.795659  0.429468  1
  Co  Co18  1  0.500000  0.017329  0.305588  1
  Pt  Pt19  1  0.500000  0.976020  0.694060  1
  Pt  Pt20  1  0.500000  0.477292  0.804307  1
  Pt  Pt21  1  0.500000  0.519861  0.197501  1
