# generated using pymatgen
data_Dy3YIr3RhO14
_symmetry_space_group_name_H-M   'P 1'
_cell_length_a   7.24327354
_cell_length_b   7.24652555
_cell_length_c   7.24652571
_cell_angle_alpha   60.00664736
_cell_angle_beta   59.99251225
_cell_angle_gamma   59.99250968
_symmetry_Int_Tables_number   1
_chemical_formula_structural   Dy3YIr3RhO14
_chemical_formula_sum   'Dy3 Y1 Ir3 Rh1 O14'
_cell_volume   268.93801321
_cell_formula_units_Z   1
loop_
 _symmetry_equiv_pos_site_id
 _symmetry_equiv_pos_as_xyz
  1  'x, y, z'
loop_
 _atom_site_type_symbol
 _atom_site_label
 _atom_site_symmetry_multiplicity
 _atom_site_fract_x
 _atom_site_fract_y
 _atom_site_fract_z
 _atom_site_occupancy
  Dy  Dy0  1  0.125000  0.625000  0.125000  1
  Dy  Dy1  1  0.125000  0.125000  0.625000  1
  Dy  Dy2  1  0.125000  0.125000  0.125000  1
  Y  Y3  1  0.625000  0.125000  0.125000  1
  Ir  Ir4  1  0.125000  0.625000  0.625000  1
  Ir  Ir5  1  0.625000  0.125000  0.625000  1
  Ir  Ir6  1  0.625000  0.625000  0.125000  1
  Rh  Rh7  1  0.625000  0.625000  0.625000  1
  O  O8  1  0.714129  0.713487  0.283642  1
  O  O9  1  0.289459  0.289519  0.714072  1
  O  O10  1  0.714129  0.283642  0.713487  1
  O  O11  1  0.289459  0.714072  0.289519  1
  O  O12  1  0.283395  0.714009  0.714009  1
  O  O13  1  0.714200  0.289682  0.289682  1
  O  O14  1  0.535871  0.536513  0.966358  1
  O  O15  1  0.960541  0.960481  0.535928  1
  O  O16  1  0.535871  0.966358  0.536513  1
  O  O17  1  0.960541  0.535928  0.960481  1
  O  O18  1  0.966605  0.535991  0.535991  1
  O  O19  1  0.535800  0.960318  0.960318  1
  O  O20  1  0.248984  0.249515  0.249515  1
  O  O21  1  0.001016  0.000485  0.000485  1
