# generated using pymatgen
data_LiLa3In3Au2
_symmetry_space_group_name_H-M   'P 1'
_cell_length_a   8.13333600
_cell_length_b   8.13333635
_cell_length_c   4.06237000
_cell_angle_alpha   90.00000000
_cell_angle_beta   90.00000000
_cell_angle_gamma   119.99999857
_symmetry_Int_Tables_number   1
_chemical_formula_structural   LiLa3In3Au2
_chemical_formula_sum   'Li1 La3 In3 Au2'
_cell_volume   232.72742329
_cell_formula_units_Z   1
loop_
 _symmetry_equiv_pos_site_id
 _symmetry_equiv_pos_as_xyz
  1  'x, y, z'
loop_
 _atom_site_type_symbol
 _atom_site_label
 _atom_site_symmetry_multiplicity
 _atom_site_fract_x
 _atom_site_fract_y
 _atom_site_fract_z
 _atom_site_occupancy
  Li  Li0  1  0.000000  0.000000  0.500000  1
  La  La1  1  0.585493  0.000000  0.500000  1
  La  La2  1  0.414507  0.414507  0.500000  1
  La  La3  1  0.000000  0.585493  0.500000  1
  In  In4  1  0.000000  0.243437  0.000000  1
  In  In5  1  0.756563  0.756563  0.000000  1
  In  In6  1  0.243437  0.000000  0.000000  1
  Au  Au7  1  0.666667  0.333333  0.000000  1
  Au  Au8  1  0.333333  0.666667  0.000000  1
