# generated using pymatgen
data_Ho2ScBe2Rh5
_symmetry_space_group_name_H-M   'P 1'
_cell_length_a   9.71973900
_cell_length_b   9.71973900
_cell_length_c   3.29971800
_cell_angle_alpha   90.00000000
_cell_angle_beta   90.00000000
_cell_angle_gamma   90.00000000
_symmetry_Int_Tables_number   1
_chemical_formula_structural   Ho2ScBe2Rh5
_chemical_formula_sum   'Ho4 Sc2 Be4 Rh10'
_cell_volume   311.73533507
_cell_formula_units_Z   2
loop_
 _symmetry_equiv_pos_site_id
 _symmetry_equiv_pos_as_xyz
  1  'x, y, z'
loop_
 _atom_site_type_symbol
 _atom_site_label
 _atom_site_symmetry_multiplicity
 _atom_site_fract_x
 _atom_site_fract_y
 _atom_site_fract_z
 _atom_site_occupancy
  Ho  Ho0  1  0.823648  0.323648  0.000000  1
  Ho  Ho1  1  0.323648  0.176352  0.000000  1
  Ho  Ho2  1  0.676352  0.823648  0.000000  1
  Ho  Ho3  1  0.176352  0.676352  0.000000  1
  Sc  Sc4  1  0.000000  0.000000  0.000000  1
  Sc  Sc5  1  0.500000  0.500000  0.000000  1
  Be  Be6  1  0.620246  0.120246  0.000000  1
  Be  Be7  1  0.120246  0.379754  0.000000  1
  Be  Be8  1  0.879754  0.620246  0.000000  1
  Be  Be9  1  0.379754  0.879754  0.000000  1
  Rh  Rh10  1  0.068572  0.217329  0.500000  1
  Rh  Rh11  1  0.217329  0.931428  0.500000  1
  Rh  Rh12  1  0.782671  0.068572  0.500000  1
  Rh  Rh13  1  0.931428  0.782671  0.500000  1
  Rh  Rh14  1  0.431428  0.717329  0.500000  1
  Rh  Rh15  1  0.568572  0.282671  0.500000  1
  Rh  Rh16  1  0.717329  0.568572  0.500000  1
  Rh  Rh17  1  0.282671  0.431428  0.500000  1
  Rh  Rh18  1  0.500000  0.000000  0.500000  1
  Rh  Rh19  1  0.000000  0.500000  0.500000  1
