# generated using pymatgen
data_Y16MgCd3TcPd3
_symmetry_space_group_name_H-M   'P 1'
_cell_length_a   9.80456865
_cell_length_b   9.80456925
_cell_length_c   9.80456735
_cell_angle_alpha   59.01180144
_cell_angle_beta   59.01179686
_cell_angle_gamma   59.01180244
_symmetry_Int_Tables_number   1
_chemical_formula_structural   Y16MgCd3TcPd3
_chemical_formula_sum   'Y16 Mg1 Cd3 Tc1 Pd3'
_cell_volume   651.43269696
_cell_formula_units_Z   1
loop_
 _symmetry_equiv_pos_site_id
 _symmetry_equiv_pos_as_xyz
  1  'x, y, z'
loop_
 _atom_site_type_symbol
 _atom_site_label
 _atom_site_symmetry_multiplicity
 _atom_site_fract_x
 _atom_site_fract_y
 _atom_site_fract_z
 _atom_site_occupancy
  Y  Y0  1  0.353831  0.353831  0.353831  1
  Y  Y1  1  0.349669  0.349669  0.947796  1
  Y  Y2  1  0.349669  0.947796  0.349669  1
  Y  Y3  1  0.947796  0.349669  0.349669  1
  Y  Y4  1  0.815609  0.188646  0.188646  1
  Y  Y5  1  0.188205  0.810665  0.810665  1
  Y  Y6  1  0.188646  0.815609  0.188646  1
  Y  Y7  1  0.810665  0.188205  0.810665  1
  Y  Y8  1  0.188646  0.188646  0.815609  1
  Y  Y9  1  0.810665  0.810665  0.188205  1
  Y  Y10  1  0.935930  0.566150  0.566150  1
  Y  Y11  1  0.557777  0.937443  0.937443  1
  Y  Y12  1  0.566150  0.935930  0.566150  1
  Y  Y13  1  0.937443  0.557777  0.937443  1
  Y  Y14  1  0.566150  0.566150  0.935930  1
  Y  Y15  1  0.937443  0.937443  0.557777  1
  Mg  Mg16  1  0.575147  0.575147  0.575147  1
  Cd  Cd17  1  0.581016  0.581016  0.253424  1
  Cd  Cd18  1  0.581016  0.253424  0.581016  1
  Cd  Cd19  1  0.253424  0.581016  0.581016  1
  Tc  Tc20  1  0.144513  0.144513  0.144513  1
  Pd  Pd21  1  0.145396  0.145396  0.569798  1
  Pd  Pd22  1  0.145396  0.569798  0.145396  1
  Pd  Pd23  1  0.569798  0.145396  0.145396  1
