# generated using pymatgen
data_LaGd5(RuI3)2
_symmetry_space_group_name_H-M   'P 1'
_cell_length_a   4.34949200
_cell_length_b   9.40745512
_cell_length_c   12.39334100
_cell_angle_alpha   87.78859989
_cell_angle_beta   90.00000000
_cell_angle_gamma   90.00000000
_symmetry_Int_Tables_number   1
_chemical_formula_structural   LaGd5(RuI3)2
_chemical_formula_sum   'La1 Gd5 Ru2 I6'
_cell_volume   506.72873604
_cell_formula_units_Z   1
loop_
 _symmetry_equiv_pos_site_id
 _symmetry_equiv_pos_as_xyz
  1  'x, y, z'
loop_
 _atom_site_type_symbol
 _atom_site_label
 _atom_site_symmetry_multiplicity
 _atom_site_fract_x
 _atom_site_fract_y
 _atom_site_fract_z
 _atom_site_occupancy
  La  La0  1  0.750000  0.116411  0.173438  1
  Gd  Gd1  1  0.250000  0.311231  0.383384  1
  Gd  Gd2  1  0.750000  0.694937  0.617745  1
  Gd  Gd3  1  0.250000  0.907173  0.399551  1
  Gd  Gd4  1  0.750000  0.089744  0.604677  1
  Gd  Gd5  1  0.250000  0.881109  0.827756  1
  Ru  Ru6  1  0.250000  0.888797  0.620203  1
  Ru  Ru7  1  0.750000  0.114275  0.372720  1
  I  I8  1  0.250000  0.393404  0.630907  1
  I  I9  1  0.750000  0.604626  0.370122  1
  I  I10  1  0.250000  0.863751  0.118005  1
  I  I11  1  0.750000  0.120193  0.878847  1
  I  I12  1  0.250000  0.373626  0.127178  1
  I  I13  1  0.750000  0.640722  0.875469  1
