# generated using pymatgen
data_KSnRhSe4
_symmetry_space_group_name_H-M   'P 1'
_cell_length_a   3.88794000
_cell_length_b   8.18312724
_cell_length_c   6.64114407
_cell_angle_alpha   74.02358867
_cell_angle_beta   90.00000000
_cell_angle_gamma   90.00000000
_symmetry_Int_Tables_number   1
_chemical_formula_structural   KSnRhSe4
_chemical_formula_sum   'K1 Sn1 Rh1 Se4'
_cell_volume   203.13026123
_cell_formula_units_Z   1
loop_
 _symmetry_equiv_pos_site_id
 _symmetry_equiv_pos_as_xyz
  1  'x, y, z'
loop_
 _atom_site_type_symbol
 _atom_site_label
 _atom_site_symmetry_multiplicity
 _atom_site_fract_x
 _atom_site_fract_y
 _atom_site_fract_z
 _atom_site_occupancy
  K  K0  1  0.500000  0.494746  0.656509  1
  Sn  Sn1  1  0.000000  0.998983  0.001633  1
  Rh  Rh2  1  0.500000  0.002300  0.502495  1
  Se  Se3  1  0.000000  0.832444  0.416039  1
  Se  Se4  1  0.500000  0.811819  0.873874  1
  Se  Se5  1  0.000000  0.171082  0.590152  1
  Se  Se6  1  0.500000  0.187746  0.126258  1
