# generated using pymatgen
data_HoEr3ZrPt15
_symmetry_space_group_name_H-M   'P 1'
_cell_length_a   4.10219700
_cell_length_b   4.10219700
_cell_length_c   20.45122800
_cell_angle_alpha   90.00000000
_cell_angle_beta   90.00000000
_cell_angle_gamma   90.00000000
_symmetry_Int_Tables_number   1
_chemical_formula_structural   HoEr3ZrPt15
_chemical_formula_sum   'Ho1 Er3 Zr1 Pt15'
_cell_volume   344.15367845
_cell_formula_units_Z   1
loop_
 _symmetry_equiv_pos_site_id
 _symmetry_equiv_pos_as_xyz
  1  'x, y, z'
loop_
 _atom_site_type_symbol
 _atom_site_label
 _atom_site_symmetry_multiplicity
 _atom_site_fract_x
 _atom_site_fract_y
 _atom_site_fract_z
 _atom_site_occupancy
  Ho  Ho0  1  0.000000  0.000000  0.800453  1
  Er  Er1  1  0.000000  0.000000  0.199572  1
  Er  Er2  1  0.000000  0.000000  0.399765  1
  Er  Er3  1  0.000000  0.000000  0.600224  1
  Zr  Zr4  1  0.000000  0.000000  0.000017  1
  Pt  Pt5  1  0.500000  0.500000  0.000021  1
  Pt  Pt6  1  0.500000  0.500000  0.197736  1
  Pt  Pt7  1  0.500000  0.500000  0.399485  1
  Pt  Pt8  1  0.500000  0.500000  0.600494  1
  Pt  Pt9  1  0.500000  0.500000  0.802269  1
  Pt  Pt10  1  0.500000  0.000000  0.096328  1
  Pt  Pt11  1  0.500000  0.000000  0.298866  1
  Pt  Pt12  1  0.500000  0.000000  0.499991  1
  Pt  Pt13  1  0.500000  0.000000  0.701003  1
  Pt  Pt14  1  0.500000  0.000000  0.903794  1
  Pt  Pt15  1  0.000000  0.500000  0.096328  1
  Pt  Pt16  1  0.000000  0.500000  0.298866  1
  Pt  Pt17  1  0.000000  0.500000  0.499991  1
  Pt  Pt18  1  0.000000  0.500000  0.701003  1
  Pt  Pt19  1  0.000000  0.500000  0.903794  1
