# generated using pymatgen
data_Cs12Na8Hf(VAs4)3
_symmetry_space_group_name_H-M   'P 1'
_cell_length_a   10.85713722
_cell_length_b   10.85713529
_cell_length_c   16.85722681
_cell_angle_alpha   90.01244266
_cell_angle_beta   90.01244521
_cell_angle_gamma   142.48522307
_symmetry_Int_Tables_number   1
_chemical_formula_structural   Cs12Na8Hf(VAs4)3
_chemical_formula_sum   'Cs12 Na8 Hf1 V3 As12'
_cell_volume   1210.06769567
_cell_formula_units_Z   1
loop_
 _symmetry_equiv_pos_site_id
 _symmetry_equiv_pos_as_xyz
  1  'x, y, z'
loop_
 _atom_site_type_symbol
 _atom_site_label
 _atom_site_symmetry_multiplicity
 _atom_site_fract_x
 _atom_site_fract_y
 _atom_site_fract_z
 _atom_site_occupancy
  Cs  Cs0  1  0.943517  0.609229  0.828730  1
  Cs  Cs1  1  0.555223  0.889965  0.328516  1
  Cs  Cs2  1  0.390771  0.056483  0.171270  1
  Cs  Cs3  1  0.057123  0.390973  0.170560  1
  Cs  Cs4  1  0.889917  0.554136  0.326503  1
  Cs  Cs5  1  0.445864  0.110083  0.673497  1
  Cs  Cs6  1  0.609027  0.942877  0.829440  1
  Cs  Cs7  1  0.280740  0.280965  0.316466  1
  Cs  Cs8  1  0.778939  0.779078  0.183190  1
  Cs  Cs9  1  0.220922  0.221061  0.816810  1
  Cs  Cs10  1  0.719035  0.719260  0.683534  1
  Cs  Cs11  1  0.110035  0.444777  0.671484  1
  Na  Na12  1  0.920794  0.079206  0.000000  1
  Na  Na13  1  0.579502  0.420498  0.500000  1
  Na  Na14  1  0.079381  0.920619  0.000000  1
  Na  Na15  1  0.421801  0.578199  0.500000  1
  Na  Na16  1  0.754476  0.245524  0.000000  1
  Na  Na17  1  0.744306  0.255694  0.500000  1
  Na  Na18  1  0.245222  0.754778  0.000000  1
  Na  Na19  1  0.253933  0.746067  0.500000  1
  Hf  Hf20  1  0.082413  0.917587  0.500000  1
  V  V21  1  0.581278  0.418722  0.000000  1
  V  V22  1  0.915003  0.084997  0.500000  1
  V  V23  1  0.418767  0.581233  0.000000  1
  As  As24  1  0.851429  0.549778  0.085230  1
  As  As25  1  0.450222  0.148571  0.914770  1
  As  As26  1  0.647274  0.949695  0.584763  1
  As  As27  1  0.941433  0.629837  0.592362  1
  As  As28  1  0.148473  0.450052  0.914976  1
  As  As29  1  0.549948  0.851527  0.085024  1
  As  As30  1  0.370163  0.058567  0.407638  1
  As  As31  1  0.190925  0.197977  0.583243  1
  As  As32  1  0.683967  0.684151  0.921749  1
  As  As33  1  0.315849  0.316033  0.078251  1
  As  As34  1  0.050305  0.352726  0.415237  1
  As  As35  1  0.802023  0.809075  0.416757  1
