# generated using pymatgen
data_Er2FeAuO7
_symmetry_space_group_name_H-M   'P 1'
_cell_length_a   7.24068520
_cell_length_b   7.28827470
_cell_length_c   7.24073597
_cell_angle_alpha   59.78225268
_cell_angle_beta   59.56234654
_cell_angle_gamma   59.78124246
_symmetry_Int_Tables_number   1
_chemical_formula_structural   Er2FeAuO7
_chemical_formula_sum   'Er4 Fe2 Au2 O14'
_cell_volume   268.40087318
_cell_formula_units_Z   2
loop_
 _symmetry_equiv_pos_site_id
 _symmetry_equiv_pos_as_xyz
  1  'x, y, z'
loop_
 _atom_site_type_symbol
 _atom_site_label
 _atom_site_symmetry_multiplicity
 _atom_site_fract_x
 _atom_site_fract_y
 _atom_site_fract_z
 _atom_site_occupancy
  Er  Er0  1  0.499990  0.999991  0.500024  1
  Er  Er1  1  0.000002  0.499985  0.500019  1
  Er  Er2  1  0.500002  0.500023  0.000003  1
  Er  Er3  1  0.500002  0.500007  0.499996  1
  Fe  Fe4  1  0.000003  0.500001  0.999996  1
  Fe  Fe5  1  0.999999  0.000004  0.999999  1
  Au  Au6  1  0.500004  0.000004  0.999994  1
  Au  Au7  1  0.000001  0.000000  0.499996  1
  O  O8  1  0.622108  0.627888  0.622114  1
  O  O9  1  0.377882  0.372114  0.377893  1
  O  O10  1  0.341633  0.911496  0.906390  1
  O  O11  1  0.093614  0.659514  0.658350  1
  O  O12  1  0.913266  0.336735  0.913264  1
  O  O13  1  0.906393  0.911480  0.341637  1
  O  O14  1  0.341643  0.340483  0.906383  1
  O  O15  1  0.341911  0.908104  0.341915  1
  O  O16  1  0.906396  0.340483  0.341641  1
  O  O17  1  0.658358  0.659514  0.093605  1
  O  O18  1  0.093618  0.088509  0.658362  1
  O  O19  1  0.658368  0.088505  0.093619  1
  O  O20  1  0.658078  0.091903  0.658077  1
  O  O21  1  0.086731  0.663264  0.086727  1
