# generated using pymatgen
data_ZnFe2Ni2Pt7
_symmetry_space_group_name_H-M   'P 1'
_cell_length_a   3.89593100
_cell_length_b   3.89593100
_cell_length_c   11.28340400
_cell_angle_alpha   90.00000000
_cell_angle_beta   90.00000000
_cell_angle_gamma   90.00000000
_symmetry_Int_Tables_number   1
_chemical_formula_structural   ZnFe2Ni2Pt7
_chemical_formula_sum   'Zn1 Fe2 Ni2 Pt7'
_cell_volume   171.26264672
_cell_formula_units_Z   1
loop_
 _symmetry_equiv_pos_site_id
 _symmetry_equiv_pos_as_xyz
  1  'x, y, z'
loop_
 _atom_site_type_symbol
 _atom_site_label
 _atom_site_symmetry_multiplicity
 _atom_site_fract_x
 _atom_site_fract_y
 _atom_site_fract_z
 _atom_site_occupancy
  Zn  Zn0  1  0.000000  0.000000  0.000000  1
  Fe  Fe1  1  0.000000  0.000000  0.336078  1
  Fe  Fe2  1  0.000000  0.000000  0.663922  1
  Ni  Ni3  1  0.500000  0.500000  0.338530  1
  Ni  Ni4  1  0.500000  0.500000  0.661470  1
  Pt  Pt5  1  0.500000  0.500000  0.000000  1
  Pt  Pt6  1  0.500000  0.000000  0.179647  1
  Pt  Pt7  1  0.500000  0.000000  0.500000  1
  Pt  Pt8  1  0.500000  0.000000  0.820353  1
  Pt  Pt9  1  0.000000  0.500000  0.179647  1
  Pt  Pt10  1  0.000000  0.500000  0.500000  1
  Pt  Pt11  1  0.000000  0.500000  0.820353  1
