# generated using pymatgen
data_SrMg2Fe(PO4)3
_symmetry_space_group_name_H-M   'P 1'
_cell_length_a   9.12391501
_cell_length_b   9.12391532
_cell_length_c   9.12391456
_cell_angle_alpha   137.53188334
_cell_angle_beta   109.63948853
_cell_angle_gamma   85.77037185
_symmetry_Int_Tables_number   1
_chemical_formula_structural   SrMg2Fe(PO4)3
_chemical_formula_sum   'Sr2 Mg4 Fe2 P6 O24'
_cell_volume   464.51534056
_cell_formula_units_Z   2
loop_
 _symmetry_equiv_pos_site_id
 _symmetry_equiv_pos_as_xyz
  1  'x, y, z'
loop_
 _atom_site_type_symbol
 _atom_site_label
 _atom_site_symmetry_multiplicity
 _atom_site_fract_x
 _atom_site_fract_y
 _atom_site_fract_z
 _atom_site_occupancy
  Sr  Sr0  1  0.250000  0.347464  0.097464  1
  Sr  Sr1  1  0.750000  0.652536  0.902536  1
  Mg  Mg2  1  0.116296  0.116296  0.500000  1
  Mg  Mg3  1  0.383704  0.883704  0.000000  1
  Mg  Mg4  1  0.616296  0.116296  0.000000  1
  Mg  Mg5  1  0.883704  0.883704  0.500000  1
  Fe  Fe6  1  0.000000  0.500000  0.500000  1
  Fe  Fe7  1  0.500000  0.000000  0.500000  1
  P  P8  1  0.250000  0.840540  0.590540  1
  P  P9  1  0.750000  0.159460  0.409460  1
  P  P10  1  0.321777  0.321777  0.500000  1
  P  P11  1  0.178223  0.678223  0.000000  1
  P  P12  1  0.821777  0.321777  0.000000  1
  P  P13  1  0.678223  0.678223  0.500000  1
  O  O14  1  0.343583  0.797539  0.453957  1
  O  O15  1  0.656417  0.202461  0.546043  1
  O  O16  1  0.843583  0.389626  0.546043  1
  O  O17  1  0.156417  0.610374  0.453957  1
  O  O18  1  0.132186  0.984219  0.616404  1
  O  O19  1  0.632186  0.015781  0.147967  1
  O  O20  1  0.867814  0.015781  0.383596  1
  O  O21  1  0.367814  0.984219  0.852033  1
  O  O22  1  0.345660  0.201599  0.277228  1
  O  O23  1  0.075629  0.798401  0.144061  1
  O  O24  1  0.845660  0.568432  0.144061  1
  O  O25  1  0.575629  0.431568  0.277228  1
  O  O26  1  0.654340  0.798401  0.722772  1
  O  O27  1  0.924371  0.201599  0.855939  1
  O  O28  1  0.154340  0.431568  0.855939  1
  O  O29  1  0.424371  0.568432  0.722772  1
  O  O30  1  0.133425  0.289986  0.434243  1
  O  O31  1  0.144258  0.710014  0.843441  1
  O  O32  1  0.633425  0.199183  0.843441  1
  O  O33  1  0.644258  0.800817  0.434243  1
  O  O34  1  0.866575  0.710014  0.565757  1
  O  O35  1  0.855742  0.289986  0.156559  1
  O  O36  1  0.366575  0.800817  0.156559  1
  O  O37  1  0.355742  0.199183  0.565757  1
