# generated using pymatgen
data_Dy3Er4Co4Sn23Ir2
_symmetry_space_group_name_H-M   'P 1'
_cell_length_a   9.74921975
_cell_length_b   9.74922004
_cell_length_c   10.02031306
_cell_angle_alpha   90.23675579
_cell_angle_beta   89.76323861
_cell_angle_gamma   120.04955465
_symmetry_Int_Tables_number   1
_chemical_formula_structural   Dy3Er4Co4Sn23Ir2
_chemical_formula_sum   'Dy3 Er4 Co4 Sn23 Ir2'
_cell_volume   824.38414941
_cell_formula_units_Z   1
loop_
 _symmetry_equiv_pos_site_id
 _symmetry_equiv_pos_as_xyz
  1  'x, y, z'
loop_
 _atom_site_type_symbol
 _atom_site_label
 _atom_site_symmetry_multiplicity
 _atom_site_fract_x
 _atom_site_fract_y
 _atom_site_fract_z
 _atom_site_occupancy
  Dy  Dy0  1  0.478951  0.521049  0.306852  1
  Dy  Dy1  1  0.521049  0.478951  0.693148  1
  Dy  Dy2  1  0.000000  0.000000  0.000000  1
  Er  Er3  1  0.479890  0.958576  0.306319  1
  Er  Er4  1  0.520110  0.041424  0.693681  1
  Er  Er5  1  0.041424  0.520110  0.306319  1
  Er  Er6  1  0.958576  0.479890  0.693681  1
  Co  Co7  1  0.830816  0.663506  0.197758  1
  Co  Co8  1  0.169184  0.336494  0.802242  1
  Co  Co9  1  0.336494  0.169184  0.197758  1
  Co  Co10  1  0.663506  0.830816  0.802242  1
  Sn  Sn11  1  0.117851  0.882149  0.274014  1
  Sn  Sn12  1  0.882149  0.117851  0.725986  1
  Sn  Sn13  1  0.124522  0.238124  0.278573  1
  Sn  Sn14  1  0.875478  0.761876  0.721427  1
  Sn  Sn15  1  0.761876  0.875478  0.278573  1
  Sn  Sn16  1  0.238124  0.124522  0.721427  1
  Sn  Sn17  1  0.779003  0.220997  0.457872  1
  Sn  Sn18  1  0.220997  0.779003  0.542128  1
  Sn  Sn19  1  0.781186  0.561048  0.451344  1
  Sn  Sn20  1  0.218814  0.438952  0.548656  1
  Sn  Sn21  1  0.438952  0.218814  0.451344  1
  Sn  Sn22  1  0.561048  0.781186  0.548656  1
  Sn  Sn23  1  0.351353  0.004650  0.005832  1
  Sn  Sn24  1  0.648647  0.995350  0.994168  1
  Sn  Sn25  1  0.004650  0.351353  0.994168  1
  Sn  Sn26  1  0.995350  0.648647  0.005832  1
  Sn  Sn27  1  0.654017  0.654017  0.000000  1
  Sn  Sn28  1  0.345983  0.345983  0.000000  1
  Sn  Sn29  1  0.333477  0.666523  0.119640  1
  Sn  Sn30  1  0.666523  0.333477  0.880360  1
  Sn  Sn31  1  0.335951  0.664049  0.820037  1
  Sn  Sn32  1  0.664049  0.335951  0.179963  1
  Sn  Sn33  1  0.000000  0.000000  0.500000  1
  Ir  Ir34  1  0.831654  0.168346  0.197244  1
  Ir  Ir35  1  0.168346  0.831654  0.802756  1
