# generated using pymatgen
data_Tm4Sc4NiRh3
_symmetry_space_group_name_H-M   'P 1'
_cell_length_a   4.29123000
_cell_length_b   7.02890003
_cell_length_c   8.54098749
_cell_angle_alpha   89.07761037
_cell_angle_beta   90.00000000
_cell_angle_gamma   90.00000000
_symmetry_Int_Tables_number   1
_chemical_formula_structural   Tm4Sc4NiRh3
_chemical_formula_sum   'Tm4 Sc4 Ni1 Rh3'
_cell_volume   257.58523431
_cell_formula_units_Z   1
loop_
 _symmetry_equiv_pos_site_id
 _symmetry_equiv_pos_as_xyz
  1  'x, y, z'
loop_
 _atom_site_type_symbol
 _atom_site_label
 _atom_site_symmetry_multiplicity
 _atom_site_fract_x
 _atom_site_fract_y
 _atom_site_fract_z
 _atom_site_occupancy
  Tm  Tm0  1  0.250000  0.987851  0.328865  1
  Tm  Tm1  1  0.750000  0.520134  0.827713  1
  Tm  Tm2  1  0.250000  0.477540  0.173214  1
  Tm  Tm3  1  0.750000  0.015340  0.674190  1
  Sc  Sc4  1  0.750000  0.648480  0.422628  1
  Sc  Sc5  1  0.750000  0.129701  0.067820  1
  Sc  Sc6  1  0.250000  0.363863  0.570097  1
  Sc  Sc7  1  0.250000  0.853080  0.935873  1
  Ni  Ni8  1  0.750000  0.753474  0.099131  1
  Rh  Rh9  1  0.750000  0.256726  0.398669  1
  Rh  Rh10  1  0.250000  0.247318  0.902386  1
  Rh  Rh11  1  0.250000  0.746492  0.599415  1
