# generated using pymatgen
data_V10Ga3SiOs2
_symmetry_space_group_name_H-M   'P 1'
_cell_length_a   4.71420500
_cell_length_b   4.84662600
_cell_length_c   9.43774200
_cell_angle_alpha   90.00000000
_cell_angle_beta   90.00000000
_cell_angle_gamma   90.00000000
_symmetry_Int_Tables_number   1
_chemical_formula_structural   V10Ga3SiOs2
_chemical_formula_sum   'V10 Ga3 Si1 Os2'
_cell_volume   215.63342089
_cell_formula_units_Z   1
loop_
 _symmetry_equiv_pos_site_id
 _symmetry_equiv_pos_as_xyz
  1  'x, y, z'
loop_
 _atom_site_type_symbol
 _atom_site_label
 _atom_site_symmetry_multiplicity
 _atom_site_fract_x
 _atom_site_fract_y
 _atom_site_fract_z
 _atom_site_occupancy
  V  V0  1  0.500000  0.998772  0.378483  1
  V  V1  1  0.500000  0.996757  0.875247  1
  V  V2  1  0.749262  0.503143  0.000000  1
  V  V3  1  0.754232  0.497742  0.500000  1
  V  V4  1  0.500000  0.996757  0.124753  1
  V  V5  1  0.500000  0.998772  0.621517  1
  V  V6  1  0.250738  0.503143  0.000000  1
  V  V7  1  0.245768  0.497742  0.500000  1
  V  V8  1  0.000000  0.250131  0.253885  1
  V  V9  1  0.000000  0.250131  0.746115  1
  Ga  Ga10  1  0.500000  0.492504  0.250338  1
  Ga  Ga11  1  0.500000  0.492504  0.749662  1
  Ga  Ga12  1  0.000000  0.007380  0.000000  1
  Si  Si13  1  0.000000  0.007474  0.500000  1
  Os  Os14  1  0.000000  0.753524  0.254260  1
  Os  Os15  1  0.000000  0.753524  0.745740  1
