# generated using pymatgen
data_Ba3Lu2F12
_symmetry_space_group_name_H-M   'P 1'
_cell_length_a   9.75510800
_cell_length_b   9.75510800
_cell_length_c   5.74038800
_cell_angle_alpha   90.00000000
_cell_angle_beta   90.00000000
_cell_angle_gamma   90.00000000
_symmetry_Int_Tables_number   1
_chemical_formula_structural   Ba3Lu2F12
_chemical_formula_sum   'Ba6 Lu4 F24'
_cell_volume   546.26756111
_cell_formula_units_Z   2
loop_
 _symmetry_equiv_pos_site_id
 _symmetry_equiv_pos_as_xyz
  1  'x, y, z'
loop_
 _atom_site_type_symbol
 _atom_site_label
 _atom_site_symmetry_multiplicity
 _atom_site_fract_x
 _atom_site_fract_y
 _atom_site_fract_z
 _atom_site_occupancy
  Ba  Ba0  1  0.500000  0.500000  0.000000  1
  Ba  Ba1  1  0.000000  0.000000  0.000000  1
  Ba  Ba2  1  0.320836  0.820836  0.500000  1
  Ba  Ba3  1  0.820836  0.679164  0.500000  1
  Ba  Ba4  1  0.179164  0.320836  0.500000  1
  Ba  Ba5  1  0.679164  0.179164  0.500000  1
  Lu  Lu6  1  0.132623  0.632623  0.000000  1
  Lu  Lu7  1  0.632623  0.867377  0.000000  1
  Lu  Lu8  1  0.367377  0.132623  0.000000  1
  Lu  Lu9  1  0.867377  0.367377  0.000000  1
  F  F10  1  0.291321  0.791321  0.000000  1
  F  F11  1  0.791321  0.708679  0.000000  1
  F  F12  1  0.208679  0.291321  0.000000  1
  F  F13  1  0.708679  0.208679  0.000000  1
  F  F14  1  0.555879  0.725602  0.256000  1
  F  F15  1  0.444121  0.274398  0.256000  1
  F  F16  1  0.274398  0.555879  0.256000  1
  F  F17  1  0.725602  0.444121  0.256000  1
  F  F18  1  0.225602  0.055879  0.744000  1
  F  F19  1  0.055879  0.774398  0.744000  1
  F  F20  1  0.500000  0.000000  0.777256  1
  F  F21  1  0.000000  0.500000  0.777256  1
  F  F22  1  0.000000  0.500000  0.222744  1
  F  F23  1  0.500000  0.000000  0.222744  1
  F  F24  1  0.225602  0.055879  0.256000  1
  F  F25  1  0.055879  0.774398  0.256000  1
  F  F26  1  0.944121  0.225602  0.256000  1
  F  F27  1  0.774398  0.944121  0.256000  1
  F  F28  1  0.274398  0.555879  0.744000  1
  F  F29  1  0.725602  0.444121  0.744000  1
  F  F30  1  0.555879  0.725602  0.744000  1
  F  F31  1  0.444121  0.274398  0.744000  1
  F  F32  1  0.774398  0.944121  0.744000  1
  F  F33  1  0.944121  0.225602  0.744000  1
