# generated using pymatgen
data_Pa5Nb2Co17As12
_symmetry_space_group_name_H-M   'P 1'
_cell_length_a   12.57091200
_cell_length_b   12.54658856
_cell_length_c   3.81283400
_cell_angle_alpha   90.00000000
_cell_angle_beta   90.00000000
_cell_angle_gamma   119.93600894
_symmetry_Int_Tables_number   1
_chemical_formula_structural   Pa5Nb2Co17As12
_chemical_formula_sum   'Pa5 Nb2 Co17 As12'
_cell_volume   521.13549109
_cell_formula_units_Z   1
loop_
 _symmetry_equiv_pos_site_id
 _symmetry_equiv_pos_as_xyz
  1  'x, y, z'
loop_
 _atom_site_type_symbol
 _atom_site_label
 _atom_site_symmetry_multiplicity
 _atom_site_fract_x
 _atom_site_fract_y
 _atom_site_fract_z
 _atom_site_occupancy
  Pa  Pa0  1  0.669178  0.331271  0.000000  1
  Pa  Pa1  1  0.330822  0.662094  0.000000  1
  Pa  Pa2  1  0.183744  0.182225  0.500000  1
  Pa  Pa3  1  0.816256  0.998482  0.500000  1
  Pa  Pa4  1  0.000000  0.807391  0.500000  1
  Nb  Nb5  1  0.562249  0.562723  0.000000  1
  Nb  Nb6  1  0.437751  0.000476  0.000000  1
  Co  Co7  1  0.000000  0.437867  0.000000  1
  Co  Co8  1  0.820499  0.197456  0.000000  1
  Co  Co9  1  0.812439  0.626682  0.000000  1
  Co  Co10  1  0.368854  0.180267  0.000000  1
  Co  Co11  1  0.187561  0.814243  0.000000  1
  Co  Co12  1  0.631146  0.811414  0.000000  1
  Co  Co13  1  0.179501  0.376957  0.000000  1
  Co  Co14  1  0.642981  0.130117  0.500000  1
  Co  Co15  1  0.873488  0.515673  0.500000  1
  Co  Co16  1  0.483586  0.360214  0.500000  1
  Co  Co17  1  0.126512  0.642183  0.500000  1
  Co  Co18  1  0.516414  0.876629  0.500000  1
  Co  Co19  1  0.357019  0.487137  0.500000  1
  Co  Co20  1  0.722474  0.720794  0.500000  1
  Co  Co21  1  0.277526  0.998321  0.500000  1
  Co  Co22  1  0.000000  0.279509  0.500000  1
  Co  Co23  1  0.000000  0.002170  0.000000  1
  As  As24  1  0.360671  0.365053  0.000000  1
  As  As25  1  0.639329  0.004380  0.000000  1
  As  As26  1  0.000000  0.623316  0.000000  1
  As  As27  1  0.839857  0.316507  0.500000  1
  As  As28  1  0.689940  0.520698  0.500000  1
  As  As29  1  0.476953  0.169398  0.500000  1
  As  As30  1  0.310060  0.830758  0.500000  1
  As  As31  1  0.523047  0.692445  0.500000  1
  As  As32  1  0.160143  0.476650  0.500000  1
  As  As33  1  0.823825  0.820483  0.000000  1
  As  As34  1  0.176175  0.996659  0.000000  1
  As  As35  1  0.000000  0.181354  0.000000  1
