# generated using pymatgen
data_Tb2Ti(Ge2Mo)2
_symmetry_space_group_name_H-M   'P 1'
_cell_length_a   6.92707100
_cell_length_b   7.09710100
_cell_length_c   13.35709300
_cell_angle_alpha   90.00000000
_cell_angle_beta   90.00000000
_cell_angle_gamma   90.00000000
_symmetry_Int_Tables_number   1
_chemical_formula_structural   Tb2Ti(Ge2Mo)2
_chemical_formula_sum   'Tb8 Ti4 Ge16 Mo8'
_cell_volume   656.66304259
_cell_formula_units_Z   4
loop_
 _symmetry_equiv_pos_site_id
 _symmetry_equiv_pos_as_xyz
  1  'x, y, z'
loop_
 _atom_site_type_symbol
 _atom_site_label
 _atom_site_symmetry_multiplicity
 _atom_site_fract_x
 _atom_site_fract_y
 _atom_site_fract_z
 _atom_site_occupancy
  Tb  Tb0  1  0.004297  0.174058  0.405517  1
  Tb  Tb1  1  0.504297  0.325942  0.094483  1
  Tb  Tb2  1  0.495703  0.674058  0.594483  1
  Tb  Tb3  1  0.995703  0.825942  0.905517  1
  Tb  Tb4  1  0.993469  0.829958  0.594046  1
  Tb  Tb5  1  0.493469  0.670042  0.905954  1
  Tb  Tb6  1  0.506531  0.329958  0.405954  1
  Tb  Tb7  1  0.006531  0.170042  0.094046  1
  Ti  Ti8  1  0.159831  0.333915  0.627861  1
  Ti  Ti9  1  0.659831  0.166085  0.872139  1
  Ti  Ti10  1  0.840169  0.666085  0.127861  1
  Ti  Ti11  1  0.340169  0.833915  0.372139  1
  Ge  Ge12  1  0.329092  0.044449  0.545179  1
  Ge  Ge13  1  0.829092  0.455551  0.954821  1
  Ge  Ge14  1  0.670908  0.955551  0.045179  1
  Ge  Ge15  1  0.170908  0.544449  0.454821  1
  Ge  Ge16  1  0.172591  0.544454  0.044150  1
  Ge  Ge17  1  0.672591  0.955546  0.455850  1
  Ge  Ge18  1  0.827409  0.455546  0.544150  1
  Ge  Ge19  1  0.327409  0.044454  0.955850  1
  Ge  Ge20  1  0.809107  0.365032  0.248856  1
  Ge  Ge21  1  0.309107  0.134968  0.251144  1
  Ge  Ge22  1  0.690893  0.865032  0.751144  1
  Ge  Ge23  1  0.190893  0.634968  0.748856  1
  Ge  Ge24  1  0.036614  0.870229  0.251253  1
  Ge  Ge25  1  0.536614  0.629771  0.248747  1
  Ge  Ge26  1  0.463386  0.370229  0.748747  1
  Ge  Ge27  1  0.963386  0.129771  0.751253  1
  Mo  Mo28  1  0.334586  0.835672  0.125041  1
  Mo  Mo29  1  0.834586  0.664328  0.374959  1
  Mo  Mo30  1  0.665414  0.164328  0.625041  1
  Mo  Mo31  1  0.165414  0.335672  0.874959  1
  Mo  Mo32  1  0.333134  0.011570  0.750306  1
  Mo  Mo33  1  0.666866  0.988430  0.250306  1
  Mo  Mo34  1  0.166866  0.511570  0.249694  1
  Mo  Mo35  1  0.833134  0.488430  0.749694  1
