# generated using pymatgen
data_Ta2NbSi6
_symmetry_space_group_name_H-M   'P 1'
_cell_length_a   4.80471200
_cell_length_b   4.80445964
_cell_length_c   6.61417500
_cell_angle_alpha   90.00000000
_cell_angle_beta   90.00000000
_cell_angle_gamma   119.99827334
_symmetry_Int_Tables_number   1
_chemical_formula_structural   Ta2NbSi6
_chemical_formula_sum   'Ta2 Nb1 Si6'
_cell_volume   132.22871570
_cell_formula_units_Z   1
loop_
 _symmetry_equiv_pos_site_id
 _symmetry_equiv_pos_as_xyz
  1  'x, y, z'
loop_
 _atom_site_type_symbol
 _atom_site_label
 _atom_site_symmetry_multiplicity
 _atom_site_fract_x
 _atom_site_fract_y
 _atom_site_fract_z
 _atom_site_occupancy
  Ta  Ta0  1  0.500000  0.500000  0.832508  1
  Ta  Ta1  1  0.500000  0.000000  0.500825  1
  Nb  Nb2  1  0.000000  0.500000  0.166667  1
  Si  Si3  1  0.841510  0.682279  0.499863  1
  Si  Si4  1  0.158490  0.840769  0.833470  1
  Si  Si5  1  0.682197  0.841098  0.166667  1
  Si  Si6  1  0.158490  0.317721  0.499863  1
  Si  Si7  1  0.841510  0.159231  0.833470  1
  Si  Si8  1  0.317803  0.158902  0.166667  1
