# generated using pymatgen
data_Ho6Er4Ga3Bi2Ir
_symmetry_space_group_name_H-M   'P 1'
_cell_length_a   8.61274468
_cell_length_b   8.61570187
_cell_length_c   8.73846873
_cell_angle_alpha   124.94985486
_cell_angle_beta   124.93863006
_cell_angle_gamma   80.67334639
_symmetry_Int_Tables_number   1
_chemical_formula_structural   Ho6Er4Ga3Bi2Ir
_chemical_formula_sum   'Ho6 Er4 Ga3 Bi2 Ir1'
_cell_volume   422.19246058
_cell_formula_units_Z   1
loop_
 _symmetry_equiv_pos_site_id
 _symmetry_equiv_pos_as_xyz
  1  'x, y, z'
loop_
 _atom_site_type_symbol
 _atom_site_label
 _atom_site_symmetry_multiplicity
 _atom_site_fract_x
 _atom_site_fract_y
 _atom_site_fract_z
 _atom_site_occupancy
  Ho  Ho0  1  0.516102  0.705627  0.499980  1
  Ho  Ho1  1  0.194937  0.039143  0.499990  1
  Ho  Ho2  1  0.999352  0.483895  0.201255  1
  Ho  Ho3  1  0.298116  0.782655  0.798771  1
  Ho  Ho4  1  0.461016  0.304995  0.499994  1
  Ho  Ho5  1  0.794360  0.984062  0.500000  1
  Er  Er6  1  0.999743  0.999834  0.999776  1
  Er  Er7  1  0.499959  0.500088  0.000256  1
  Er  Er8  1  0.016180  0.500493  0.798041  1
  Er  Er9  1  0.718056  0.202458  0.201956  1
  Ga  Ga10  1  0.356866  0.855098  0.212100  1
  Ga  Ga11  1  0.644744  0.142985  0.787890  1
  Ga  Ga12  1  0.863875  0.635773  0.499988  1
  Bi  Bi13  1  0.755553  0.744514  0.999953  1
  Bi  Bi14  1  0.255590  0.244566  0.000049  1
  Ir  Ir15  1  0.125554  0.373812  0.500000  1
