# generated using pymatgen
data_Er20Cd3Co2Pd3
_symmetry_space_group_name_H-M   'P 1'
_cell_length_a   9.45206800
_cell_length_b   9.45206799
_cell_length_c   9.39705700
_cell_angle_alpha   90.00000000
_cell_angle_beta   90.00000000
_cell_angle_gamma   120.00000002
_symmetry_Int_Tables_number   1
_chemical_formula_structural   Er20Cd3Co2Pd3
_chemical_formula_sum   'Er20 Cd3 Co2 Pd3'
_cell_volume   727.06990274
_cell_formula_units_Z   1
loop_
 _symmetry_equiv_pos_site_id
 _symmetry_equiv_pos_as_xyz
  1  'x, y, z'
loop_
 _atom_site_type_symbol
 _atom_site_label
 _atom_site_symmetry_multiplicity
 _atom_site_fract_x
 _atom_site_fract_y
 _atom_site_fract_z
 _atom_site_occupancy
  Er  Er0  1  0.000000  0.000000  0.451325  1
  Er  Er1  1  0.000000  0.000000  0.048675  1
  Er  Er2  1  0.542110  0.457890  0.250000  1
  Er  Er3  1  0.542110  0.084221  0.250000  1
  Er  Er4  1  0.915779  0.457890  0.250000  1
  Er  Er5  1  0.457190  0.542810  0.750000  1
  Er  Er6  1  0.457190  0.914379  0.750000  1
  Er  Er7  1  0.085621  0.542810  0.750000  1
  Er  Er8  1  0.211311  0.788689  0.437272  1
  Er  Er9  1  0.211311  0.422622  0.437272  1
  Er  Er10  1  0.577378  0.788689  0.437272  1
  Er  Er11  1  0.790321  0.209679  0.559918  1
  Er  Er12  1  0.790321  0.580642  0.559918  1
  Er  Er13  1  0.419358  0.209679  0.559918  1
  Er  Er14  1  0.790321  0.209679  0.940082  1
  Er  Er15  1  0.790321  0.580642  0.940082  1
  Er  Er16  1  0.419358  0.209679  0.940082  1
  Er  Er17  1  0.211311  0.788689  0.062728  1
  Er  Er18  1  0.211311  0.422622  0.062728  1
  Er  Er19  1  0.577378  0.788689  0.062728  1
  Cd  Cd20  1  0.109041  0.890959  0.750000  1
  Cd  Cd21  1  0.109041  0.218081  0.750000  1
  Cd  Cd22  1  0.781919  0.890959  0.750000  1
  Co  Co23  1  0.333333  0.666667  0.250000  1
  Co  Co24  1  0.666667  0.333333  0.750000  1
  Pd  Pd25  1  0.868751  0.131249  0.250000  1
  Pd  Pd26  1  0.868751  0.737502  0.250000  1
  Pd  Pd27  1  0.262498  0.131249  0.250000  1
