# generated using pymatgen
data_Er12Ni4OsPb
_symmetry_space_group_name_H-M   'P 1'
_cell_length_a   8.27921711
_cell_length_b   8.27921622
_cell_length_c   8.27921600
_cell_angle_alpha   111.80277565
_cell_angle_beta   109.76945808
_cell_angle_gamma   106.87895500
_symmetry_Int_Tables_number   1
_chemical_formula_structural   Er12Ni4OsPb
_chemical_formula_sum   'Er12 Ni4 Os1 Pb1'
_cell_volume   436.05252826
_cell_formula_units_Z   1
loop_
 _symmetry_equiv_pos_site_id
 _symmetry_equiv_pos_as_xyz
  1  'x, y, z'
loop_
 _atom_site_type_symbol
 _atom_site_label
 _atom_site_symmetry_multiplicity
 _atom_site_fract_x
 _atom_site_fract_y
 _atom_site_fract_z
 _atom_site_occupancy
  Er  Er0  1  0.411282  0.220281  0.191002  1
  Er  Er1  1  0.588718  0.779719  0.808998  1
  Er  Er2  1  0.029280  0.220281  0.808998  1
  Er  Er3  1  0.970720  0.779719  0.191002  1
  Er  Er4  1  0.178035  0.280388  0.458422  1
  Er  Er5  1  0.821965  0.719612  0.541578  1
  Er  Er6  1  0.178035  0.719612  0.897646  1
  Er  Er7  1  0.821965  0.280388  0.102354  1
  Er  Er8  1  0.320870  0.629388  0.308518  1
  Er  Er9  1  0.679130  0.370612  0.691482  1
  Er  Er10  1  0.320870  0.012352  0.691482  1
  Er  Er11  1  0.679130  0.987648  0.308518  1
  Ni  Ni12  1  0.357573  0.000000  0.357573  1
  Ni  Ni13  1  0.642427  0.000000  0.642427  1
  Ni  Ni14  1  0.120369  0.620369  0.500000  1
  Ni  Ni15  1  0.879631  0.379631  0.500000  1
  Os  Os16  1  0.000000  0.000000  0.000000  1
  Pb  Pb17  1  0.500000  0.500000  0.000000  1
