# generated using pymatgen
data_TmLu3Al24Pt8Rh
_symmetry_space_group_name_H-M   'P 1'
_cell_length_a   7.49660210
_cell_length_b   7.52108266
_cell_length_c   13.11252805
_cell_angle_alpha   84.65774582
_cell_angle_beta   79.13863680
_cell_angle_gamma   59.90224912
_symmetry_Int_Tables_number   1
_chemical_formula_structural   TmLu3Al24Pt8Rh
_chemical_formula_sum   'Tm1 Lu3 Al24 Pt8 Rh1'
_cell_volume   628.17724416
_cell_formula_units_Z   1
loop_
 _symmetry_equiv_pos_site_id
 _symmetry_equiv_pos_as_xyz
  1  'x, y, z'
loop_
 _atom_site_type_symbol
 _atom_site_label
 _atom_site_symmetry_multiplicity
 _atom_site_fract_x
 _atom_site_fract_y
 _atom_site_fract_z
 _atom_site_occupancy
  Tm  Tm0  1  0.394176  0.168571  0.808182  1
  Lu  Lu1  1  0.605901  0.831286  0.191973  1
  Lu  Lu2  1  0.733985  0.498708  0.808012  1
  Lu  Lu3  1  0.265961  0.501331  0.191965  1
  Al  Al4  1  0.686944  0.830161  0.944833  1
  Al  Al5  1  0.313172  0.169670  0.055314  1
  Al  Al6  1  0.146539  0.832049  0.561900  1
  Al  Al7  1  0.853455  0.167952  0.438133  1
  Al  Al8  1  0.479908  0.166641  0.558971  1
  Al  Al9  1  0.520090  0.833355  0.441009  1
  Al  Al10  1  0.217955  0.165295  0.326827  1
  Al  Al11  1  0.782259  0.834514  0.673096  1
  Al  Al12  1  0.436169  0.507099  0.672983  1
  Al  Al13  1  0.563862  0.493092  0.326939  1
  Al  Al14  1  0.108781  0.160569  0.671109  1
  Al  Al15  1  0.891068  0.839418  0.328808  1
  Al  Al16  1  0.350187  0.498778  0.944993  1
  Al  Al17  1  0.649788  0.501410  0.055074  1
  Al  Al18  1  0.015572  0.172882  0.953034  1
  Al  Al19  1  0.984244  0.827139  0.047030  1
  Al  Al20  1  0.186529  0.499514  0.441084  1
  Al  Al21  1  0.813452  0.500499  0.558951  1
  Al  Al22  1  0.733683  0.164084  0.182682  1
  Al  Al23  1  0.266275  0.835755  0.817304  1
  Al  Al24  1  0.060705  0.627928  0.818232  1
  Al  Al25  1  0.939137  0.372287  0.181761  1
  Al  Al26  1  0.855027  0.042099  0.816797  1
  Al  Al27  1  0.145176  0.957838  0.183189  1
  Pt  Pt28  1  0.119694  0.491517  0.639245  1
  Pt  Pt29  1  0.880171  0.508655  0.360661  1
  Pt  Pt30  1  0.656667  0.171671  0.999810  1
  Pt  Pt31  1  0.343361  0.828310  0.000222  1
  Pt  Pt32  1  0.537015  0.166767  0.360846  1
  Pt  Pt33  1  0.463002  0.833080  0.639075  1
  Pt  Pt34  1  0.777980  0.175804  0.637668  1
  Pt  Pt35  1  0.222164  0.824209  0.362246  1
  Rh  Rh36  1  0.999942  0.500063  0.000041  1
