# generated using pymatgen
data_Hf2Zn(Co3B2)3
_symmetry_space_group_name_H-M   'P 1'
_cell_length_a   5.66249010
_cell_length_b   5.66248999
_cell_length_c   5.66248973
_cell_angle_alpha   95.43688830
_cell_angle_beta   95.43688576
_cell_angle_gamma   95.43688273
_symmetry_Int_Tables_number   1
_chemical_formula_structural   Hf2Zn(Co3B2)3
_chemical_formula_sum   'Hf2 Zn1 Co9 B6'
_cell_volume   178.94266600
_cell_formula_units_Z   1
loop_
 _symmetry_equiv_pos_site_id
 _symmetry_equiv_pos_as_xyz
  1  'x, y, z'
loop_
 _atom_site_type_symbol
 _atom_site_label
 _atom_site_symmetry_multiplicity
 _atom_site_fract_x
 _atom_site_fract_y
 _atom_site_fract_z
 _atom_site_occupancy
  Hf  Hf0  1  0.679341  0.679341  0.679341  1
  Hf  Hf1  1  0.320659  0.320659  0.320659  1
  Zn  Zn2  1  0.000000  0.000000  0.000000  1
  Co  Co3  1  0.500000  0.000000  0.000000  1
  Co  Co4  1  0.000000  0.500000  0.000000  1
  Co  Co5  1  0.000000  0.000000  0.500000  1
  Co  Co6  1  0.702926  0.201338  0.702926  1
  Co  Co7  1  0.702926  0.702926  0.201338  1
  Co  Co8  1  0.201338  0.702926  0.702926  1
  Co  Co9  1  0.297074  0.798662  0.297074  1
  Co  Co10  1  0.297074  0.297074  0.798662  1
  Co  Co11  1  0.798662  0.297074  0.297074  1
  B  B12  1  0.385089  0.000000  0.614911  1
  B  B13  1  0.614911  0.385089  0.000000  1
  B  B14  1  0.000000  0.614911  0.385089  1
  B  B15  1  0.614911  0.000000  0.385089  1
  B  B16  1  0.385089  0.614911  0.000000  1
  B  B17  1  0.000000  0.385089  0.614911  1
