# generated using pymatgen
data_Pr5BiPb2Cl
_symmetry_space_group_name_H-M   'P 1'
_cell_length_a   9.68408816
_cell_length_b   9.68408862
_cell_length_c   6.78776900
_cell_angle_alpha   90.00000000
_cell_angle_beta   90.00000000
_cell_angle_gamma   120.29606111
_symmetry_Int_Tables_number   1
_chemical_formula_structural   Pr5BiPb2Cl
_chemical_formula_sum   'Pr10 Bi2 Pb4 Cl2'
_cell_volume   549.63172768
_cell_formula_units_Z   2
loop_
 _symmetry_equiv_pos_site_id
 _symmetry_equiv_pos_as_xyz
  1  'x, y, z'
loop_
 _atom_site_type_symbol
 _atom_site_label
 _atom_site_symmetry_multiplicity
 _atom_site_fract_x
 _atom_site_fract_y
 _atom_site_fract_z
 _atom_site_occupancy
  Pr  Pr0  1  0.260697  0.997313  0.750000  1
  Pr  Pr1  1  0.739303  0.002687  0.250000  1
  Pr  Pr2  1  0.997313  0.260697  0.750000  1
  Pr  Pr3  1  0.002687  0.739303  0.250000  1
  Pr  Pr4  1  0.740686  0.740686  0.750000  1
  Pr  Pr5  1  0.259314  0.259314  0.250000  1
  Pr  Pr6  1  0.331982  0.668018  0.500000  1
  Pr  Pr7  1  0.668018  0.331982  0.500000  1
  Pr  Pr8  1  0.668018  0.331982  0.000000  1
  Pr  Pr9  1  0.331982  0.668018  0.000000  1
  Bi  Bi10  1  0.385420  0.385420  0.750000  1
  Bi  Bi11  1  0.614580  0.614580  0.250000  1
  Pb  Pb12  1  0.612785  0.999155  0.750000  1
  Pb  Pb13  1  0.387215  0.000845  0.250000  1
  Pb  Pb14  1  0.999155  0.612785  0.750000  1
  Pb  Pb15  1  0.000845  0.387215  0.250000  1
  Cl  Cl16  1  0.000000  0.000000  0.500000  1
  Cl  Cl17  1  0.000000  0.000000  0.000000  1
