# generated using pymatgen
data_Cs12MgMnTe8
_symmetry_space_group_name_H-M   'P 1'
_cell_length_a   11.86492100
_cell_length_b   11.86491988
_cell_length_c   9.28973400
_cell_angle_alpha   90.00000000
_cell_angle_beta   90.00000000
_cell_angle_gamma   120.00000032
_symmetry_Int_Tables_number   1
_chemical_formula_structural   Cs12MgMnTe8
_chemical_formula_sum   'Cs12 Mg1 Mn1 Te8'
_cell_volume   1132.56613069
_cell_formula_units_Z   1
loop_
 _symmetry_equiv_pos_site_id
 _symmetry_equiv_pos_as_xyz
  1  'x, y, z'
loop_
 _atom_site_type_symbol
 _atom_site_label
 _atom_site_symmetry_multiplicity
 _atom_site_fract_x
 _atom_site_fract_y
 _atom_site_fract_z
 _atom_site_occupancy
  Cs  Cs0  1  0.147718  0.852282  0.545493  1
  Cs  Cs1  1  0.295625  0.147813  0.045229  1
  Cs  Cs2  1  0.852187  0.704375  0.045229  1
  Cs  Cs3  1  0.147718  0.295436  0.545493  1
  Cs  Cs4  1  0.704564  0.852282  0.545493  1
  Cs  Cs5  1  0.852187  0.147813  0.045229  1
  Cs  Cs6  1  0.526666  0.473334  0.364314  1
  Cs  Cs7  1  0.052285  0.526143  0.863824  1
  Cs  Cs8  1  0.473857  0.947715  0.863824  1
  Cs  Cs9  1  0.526666  0.053332  0.364314  1
  Cs  Cs10  1  0.946668  0.473334  0.364314  1
  Cs  Cs11  1  0.473857  0.526143  0.863824  1
  Mg  Mg12  1  0.333333  0.666667  0.250698  1
  Mn  Mn13  1  0.666667  0.333333  0.750013  1
  Te  Te14  1  0.333333  0.666667  0.562236  1
  Te  Te15  1  0.666667  0.333333  0.054919  1
  Te  Te16  1  0.199679  0.800321  0.153711  1
  Te  Te17  1  0.405752  0.202876  0.655805  1
  Te  Te18  1  0.797124  0.594248  0.655805  1
  Te  Te19  1  0.199679  0.399357  0.153711  1
  Te  Te20  1  0.600643  0.800321  0.153711  1
  Te  Te21  1  0.797124  0.202876  0.655805  1
