# generated using pymatgen
data_Ce2SbHN
_symmetry_space_group_name_H-M   'P 1'
_cell_length_a   6.97936735
_cell_length_b   6.97936689
_cell_length_c   6.97936721
_cell_angle_alpha   147.52840754
_cell_angle_beta   147.52839979
_cell_angle_gamma   46.58203099
_symmetry_Int_Tables_number   1
_chemical_formula_structural   Ce2SbHN
_chemical_formula_sum   'Ce2 Sb1 H1 N1'
_cell_volume   97.64224422
_cell_formula_units_Z   1
loop_
 _symmetry_equiv_pos_site_id
 _symmetry_equiv_pos_as_xyz
  1  'x, y, z'
loop_
 _atom_site_type_symbol
 _atom_site_label
 _atom_site_symmetry_multiplicity
 _atom_site_fract_x
 _atom_site_fract_y
 _atom_site_fract_z
 _atom_site_occupancy
  Ce  Ce0  1  0.349675  0.349675  0.000000  1
  Ce  Ce1  1  0.650325  0.650325  0.000000  1
  Sb  Sb2  1  0.000000  0.000000  0.000000  1
  H  H3  1  0.250000  0.750000  0.500000  1
  N  N4  1  0.750000  0.250000  0.500000  1
