# generated using pymatgen
data_Ho3Si2BRh6
_symmetry_space_group_name_H-M   'P 1'
_cell_length_a   5.51692500
_cell_length_b   5.51692458
_cell_length_c   14.61015500
_cell_angle_alpha   90.00000000
_cell_angle_beta   90.00000000
_cell_angle_gamma   119.99999655
_symmetry_Int_Tables_number   1
_chemical_formula_structural   Ho3Si2BRh6
_chemical_formula_sum   'Ho6 Si4 B2 Rh12'
_cell_volume   385.10538971
_cell_formula_units_Z   2
loop_
 _symmetry_equiv_pos_site_id
 _symmetry_equiv_pos_as_xyz
  1  'x, y, z'
loop_
 _atom_site_type_symbol
 _atom_site_label
 _atom_site_symmetry_multiplicity
 _atom_site_fract_x
 _atom_site_fract_y
 _atom_site_fract_z
 _atom_site_occupancy
  Ho  Ho0  1  0.666667  0.333333  0.970305  1
  Ho  Ho1  1  0.666667  0.333333  0.529695  1
  Ho  Ho2  1  0.333333  0.666667  0.042042  1
  Ho  Ho3  1  0.666667  0.333333  0.750000  1
  Ho  Ho4  1  0.333333  0.666667  0.457958  1
  Ho  Ho5  1  0.333333  0.666667  0.250000  1
  Si  Si6  1  0.000000  0.000000  0.489144  1
  Si  Si7  1  0.000000  0.000000  0.750000  1
  Si  Si8  1  0.333333  0.666667  0.750000  1
  Si  Si9  1  0.000000  0.000000  0.010856  1
  B  B10  1  0.666667  0.333333  0.250000  1
  B  B11  1  0.000000  0.000000  0.250000  1
  Rh  Rh12  1  0.166413  0.332828  0.874468  1
  Rh  Rh13  1  0.166413  0.332828  0.625532  1
  Rh  Rh14  1  0.667172  0.833587  0.874468  1
  Rh  Rh15  1  0.332550  0.166275  0.351862  1
  Rh  Rh16  1  0.833725  0.667450  0.351862  1
  Rh  Rh17  1  0.833725  0.166275  0.351862  1
  Rh  Rh18  1  0.833725  0.166275  0.148138  1
  Rh  Rh19  1  0.332550  0.166275  0.148138  1
  Rh  Rh20  1  0.667172  0.833587  0.625532  1
  Rh  Rh21  1  0.166413  0.833587  0.625532  1
  Rh  Rh22  1  0.833725  0.667450  0.148138  1
  Rh  Rh23  1  0.166413  0.833587  0.874468  1
