# generated using pymatgen
data_ZrPa3(GeIr)4
_symmetry_space_group_name_H-M   'P 1'
_cell_length_a   4.24356700
_cell_length_b   6.94924332
_cell_length_c   7.69284792
_cell_angle_alpha   88.31549273
_cell_angle_beta   90.00000000
_cell_angle_gamma   90.00000000
_symmetry_Int_Tables_number   1
_chemical_formula_structural   ZrPa3(GeIr)4
_chemical_formula_sum   'Zr1 Pa3 Ge4 Ir4'
_cell_volume   226.76081300
_cell_formula_units_Z   1
loop_
 _symmetry_equiv_pos_site_id
 _symmetry_equiv_pos_as_xyz
  1  'x, y, z'
loop_
 _atom_site_type_symbol
 _atom_site_label
 _atom_site_symmetry_multiplicity
 _atom_site_fract_x
 _atom_site_fract_y
 _atom_site_fract_z
 _atom_site_occupancy
  Zr  Zr0  1  0.750000  0.495497  0.300945  1
  Pa  Pa1  1  0.250000  0.002188  0.802101  1
  Pa  Pa2  1  0.250000  0.501254  0.708797  1
  Pa  Pa3  1  0.750000  0.998699  0.197245  1
  Ge  Ge4  1  0.250000  0.760201  0.403774  1
  Ge  Ge5  1  0.250000  0.322747  0.107495  1
  Ge  Ge6  1  0.750000  0.230233  0.583710  1
  Ge  Ge7  1  0.750000  0.687760  0.904952  1
  Ir  Ir8  1  0.250000  0.153768  0.418303  1
  Ir  Ir9  1  0.250000  0.720674  0.079510  1
  Ir  Ir10  1  0.750000  0.845990  0.577686  1
  Ir  Ir11  1  0.750000  0.280991  0.915483  1
