# generated using pymatgen
data_RbLiUS3
_symmetry_space_group_name_H-M   'P 1'
_cell_length_a   4.10933700
_cell_length_b   7.53864220
_cell_length_c   10.55463100
_cell_angle_alpha   90.00000000
_cell_angle_beta   90.00000000
_cell_angle_gamma   74.18384144
_symmetry_Int_Tables_number   1
_chemical_formula_structural   RbLiUS3
_chemical_formula_sum   'Rb2 Li2 U2 S6'
_cell_volume   314.59132402
_cell_formula_units_Z   2
loop_
 _symmetry_equiv_pos_site_id
 _symmetry_equiv_pos_as_xyz
  1  'x, y, z'
loop_
 _atom_site_type_symbol
 _atom_site_label
 _atom_site_symmetry_multiplicity
 _atom_site_fract_x
 _atom_site_fract_y
 _atom_site_fract_z
 _atom_site_occupancy
  Rb  Rb0  1  0.737534  0.524933  0.250000  1
  Rb  Rb1  1  0.262467  0.475067  0.750000  1
  Li  Li2  1  0.460439  0.079123  0.250000  1
  Li  Li3  1  0.539561  0.920877  0.750000  1
  U  U4  1  0.000000  0.000000  0.000000  1
  U  U5  1  0.000000  0.000000  0.500000  1
  S  S6  1  0.383066  0.233868  0.050228  1
  S  S7  1  0.048154  0.903692  0.250000  1
  S  S8  1  0.383066  0.233868  0.449772  1
  S  S9  1  0.616934  0.766132  0.550228  1
  S  S10  1  0.951847  0.096308  0.750000  1
  S  S11  1  0.616934  0.766132  0.949772  1
