# generated using pymatgen
data_Li7Dy6Ho2ZnSn8
_symmetry_space_group_name_H-M   'P 1'
_cell_length_a   9.38608600
_cell_length_b   9.38381133
_cell_length_c   7.25352703
_cell_angle_alpha   89.93858943
_cell_angle_beta   90.00000000
_cell_angle_gamma   120.00801898
_symmetry_Int_Tables_number   1
_chemical_formula_structural   Li7Dy6Ho2ZnSn8
_chemical_formula_sum   'Li7 Dy6 Ho2 Zn1 Sn8'
_cell_volume   553.23319508
_cell_formula_units_Z   1
loop_
 _symmetry_equiv_pos_site_id
 _symmetry_equiv_pos_as_xyz
  1  'x, y, z'
loop_
 _atom_site_type_symbol
 _atom_site_label
 _atom_site_symmetry_multiplicity
 _atom_site_fract_x
 _atom_site_fract_y
 _atom_site_fract_z
 _atom_site_occupancy
  Li  Li0  1  0.165203  0.832429  0.288991  1
  Li  Li1  1  0.667225  0.832429  0.288991  1
  Li  Li2  1  0.833174  0.666346  0.789239  1
  Li  Li3  1  0.832002  0.166114  0.788400  1
  Li  Li4  1  0.334113  0.166114  0.788400  1
  Li  Li5  1  0.334053  0.668106  0.679263  1
  Li  Li6  1  0.668250  0.336499  0.175676  1
  Dy  Dy7  1  0.511392  0.022784  0.496654  1
  Dy  Dy8  1  0.511336  0.488661  0.493080  1
  Dy  Dy9  1  0.977326  0.488661  0.493080  1
  Dy  Dy10  1  0.488873  0.977748  0.990093  1
  Dy  Dy11  1  0.486917  0.510137  0.992667  1
  Dy  Dy12  1  0.023220  0.510137  0.992667  1
  Ho  Ho13  1  0.999407  0.998815  0.498605  1
  Ho  Ho14  1  0.001007  0.002015  0.997771  1
  Zn  Zn15  1  0.166502  0.333005  0.299991  1
  Sn  Sn16  1  0.166099  0.332198  0.729670  1
  Sn  Sn17  1  0.165537  0.832769  0.728531  1
  Sn  Sn18  1  0.667231  0.832769  0.728531  1
  Sn  Sn19  1  0.833935  0.667869  0.229836  1
  Sn  Sn20  1  0.831753  0.165659  0.227078  1
  Sn  Sn21  1  0.333907  0.165659  0.227078  1
  Sn  Sn22  1  0.334447  0.668895  0.257661  1
  Sn  Sn23  1  0.667091  0.334182  0.760017  1
