# generated using pymatgen
data_TbTm3Pt4F28
_symmetry_space_group_name_H-M   'P 1'
_cell_length_a   5.50246073
_cell_length_b   8.83073631
_cell_length_c   11.93963452
_cell_angle_alpha   62.45314420
_cell_angle_beta   90.05318613
_cell_angle_gamma   90.00193243
_symmetry_Int_Tables_number   1
_chemical_formula_structural   TbTm3Pt4F28
_chemical_formula_sum   'Tb1 Tm3 Pt4 F28'
_cell_volume   514.38527187
_cell_formula_units_Z   1
loop_
 _symmetry_equiv_pos_site_id
 _symmetry_equiv_pos_as_xyz
  1  'x, y, z'
loop_
 _atom_site_type_symbol
 _atom_site_label
 _atom_site_symmetry_multiplicity
 _atom_site_fract_x
 _atom_site_fract_y
 _atom_site_fract_z
 _atom_site_occupancy
  Tb  Tb0  1  0.239322  0.816024  0.763875  1
  Tm  Tm1  1  0.260788  0.816265  0.263494  1
  Tm  Tm2  1  0.738225  0.186900  0.736234  1
  Tm  Tm3  1  0.760884  0.184154  0.236534  1
  Pt  Pt4  1  0.759297  0.726660  0.044725  1
  Pt  Pt5  1  0.240529  0.270647  0.958429  1
  Pt  Pt6  1  0.260054  0.274220  0.456206  1
  Pt  Pt7  1  0.741564  0.726840  0.540638  1
  F  F8  1  0.938886  0.704917  0.411857  1
  F  F9  1  0.061103  0.295791  0.585051  1
  F  F10  1  0.439960  0.293869  0.086338  1
  F  F11  1  0.563172  0.704264  0.915431  1
  F  F12  1  0.464861  0.727358  0.137803  1
  F  F13  1  0.534368  0.272440  0.863902  1
  F  F14  1  0.966747  0.273104  0.362254  1
  F  F15  1  0.036072  0.725494  0.633888  1
  F  F16  1  0.952325  0.743459  0.177469  1
  F  F17  1  0.045728  0.255293  0.825120  1
  F  F18  1  0.454673  0.257264  0.323753  1
  F  F19  1  0.551095  0.741489  0.674834  1
  F  F20  1  0.769655  0.475653  0.143555  1
  F  F21  1  0.229181  0.520658  0.858721  1
  F  F22  1  0.271078  0.524666  0.357253  1
  F  F23  1  0.729921  0.476268  0.641094  1
  F  F24  1  0.939894  0.278370  0.045850  1
  F  F25  1  0.060094  0.718216  0.958552  1
  F  F26  1  0.438555  0.720680  0.454096  1
  F  F27  1  0.560780  0.280971  0.544309  1
  F  F28  1  0.741488  0.977386  0.447128  1
  F  F29  1  0.259419  0.023808  0.549862  1
  F  F30  1  0.240767  0.020304  0.052702  1
  F  F31  1  0.759832  0.977196  0.949324  1
  F  F32  1  0.583645  0.970798  0.232491  1
  F  F33  1  0.414587  0.036013  0.768239  1
  F  F34  1  0.083880  0.029769  0.267566  1
  F  F35  1  0.907570  0.972793  0.731425  1
