# generated using pymatgen
data_Er4FeCo4
_symmetry_space_group_name_H-M   'P 1'
_cell_length_a   5.44403341
_cell_length_b   5.44403303
_cell_length_c   8.70512200
_cell_angle_alpha   72.13585977
_cell_angle_beta   72.13586188
_cell_angle_gamma   42.24990863
_symmetry_Int_Tables_number   1
_chemical_formula_structural   Er4FeCo4
_chemical_formula_sum   'Er4 Fe1 Co4'
_cell_volume   163.82034073
_cell_formula_units_Z   1
loop_
 _symmetry_equiv_pos_site_id
 _symmetry_equiv_pos_as_xyz
  1  'x, y, z'
loop_
 _atom_site_type_symbol
 _atom_site_label
 _atom_site_symmetry_multiplicity
 _atom_site_fract_x
 _atom_site_fract_y
 _atom_site_fract_z
 _atom_site_occupancy
  Er  Er0  1  0.742906  0.742906  0.660574  1
  Er  Er1  1  0.257094  0.257094  0.339426  1
  Er  Er2  1  0.390781  0.390781  0.883250  1
  Er  Er3  1  0.609219  0.609219  0.116750  1
  Fe  Fe4  1  0.500000  0.500000  0.500000  1
  Co  Co5  1  0.033911  0.033911  0.638277  1
  Co  Co6  1  0.966089  0.966089  0.361723  1
  Co  Co7  1  0.089906  0.089906  0.878015  1
  Co  Co8  1  0.910094  0.910094  0.121985  1
