# generated using pymatgen
data_U4NbRe2WC8
_symmetry_space_group_name_H-M   'P 1'
_cell_length_a   3.21591700
_cell_length_b   5.64384939
_cell_length_c   11.09238219
_cell_angle_alpha   90.09694848
_cell_angle_beta   90.00000000
_cell_angle_gamma   90.00000000
_symmetry_Int_Tables_number   1
_chemical_formula_structural   U4NbRe2WC8
_chemical_formula_sum   'U4 Nb1 Re2 W1 C8'
_cell_volume   201.32812578
_cell_formula_units_Z   1
loop_
 _symmetry_equiv_pos_site_id
 _symmetry_equiv_pos_as_xyz
  1  'x, y, z'
loop_
 _atom_site_type_symbol
 _atom_site_label
 _atom_site_symmetry_multiplicity
 _atom_site_fract_x
 _atom_site_fract_y
 _atom_site_fract_z
 _atom_site_occupancy
  U  U0  1  0.250000  0.079200  0.855818  1
  U  U1  1  0.250000  0.580902  0.642862  1
  U  U2  1  0.750000  0.919489  0.140928  1
  U  U3  1  0.750000  0.419094  0.360215  1
  Nb  Nb4  1  0.250000  0.420968  0.101022  1
  Re  Re5  1  0.750000  0.577045  0.895200  1
  Re  Re6  1  0.750000  0.079530  0.603635  1
  W  W7  1  0.250000  0.920451  0.400396  1
  C  C8  1  0.250000  0.158887  0.246841  1
  C  C9  1  0.250000  0.666806  0.260204  1
  C  C10  1  0.750000  0.840058  0.753735  1
  C  C11  1  0.750000  0.339977  0.744388  1
  C  C12  1  0.250000  0.750823  0.989110  1
  C  C13  1  0.250000  0.248840  0.509002  1
  C  C14  1  0.750000  0.245610  0.001837  1
  C  C15  1  0.750000  0.752318  0.494808  1
