# generated using pymatgen
data_La13PrIrRh5
_symmetry_space_group_name_H-M   'P 1'
_cell_length_a   10.23219400
_cell_length_b   10.24566790
_cell_length_c   6.55106400
_cell_angle_alpha   89.57140454
_cell_angle_beta   90.00000000
_cell_angle_gamma   119.95650693
_symmetry_Int_Tables_number   1
_chemical_formula_structural   La13PrIrRh5
_chemical_formula_sum   'La13 Pr1 Ir1 Rh5'
_cell_volume   595.01168774
_cell_formula_units_Z   1
loop_
 _symmetry_equiv_pos_site_id
 _symmetry_equiv_pos_as_xyz
  1  'x, y, z'
loop_
 _atom_site_type_symbol
 _atom_site_label
 _atom_site_symmetry_multiplicity
 _atom_site_fract_x
 _atom_site_fract_y
 _atom_site_fract_z
 _atom_site_occupancy
  La  La0  1  0.665627  0.331250  0.973334  1
  La  La1  1  0.125511  0.875144  0.240451  1
  La  La2  1  0.749633  0.875144  0.240451  1
  La  La3  1  0.125572  0.251143  0.239206  1
  La  La4  1  0.876219  0.126228  0.738643  1
  La  La5  1  0.250010  0.126228  0.738643  1
  La  La6  1  0.875782  0.751563  0.742988  1
  La  La7  1  0.538694  0.461723  0.437281  1
  La  La8  1  0.923031  0.461723  0.437281  1
  La  La9  1  0.537712  0.075423  0.433745  1
  La  La10  1  0.461657  0.539210  0.934205  1
  La  La11  1  0.077553  0.539210  0.934205  1
  La  La12  1  0.459476  0.918952  0.936214  1
  Pr  Pr13  1  0.333201  0.666403  0.466574  1
  Ir  Ir14  1  0.187178  0.374356  0.695859  1
  Rh  Rh15  1  0.812605  0.188273  0.199212  1
  Rh  Rh16  1  0.375670  0.188273  0.199212  1
  Rh  Rh17  1  0.812023  0.624047  0.197731  1
  Rh  Rh18  1  0.185962  0.812851  0.700276  1
  Rh  Rh19  1  0.626889  0.812851  0.700276  1
