# generated using pymatgen
data_Nd18Er2Si15Os
_symmetry_space_group_name_H-M   'P 1'
_cell_length_a   7.66012403
_cell_length_b   7.97504922
_cell_length_c   15.10068900
_cell_angle_alpha   90.00000000
_cell_angle_beta   90.00000000
_cell_angle_gamma   89.86355301
_symmetry_Int_Tables_number   1
_chemical_formula_structural   Nd18Er2Si15Os
_chemical_formula_sum   'Nd18 Er2 Si15 Os1'
_cell_volume   922.49645398
_cell_formula_units_Z   1
loop_
 _symmetry_equiv_pos_site_id
 _symmetry_equiv_pos_as_xyz
  1  'x, y, z'
loop_
 _atom_site_type_symbol
 _atom_site_label
 _atom_site_symmetry_multiplicity
 _atom_site_fract_x
 _atom_site_fract_y
 _atom_site_fract_z
 _atom_site_occupancy
  Nd  Nd0  1  0.139899  0.516825  0.750000  1
  Nd  Nd1  1  0.811717  0.320705  0.620910  1
  Nd  Nd2  1  0.461463  0.689924  0.900380  1
  Nd  Nd3  1  0.963260  0.812916  0.902139  1
  Nd  Nd4  1  0.198482  0.675457  0.127738  1
  Nd  Nd5  1  0.681588  0.813423  0.125473  1
  Nd  Nd6  1  0.312068  0.182019  0.878446  1
  Nd  Nd7  1  0.198482  0.675457  0.372262  1
  Nd  Nd8  1  0.035884  0.184689  0.100175  1
  Nd  Nd9  1  0.312068  0.182019  0.621554  1
  Nd  Nd10  1  0.531229  0.324182  0.398808  1
  Nd  Nd11  1  0.811717  0.320705  0.879090  1
  Nd  Nd12  1  0.963260  0.812916  0.597861  1
  Nd  Nd13  1  0.461463  0.689924  0.599620  1
  Nd  Nd14  1  0.035884  0.184689  0.399825  1
  Nd  Nd15  1  0.681588  0.813423  0.374527  1
  Nd  Nd16  1  0.637312  0.986039  0.750000  1
  Nd  Nd17  1  0.531229  0.324182  0.101192  1
  Er  Er18  1  0.846029  0.484646  0.250000  1
  Er  Er19  1  0.363133  0.015305  0.250000  1
  Si  Si20  1  0.244911  0.364800  0.250000  1
  Si  Si21  1  0.868549  0.523633  0.456236  1
  Si  Si22  1  0.519369  0.402454  0.750000  1
  Si  Si23  1  0.635477  0.027511  0.961184  1
  Si  Si24  1  0.015592  0.099030  0.750000  1
  Si  Si25  1  0.752335  0.621255  0.750000  1
  Si  Si26  1  0.749761  0.123484  0.250000  1
  Si  Si27  1  0.360092  0.977168  0.457009  1
  Si  Si28  1  0.988986  0.905085  0.250000  1
  Si  Si29  1  0.360092  0.977168  0.042991  1
  Si  Si30  1  0.635477  0.027511  0.538816  1
  Si  Si31  1  0.140316  0.473298  0.962282  1
  Si  Si32  1  0.140316  0.473298  0.537718  1
  Si  Si33  1  0.868549  0.523633  0.043764  1
  Si  Si34  1  0.249849  0.879730  0.750000  1
  Os  Os35  1  0.492574  0.591499  0.250000  1
