# generated using pymatgen
data_Dy5Co19(SiP)6
_symmetry_space_group_name_H-M   'P 1'
_cell_length_a   12.06591200
_cell_length_b   12.06591310
_cell_length_c   3.67882900
_cell_angle_alpha   90.00000000
_cell_angle_beta   90.00000000
_cell_angle_gamma   120.00000248
_symmetry_Int_Tables_number   1
_chemical_formula_structural   Dy5Co19(SiP)6
_chemical_formula_sum   'Dy5 Co19 Si6 P6'
_cell_volume   463.83185180
_cell_formula_units_Z   1
loop_
 _symmetry_equiv_pos_site_id
 _symmetry_equiv_pos_as_xyz
  1  'x, y, z'
loop_
 _atom_site_type_symbol
 _atom_site_label
 _atom_site_symmetry_multiplicity
 _atom_site_fract_x
 _atom_site_fract_y
 _atom_site_fract_z
 _atom_site_occupancy
  Dy  Dy0  1  0.666667  0.333333  0.000000  1
  Dy  Dy1  1  0.333333  0.666667  0.000000  1
  Dy  Dy2  1  0.815230  0.815230  0.500000  1
  Dy  Dy3  1  0.184770  0.000000  0.500000  1
  Dy  Dy4  1  0.000000  0.184770  0.500000  1
  Co  Co5  1  0.878482  0.355224  0.500000  1
  Co  Co6  1  0.644776  0.523259  0.500000  1
  Co  Co7  1  0.476741  0.121518  0.500000  1
  Co  Co8  1  0.355224  0.878482  0.500000  1
  Co  Co9  1  0.523259  0.644776  0.500000  1
  Co  Co10  1  0.121518  0.476741  0.500000  1
  Co  Co11  1  0.447031  0.447031  0.000000  1
  Co  Co12  1  0.552969  0.000000  0.000000  1
  Co  Co13  1  0.000000  0.552969  0.000000  1
  Co  Co14  1  0.805551  0.178836  0.000000  1
  Co  Co15  1  0.821164  0.626715  0.000000  1
  Co  Co16  1  0.373285  0.194449  0.000000  1
  Co  Co17  1  0.178836  0.805551  0.000000  1
  Co  Co18  1  0.626715  0.821164  0.000000  1
  Co  Co19  1  0.194449  0.373285  0.000000  1
  Co  Co20  1  0.277623  0.277623  0.500000  1
  Co  Co21  1  0.722377  0.000000  0.500000  1
  Co  Co22  1  0.000000  0.722377  0.500000  1
  Co  Co23  1  0.000000  0.000000  0.000000  1
  Si  Si24  1  0.681438  0.159283  0.500000  1
  Si  Si25  1  0.840717  0.522155  0.500000  1
  Si  Si26  1  0.477845  0.318562  0.500000  1
  Si  Si27  1  0.159283  0.681438  0.500000  1
  Si  Si28  1  0.522155  0.840717  0.500000  1
  Si  Si29  1  0.318562  0.477845  0.500000  1
  P  P30  1  0.181235  0.181235  0.000000  1
  P  P31  1  0.818765  0.000000  0.000000  1
  P  P32  1  0.000000  0.818765  0.000000  1
  P  P33  1  0.631184  0.631184  0.000000  1
  P  P34  1  0.368816  0.000000  0.000000  1
  P  P35  1  0.000000  0.368816  0.000000  1
