# generated using pymatgen
data_Cs2Fe(TeO4)3
_symmetry_space_group_name_H-M   'P 1'
_cell_length_a   7.29074314
_cell_length_b   7.29074296
_cell_length_c   7.28923610
_cell_angle_alpha   60.48440900
_cell_angle_beta   60.48440816
_cell_angle_gamma   60.48302444
_symmetry_Int_Tables_number   1
_chemical_formula_structural   Cs2Fe(TeO4)3
_chemical_formula_sum   'Cs2 Fe1 Te3 O12'
_cell_volume   276.97160967
_cell_formula_units_Z   1
loop_
 _symmetry_equiv_pos_site_id
 _symmetry_equiv_pos_as_xyz
  1  'x, y, z'
loop_
 _atom_site_type_symbol
 _atom_site_label
 _atom_site_symmetry_multiplicity
 _atom_site_fract_x
 _atom_site_fract_y
 _atom_site_fract_z
 _atom_site_occupancy
  Cs  Cs0  1  0.123101  0.137307  0.627056  1
  Cs  Cs1  1  0.862693  0.876899  0.372944  1
  Fe  Fe2  1  0.497748  0.502252  0.000000  1
  Te  Te3  1  0.497551  0.002121  0.000042  1
  Te  Te4  1  0.997879  0.502449  0.999958  1
  Te  Te5  1  0.497550  0.502450  0.500000  1
  O  O6  1  0.821832  0.826218  0.929745  1
  O  O7  1  0.431017  0.433838  0.323961  1
  O  O8  1  0.430713  0.826295  0.931418  1
  O  O9  1  0.821500  0.431970  0.323611  1
  O  O10  1  0.821610  0.434599  0.932497  1
  O  O11  1  0.427858  0.826131  0.323881  1
  O  O12  1  0.173782  0.178168  0.070255  1
  O  O13  1  0.566162  0.568983  0.676039  1
  O  O14  1  0.565401  0.178390  0.067503  1
  O  O15  1  0.173869  0.572142  0.676119  1
  O  O16  1  0.173705  0.569287  0.068582  1
  O  O17  1  0.568030  0.178500  0.676389  1
