# generated using pymatgen
data_Ta2Be2Tc
_symmetry_space_group_name_H-M   'P 1'
_cell_length_a   6.32937900
_cell_length_b   6.32937900
_cell_length_c   3.29637700
_cell_angle_alpha   90.00000000
_cell_angle_beta   90.00000000
_cell_angle_gamma   90.00000000
_symmetry_Int_Tables_number   1
_chemical_formula_structural   Ta2Be2Tc
_chemical_formula_sum   'Ta4 Be4 Tc2'
_cell_volume   132.05628599
_cell_formula_units_Z   2
loop_
 _symmetry_equiv_pos_site_id
 _symmetry_equiv_pos_as_xyz
  1  'x, y, z'
loop_
 _atom_site_type_symbol
 _atom_site_label
 _atom_site_symmetry_multiplicity
 _atom_site_fract_x
 _atom_site_fract_y
 _atom_site_fract_z
 _atom_site_occupancy
  Ta  Ta0  1  0.678133  0.178133  0.500000  1
  Ta  Ta1  1  0.321867  0.821867  0.500000  1
  Ta  Ta2  1  0.178133  0.321867  0.500000  1
  Ta  Ta3  1  0.821867  0.678133  0.500000  1
  Be  Be4  1  0.117204  0.617204  0.000000  1
  Be  Be5  1  0.882796  0.382796  0.000000  1
  Be  Be6  1  0.617204  0.882796  0.000000  1
  Be  Be7  1  0.382796  0.117204  0.000000  1
  Tc  Tc8  1  0.500000  0.500000  0.000000  1
  Tc  Tc9  1  0.000000  0.000000  0.000000  1
