# generated using pymatgen
data_Sr7Yb13Ag16
_symmetry_space_group_name_H-M   'P 1'
_cell_length_a   8.21745078
_cell_length_b   8.29268524
_cell_length_c   15.61374600
_cell_angle_alpha   89.90383532
_cell_angle_beta   89.87809464
_cell_angle_gamma   89.91237386
_symmetry_Int_Tables_number   1
_chemical_formula_structural   Sr7Yb13Ag16
_chemical_formula_sum   'Sr7 Yb13 Ag16'
_cell_volume   1063.98940392
_cell_formula_units_Z   1
loop_
 _symmetry_equiv_pos_site_id
 _symmetry_equiv_pos_as_xyz
  1  'x, y, z'
loop_
 _atom_site_type_symbol
 _atom_site_label
 _atom_site_symmetry_multiplicity
 _atom_site_fract_x
 _atom_site_fract_y
 _atom_site_fract_z
 _atom_site_occupancy
  Sr  Sr0  1  0.987564  0.174473  0.598107  1
  Sr  Sr1  1  0.512643  0.674465  0.403197  1
  Sr  Sr2  1  0.014116  0.825764  0.096123  1
  Sr  Sr3  1  0.513083  0.672088  0.093902  1
  Sr  Sr4  1  0.012391  0.825959  0.403346  1
  Sr  Sr5  1  0.487441  0.325763  0.597023  1
  Sr  Sr6  1  0.986589  0.175348  0.903625  1
  Yb  Yb7  1  0.325506  0.832225  0.877661  1
  Yb  Yb8  1  0.824986  0.667045  0.624128  1
  Yb  Yb9  1  0.674481  0.167709  0.377228  1
  Yb  Yb10  1  0.176157  0.332666  0.122000  1
  Yb  Yb11  1  0.672663  0.170580  0.120332  1
  Yb  Yb12  1  0.173618  0.331803  0.377554  1
  Yb  Yb13  1  0.326653  0.832061  0.623822  1
  Yb  Yb14  1  0.823399  0.666357  0.878597  1
  Yb  Yb15  1  0.482519  0.319772  0.899628  1
  Yb  Yb16  1  0.159722  0.495027  0.751303  1
  Yb  Yb17  1  0.658304  0.005101  0.750964  1
  Yb  Yb18  1  0.841151  0.504114  0.249489  1
  Yb  Yb19  1  0.341476  0.995718  0.249149  1
  Ag  Ag20  1  0.346204  0.041690  0.041540  1
  Ag  Ag21  1  0.845646  0.463449  0.456111  1
  Ag  Ag22  1  0.654371  0.963160  0.544676  1
  Ag  Ag23  1  0.163828  0.530527  0.954175  1
  Ag  Ag24  1  0.650554  0.972249  0.953031  1
  Ag  Ag25  1  0.154090  0.537095  0.544782  1
  Ag  Ag26  1  0.345920  0.036513  0.455827  1
  Ag  Ag27  1  0.849449  0.463801  0.044003  1
  Ag  Ag28  1  0.526576  0.620226  0.753653  1
  Ag  Ag29  1  0.029804  0.875134  0.750759  1
  Ag  Ag30  1  0.470771  0.374462  0.249970  1
  Ag  Ag31  1  0.970199  0.126159  0.248999  1
  Ag  Ag32  1  0.284904  0.126107  0.753292  1
  Ag  Ag33  1  0.775765  0.374925  0.753481  1
  Ag  Ag34  1  0.718552  0.877134  0.248862  1
  Ag  Ag35  1  0.218903  0.623336  0.249661  1
