# generated using pymatgen
data_MgTa(TiPt6)2
_symmetry_space_group_name_H-M   'P 1'
_cell_length_a   5.61937400
_cell_length_b   5.61937431
_cell_length_c   9.11687000
_cell_angle_alpha   90.00000000
_cell_angle_beta   90.00000000
_cell_angle_gamma   119.99999815
_symmetry_Int_Tables_number   1
_chemical_formula_structural   MgTa(TiPt6)2
_chemical_formula_sum   'Mg1 Ta1 Ti2 Pt12'
_cell_volume   249.31723490
_cell_formula_units_Z   1
loop_
 _symmetry_equiv_pos_site_id
 _symmetry_equiv_pos_as_xyz
  1  'x, y, z'
loop_
 _atom_site_type_symbol
 _atom_site_label
 _atom_site_symmetry_multiplicity
 _atom_site_fract_x
 _atom_site_fract_y
 _atom_site_fract_z
 _atom_site_occupancy
  Mg  Mg0  1  0.333333  0.666667  0.249275  1
  Ta  Ta1  1  0.000000  0.000000  0.496364  1
  Ti  Ti2  1  0.000000  0.000000  0.003026  1
  Ti  Ti3  1  0.666667  0.333333  0.752093  1
  Pt  Pt4  1  0.501813  0.498187  0.503994  1
  Pt  Pt5  1  0.501813  0.003627  0.503994  1
  Pt  Pt6  1  0.996373  0.498187  0.503994  1
  Pt  Pt7  1  0.501986  0.498014  0.995845  1
  Pt  Pt8  1  0.501986  0.003972  0.995845  1
  Pt  Pt9  1  0.996028  0.498014  0.995845  1
  Pt  Pt10  1  0.832222  0.664444  0.249524  1
  Pt  Pt11  1  0.335556  0.167778  0.249524  1
  Pt  Pt12  1  0.832222  0.167778  0.249524  1
  Pt  Pt13  1  0.166678  0.333357  0.750385  1
  Pt  Pt14  1  0.666643  0.833322  0.750385  1
  Pt  Pt15  1  0.166678  0.833322  0.750385  1
