# generated using pymatgen
data_Dy20Si15Ag
_symmetry_space_group_name_H-M   'P 1'
_cell_length_a   7.45957505
_cell_length_b   7.69779344
_cell_length_c   14.64768128
_cell_angle_alpha   89.85640263
_cell_angle_beta   89.48666236
_cell_angle_gamma   90.16811092
_symmetry_Int_Tables_number   1
_chemical_formula_structural   Dy20Si15Ag
_chemical_formula_sum   'Dy20 Si15 Ag1'
_cell_volume   841.06300280
_cell_formula_units_Z   1
loop_
 _symmetry_equiv_pos_site_id
 _symmetry_equiv_pos_as_xyz
  1  'x, y, z'
loop_
 _atom_site_type_symbol
 _atom_site_label
 _atom_site_symmetry_multiplicity
 _atom_site_fract_x
 _atom_site_fract_y
 _atom_site_fract_z
 _atom_site_occupancy
  Dy  Dy0  1  0.648100  0.990399  0.249928  1
  Dy  Dy1  1  0.149877  0.511564  0.248217  1
  Dy  Dy2  1  0.848588  0.488597  0.749634  1
  Dy  Dy3  1  0.349894  0.012204  0.750116  1
  Dy  Dy4  1  0.975312  0.822384  0.101094  1
  Dy  Dy5  1  0.471629  0.683795  0.401207  1
  Dy  Dy6  1  0.521081  0.315171  0.899023  1
  Dy  Dy7  1  0.029742  0.182501  0.598522  1
  Dy  Dy8  1  0.030320  0.176582  0.900028  1
  Dy  Dy9  1  0.529280  0.316394  0.598362  1
  Dy  Dy10  1  0.473018  0.682770  0.100553  1
  Dy  Dy11  1  0.969772  0.816827  0.400302  1
  Dy  Dy12  1  0.676031  0.825520  0.876128  1
  Dy  Dy13  1  0.181480  0.680212  0.621984  1
  Dy  Dy14  1  0.820319  0.323519  0.124061  1
  Dy  Dy15  1  0.318187  0.178473  0.377108  1
  Dy  Dy16  1  0.322421  0.178519  0.123593  1
  Dy  Dy17  1  0.819319  0.320371  0.377148  1
  Dy  Dy18  1  0.182374  0.676415  0.877826  1
  Dy  Dy19  1  0.681561  0.820953  0.622504  1
  Si  Si20  1  0.765945  0.628368  0.251400  1
  Si  Si21  1  0.266669  0.873000  0.251061  1
  Si  Si22  1  0.733963  0.126090  0.748940  1
  Si  Si23  1  0.231481  0.373560  0.747815  1
  Si  Si24  1  0.021964  0.104423  0.250303  1
  Si  Si25  1  0.523495  0.396237  0.251937  1
  Si  Si26  1  0.475711  0.603941  0.748279  1
  Si  Si27  1  0.977203  0.893330  0.748665  1
  Si  Si28  1  0.354209  0.971337  0.540055  1
  Si  Si29  1  0.649446  0.028299  0.041458  1
  Si  Si30  1  0.146630  0.470357  0.460042  1
  Si  Si31  1  0.158128  0.471115  0.042384  1
  Si  Si32  1  0.645829  0.028692  0.459408  1
  Si  Si33  1  0.351847  0.969626  0.961000  1
  Si  Si34  1  0.855036  0.529635  0.539011  1
  Ag  Ag35  1  0.844136  0.528817  0.960903  1
