# generated using pymatgen
data_Yb2B5Os2Ru
_symmetry_space_group_name_H-M   'P 1'
_cell_length_a   5.56109448
_cell_length_b   5.56109517
_cell_length_c   7.93940166
_cell_angle_alpha   59.15047831
_cell_angle_beta   59.15047489
_cell_angle_gamma   43.03229475
_symmetry_Int_Tables_number   1
_chemical_formula_structural   Yb2B5Os2Ru
_chemical_formula_sum   'Yb2 B5 Os2 Ru1'
_cell_volume   139.80280915
_cell_formula_units_Z   1
loop_
 _symmetry_equiv_pos_site_id
 _symmetry_equiv_pos_as_xyz
  1  'x, y, z'
loop_
 _atom_site_type_symbol
 _atom_site_label
 _atom_site_symmetry_multiplicity
 _atom_site_fract_x
 _atom_site_fract_y
 _atom_site_fract_z
 _atom_site_occupancy
  Yb  Yb0  1  0.393376  0.917405  0.742497  1
  Yb  Yb1  1  0.082595  0.606624  0.257503  1
  B  B2  1  0.737609  0.262391  0.000000  1
  B  B3  1  0.538291  0.532966  0.378093  1
  B  B4  1  0.467034  0.461709  0.621907  1
  B  B5  1  0.078905  0.626374  0.811294  1
  B  B6  1  0.373626  0.921095  0.188706  1
  Os  Os7  1  0.609000  0.120862  0.901107  1
  Os  Os8  1  0.879138  0.391000  0.098893  1
  Ru  Ru9  1  0.006697  0.993303  0.500000  1
