# generated using pymatgen
data_YEr2Lu5Au4
_symmetry_space_group_name_H-M   'P 1'
_cell_length_a   4.84190300
_cell_length_b   7.04766189
_cell_length_c   8.82078210
_cell_angle_alpha   89.86970711
_cell_angle_beta   90.00000000
_cell_angle_gamma   90.00000000
_symmetry_Int_Tables_number   1
_chemical_formula_structural   YEr2Lu5Au4
_chemical_formula_sum   'Y1 Er2 Lu5 Au4'
_cell_volume   301.00043045
_cell_formula_units_Z   1
loop_
 _symmetry_equiv_pos_site_id
 _symmetry_equiv_pos_as_xyz
  1  'x, y, z'
loop_
 _atom_site_type_symbol
 _atom_site_label
 _atom_site_symmetry_multiplicity
 _atom_site_fract_x
 _atom_site_fract_y
 _atom_site_fract_z
 _atom_site_occupancy
  Y  Y0  1  0.250000  0.983044  0.320780  1
  Er  Er1  1  0.750000  0.516919  0.821864  1
  Er  Er2  1  0.750000  0.017035  0.678198  1
  Lu  Lu3  1  0.250000  0.850270  0.923740  1
  Lu  Lu4  1  0.250000  0.351095  0.576391  1
  Lu  Lu5  1  0.750000  0.150203  0.076397  1
  Lu  Lu6  1  0.750000  0.648795  0.422666  1
  Lu  Lu7  1  0.250000  0.482900  0.177652  1
  Au  Au8  1  0.250000  0.254837  0.898134  1
  Au  Au9  1  0.250000  0.754057  0.604003  1
  Au  Au10  1  0.750000  0.744103  0.103177  1
  Au  Au11  1  0.750000  0.246742  0.396998  1
