# generated using pymatgen
data_Ho3Tm5B24(RhW)2
_symmetry_space_group_name_H-M   'P 1'
_cell_length_a   3.62013800
_cell_length_b   9.15531576
_cell_length_c   11.56683700
_cell_angle_alpha   90.44254979
_cell_angle_beta   90.00000000
_cell_angle_gamma   90.00000000
_symmetry_Int_Tables_number   1
_chemical_formula_structural   Ho3Tm5B24(RhW)2
_chemical_formula_sum   'Ho3 Tm5 B24 Rh2 W2'
_cell_volume   383.35410153
_cell_formula_units_Z   1
loop_
 _symmetry_equiv_pos_site_id
 _symmetry_equiv_pos_as_xyz
  1  'x, y, z'
loop_
 _atom_site_type_symbol
 _atom_site_label
 _atom_site_symmetry_multiplicity
 _atom_site_fract_x
 _atom_site_fract_y
 _atom_site_fract_z
 _atom_site_occupancy
  Ho  Ho0  1  0.500000  0.319757  0.412091  1
  Ho  Ho1  1  0.500000  0.680292  0.587932  1
  Ho  Ho2  1  0.500000  0.175634  0.916390  1
  Tm  Tm3  1  0.500000  0.824445  0.083373  1
  Tm  Tm4  1  0.500000  0.444734  0.126921  1
  Tm  Tm5  1  0.500000  0.555582  0.873260  1
  Tm  Tm6  1  0.500000  0.055284  0.627461  1
  Tm  Tm7  1  0.500000  0.944538  0.372508  1
  B  B8  1  0.000000  0.106732  0.472056  1
  B  B9  1  0.000000  0.893233  0.527881  1
  B  B10  1  0.000000  0.396321  0.970558  1
  B  B11  1  0.000000  0.604277  0.029662  1
  B  B12  1  0.000000  0.132620  0.318161  1
  B  B13  1  0.000000  0.867267  0.681845  1
  B  B14  1  0.000000  0.367882  0.815808  1
  B  B15  1  0.000000  0.632600  0.183936  1
  B  B16  1  0.000000  0.051161  0.065725  1
  B  B17  1  0.000000  0.948134  0.934597  1
  B  B18  1  0.000000  0.446206  0.565655  1
  B  B19  1  0.000000  0.553838  0.434286  1
  B  B20  1  0.000000  0.484011  0.288558  1
  B  B21  1  0.000000  0.516109  0.711432  1
  B  B22  1  0.000000  0.020757  0.785512  1
  B  B23  1  0.000000  0.978590  0.214261  1
  B  B24  1  0.000000  0.251681  0.079242  1
  B  B25  1  0.000000  0.748413  0.921350  1
  B  B26  1  0.000000  0.250700  0.579142  1
  B  B27  1  0.000000  0.749272  0.420769  1
  B  B28  1  0.000000  0.297143  0.236907  1
  B  B29  1  0.000000  0.702842  0.763118  1
  B  B30  1  0.000000  0.208782  0.734128  1
  B  B31  1  0.000000  0.791342  0.265493  1
  Rh  Rh32  1  0.500000  0.361049  0.678778  1
  Rh  Rh33  1  0.500000  0.639088  0.321109  1
  W  W34  1  0.500000  0.139220  0.180990  1
  W  W35  1  0.500000  0.860465  0.819104  1
