# generated using pymatgen
data_Zr4Si3WN
_symmetry_space_group_name_H-M   'P 1'
_cell_length_a   7.80635300
_cell_length_b   7.80635274
_cell_length_c   5.52787800
_cell_angle_alpha   90.00000000
_cell_angle_beta   90.00000000
_cell_angle_gamma   119.99999685
_symmetry_Int_Tables_number   1
_chemical_formula_structural   Zr4Si3WN
_chemical_formula_sum   'Zr8 Si6 W2 N2'
_cell_volume   291.73292926
_cell_formula_units_Z   2
loop_
 _symmetry_equiv_pos_site_id
 _symmetry_equiv_pos_as_xyz
  1  'x, y, z'
loop_
 _atom_site_type_symbol
 _atom_site_label
 _atom_site_symmetry_multiplicity
 _atom_site_fract_x
 _atom_site_fract_y
 _atom_site_fract_z
 _atom_site_occupancy
  Zr  Zr0  1  0.234675  0.000000  0.747830  1
  Zr  Zr1  1  0.765325  0.000000  0.252170  1
  Zr  Zr2  1  0.000000  0.234675  0.747830  1
  Zr  Zr3  1  0.000000  0.765325  0.252170  1
  Zr  Zr4  1  0.765325  0.765325  0.747830  1
  Zr  Zr5  1  0.234675  0.234675  0.252170  1
  Zr  Zr6  1  0.666667  0.333333  0.000000  1
  Zr  Zr7  1  0.333333  0.666667  0.000000  1
  Si  Si8  1  0.588974  0.000000  0.720528  1
  Si  Si9  1  0.411026  0.000000  0.279472  1
  Si  Si10  1  0.000000  0.588974  0.720528  1
  Si  Si11  1  0.000000  0.411026  0.279472  1
  Si  Si12  1  0.411026  0.411026  0.720528  1
  Si  Si13  1  0.588974  0.588974  0.279472  1
  W  W14  1  0.333333  0.666667  0.500000  1
  W  W15  1  0.666667  0.333333  0.500000  1
  N  N16  1  0.000000  0.000000  0.500000  1
  N  N17  1  0.000000  0.000000  0.000000  1
