# generated using pymatgen
data_Ho2TmZnCd3Au2
_symmetry_space_group_name_H-M   'P 1'
_cell_length_a   3.77376600
_cell_length_b   7.85274195
_cell_length_c   7.82822381
_cell_angle_alpha   120.10366110
_cell_angle_beta   90.00000000
_cell_angle_gamma   90.00000000
_symmetry_Int_Tables_number   1
_chemical_formula_structural   Ho2TmZnCd3Au2
_chemical_formula_sum   'Ho2 Tm1 Zn1 Cd3 Au2'
_cell_volume   200.69454340
_cell_formula_units_Z   1
loop_
 _symmetry_equiv_pos_site_id
 _symmetry_equiv_pos_as_xyz
  1  'x, y, z'
loop_
 _atom_site_type_symbol
 _atom_site_label
 _atom_site_symmetry_multiplicity
 _atom_site_fract_x
 _atom_site_fract_y
 _atom_site_fract_z
 _atom_site_occupancy
  Ho  Ho0  1  0.000000  0.407993  0.407981  1
  Ho  Ho1  1  0.000000  0.000011  0.592019  1
  Tm  Tm2  1  0.000000  0.591837  0.000000  1
  Zn  Zn3  1  0.000000  0.999602  0.000000  1
  Cd  Cd4  1  0.500000  0.743678  0.744527  1
  Cd  Cd5  1  0.500000  0.999151  0.255473  1
  Cd  Cd6  1  0.500000  0.256677  0.000000  1
  Au  Au7  1  0.500000  0.665924  0.330796  1
  Au  Au8  1  0.500000  0.335127  0.669204  1
