# generated using pymatgen
data_CaYb11Cu12(SiGe)6
_symmetry_space_group_name_H-M   'P 1'
_cell_length_a   4.29827400
_cell_length_b   7.32623800
_cell_length_c   20.81605009
_cell_angle_alpha   89.99631370
_cell_angle_beta   90.00000000
_cell_angle_gamma   90.00000000
_symmetry_Int_Tables_number   1
_chemical_formula_structural   CaYb11Cu12(SiGe)6
_chemical_formula_sum   'Ca1 Yb11 Cu12 Si6 Ge6'
_cell_volume   655.50112788
_cell_formula_units_Z   1
loop_
 _symmetry_equiv_pos_site_id
 _symmetry_equiv_pos_as_xyz
  1  'x, y, z'
loop_
 _atom_site_type_symbol
 _atom_site_label
 _atom_site_symmetry_multiplicity
 _atom_site_fract_x
 _atom_site_fract_y
 _atom_site_fract_z
 _atom_site_occupancy
  Ca  Ca0  1  0.250000  0.796000  0.832949  1
  Yb  Yb1  1  0.250000  0.713022  0.003134  1
  Yb  Yb2  1  0.750000  0.285536  0.998813  1
  Yb  Yb3  1  0.750000  0.214867  0.497896  1
  Yb  Yb4  1  0.250000  0.786119  0.502360  1
  Yb  Yb5  1  0.250000  0.794439  0.166382  1
  Yb  Yb6  1  0.750000  0.208453  0.833383  1
  Yb  Yb7  1  0.750000  0.292081  0.333381  1
  Yb  Yb8  1  0.250000  0.705125  0.665639  1
  Yb  Yb9  1  0.250000  0.708010  0.332931  1
  Yb  Yb10  1  0.750000  0.294761  0.666105  1
  Yb  Yb11  1  0.750000  0.205333  0.166998  1
  Cu  Cu12  1  0.250000  0.422588  0.097120  1
  Cu  Cu13  1  0.750000  0.590233  0.906666  1
  Cu  Cu14  1  0.750000  0.906857  0.404862  1
  Cu  Cu15  1  0.250000  0.077268  0.596459  1
  Cu  Cu16  1  0.250000  0.421558  0.235616  1
  Cu  Cu17  1  0.750000  0.592252  0.760963  1
  Cu  Cu18  1  0.750000  0.904324  0.262996  1
  Cu  Cu19  1  0.250000  0.081733  0.733224  1
  Cu  Cu20  1  0.250000  0.426289  0.435802  1
  Cu  Cu21  1  0.750000  0.590505  0.562346  1
  Cu  Cu22  1  0.750000  0.909030  0.063031  1
  Cu  Cu23  1  0.250000  0.075326  0.938007  1
  Si  Si24  1  0.750000  0.911608  0.933711  1
  Si  Si25  1  0.750000  0.588238  0.433008  1
  Si  Si26  1  0.750000  0.919961  0.726530  1
  Si  Si27  1  0.750000  0.580508  0.227217  1
  Si  Si28  1  0.750000  0.915964  0.604491  1
  Si  Si29  1  0.750000  0.583692  0.105153  1
  Ge  Ge30  1  0.250000  0.089498  0.068671  1
  Ge  Ge31  1  0.250000  0.410079  0.568217  1
  Ge  Ge32  1  0.250000  0.081819  0.269280  1
  Ge  Ge33  1  0.250000  0.417651  0.768860  1
  Ge  Ge34  1  0.250000  0.085390  0.398722  1
  Ge  Ge35  1  0.250000  0.413883  0.899073  1
