# generated using pymatgen
data_Dy5Er3Ga3Fe
_symmetry_space_group_name_H-M   'P 1'
_cell_length_a   9.94529100
_cell_length_b   9.94529192
_cell_length_c   6.96070300
_cell_angle_alpha   90.00000000
_cell_angle_beta   90.00000000
_cell_angle_gamma   119.99999363
_symmetry_Int_Tables_number   1
_chemical_formula_structural   Dy5Er3Ga3Fe
_chemical_formula_sum   'Dy10 Er6 Ga6 Fe2'
_cell_volume   596.23682211
_cell_formula_units_Z   2
loop_
 _symmetry_equiv_pos_site_id
 _symmetry_equiv_pos_as_xyz
  1  'x, y, z'
loop_
 _atom_site_type_symbol
 _atom_site_label
 _atom_site_symmetry_multiplicity
 _atom_site_fract_x
 _atom_site_fract_y
 _atom_site_fract_z
 _atom_site_occupancy
  Dy  Dy0  1  0.333333  0.666667  0.828723  1
  Dy  Dy1  1  0.666667  0.333333  0.328723  1
  Dy  Dy2  1  0.462815  0.537185  0.207680  1
  Dy  Dy3  1  0.074370  0.537185  0.207680  1
  Dy  Dy4  1  0.462815  0.925630  0.207680  1
  Dy  Dy5  1  0.537185  0.462815  0.707680  1
  Dy  Dy6  1  0.925630  0.462815  0.707680  1
  Dy  Dy7  1  0.537185  0.074370  0.707680  1
  Dy  Dy8  1  0.000000  0.000000  0.231145  1
  Dy  Dy9  1  0.000000  0.000000  0.731145  1
  Er  Er10  1  0.173074  0.826926  0.511511  1
  Er  Er11  1  0.653850  0.826926  0.511511  1
  Er  Er12  1  0.173074  0.346150  0.511511  1
  Er  Er13  1  0.826926  0.173074  0.011511  1
  Er  Er14  1  0.346150  0.173074  0.011511  1
  Er  Er15  1  0.826926  0.653850  0.011511  1
  Ga  Ga16  1  0.163430  0.836570  0.957016  1
  Ga  Ga17  1  0.673141  0.836570  0.957016  1
  Ga  Ga18  1  0.163430  0.326859  0.957016  1
  Ga  Ga19  1  0.836570  0.163430  0.457016  1
  Ga  Ga20  1  0.326859  0.163430  0.457016  1
  Ga  Ga21  1  0.836570  0.673141  0.457016  1
  Fe  Fe22  1  0.333333  0.666667  0.448930  1
  Fe  Fe23  1  0.666667  0.333333  0.948930  1
