# generated using pymatgen
data_TbEu2Ni7B2
_symmetry_space_group_name_H-M   'P 1'
_cell_length_a   5.08351100
_cell_length_b   5.08351067
_cell_length_c   14.57447900
_cell_angle_alpha   90.00000000
_cell_angle_beta   90.00000000
_cell_angle_gamma   120.00000864
_symmetry_Int_Tables_number   1
_chemical_formula_structural   TbEu2Ni7B2
_chemical_formula_sum   'Tb2 Eu4 Ni14 B4'
_cell_volume   326.17535223
_cell_formula_units_Z   2
loop_
 _symmetry_equiv_pos_site_id
 _symmetry_equiv_pos_as_xyz
  1  'x, y, z'
loop_
 _atom_site_type_symbol
 _atom_site_label
 _atom_site_symmetry_multiplicity
 _atom_site_fract_x
 _atom_site_fract_y
 _atom_site_fract_z
 _atom_site_occupancy
  Tb  Tb0  1  0.666667  0.333333  0.750000  1
  Tb  Tb1  1  0.333333  0.666667  0.250000  1
  Eu  Eu2  1  0.333333  0.666667  0.468374  1
  Eu  Eu3  1  0.666667  0.333333  0.968374  1
  Eu  Eu4  1  0.666667  0.333333  0.531626  1
  Eu  Eu5  1  0.333333  0.666667  0.031626  1
  Ni  Ni6  1  0.835122  0.670243  0.347535  1
  Ni  Ni7  1  0.329757  0.164878  0.347535  1
  Ni  Ni8  1  0.000000  0.000000  0.000000  1
  Ni  Ni9  1  0.000000  0.000000  0.500000  1
  Ni  Ni10  1  0.835122  0.164878  0.152465  1
  Ni  Ni11  1  0.670243  0.835122  0.652465  1
  Ni  Ni12  1  0.164878  0.329757  0.652465  1
  Ni  Ni13  1  0.835122  0.670243  0.152465  1
  Ni  Ni14  1  0.329757  0.164878  0.152465  1
  Ni  Ni15  1  0.670243  0.835122  0.847535  1
  Ni  Ni16  1  0.164878  0.329757  0.847535  1
  Ni  Ni17  1  0.164878  0.835122  0.652465  1
  Ni  Ni18  1  0.164878  0.835122  0.847535  1
  Ni  Ni19  1  0.835122  0.164878  0.347535  1
  B  B20  1  0.666667  0.333333  0.250000  1
  B  B21  1  0.333333  0.666667  0.750000  1
  B  B22  1  0.000000  0.000000  0.750000  1
  B  B23  1  0.000000  0.000000  0.250000  1
