# generated using pymatgen
data_CaYErZn11
_symmetry_space_group_name_H-M   'P 1'
_cell_length_a   8.17296841
_cell_length_b   8.17296870
_cell_length_c   8.17296806
_cell_angle_alpha   148.33708925
_cell_angle_beta   115.77775195
_cell_angle_gamma   73.37941976
_symmetry_Int_Tables_number   1
_chemical_formula_structural   CaYErZn11
_chemical_formula_sum   'Ca1 Y1 Er1 Zn11'
_cell_volume   253.93528438
_cell_formula_units_Z   1
loop_
 _symmetry_equiv_pos_site_id
 _symmetry_equiv_pos_as_xyz
  1  'x, y, z'
loop_
 _atom_site_type_symbol
 _atom_site_label
 _atom_site_symmetry_multiplicity
 _atom_site_fract_x
 _atom_site_fract_y
 _atom_site_fract_z
 _atom_site_occupancy
  Ca  Ca0  1  0.000023  0.000023  0.000000  1
  Y  Y1  1  0.702194  0.702194  0.000000  1
  Er  Er2  1  0.298199  0.298199  0.000000  1
  Zn  Zn3  1  0.499963  0.999963  0.500000  1
  Zn  Zn4  1  0.678513  0.499717  0.178796  1
  Zn  Zn5  1  0.320920  0.499717  0.821204  1
  Zn  Zn6  1  0.692959  0.337461  0.355499  1
  Zn  Zn7  1  0.306561  0.662756  0.643804  1
  Zn  Zn8  1  0.981962  0.337461  0.644501  1
  Zn  Zn9  1  0.018952  0.662756  0.356196  1
  Zn  Zn10  1  0.422182  0.137299  0.284883  1
  Zn  Zn11  1  0.576947  0.862578  0.714370  1
  Zn  Zn12  1  0.852417  0.137299  0.715117  1
  Zn  Zn13  1  0.148208  0.862578  0.285630  1
