# generated using pymatgen
data_AcLaIr2F14
_symmetry_space_group_name_H-M   'P 1'
_cell_length_a   5.84072800
_cell_length_b   9.48829564
_cell_length_c   12.59207881
_cell_angle_alpha   62.06897390
_cell_angle_beta   90.00000000
_cell_angle_gamma   90.00000000
_symmetry_Int_Tables_number   1
_chemical_formula_structural   AcLaIr2F14
_chemical_formula_sum   'Ac2 La2 Ir4 F28'
_cell_volume   616.54549870
_cell_formula_units_Z   2
loop_
 _symmetry_equiv_pos_site_id
 _symmetry_equiv_pos_as_xyz
  1  'x, y, z'
loop_
 _atom_site_type_symbol
 _atom_site_label
 _atom_site_symmetry_multiplicity
 _atom_site_fract_x
 _atom_site_fract_y
 _atom_site_fract_z
 _atom_site_occupancy
  Ac  Ac0  1  0.759227  0.806879  0.266377  1
  Ac  Ac1  1  0.259227  0.193121  0.233623  1
  La  La2  1  0.240404  0.188840  0.734248  1
  La  La3  1  0.740404  0.811160  0.765752  1
  Ir  Ir4  1  0.243380  0.722292  0.549181  1
  Ir  Ir5  1  0.743380  0.277708  0.950819  1
  Ir  Ir6  1  0.753792  0.271259  0.461793  1
  Ir  Ir7  1  0.253792  0.728741  0.038207  1
  F  F8  1  0.966872  0.710309  0.463928  1
  F  F9  1  0.466872  0.289691  0.036072  1
  F  F10  1  0.035128  0.282929  0.546431  1
  F  F11  1  0.535128  0.717071  0.953569  1
  F  F12  1  0.059158  0.710864  0.917589  1
  F  F13  1  0.559158  0.289136  0.582411  1
  F  F14  1  0.938883  0.293729  0.072757  1
  F  F15  1  0.438883  0.706271  0.427243  1
  F  F16  1  0.740977  0.509336  0.858439  1
  F  F17  1  0.240977  0.490664  0.641561  1
  F  F18  1  0.258775  0.497351  0.132074  1
  F  F19  1  0.758775  0.502649  0.367926  1
  F  F20  1  0.738301  0.046434  0.043156  1
  F  F21  1  0.238301  0.953566  0.456844  1
  F  F22  1  0.257368  0.960820  0.948967  1
  F  F23  1  0.757368  0.039180  0.551033  1
  F  F24  1  0.048146  0.740902  0.670622  1
  F  F25  1  0.548146  0.259098  0.829378  1
  F  F26  1  0.944682  0.256895  0.338359  1
  F  F27  1  0.444682  0.743105  0.161641  1
  F  F28  1  0.016857  0.267399  0.862761  1
  F  F29  1  0.516857  0.732601  0.637239  1
  F  F30  1  0.977666  0.733274  0.127247  1
  F  F31  1  0.477666  0.266726  0.372753  1
  F  F32  1  0.101302  0.963754  0.229859  1
  F  F33  1  0.601302  0.036246  0.270141  1
  F  F34  1  0.919081  0.026422  0.768337  1
  F  F35  1  0.419081  0.973578  0.731663  1
