# generated using pymatgen
data_Cs4Zn51
_symmetry_space_group_name_H-M   'P 1'
_cell_length_a   8.82168500
_cell_length_b   8.82168475
_cell_length_c   15.17387800
_cell_angle_alpha   73.10093747
_cell_angle_beta   90.00000000
_cell_angle_gamma   120.00000470
_symmetry_Int_Tables_number   1
_chemical_formula_structural   Cs4Zn51
_chemical_formula_sum   'Cs4 Zn51'
_cell_volume   963.32783805
_cell_formula_units_Z   1
loop_
 _symmetry_equiv_pos_site_id
 _symmetry_equiv_pos_as_xyz
  1  'x, y, z'
loop_
 _atom_site_type_symbol
 _atom_site_label
 _atom_site_symmetry_multiplicity
 _atom_site_fract_x
 _atom_site_fract_y
 _atom_site_fract_z
 _atom_site_occupancy
  Cs  Cs0  1  0.875539  0.751078  0.373382  1
  Cs  Cs1  1  0.374310  0.748620  0.877071  1
  Cs  Cs2  1  0.624461  0.248922  0.126618  1
  Cs  Cs3  1  0.125690  0.251380  0.622929  1
  Zn  Zn4  1  0.333238  0.437912  0.106140  1
  Zn  Zn5  1  0.841107  0.440126  0.600139  1
  Zn  Zn6  1  0.166762  0.562088  0.393860  1
  Zn  Zn7  1  0.658893  0.559874  0.899861  1
  Zn  Zn8  1  0.992718  0.211432  0.219011  1
  Zn  Zn9  1  0.483365  0.201925  0.719629  1
  Zn  Zn10  1  0.507282  0.788569  0.280989  1
  Zn  Zn11  1  0.016635  0.798075  0.780371  1
  Zn  Zn12  1  0.710340  0.058022  0.349377  1
  Zn  Zn13  1  0.210766  0.059748  0.850956  1
  Zn  Zn14  1  0.789660  0.941978  0.150623  1
  Zn  Zn15  1  0.289234  0.940252  0.649044  1
  Zn  Zn16  1  0.670560  0.701307  0.031338  1
  Zn  Zn17  1  0.171335  0.701464  0.529171  1
  Zn  Zn18  1  0.829440  0.298693  0.468662  1
  Zn  Zn19  1  0.328665  0.298536  0.970829  1
  Zn  Zn20  1  0.044051  0.210813  0.393860  1
  Zn  Zn21  1  0.540265  0.199158  0.899861  1
  Zn  Zn22  1  0.455949  0.789187  0.106140  1
  Zn  Zn23  1  0.959735  0.800842  0.600139  1
  Zn  Zn24  1  0.930443  0.437725  0.280989  1
  Zn  Zn25  1  0.421554  0.438189  0.780371  1
  Zn  Zn26  1  0.569557  0.562275  0.219011  1
  Zn  Zn27  1  0.078446  0.561811  0.719629  1
  Zn  Zn28  1  0.907400  0.697059  0.150623  1
  Zn  Zn29  1  0.410704  0.699938  0.649044  1
  Zn  Zn30  1  0.592600  0.302941  0.349377  1
  Zn  Zn31  1  0.089296  0.300062  0.850956  1
  Zn  Zn32  1  0.232645  0.062085  0.468662  1
  Zn  Zn33  1  0.730636  0.059302  0.970829  1
  Zn  Zn34  1  0.267355  0.937915  0.031338  1
  Zn  Zn35  1  0.769364  0.940698  0.529171  1
  Zn  Zn36  1  0.218713  0.788272  0.219011  1
  Zn  Zn37  1  0.718560  0.797006  0.719629  1
  Zn  Zn38  1  0.281287  0.211728  0.280989  1
  Zn  Zn39  1  0.781440  0.202994  0.780371  1
  Zn  Zn40  1  0.104674  0.560622  0.106140  1
  Zn  Zn41  1  0.599018  0.558754  0.600139  1
  Zn  Zn42  1  0.395326  0.439378  0.393860  1
  Zn  Zn43  1  0.900982  0.441246  0.899861  1
  Zn  Zn44  1  0.030746  0.298101  0.031338  1
  Zn  Zn45  1  0.530131  0.299494  0.529171  1
  Zn  Zn46  1  0.469254  0.701899  0.468662  1
  Zn  Zn47  1  0.969869  0.700506  0.970829  1
  Zn  Zn48  1  0.347682  0.940282  0.349377  1
  Zn  Zn49  1  0.848982  0.938278  0.850956  1
  Zn  Zn50  1  0.152318  0.059718  0.150623  1
  Zn  Zn51  1  0.651018  0.061722  0.649044  1
  Zn  Zn52  1  0.750000  0.500000  0.750000  1
  Zn  Zn53  1  0.999919  0.999838  0.000243  1
  Zn  Zn54  1  0.500081  0.000162  0.499757  1
