# generated using pymatgen
data_Ho5ZrAuO12
_symmetry_space_group_name_H-M   'P 1'
_cell_length_a   6.41677717
_cell_length_b   6.41414464
_cell_length_c   6.44783372
_cell_angle_alpha   98.60694710
_cell_angle_beta   99.40692751
_cell_angle_gamma   98.80049576
_symmetry_Int_Tables_number   1
_chemical_formula_structural   Ho5ZrAuO12
_chemical_formula_sum   'Ho5 Zr1 Au1 O12'
_cell_volume   254.54393699
_cell_formula_units_Z   1
loop_
 _symmetry_equiv_pos_site_id
 _symmetry_equiv_pos_as_xyz
  1  'x, y, z'
loop_
 _atom_site_type_symbol
 _atom_site_label
 _atom_site_symmetry_multiplicity
 _atom_site_fract_x
 _atom_site_fract_y
 _atom_site_fract_z
 _atom_site_occupancy
  Ho  Ho0  1  0.389268  0.859034  0.692660  1
  Ho  Ho1  1  0.691095  0.389225  0.859569  1
  Ho  Ho2  1  0.308575  0.610247  0.145474  1
  Ho  Ho3  1  0.611365  0.141718  0.306589  1
  Ho  Ho4  1  0.856068  0.691226  0.389637  1
  Zr  Zr5  1  0.144444  0.313790  0.613716  1
  Au  Au6  1  0.003224  0.002528  0.999947  1
  O  O7  1  0.066553  0.309981  0.939969  1
  O  O8  1  0.046346  0.946670  0.687056  1
  O  O9  1  0.395304  0.555181  0.817028  1
  O  O10  1  0.176317  0.569866  0.437084  1
  O  O11  1  0.689368  0.047493  0.939236  1
  O  O12  1  0.419423  0.183367  0.583530  1
  O  O13  1  0.564018  0.823946  0.415891  1
  O  O14  1  0.312740  0.952625  0.058630  1
  O  O15  1  0.831951  0.402266  0.569521  1
  O  O16  1  0.592225  0.438012  0.178461  1
  O  O17  1  0.963972  0.070333  0.315701  1
  O  O18  1  0.937744  0.692493  0.050302  1
