# generated using pymatgen
data_Mn4Ga2Pd7Pt3
_symmetry_space_group_name_H-M   'P 1'
_cell_length_a   4.10066900
_cell_length_b   5.48210823
_cell_length_c   10.76351946
_cell_angle_alpha   90.03337365
_cell_angle_beta   90.00000000
_cell_angle_gamma   90.00000000
_symmetry_Int_Tables_number   1
_chemical_formula_structural   Mn4Ga2Pd7Pt3
_chemical_formula_sum   'Mn4 Ga2 Pd7 Pt3'
_cell_volume   241.96722684
_cell_formula_units_Z   1
loop_
 _symmetry_equiv_pos_site_id
 _symmetry_equiv_pos_as_xyz
  1  'x, y, z'
loop_
 _atom_site_type_symbol
 _atom_site_label
 _atom_site_symmetry_multiplicity
 _atom_site_fract_x
 _atom_site_fract_y
 _atom_site_fract_z
 _atom_site_occupancy
  Mn  Mn0  1  0.000000  0.820853  0.638277  1
  Mn  Mn1  1  0.000000  0.320967  0.861479  1
  Mn  Mn2  1  0.000000  0.179171  0.362051  1
  Mn  Mn3  1  0.000000  0.679521  0.138375  1
  Ga  Ga4  1  0.500000  0.500071  0.500032  1
  Ga  Ga5  1  0.500000  0.999860  0.000131  1
  Pd  Pd6  1  0.500000  0.923404  0.241051  1
  Pd  Pd7  1  0.500000  0.423153  0.258360  1
  Pd  Pd8  1  0.500000  0.576749  0.741762  1
  Pd  Pd9  1  0.500000  0.076732  0.758452  1
  Pd  Pd10  1  0.500000  0.499030  0.000063  1
  Pd  Pd11  1  0.500000  0.000154  0.499823  1
  Pd  Pd12  1  0.000000  0.188833  0.109584  1
  Pt  Pt13  1  0.000000  0.811522  0.890690  1
  Pt  Pt14  1  0.000000  0.689473  0.389903  1
  Pt  Pt15  1  0.000000  0.310509  0.609968  1
