# generated using pymatgen
data_La3Pr10Th3(HgIr)4
_symmetry_space_group_name_H-M   'P 1'
_cell_length_a   10.02172580
_cell_length_b   10.04553165
_cell_length_c   10.04553394
_cell_angle_alpha   59.72879628
_cell_angle_beta   60.19699255
_cell_angle_gamma   60.19699105
_symmetry_Int_Tables_number   1
_chemical_formula_structural   La3Pr10Th3(HgIr)4
_chemical_formula_sum   'La3 Pr10 Th3 Hg4 Ir4'
_cell_volume   715.74268029
_cell_formula_units_Z   1
loop_
 _symmetry_equiv_pos_site_id
 _symmetry_equiv_pos_as_xyz
  1  'x, y, z'
loop_
 _atom_site_type_symbol
 _atom_site_label
 _atom_site_symmetry_multiplicity
 _atom_site_fract_x
 _atom_site_fract_y
 _atom_site_fract_z
 _atom_site_occupancy
  La  La0  1  0.950853  0.350664  0.350664  1
  La  La1  1  0.811683  0.189295  0.189295  1
  La  La2  1  0.188547  0.810843  0.810843  1
  Pr  Pr3  1  0.191652  0.808209  0.192171  1
  Pr  Pr4  1  0.806417  0.192744  0.806700  1
  Pr  Pr5  1  0.191652  0.192171  0.808209  1
  Pr  Pr6  1  0.806417  0.806700  0.192744  1
  Pr  Pr7  1  0.940663  0.562591  0.562591  1
  Pr  Pr8  1  0.560090  0.938346  0.938346  1
  Pr  Pr9  1  0.560270  0.941978  0.561033  1
  Pr  Pr10  1  0.941356  0.559219  0.936944  1
  Pr  Pr11  1  0.560270  0.561033  0.941978  1
  Pr  Pr12  1  0.941356  0.936944  0.559219  1
  Th  Th13  1  0.344511  0.346906  0.346906  1
  Th  Th14  1  0.348490  0.345843  0.958589  1
  Th  Th15  1  0.348490  0.958589  0.345843  1
  Hg  Hg16  1  0.582120  0.585082  0.585082  1
  Hg  Hg17  1  0.580893  0.586901  0.246965  1
  Hg  Hg18  1  0.580893  0.246965  0.586901  1
  Hg  Hg19  1  0.247550  0.584559  0.584559  1
  Ir  Ir20  1  0.147568  0.143713  0.143713  1
  Ir  Ir21  1  0.152381  0.137654  0.565879  1
  Ir  Ir22  1  0.152381  0.565879  0.137654  1
  Ir  Ir23  1  0.563495  0.147169  0.147169  1
