# generated using pymatgen
data_TbHo4Zr5Pb6
_symmetry_space_group_name_H-M   'P 1'
_cell_length_a   8.88362110
_cell_length_b   8.89259556
_cell_length_c   6.10711800
_cell_angle_alpha   90.00000000
_cell_angle_beta   90.00000000
_cell_angle_gamma   119.56281390
_symmetry_Int_Tables_number   1
_chemical_formula_structural   TbHo4Zr5Pb6
_chemical_formula_sum   'Tb1 Ho4 Zr5 Pb6'
_cell_volume   419.64488517
_cell_formula_units_Z   1
loop_
 _symmetry_equiv_pos_site_id
 _symmetry_equiv_pos_as_xyz
  1  'x, y, z'
loop_
 _atom_site_type_symbol
 _atom_site_label
 _atom_site_symmetry_multiplicity
 _atom_site_fract_x
 _atom_site_fract_y
 _atom_site_fract_z
 _atom_site_occupancy
  Tb  Tb0  1  0.763556  0.001638  0.750000  1
  Ho  Ho1  1  0.755880  0.755814  0.250000  1
  Ho  Ho2  1  0.001451  0.238320  0.250000  1
  Ho  Ho3  1  0.237915  0.001136  0.250000  1
  Ho  Ho4  1  0.001862  0.763423  0.750000  1
  Zr  Zr5  1  0.332524  0.664985  0.500379  1
  Zr  Zr6  1  0.664789  0.332386  0.500350  1
  Zr  Zr7  1  0.332524  0.664985  0.999621  1
  Zr  Zr8  1  0.247368  0.247262  0.750000  1
  Zr  Zr9  1  0.664789  0.332386  0.999650  1
  Pb  Pb10  1  0.600497  0.600146  0.750000  1
  Pb  Pb11  1  0.395293  0.003041  0.750000  1
  Pb  Pb12  1  0.601172  0.000165  0.250000  1
  Pb  Pb13  1  0.003353  0.396096  0.750000  1
  Pb  Pb14  1  0.396946  0.396985  0.250000  1
  Pb  Pb15  1  0.000081  0.601231  0.250000  1
