# generated using pymatgen
data_Tm3Lu5(B6Ir)4
_symmetry_space_group_name_H-M   'P 1'
_cell_length_a   3.59129800
_cell_length_b   9.08096201
_cell_length_c   11.42311401
_cell_angle_alpha   90.00552151
_cell_angle_beta   90.00000000
_cell_angle_gamma   90.00000000
_symmetry_Int_Tables_number   1
_chemical_formula_structural   Tm3Lu5(B6Ir)4
_chemical_formula_sum   'Tm3 Lu5 B24 Ir4'
_cell_volume   372.53562674
_cell_formula_units_Z   1
loop_
 _symmetry_equiv_pos_site_id
 _symmetry_equiv_pos_as_xyz
  1  'x, y, z'
loop_
 _atom_site_type_symbol
 _atom_site_label
 _atom_site_symmetry_multiplicity
 _atom_site_fract_x
 _atom_site_fract_y
 _atom_site_fract_z
 _atom_site_occupancy
  Tm  Tm0  1  0.000000  0.320612  0.413506  1
  Tm  Tm1  1  0.000000  0.679351  0.586555  1
  Tm  Tm2  1  0.000000  0.820547  0.086483  1
  Lu  Lu3  1  0.000000  0.179754  0.913628  1
  Lu  Lu4  1  0.000000  0.944136  0.374433  1
  Lu  Lu5  1  0.000000  0.055908  0.625609  1
  Lu  Lu6  1  0.000000  0.444005  0.125334  1
  Lu  Lu7  1  0.000000  0.555851  0.874502  1
  B  B8  1  0.500000  0.553591  0.434464  1
  B  B9  1  0.500000  0.446335  0.565684  1
  B  B10  1  0.500000  0.053824  0.065175  1
  B  B11  1  0.500000  0.946697  0.934513  1
  B  B12  1  0.500000  0.750679  0.420831  1
  B  B13  1  0.500000  0.249267  0.579317  1
  B  B14  1  0.500000  0.250523  0.078702  1
  B  B15  1  0.500000  0.749346  0.920796  1
  B  B16  1  0.500000  0.793927  0.264361  1
  B  B17  1  0.500000  0.205957  0.735967  1
  B  B18  1  0.500000  0.293811  0.235351  1
  B  B19  1  0.500000  0.706128  0.764514  1
  B  B20  1  0.500000  0.631155  0.183169  1
  B  B21  1  0.500000  0.368522  0.816967  1
  B  B22  1  0.500000  0.131239  0.316681  1
  B  B23  1  0.500000  0.868861  0.683376  1
  B  B24  1  0.500000  0.980938  0.213142  1
  B  B25  1  0.500000  0.019533  0.787086  1
  B  B26  1  0.500000  0.480747  0.286668  1
  B  B27  1  0.500000  0.519078  0.713309  1
  B  B28  1  0.500000  0.606980  0.029130  1
  B  B29  1  0.500000  0.392494  0.970667  1
  B  B30  1  0.500000  0.106899  0.470911  1
  B  B31  1  0.500000  0.893201  0.529169  1
  Ir  Ir32  1  0.000000  0.638663  0.320493  1
  Ir  Ir33  1  0.000000  0.360989  0.679661  1
  Ir  Ir34  1  0.000000  0.138582  0.178958  1
  Ir  Ir35  1  0.000000  0.861876  0.820888  1
