# generated using pymatgen
data_Gd9Ho11Si15Sn
_symmetry_space_group_name_H-M   'P 1'
_cell_length_a   7.38610164
_cell_length_b   7.71168268
_cell_length_c   14.60438400
_cell_angle_alpha   90.00168655
_cell_angle_beta   89.97607666
_cell_angle_gamma   90.08596279
_symmetry_Int_Tables_number   1
_chemical_formula_structural   Gd9Ho11Si15Sn
_chemical_formula_sum   'Gd9 Ho11 Si15 Sn1'
_cell_volume   831.85407358
_cell_formula_units_Z   1
loop_
 _symmetry_equiv_pos_site_id
 _symmetry_equiv_pos_as_xyz
  1  'x, y, z'
loop_
 _atom_site_type_symbol
 _atom_site_label
 _atom_site_symmetry_multiplicity
 _atom_site_fract_x
 _atom_site_fract_y
 _atom_site_fract_z
 _atom_site_occupancy
  Gd  Gd0  1  0.173844  0.318447  0.618876  1
  Gd  Gd1  1  0.527909  0.688497  0.595215  1
  Gd  Gd2  1  0.026550  0.819065  0.904757  1
  Gd  Gd3  1  0.472546  0.319248  0.097846  1
  Gd  Gd4  1  0.974015  0.182533  0.401420  1
  Gd  Gd5  1  0.474092  0.318985  0.401517  1
  Gd  Gd6  1  0.974270  0.181954  0.098297  1
  Gd  Gd7  1  0.525996  0.688275  0.905179  1
  Gd  Gd8  1  0.026806  0.818489  0.595579  1
  Ho  Ho9  1  0.694996  0.168981  0.618262  1
  Ho  Ho10  1  0.173151  0.317294  0.881100  1
  Ho  Ho11  1  0.315003  0.821523  0.124045  1
  Ho  Ho12  1  0.816692  0.678454  0.375552  1
  Ho  Ho13  1  0.315926  0.822165  0.375857  1
  Ho  Ho14  1  0.816871  0.678229  0.123593  1
  Ho  Ho15  1  0.694840  0.168701  0.882420  1
  Ho  Ho16  1  0.862748  0.514554  0.750186  1
  Ho  Ho17  1  0.353538  0.986257  0.749600  1
  Ho  Ho18  1  0.147593  0.486248  0.250368  1
  Ho  Ho19  1  0.647158  0.012897  0.249676  1
  Si  Si20  1  0.644991  0.970011  0.456952  1
  Si  Si21  1  0.145396  0.529861  0.041209  1
  Si  Si22  1  0.355209  0.030881  0.961605  1
  Si  Si23  1  0.847812  0.473432  0.538595  1
  Si  Si24  1  0.358436  0.029048  0.538954  1
  Si  Si25  1  0.851416  0.472877  0.960185  1
  Si  Si26  1  0.642766  0.970537  0.043534  1
  Si  Si27  1  0.143304  0.530852  0.457482  1
  Si  Si28  1  0.980824  0.102891  0.750917  1
  Si  Si29  1  0.520462  0.606226  0.249639  1
  Si  Si30  1  0.019338  0.895191  0.249936  1
  Si  Si31  1  0.735653  0.873190  0.750140  1
  Si  Si32  1  0.226611  0.636154  0.750716  1
  Si  Si33  1  0.264857  0.125420  0.249898  1
  Si  Si34  1  0.764738  0.374944  0.249571  1
  Sn  Sn35  1  0.483643  0.387691  0.751325  1
