# generated using pymatgen
data_Ho10Tl5In3(PdAu)2
_symmetry_space_group_name_H-M   'P 1'
_cell_length_a   3.63768100
_cell_length_b   8.21690780
_cell_length_c   18.43711741
_cell_angle_alpha   89.79222527
_cell_angle_beta   90.00000000
_cell_angle_gamma   90.00000000
_symmetry_Int_Tables_number   1
_chemical_formula_structural   Ho10Tl5In3(PdAu)2
_chemical_formula_sum   'Ho10 Tl5 In3 Pd2 Au2'
_cell_volume   551.09083825
_cell_formula_units_Z   1
loop_
 _symmetry_equiv_pos_site_id
 _symmetry_equiv_pos_as_xyz
  1  'x, y, z'
loop_
 _atom_site_type_symbol
 _atom_site_label
 _atom_site_symmetry_multiplicity
 _atom_site_fract_x
 _atom_site_fract_y
 _atom_site_fract_z
 _atom_site_occupancy
  Ho  Ho0  1  0.000000  0.499185  0.498380  1
  Ho  Ho1  1  0.000000  0.000618  0.000503  1
  Ho  Ho2  1  0.000000  0.749502  0.284795  1
  Ho  Ho3  1  0.000000  0.250579  0.715413  1
  Ho  Ho4  1  0.000000  0.763956  0.781426  1
  Ho  Ho5  1  0.000000  0.234920  0.218828  1
  Ho  Ho6  1  0.000000  0.620804  0.082561  1
  Ho  Ho7  1  0.000000  0.379588  0.918091  1
  Ho  Ho8  1  0.000000  0.885874  0.584754  1
  Ho  Ho9  1  0.000000  0.115755  0.415281  1
  Tl  Tl10  1  0.500000  0.710999  0.934620  1
  Tl  Tl11  1  0.500000  0.289776  0.066113  1
  Tl  Tl12  1  0.500000  0.791632  0.434670  1
  Tl  Tl13  1  0.500000  0.205603  0.563910  1
  Tl  Tl14  1  0.500000  0.583734  0.645790  1
  In  In15  1  0.500000  0.415126  0.351948  1
  In  In16  1  0.500000  0.919595  0.149462  1
  In  In17  1  0.500000  0.079867  0.851496  1
  Pd  Pd18  1  0.500000  0.972269  0.698137  1
  Pd  Pd19  1  0.500000  0.031500  0.302444  1
  Au  Au20  1  0.500000  0.533035  0.199533  1
  Au  Au21  1  0.500000  0.466084  0.801846  1
