# generated using pymatgen
data_HoIn8Rh9
_symmetry_space_group_name_H-M   'P 1'
_cell_length_a   7.97977538
_cell_length_b   7.97977484
_cell_length_c   5.65644717
_cell_angle_alpha   89.99054828
_cell_angle_beta   89.99053992
_cell_angle_gamma   120.02119704
_symmetry_Int_Tables_number   1
_chemical_formula_structural   HoIn8Rh9
_chemical_formula_sum   'Ho1 In8 Rh9'
_cell_volume   311.86227627
_cell_formula_units_Z   1
loop_
 _symmetry_equiv_pos_site_id
 _symmetry_equiv_pos_as_xyz
  1  'x, y, z'
loop_
 _atom_site_type_symbol
 _atom_site_label
 _atom_site_symmetry_multiplicity
 _atom_site_fract_x
 _atom_site_fract_y
 _atom_site_fract_z
 _atom_site_occupancy
  Ho  Ho0  1  0.666611  0.666611  0.891945  1
  In  In1  1  0.666623  0.998404  0.224929  1
  In  In2  1  0.334940  0.334941  0.224830  1
  In  In3  1  0.998404  0.666623  0.224929  1
  In  In4  1  0.998285  0.998285  0.559360  1
  In  In5  1  0.666768  0.334882  0.559566  1
  In  In6  1  0.334883  0.666769  0.559566  1
  In  In7  1  0.333385  0.000112  0.892329  1
  In  In8  1  0.000112  0.333385  0.892329  1
  Rh  Rh9  1  0.005769  0.005769  0.061820  1
  Rh  Rh10  1  0.666678  0.327665  0.062061  1
  Rh  Rh11  1  0.327666  0.666679  0.062061  1
  Rh  Rh12  1  0.333291  0.000081  0.392077  1
  Rh  Rh13  1  0.000081  0.333291  0.392077  1
  Rh  Rh14  1  0.666595  0.666594  0.391985  1
  Rh  Rh15  1  0.666792  0.005628  0.721955  1
  Rh  Rh16  1  0.327487  0.327487  0.722085  1
  Rh  Rh17  1  0.005628  0.666791  0.721955  1
