# generated using pymatgen
data_Yb2GaSiRu2
_symmetry_space_group_name_H-M   'P 1'
_cell_length_a   4.37399200
_cell_length_b   4.37399200
_cell_length_c   6.42806000
_cell_angle_alpha   90.00000000
_cell_angle_beta   90.00000000
_cell_angle_gamma   90.00000000
_symmetry_Int_Tables_number   1
_chemical_formula_structural   Yb2GaSiRu2
_chemical_formula_sum   'Yb2 Ga1 Si1 Ru2'
_cell_volume   122.98039698
_cell_formula_units_Z   1
loop_
 _symmetry_equiv_pos_site_id
 _symmetry_equiv_pos_as_xyz
  1  'x, y, z'
loop_
 _atom_site_type_symbol
 _atom_site_label
 _atom_site_symmetry_multiplicity
 _atom_site_fract_x
 _atom_site_fract_y
 _atom_site_fract_z
 _atom_site_occupancy
  Yb  Yb0  1  0.000000  0.500000  0.307417  1
  Yb  Yb1  1  0.500000  0.000000  0.693921  1
  Ga  Ga2  1  0.000000  0.500000  0.814249  1
  Si  Si3  1  0.500000  0.000000  0.166702  1
  Ru  Ru4  1  0.000000  0.000000  0.008856  1
  Ru  Ru5  1  0.500000  0.500000  0.008856  1
