# generated using pymatgen
data_Sm8Tm12Sn15Ru
_symmetry_space_group_name_H-M   'P 1'
_cell_length_a   7.89836116
_cell_length_b   8.24332309
_cell_length_c   15.35298200
_cell_angle_alpha   90.00000000
_cell_angle_beta   90.00000000
_cell_angle_gamma   89.74419175
_symmetry_Int_Tables_number   1
_chemical_formula_structural   Sm8Tm12Sn15Ru
_chemical_formula_sum   'Sm8 Tm12 Sn15 Ru1'
_cell_volume   999.60339525
_cell_formula_units_Z   1
loop_
 _symmetry_equiv_pos_site_id
 _symmetry_equiv_pos_as_xyz
  1  'x, y, z'
loop_
 _atom_site_type_symbol
 _atom_site_label
 _atom_site_symmetry_multiplicity
 _atom_site_fract_x
 _atom_site_fract_y
 _atom_site_fract_z
 _atom_site_occupancy
  Sm  Sm0  1  0.508371  0.330982  0.902373  1
  Sm  Sm1  1  0.013402  0.180093  0.597160  1
  Sm  Sm2  1  0.489792  0.682212  0.404855  1
  Sm  Sm3  1  0.989358  0.824300  0.095567  1
  Sm  Sm4  1  0.489792  0.682212  0.095145  1
  Sm  Sm5  1  0.989358  0.824300  0.404433  1
  Sm  Sm6  1  0.508371  0.330982  0.597627  1
  Sm  Sm7  1  0.013402  0.180093  0.902840  1
  Tm  Tm8  1  0.374792  0.813799  0.866142  1
  Tm  Tm9  1  0.816674  0.661134  0.633146  1
  Tm  Tm10  1  0.652698  0.167881  0.375922  1
  Tm  Tm11  1  0.154068  0.334698  0.124791  1
  Tm  Tm12  1  0.652698  0.167881  0.124078  1
  Tm  Tm13  1  0.154068  0.334698  0.375209  1
  Tm  Tm14  1  0.374792  0.813799  0.633858  1
  Tm  Tm15  1  0.816674  0.661134  0.866854  1
  Tm  Tm16  1  0.199155  0.503363  0.750000  1
  Tm  Tm17  1  0.684274  0.996759  0.750000  1
  Tm  Tm18  1  0.819279  0.501320  0.250000  1
  Tm  Tm19  1  0.317611  0.000009  0.250000  1
  Sn  Sn20  1  0.313704  0.038398  0.035875  1
  Sn  Sn21  1  0.817060  0.463954  0.460139  1
  Sn  Sn22  1  0.692083  0.967628  0.540632  1
  Sn  Sn23  1  0.176674  0.543864  0.958786  1
  Sn  Sn24  1  0.692083  0.967628  0.959368  1
  Sn  Sn25  1  0.176674  0.543864  0.541214  1
  Sn  Sn26  1  0.313704  0.038398  0.464125  1
  Sn  Sn27  1  0.817060  0.463954  0.039861  1
  Sn  Sn28  1  0.047867  0.879544  0.750000  1
  Sn  Sn29  1  0.455702  0.377414  0.250000  1
  Sn  Sn30  1  0.955187  0.121234  0.250000  1
  Sn  Sn31  1  0.313263  0.140622  0.750000  1
  Sn  Sn32  1  0.806432  0.356975  0.750000  1
  Sn  Sn33  1  0.682886  0.853761  0.250000  1
  Sn  Sn34  1  0.181076  0.648357  0.250000  1
  Ru  Ru35  1  0.539915  0.602756  0.750000  1
