# generated using pymatgen
data_Ba2Ag(H6Pt)2
_symmetry_space_group_name_H-M   'P 1'
_cell_length_a   5.15254500
_cell_length_b   5.15254537
_cell_length_c   9.66984300
_cell_angle_alpha   90.00000000
_cell_angle_beta   90.00000000
_cell_angle_gamma   120.00000406
_symmetry_Int_Tables_number   1
_chemical_formula_structural   Ba2Ag(H6Pt)2
_chemical_formula_sum   'Ba2 Ag1 H12 Pt2'
_cell_volume   222.32774067
_cell_formula_units_Z   1
loop_
 _symmetry_equiv_pos_site_id
 _symmetry_equiv_pos_as_xyz
  1  'x, y, z'
loop_
 _atom_site_type_symbol
 _atom_site_label
 _atom_site_symmetry_multiplicity
 _atom_site_fract_x
 _atom_site_fract_y
 _atom_site_fract_z
 _atom_site_occupancy
  Ba  Ba0  1  0.000000  0.000000  0.003361  1
  Ba  Ba1  1  0.333333  0.666667  0.603244  1
  Ag  Ag2  1  0.666667  0.333333  0.251798  1
  H  H3  1  0.179931  0.820069  0.343344  1
  H  H4  1  0.640138  0.820069  0.343344  1
  H  H5  1  0.179931  0.359862  0.343344  1
  H  H6  1  0.823418  0.176582  0.683164  1
  H  H7  1  0.353163  0.176582  0.683164  1
  H  H8  1  0.823418  0.646837  0.683164  1
  H  H9  1  0.511850  0.023700  0.875514  1
  H  H10  1  0.511850  0.488150  0.875514  1
  H  H11  1  0.976300  0.488150  0.875514  1
  H  H12  1  0.484073  0.968146  0.136629  1
  H  H13  1  0.484073  0.515927  0.136629  1
  H  H14  1  0.031854  0.515927  0.136629  1
  Pt  Pt15  1  0.666667  0.333333  0.778363  1
  Pt  Pt16  1  0.333333  0.666667  0.247280  1
