# generated using pymatgen
data_AgRu4Pb3O14
_symmetry_space_group_name_H-M   'P 1'
_cell_length_a   7.29047922
_cell_length_b   7.35687739
_cell_length_c   7.35687800
_cell_angle_alpha   59.99999728
_cell_angle_beta   59.69826287
_cell_angle_gamma   59.69826653
_symmetry_Int_Tables_number   1
_chemical_formula_structural   AgRu4Pb3O14
_chemical_formula_sum   'Ag1 Ru4 Pb3 O14'
_cell_volume   277.73608814
_cell_formula_units_Z   1
loop_
 _symmetry_equiv_pos_site_id
 _symmetry_equiv_pos_as_xyz
  1  'x, y, z'
loop_
 _atom_site_type_symbol
 _atom_site_label
 _atom_site_symmetry_multiplicity
 _atom_site_fract_x
 _atom_site_fract_y
 _atom_site_fract_z
 _atom_site_occupancy
  Ag  Ag0  1  0.125000  0.625000  0.625000  1
  Ru  Ru1  1  0.625000  0.125000  0.125000  1
  Ru  Ru2  1  0.125000  0.625000  0.125000  1
  Ru  Ru3  1  0.125000  0.125000  0.625000  1
  Ru  Ru4  1  0.125000  0.125000  0.125000  1
  Pb  Pb5  1  0.625000  0.125000  0.625000  1
  Pb  Pb6  1  0.625000  0.625000  0.125000  1
  Pb  Pb7  1  0.625000  0.625000  0.625000  1
  O  O8  1  0.197477  0.186548  0.807987  1
  O  O9  1  0.197477  0.807987  0.186548  1
  O  O10  1  0.451193  0.049923  0.049923  1
  O  O11  1  0.197477  0.807987  0.807987  1
  O  O12  1  0.052523  0.442013  0.442013  1
  O  O13  1  0.798807  0.801040  0.200077  1
  O  O14  1  0.451193  0.448960  0.049923  1
  O  O15  1  0.473153  0.508949  0.508949  1
  O  O16  1  0.052523  0.063452  0.442013  1
  O  O17  1  0.451193  0.049923  0.448960  1
  O  O18  1  0.052523  0.442013  0.063452  1
  O  O19  1  0.776847  0.741051  0.741051  1
  O  O20  1  0.798807  0.200077  0.801040  1
  O  O21  1  0.798807  0.200077  0.200077  1
