# generated using pymatgen
data_Ho3GaGeRu2
_symmetry_space_group_name_H-M   'P 1'
_cell_length_a   5.57799200
_cell_length_b   7.67844000
_cell_length_c   13.64166500
_cell_angle_alpha   90.00000000
_cell_angle_beta   90.00000000
_cell_angle_gamma   90.00000000
_symmetry_Int_Tables_number   1
_chemical_formula_structural   Ho3GaGeRu2
_chemical_formula_sum   'Ho12 Ga4 Ge4 Ru8'
_cell_volume   584.27628922
_cell_formula_units_Z   4
loop_
 _symmetry_equiv_pos_site_id
 _symmetry_equiv_pos_as_xyz
  1  'x, y, z'
loop_
 _atom_site_type_symbol
 _atom_site_label
 _atom_site_symmetry_multiplicity
 _atom_site_fract_x
 _atom_site_fract_y
 _atom_site_fract_z
 _atom_site_occupancy
  Ho  Ho0  1  0.151773  0.903562  0.597883  1
  Ho  Ho1  1  0.848227  0.096438  0.097883  1
  Ho  Ho2  1  0.151773  0.596438  0.402117  1
  Ho  Ho3  1  0.848227  0.403562  0.902117  1
  Ho  Ho4  1  0.848227  0.096438  0.402117  1
  Ho  Ho5  1  0.151773  0.903562  0.902117  1
  Ho  Ho6  1  0.848227  0.403562  0.597883  1
  Ho  Ho7  1  0.151773  0.596438  0.097883  1
  Ho  Ho8  1  0.373960  0.269126  0.750000  1
  Ho  Ho9  1  0.626040  0.730874  0.250000  1
  Ho  Ho10  1  0.373960  0.230874  0.250000  1
  Ho  Ho11  1  0.626040  0.769126  0.750000  1
  Ga  Ga12  1  0.369421  0.250000  0.500000  1
  Ga  Ga13  1  0.630579  0.750000  0.000000  1
  Ga  Ga14  1  0.630579  0.750000  0.500000  1
  Ga  Ga15  1  0.369421  0.250000  0.000000  1
  Ge  Ge16  1  0.877271  0.116351  0.750000  1
  Ge  Ge17  1  0.122729  0.883649  0.250000  1
  Ge  Ge18  1  0.877271  0.383649  0.250000  1
  Ge  Ge19  1  0.122729  0.616351  0.750000  1
  Ru  Ru20  1  0.646275  0.033441  0.594897  1
  Ru  Ru21  1  0.353725  0.966559  0.094897  1
  Ru  Ru22  1  0.646275  0.466559  0.405103  1
  Ru  Ru23  1  0.353725  0.533441  0.905103  1
  Ru  Ru24  1  0.353725  0.966559  0.405103  1
  Ru  Ru25  1  0.646275  0.033441  0.905103  1
  Ru  Ru26  1  0.353725  0.533441  0.594897  1
  Ru  Ru27  1  0.646275  0.466559  0.094897  1
