# generated using pymatgen
data_Ni2Sb(AuO2)3
_symmetry_space_group_name_H-M   'P 1'
_cell_length_a   5.40407200
_cell_length_b   5.40407182
_cell_length_c   18.82524000
_cell_angle_alpha   90.00000000
_cell_angle_beta   90.00000000
_cell_angle_gamma   119.99998889
_symmetry_Int_Tables_number   1
_chemical_formula_structural   Ni2Sb(AuO2)3
_chemical_formula_sum   'Ni6 Sb3 Au9 O18'
_cell_volume   476.11672803
_cell_formula_units_Z   3
loop_
 _symmetry_equiv_pos_site_id
 _symmetry_equiv_pos_as_xyz
  1  'x, y, z'
loop_
 _atom_site_type_symbol
 _atom_site_label
 _atom_site_symmetry_multiplicity
 _atom_site_fract_x
 _atom_site_fract_y
 _atom_site_fract_z
 _atom_site_occupancy
  Ni  Ni0  1  0.106732  0.893268  0.333333  1
  Ni  Ni1  1  0.106732  0.213462  0.666667  1
  Ni  Ni2  1  0.786538  0.893268  0.000000  1
  Ni  Ni3  1  0.773324  0.226676  0.333333  1
  Ni  Ni4  1  0.773324  0.546646  0.666667  1
  Ni  Ni5  1  0.453354  0.226676  0.000000  1
  Sb  Sb6  1  0.440208  0.559792  0.333333  1
  Sb  Sb7  1  0.440208  0.880414  0.666667  1
  Sb  Sb8  1  0.119586  0.559792  0.000000  1
  Au  Au9  1  0.442121  0.221060  0.500000  1
  Au  Au10  1  0.778940  0.221060  0.833333  1
  Au  Au11  1  0.778940  0.557879  0.166667  1
  Au  Au12  1  0.114127  0.557064  0.500000  1
  Au  Au13  1  0.442936  0.557064  0.833333  1
  Au  Au14  1  0.442936  0.885873  0.166667  1
  Au  Au15  1  0.767206  0.883603  0.500000  1
  Au  Au16  1  0.116397  0.883603  0.833333  1
  Au  Au17  1  0.116397  0.232794  0.166667  1
  O  O18  1  0.763506  0.559664  0.278359  1
  O  O19  1  0.440336  0.203842  0.611692  1
  O  O20  1  0.796158  0.236494  0.945026  1
  O  O21  1  0.763506  0.203842  0.721641  1
  O  O22  1  0.440336  0.236494  0.388308  1
  O  O23  1  0.796158  0.559664  0.054974  1
  O  O24  1  0.440644  0.884017  0.278506  1
  O  O25  1  0.115983  0.556628  0.611839  1
  O  O26  1  0.443372  0.559356  0.945173  1
  O  O27  1  0.440644  0.556628  0.721494  1
  O  O28  1  0.115983  0.559356  0.388161  1
  O  O29  1  0.443372  0.884017  0.054827  1
  O  O30  1  0.116560  0.235617  0.278433  1
  O  O31  1  0.764383  0.880942  0.611766  1
  O  O32  1  0.119058  0.883440  0.945099  1
  O  O33  1  0.116560  0.880942  0.721567  1
  O  O34  1  0.764383  0.883440  0.388234  1
  O  O35  1  0.119058  0.235617  0.054901  1
