# generated using pymatgen
data_Tb7Ho2ErPb6
_symmetry_space_group_name_H-M   'P 1'
_cell_length_a   9.08098100
_cell_length_b   9.08098191
_cell_length_c   6.66031800
_cell_angle_alpha   90.00000000
_cell_angle_beta   90.00000000
_cell_angle_gamma   120.00000033
_symmetry_Int_Tables_number   1
_chemical_formula_structural   Tb7Ho2ErPb6
_chemical_formula_sum   'Tb7 Ho2 Er1 Pb6'
_cell_volume   475.65402169
_cell_formula_units_Z   1
loop_
 _symmetry_equiv_pos_site_id
 _symmetry_equiv_pos_as_xyz
  1  'x, y, z'
loop_
 _atom_site_type_symbol
 _atom_site_label
 _atom_site_symmetry_multiplicity
 _atom_site_fract_x
 _atom_site_fract_y
 _atom_site_fract_z
 _atom_site_occupancy
  Tb  Tb0  1  0.333333  0.666667  0.000000  1
  Tb  Tb1  1  0.237889  0.000104  0.250193  1
  Tb  Tb2  1  0.237889  0.237784  0.749807  1
  Tb  Tb3  1  0.999896  0.762111  0.749807  1
  Tb  Tb4  1  0.999896  0.237784  0.250193  1
  Tb  Tb5  1  0.762216  0.762111  0.250193  1
  Tb  Tb6  1  0.762216  0.000104  0.749807  1
  Ho  Ho7  1  0.666667  0.333333  0.000000  1
  Ho  Ho8  1  0.333333  0.666667  0.500000  1
  Er  Er9  1  0.666667  0.333333  0.500000  1
  Pb  Pb10  1  0.604941  0.000659  0.250607  1
  Pb  Pb11  1  0.604941  0.604282  0.749393  1
  Pb  Pb12  1  0.999341  0.395059  0.749393  1
  Pb  Pb13  1  0.999341  0.604282  0.250607  1
  Pb  Pb14  1  0.395718  0.395059  0.250607  1
  Pb  Pb15  1  0.395718  0.000659  0.749393  1
