# generated using pymatgen
data_LuCoH6
_symmetry_space_group_name_H-M   'P 1'
_cell_length_a   4.35492812
_cell_length_b   4.35492877
_cell_length_c   4.35842786
_cell_angle_alpha   57.82887197
_cell_angle_beta   57.82886261
_cell_angle_gamma   57.83453852
_symmetry_Int_Tables_number   1
_chemical_formula_structural   LuCoH6
_chemical_formula_sum   'Lu1 Co1 H6'
_cell_volume   55.53792368
_cell_formula_units_Z   1
loop_
 _symmetry_equiv_pos_site_id
 _symmetry_equiv_pos_as_xyz
  1  'x, y, z'
loop_
 _atom_site_type_symbol
 _atom_site_label
 _atom_site_symmetry_multiplicity
 _atom_site_fract_x
 _atom_site_fract_y
 _atom_site_fract_z
 _atom_site_occupancy
  Lu  Lu0  1  0.500000  0.500000  0.500000  1
  Co  Co1  1  0.000000  0.000000  0.000000  1
  H  H2  1  0.576150  0.097932  0.097998  1
  H  H3  1  0.097932  0.576150  0.097998  1
  H  H4  1  0.902315  0.902315  0.423350  1
  H  H5  1  0.097685  0.097685  0.576649  1
  H  H6  1  0.902068  0.423849  0.902002  1
  H  H7  1  0.423849  0.902068  0.902002  1
