# generated using pymatgen
data_HfSc(VP)2
_symmetry_space_group_name_H-M   'P 1'
_cell_length_a   3.47673100
_cell_length_b   6.61131800
_cell_length_c   7.86665300
_cell_angle_alpha   90.00000000
_cell_angle_beta   90.00000000
_cell_angle_gamma   90.00000000
_symmetry_Int_Tables_number   1
_chemical_formula_structural   HfSc(VP)2
_chemical_formula_sum   'Hf2 Sc2 V4 P4'
_cell_volume   180.82110989
_cell_formula_units_Z   2
loop_
 _symmetry_equiv_pos_site_id
 _symmetry_equiv_pos_as_xyz
  1  'x, y, z'
loop_
 _atom_site_type_symbol
 _atom_site_label
 _atom_site_symmetry_multiplicity
 _atom_site_fract_x
 _atom_site_fract_y
 _atom_site_fract_z
 _atom_site_occupancy
  Hf  Hf0  1  0.750000  0.958631  0.167994  1
  Hf  Hf1  1  0.750000  0.458631  0.332006  1
  Sc  Sc2  1  0.250000  0.040761  0.834008  1
  Sc  Sc3  1  0.250000  0.540761  0.665992  1
  V  V4  1  0.250000  0.129534  0.441815  1
  V  V5  1  0.250000  0.629534  0.058185  1
  V  V6  1  0.750000  0.872525  0.555255  1
  V  V7  1  0.750000  0.372525  0.944745  1
  P  P8  1  0.250000  0.760746  0.363784  1
  P  P9  1  0.250000  0.260746  0.136216  1
  P  P10  1  0.750000  0.237801  0.638867  1
  P  P11  1  0.750000  0.737801  0.861133  1
