# generated using pymatgen
data_LaNd7(CdNi)2
_symmetry_space_group_name_H-M   'P 1'
_cell_length_a   9.87100893
_cell_length_b   9.87100945
_cell_length_c   9.89090800
_cell_angle_alpha   59.93329352
_cell_angle_beta   59.93329179
_cell_angle_gamma   59.90296679
_symmetry_Int_Tables_number   1
_chemical_formula_structural   LaNd7(CdNi)2
_chemical_formula_sum   'La2 Nd14 Cd4 Ni4'
_cell_volume   680.27858430
_cell_formula_units_Z   2
loop_
 _symmetry_equiv_pos_site_id
 _symmetry_equiv_pos_as_xyz
  1  'x, y, z'
loop_
 _atom_site_type_symbol
 _atom_site_label
 _atom_site_symmetry_multiplicity
 _atom_site_fract_x
 _atom_site_fract_y
 _atom_site_fract_z
 _atom_site_occupancy
  La  La0  1  0.595366  0.595366  0.598547  1
  La  La1  1  0.595366  0.595366  0.210722  1
  Nd  Nd2  1  0.598080  0.201362  0.600279  1
  Nd  Nd3  1  0.201362  0.598080  0.600279  1
  Nd  Nd4  1  0.061685  0.440800  0.439212  1
  Nd  Nd5  1  0.440800  0.061685  0.058303  1
  Nd  Nd6  1  0.440800  0.061685  0.439212  1
  Nd  Nd7  1  0.061685  0.440800  0.058303  1
  Nd  Nd8  1  0.440854  0.440854  0.059146  1
  Nd  Nd9  1  0.060275  0.060275  0.439725  1
  Nd  Nd10  1  0.188025  0.813684  0.814003  1
  Nd  Nd11  1  0.813684  0.188025  0.184289  1
  Nd  Nd12  1  0.813684  0.188025  0.814003  1
  Nd  Nd13  1  0.188025  0.813684  0.184289  1
  Nd  Nd14  1  0.813162  0.813162  0.186838  1
  Nd  Nd15  1  0.186062  0.186062  0.813938  1
  Cd  Cd16  1  0.830330  0.830330  0.829668  1
  Cd  Cd17  1  0.830330  0.830330  0.509670  1
  Cd  Cd18  1  0.830213  0.510322  0.829732  1
  Cd  Cd19  1  0.510322  0.830213  0.829732  1
  Ni  Ni20  1  0.391664  0.391664  0.393325  1
  Ni  Ni21  1  0.391664  0.391664  0.823349  1
  Ni  Ni22  1  0.392013  0.824549  0.391720  1
  Ni  Ni23  1  0.824549  0.392013  0.391720  1
