# generated using pymatgen
data_Y8Be3Si12Ir
_symmetry_space_group_name_H-M   'P 1'
_cell_length_a   7.94285200
_cell_length_b   7.94285234
_cell_length_c   8.12293500
_cell_angle_alpha   90.00000000
_cell_angle_beta   90.00000000
_cell_angle_gamma   119.99999860
_symmetry_Int_Tables_number   1
_chemical_formula_structural   Y8Be3Si12Ir
_chemical_formula_sum   'Y8 Be3 Si12 Ir1'
_cell_volume   443.80948029
_cell_formula_units_Z   1
loop_
 _symmetry_equiv_pos_site_id
 _symmetry_equiv_pos_as_xyz
  1  'x, y, z'
loop_
 _atom_site_type_symbol
 _atom_site_label
 _atom_site_symmetry_multiplicity
 _atom_site_fract_x
 _atom_site_fract_y
 _atom_site_fract_z
 _atom_site_occupancy
  Y  Y0  1  0.000000  0.000000  0.247361  1
  Y  Y1  1  0.000000  0.000000  0.752492  1
  Y  Y2  1  0.001319  0.500659  0.248102  1
  Y  Y3  1  0.499341  0.500659  0.248102  1
  Y  Y4  1  0.499951  0.999904  0.751853  1
  Y  Y5  1  0.499341  0.998681  0.248102  1
  Y  Y6  1  0.499951  0.500049  0.751853  1
  Y  Y7  1  0.000096  0.500049  0.751853  1
  Be  Be8  1  0.333333  0.666667  0.998859  1
  Be  Be9  1  0.333333  0.666667  0.500321  1
  Be  Be10  1  0.666667  0.333333  0.002421  1
  Si  Si11  1  0.172806  0.345613  0.999708  1
  Si  Si12  1  0.654387  0.827194  0.999708  1
  Si  Si13  1  0.170295  0.340591  0.500531  1
  Si  Si14  1  0.345497  0.172749  0.000042  1
  Si  Si15  1  0.172806  0.827194  0.999708  1
  Si  Si16  1  0.659409  0.829705  0.500531  1
  Si  Si17  1  0.827251  0.654503  0.000042  1
  Si  Si18  1  0.335298  0.167649  0.499508  1
  Si  Si19  1  0.170295  0.829705  0.500531  1
  Si  Si20  1  0.832351  0.664702  0.499508  1
  Si  Si21  1  0.827251  0.172749  0.000042  1
  Si  Si22  1  0.832351  0.167649  0.499508  1
  Ir  Ir23  1  0.666667  0.333333  0.499318  1
