# generated using pymatgen
data_Ta12CrFe8W3N4
_symmetry_space_group_name_H-M   'P 1'
_cell_length_a   8.11721577
_cell_length_b   8.12438568
_cell_length_c   8.11721500
_cell_angle_alpha   60.02918821
_cell_angle_beta   59.99999907
_cell_angle_gamma   60.02918382
_symmetry_Int_Tables_number   1
_chemical_formula_structural   Ta12CrFe8W3N4
_chemical_formula_sum   'Ta12 Cr1 Fe8 W3 N4'
_cell_volume   378.68762884
_cell_formula_units_Z   1
loop_
 _symmetry_equiv_pos_site_id
 _symmetry_equiv_pos_as_xyz
  1  'x, y, z'
loop_
 _atom_site_type_symbol
 _atom_site_label
 _atom_site_symmetry_multiplicity
 _atom_site_fract_x
 _atom_site_fract_y
 _atom_site_fract_z
 _atom_site_occupancy
  Ta  Ta0  1  0.807628  0.808196  0.192089  1
  Ta  Ta1  1  0.196352  0.193363  0.805142  1
  Ta  Ta2  1  0.805142  0.193363  0.805142  1
  Ta  Ta3  1  0.192089  0.808196  0.192089  1
  Ta  Ta4  1  0.192089  0.808196  0.807628  1
  Ta  Ta5  1  0.805142  0.193363  0.196352  1
  Ta  Ta6  1  0.442372  0.441804  0.057911  1
  Ta  Ta7  1  0.053648  0.056637  0.444858  1
  Ta  Ta8  1  0.444858  0.056637  0.444858  1
  Ta  Ta9  1  0.057911  0.441804  0.057911  1
  Ta  Ta10  1  0.057911  0.441804  0.442372  1
  Ta  Ta11  1  0.444858  0.056637  0.053648  1
  Cr  Cr12  1  0.625000  0.125000  0.625000  1
  Fe  Fe13  1  0.736084  0.410931  0.426493  1
  Fe  Fe14  1  0.420232  0.739302  0.420232  1
  Fe  Fe15  1  0.426493  0.410931  0.736084  1
  Fe  Fe16  1  0.426493  0.410931  0.426493  1
  Fe  Fe17  1  0.513916  0.839069  0.823507  1
  Fe  Fe18  1  0.829768  0.510698  0.829768  1
  Fe  Fe19  1  0.823507  0.839069  0.513916  1
  Fe  Fe20  1  0.823507  0.839069  0.823507  1
  W  W21  1  0.125000  0.625000  0.625000  1
  W  W22  1  0.625000  0.625000  0.125000  1
  W  W23  1  0.625000  0.625000  0.625000  1
  N  N24  1  0.625000  0.125000  0.125000  1
  N  N25  1  0.125000  0.625000  0.125000  1
  N  N26  1  0.125000  0.125000  0.625000  1
  N  N27  1  0.125000  0.125000  0.125000  1
