# generated using pymatgen
data_DyHoSc3GaSi3
_symmetry_space_group_name_H-M   'P 1'
_cell_length_a   7.12790274
_cell_length_b   7.40631178
_cell_length_c   14.13339101
_cell_angle_alpha   90.00296511
_cell_angle_beta   89.87036930
_cell_angle_gamma   90.15115062
_symmetry_Int_Tables_number   1
_chemical_formula_structural   DyHoSc3GaSi3
_chemical_formula_sum   'Dy4 Ho4 Sc12 Ga4 Si12'
_cell_volume   746.11798112
_cell_formula_units_Z   4
loop_
 _symmetry_equiv_pos_site_id
 _symmetry_equiv_pos_as_xyz
  1  'x, y, z'
loop_
 _atom_site_type_symbol
 _atom_site_label
 _atom_site_symmetry_multiplicity
 _atom_site_fract_x
 _atom_site_fract_y
 _atom_site_fract_z
 _atom_site_occupancy
  Dy  Dy0  1  0.013662  0.174679  0.097153  1
  Dy  Dy1  1  0.987987  0.825018  0.901739  1
  Dy  Dy2  1  0.486953  0.676727  0.901517  1
  Dy  Dy3  1  0.987597  0.827611  0.600188  1
  Ho  Ho4  1  0.510930  0.321502  0.097400  1
  Ho  Ho5  1  0.009931  0.174725  0.400578  1
  Ho  Ho6  1  0.511261  0.324531  0.400542  1
  Ho  Ho7  1  0.490127  0.675825  0.600585  1
  Sc  Sc8  1  0.162532  0.501099  0.751238  1
  Sc  Sc9  1  0.836798  0.498012  0.250123  1
  Sc  Sc10  1  0.336560  0.002276  0.248553  1
  Sc  Sc11  1  0.663021  0.998332  0.749943  1
  Sc  Sc12  1  0.333135  0.174961  0.627479  1
  Sc  Sc13  1  0.669387  0.825944  0.373885  1
  Sc  Sc14  1  0.170295  0.674094  0.373189  1
  Sc  Sc15  1  0.668843  0.825780  0.125443  1
  Sc  Sc16  1  0.828794  0.324362  0.626531  1
  Sc  Sc17  1  0.330476  0.175829  0.874700  1
  Sc  Sc18  1  0.829141  0.323197  0.874315  1
  Sc  Sc19  1  0.173032  0.675603  0.124522  1
  Ga  Ga20  1  0.161637  0.461567  0.539743  1
  Ga  Ga21  1  0.839263  0.537691  0.461209  1
  Ga  Ga22  1  0.339727  0.962081  0.461370  1
  Ga  Ga23  1  0.839844  0.537832  0.038798  1
  Si  Si24  1  0.033060  0.116660  0.751138  1
  Si  Si25  1  0.966963  0.883849  0.249338  1
  Si  Si26  1  0.467323  0.614597  0.248545  1
  Si  Si27  1  0.532982  0.384941  0.751035  1
  Si  Si28  1  0.286048  0.871982  0.750933  1
  Si  Si29  1  0.714897  0.127721  0.248802  1
  Si  Si30  1  0.214318  0.372259  0.248924  1
  Si  Si31  1  0.786554  0.628460  0.751304  1
  Si  Si32  1  0.657889  0.036255  0.539287  1
  Si  Si33  1  0.158056  0.463599  0.960767  1
  Si  Si34  1  0.656533  0.036035  0.961276  1
  Si  Si35  1  0.344444  0.964364  0.037911  1
