# generated using pymatgen
data_Y6Er14Cd6IrRu
_symmetry_space_group_name_H-M   'P 1'
_cell_length_a   9.57203200
_cell_length_b   9.57203124
_cell_length_c   9.76182500
_cell_angle_alpha   90.00000000
_cell_angle_beta   90.00000000
_cell_angle_gamma   120.00000263
_symmetry_Int_Tables_number   1
_chemical_formula_structural   Y6Er14Cd6IrRu
_chemical_formula_sum   'Y6 Er14 Cd6 Ir1 Ru1'
_cell_volume   774.58643509
_cell_formula_units_Z   1
loop_
 _symmetry_equiv_pos_site_id
 _symmetry_equiv_pos_as_xyz
  1  'x, y, z'
loop_
 _atom_site_type_symbol
 _atom_site_label
 _atom_site_symmetry_multiplicity
 _atom_site_fract_x
 _atom_site_fract_y
 _atom_site_fract_z
 _atom_site_occupancy
  Y  Y0  1  0.540689  0.459311  0.250000  1
  Y  Y1  1  0.540689  0.081378  0.250000  1
  Y  Y2  1  0.918622  0.459311  0.250000  1
  Y  Y3  1  0.459327  0.540673  0.750000  1
  Y  Y4  1  0.459327  0.918654  0.750000  1
  Y  Y5  1  0.081346  0.540673  0.750000  1
  Er  Er6  1  0.000000  0.000000  0.499549  1
  Er  Er7  1  0.000000  0.000000  0.000451  1
  Er  Er8  1  0.209484  0.790516  0.440401  1
  Er  Er9  1  0.209484  0.418970  0.440401  1
  Er  Er10  1  0.581030  0.790516  0.440401  1
  Er  Er11  1  0.790248  0.209752  0.560093  1
  Er  Er12  1  0.790248  0.580494  0.560093  1
  Er  Er13  1  0.419506  0.209752  0.560093  1
  Er  Er14  1  0.790248  0.209752  0.939907  1
  Er  Er15  1  0.790248  0.580494  0.939907  1
  Er  Er16  1  0.419506  0.209752  0.939907  1
  Er  Er17  1  0.209484  0.790516  0.059599  1
  Er  Er18  1  0.209484  0.418970  0.059599  1
  Er  Er19  1  0.581030  0.790516  0.059599  1
  Cd  Cd20  1  0.885919  0.114081  0.250000  1
  Cd  Cd21  1  0.885919  0.771840  0.250000  1
  Cd  Cd22  1  0.228160  0.114081  0.250000  1
  Cd  Cd23  1  0.114226  0.885774  0.750000  1
  Cd  Cd24  1  0.114226  0.228450  0.750000  1
  Cd  Cd25  1  0.771550  0.885774  0.750000  1
  Ir  Ir26  1  0.333333  0.666667  0.250000  1
  Ru  Ru27  1  0.666667  0.333333  0.750000  1
