# generated using pymatgen
data_Ce3Dy3Ho4Al2(GaRu3)2
_symmetry_space_group_name_H-M   'P 1'
_cell_length_a   8.42682334
_cell_length_b   8.42682317
_cell_length_c   8.42682300
_cell_angle_alpha   110.10145184
_cell_angle_beta   110.10145141
_cell_angle_gamma   110.10144687
_symmetry_Int_Tables_number   1
_chemical_formula_structural   Ce3Dy3Ho4Al2(GaRu3)2
_chemical_formula_sum   'Ce3 Dy3 Ho4 Al2 Ga2 Ru6'
_cell_volume   449.57906197
_cell_formula_units_Z   1
loop_
 _symmetry_equiv_pos_site_id
 _symmetry_equiv_pos_as_xyz
  1  'x, y, z'
loop_
 _atom_site_type_symbol
 _atom_site_label
 _atom_site_symmetry_multiplicity
 _atom_site_fract_x
 _atom_site_fract_y
 _atom_site_fract_z
 _atom_site_occupancy
  Ce  Ce0  1  0.253055  0.200147  0.945016  1
  Ce  Ce1  1  0.945774  0.254783  0.200628  1
  Ce  Ce2  1  0.200150  0.944636  0.253269  1
  Dy  Dy3  1  0.722103  0.506311  0.995326  1
  Dy  Dy4  1  0.995725  0.721433  0.506979  1
  Dy  Dy5  1  0.506027  0.994767  0.720941  1
  Ho  Ho6  1  0.778658  0.778601  0.778090  1
  Ho  Ho7  1  0.313714  0.566490  0.750709  1
  Ho  Ho8  1  0.751693  0.314310  0.567632  1
  Ho  Ho9  1  0.566054  0.750645  0.313684  1
  Al  Al10  1  0.000832  0.093148  0.498370  1
  Al  Al11  1  0.499277  0.001679  0.093775  1
  Ga  Ga12  1  0.414166  0.413874  0.414462  1
  Ga  Ga13  1  0.093507  0.499204  0.001224  1
  Ru  Ru14  1  0.899228  0.117133  0.752181  1
  Ru  Ru15  1  0.753400  0.900022  0.119492  1
  Ru  Ru16  1  0.120268  0.756301  0.899693  1
  Ru  Ru17  1  0.223707  0.597128  0.367590  1
  Ru  Ru18  1  0.365802  0.223784  0.598176  1
  Ru  Ru19  1  0.596857  0.365602  0.222763  1
