# generated using pymatgen
data_BeZnAs4
_symmetry_space_group_name_H-M   'P 1'
_cell_length_a   7.49689000
_cell_length_b   7.87696947
_cell_length_c   9.10596204
_cell_angle_alpha   77.50052542
_cell_angle_beta   90.00000000
_cell_angle_gamma   90.00000000
_symmetry_Int_Tables_number   1
_chemical_formula_structural   BeZnAs4
_chemical_formula_sum   'Be4 Zn4 As16'
_cell_volume   524.98697955
_cell_formula_units_Z   4
loop_
 _symmetry_equiv_pos_site_id
 _symmetry_equiv_pos_as_xyz
  1  'x, y, z'
loop_
 _atom_site_type_symbol
 _atom_site_label
 _atom_site_symmetry_multiplicity
 _atom_site_fract_x
 _atom_site_fract_y
 _atom_site_fract_z
 _atom_site_occupancy
  Be  Be0  1  0.250853  0.605598  0.080010  1
  Be  Be1  1  0.750853  0.894402  0.919990  1
  Be  Be2  1  0.749147  0.394402  0.919990  1
  Be  Be3  1  0.249147  0.105598  0.080010  1
  Zn  Zn4  1  0.902487  0.778557  0.382802  1
  Zn  Zn5  1  0.402487  0.721443  0.617198  1
  Zn  Zn6  1  0.097513  0.221443  0.617198  1
  Zn  Zn7  1  0.597513  0.278557  0.382802  1
  As  As8  1  0.569308  0.782558  0.376867  1
  As  As9  1  0.069308  0.717442  0.623133  1
  As  As10  1  0.430692  0.217442  0.623133  1
  As  As11  1  0.930692  0.282558  0.376867  1
  As  As12  1  0.999007  0.573558  0.223853  1
  As  As13  1  0.499007  0.926442  0.776147  1
  As  As14  1  0.000993  0.426442  0.776147  1
  As  As15  1  0.500993  0.073558  0.223853  1
  As  As16  1  0.497585  0.564368  0.228768  1
  As  As17  1  0.997585  0.935632  0.771232  1
  As  As18  1  0.502415  0.435632  0.771232  1
  As  As19  1  0.002415  0.064368  0.228768  1
  As  As20  1  0.744949  0.613157  0.045937  1
  As  As21  1  0.244949  0.886843  0.954063  1
  As  As22  1  0.255051  0.386843  0.954063  1
  As  As23  1  0.755051  0.113157  0.045937  1
