# generated using pymatgen
data_Nd4Zn2CuIr11
_symmetry_space_group_name_H-M   'P 1'
_cell_length_a   13.06886461
_cell_length_b   13.06886517
_cell_length_c   13.06886490
_cell_angle_alpha   24.00036942
_cell_angle_beta   24.00036335
_cell_angle_gamma   24.00036814
_symmetry_Int_Tables_number   1
_chemical_formula_structural   Nd4Zn2CuIr11
_chemical_formula_sum   'Nd4 Zn2 Cu1 Ir11'
_cell_volume   324.47705724
_cell_formula_units_Z   1
loop_
 _symmetry_equiv_pos_site_id
 _symmetry_equiv_pos_as_xyz
  1  'x, y, z'
loop_
 _atom_site_type_symbol
 _atom_site_label
 _atom_site_symmetry_multiplicity
 _atom_site_fract_x
 _atom_site_fract_y
 _atom_site_fract_z
 _atom_site_occupancy
  Nd  Nd0  1  0.952495  0.952495  0.952495  1
  Nd  Nd1  1  0.052263  0.052263  0.052263  1
  Nd  Nd2  1  0.853141  0.853141  0.853141  1
  Nd  Nd3  1  0.148532  0.148532  0.148532  1
  Zn  Zn4  1  0.278808  0.278808  0.278808  1
  Zn  Zn5  1  0.609874  0.609874  0.609874  1
  Cu  Cu6  1  0.721043  0.721043  0.721043  1
  Ir  Ir7  1  0.500515  0.500515  0.500515  1
  Ir  Ir8  1  0.387023  0.387023  0.387023  1
  Ir  Ir9  1  0.502381  0.502381  0.994780  1
  Ir  Ir10  1  0.994780  0.502381  0.502381  1
  Ir  Ir11  1  0.502381  0.994780  0.502381  1
  Ir  Ir12  1  0.386515  0.895346  0.386515  1
  Ir  Ir13  1  0.386515  0.386515  0.895346  1
  Ir  Ir14  1  0.895346  0.386515  0.386515  1
  Ir  Ir15  1  0.611859  0.104672  0.611859  1
  Ir  Ir16  1  0.611859  0.611859  0.104672  1
  Ir  Ir17  1  0.104672  0.611859  0.611859  1
