# generated using pymatgen
data_Ti8PdRh3O2
_symmetry_space_group_name_H-M   'P 1'
_cell_length_a   8.24886396
_cell_length_b   8.24886266
_cell_length_c   8.25882200
_cell_angle_alpha   59.96004483
_cell_angle_beta   59.96005003
_cell_angle_gamma   59.95065580
_symmetry_Int_Tables_number   1
_chemical_formula_structural   Ti8PdRh3O2
_chemical_formula_sum   'Ti16 Pd2 Rh6 O4'
_cell_volume   396.97830473
_cell_formula_units_Z   2
loop_
 _symmetry_equiv_pos_site_id
 _symmetry_equiv_pos_as_xyz
  1  'x, y, z'
loop_
 _atom_site_type_symbol
 _atom_site_label
 _atom_site_symmetry_multiplicity
 _atom_site_fract_x
 _atom_site_fract_y
 _atom_site_fract_z
 _atom_site_occupancy
  Ti  Ti0  1  0.131875  0.619952  0.624086  1
  Ti  Ti1  1  0.619952  0.131875  0.624086  1
  Ti  Ti2  1  0.622626  0.622626  0.127917  1
  Ti  Ti3  1  0.622626  0.622626  0.626830  1
  Ti  Ti4  1  0.817971  0.817971  0.182029  1
  Ti  Ti5  1  0.182086  0.182086  0.817914  1
  Ti  Ti6  1  0.818113  0.185208  0.817818  1
  Ti  Ti7  1  0.185208  0.818113  0.178862  1
  Ti  Ti8  1  0.185208  0.818113  0.817818  1
  Ti  Ti9  1  0.818113  0.185208  0.178862  1
  Ti  Ti10  1  0.431355  0.431355  0.068645  1
  Ti  Ti11  1  0.069623  0.069623  0.430377  1
  Ti  Ti12  1  0.430876  0.068788  0.431269  1
  Ti  Ti13  1  0.068788  0.430876  0.069067  1
  Ti  Ti14  1  0.068788  0.430876  0.431269  1
  Ti  Ti15  1  0.430876  0.068788  0.069067  1
  Pd  Pd16  1  0.839808  0.839808  0.481208  1
  Pd  Pd17  1  0.839808  0.839808  0.839175  1
  Rh  Rh18  1  0.776090  0.408954  0.407479  1
  Rh  Rh19  1  0.408954  0.776090  0.407479  1
  Rh  Rh20  1  0.408117  0.408117  0.776782  1
  Rh  Rh21  1  0.408117  0.408117  0.406986  1
  Rh  Rh22  1  0.473739  0.841680  0.842290  1
  Rh  Rh23  1  0.841680  0.473739  0.842290  1
  O  O24  1  0.625174  0.124814  0.125006  1
  O  O25  1  0.124814  0.625174  0.125006  1
  O  O26  1  0.124807  0.124807  0.625316  1
  O  O27  1  0.124807  0.124807  0.125071  1
