# generated using pymatgen
data_Ho2Ti(Ge2Mo)2
_symmetry_space_group_name_H-M   'P 1'
_cell_length_a   6.92707100
_cell_length_b   7.09710100
_cell_length_c   13.35709300
_cell_angle_alpha   90.00000000
_cell_angle_beta   90.00000000
_cell_angle_gamma   90.00000000
_symmetry_Int_Tables_number   1
_chemical_formula_structural   Ho2Ti(Ge2Mo)2
_chemical_formula_sum   'Ho8 Ti4 Ge16 Mo8'
_cell_volume   656.66304259
_cell_formula_units_Z   4
loop_
 _symmetry_equiv_pos_site_id
 _symmetry_equiv_pos_as_xyz
  1  'x, y, z'
loop_
 _atom_site_type_symbol
 _atom_site_label
 _atom_site_symmetry_multiplicity
 _atom_site_fract_x
 _atom_site_fract_y
 _atom_site_fract_z
 _atom_site_occupancy
  Ho  Ho0  1  0.004382  0.174512  0.405510  1
  Ho  Ho1  1  0.504382  0.325488  0.094490  1
  Ho  Ho2  1  0.495618  0.674512  0.594490  1
  Ho  Ho3  1  0.995618  0.825488  0.905510  1
  Ho  Ho4  1  0.993348  0.829832  0.594031  1
  Ho  Ho5  1  0.493348  0.670168  0.905969  1
  Ho  Ho6  1  0.506652  0.329832  0.405969  1
  Ho  Ho7  1  0.006652  0.170168  0.094031  1
  Ti  Ti8  1  0.159848  0.334066  0.627661  1
  Ti  Ti9  1  0.659848  0.165934  0.872339  1
  Ti  Ti10  1  0.840152  0.665934  0.127661  1
  Ti  Ti11  1  0.340152  0.834066  0.372339  1
  Ge  Ge12  1  0.328691  0.044178  0.545083  1
  Ge  Ge13  1  0.828691  0.455822  0.954917  1
  Ge  Ge14  1  0.671309  0.955822  0.045083  1
  Ge  Ge15  1  0.171309  0.544178  0.454917  1
  Ge  Ge16  1  0.173039  0.544057  0.044064  1
  Ge  Ge17  1  0.673039  0.955943  0.455936  1
  Ge  Ge18  1  0.826961  0.455943  0.544064  1
  Ge  Ge19  1  0.326961  0.044057  0.955936  1
  Ge  Ge20  1  0.808956  0.364096  0.248793  1
  Ge  Ge21  1  0.308956  0.135904  0.251207  1
  Ge  Ge22  1  0.691044  0.864096  0.751207  1
  Ge  Ge23  1  0.191044  0.635904  0.748793  1
  Ge  Ge24  1  0.036269  0.870732  0.251404  1
  Ge  Ge25  1  0.536269  0.629268  0.248596  1
  Ge  Ge26  1  0.463731  0.370732  0.748596  1
  Ge  Ge27  1  0.963731  0.129268  0.751404  1
  Mo  Mo28  1  0.334157  0.835985  0.124781  1
  Mo  Mo29  1  0.834157  0.664015  0.375219  1
  Mo  Mo30  1  0.665843  0.164015  0.624781  1
  Mo  Mo31  1  0.165843  0.335985  0.875219  1
  Mo  Mo32  1  0.333051  0.011144  0.750302  1
  Mo  Mo33  1  0.666949  0.988856  0.250302  1
  Mo  Mo34  1  0.166949  0.511144  0.249698  1
  Mo  Mo35  1  0.833051  0.488856  0.749698  1
