# generated using pymatgen
data_Tb8TmZr3Ga20
_symmetry_space_group_name_H-M   'P 1'
_cell_length_a   6.06194860
_cell_length_b   9.52796900
_cell_length_c   11.35683454
_cell_angle_alpha   90.00000000
_cell_angle_beta   90.11433723
_cell_angle_gamma   90.00000000
_symmetry_Int_Tables_number   1
_chemical_formula_structural   Tb8TmZr3Ga20
_chemical_formula_sum   'Tb8 Tm1 Zr3 Ga20'
_cell_volume   655.94740542
_cell_formula_units_Z   1
loop_
 _symmetry_equiv_pos_site_id
 _symmetry_equiv_pos_as_xyz
  1  'x, y, z'
loop_
 _atom_site_type_symbol
 _atom_site_label
 _atom_site_symmetry_multiplicity
 _atom_site_fract_x
 _atom_site_fract_y
 _atom_site_fract_z
 _atom_site_occupancy
  Tb  Tb0  1  0.887717  0.511034  0.352591  1
  Tb  Tb1  1  0.613051  0.987762  0.853702  1
  Tb  Tb2  1  0.111493  0.010463  0.648453  1
  Tb  Tb3  1  0.388755  0.488943  0.147044  1
  Tb  Tb4  1  0.111493  0.489537  0.648453  1
  Tb  Tb5  1  0.388755  0.011057  0.147044  1
  Tb  Tb6  1  0.887717  0.988966  0.352591  1
  Tb  Tb7  1  0.613051  0.512238  0.853702  1
  Tm  Tm8  1  0.348935  0.250000  0.423868  1
  Zr  Zr9  1  0.857458  0.750000  0.075131  1
  Zr  Zr10  1  0.642789  0.750000  0.577332  1
  Zr  Zr11  1  0.144435  0.250000  0.924363  1
  Ga  Ga12  1  0.874734  0.049820  0.087133  1
  Ga  Ga13  1  0.624457  0.451268  0.591106  1
  Ga  Ga14  1  0.125109  0.551876  0.912146  1
  Ga  Ga15  1  0.376080  0.941362  0.411139  1
  Ga  Ga16  1  0.125109  0.948124  0.912146  1
  Ga  Ga17  1  0.376080  0.558638  0.411139  1
  Ga  Ga18  1  0.874734  0.450180  0.087133  1
  Ga  Ga19  1  0.624457  0.048732  0.591106  1
  Ga  Ga20  1  0.167819  0.750000  0.249997  1
  Ga  Ga21  1  0.332085  0.750000  0.750985  1
  Ga  Ga22  1  0.832922  0.250000  0.750972  1
  Ga  Ga23  1  0.676571  0.250000  0.246986  1
  Ga  Ga24  1  0.380892  0.750000  0.004631  1
  Ga  Ga25  1  0.114366  0.750000  0.506148  1
  Ga  Ga26  1  0.621411  0.250000  0.993130  1
  Ga  Ga27  1  0.870560  0.250000  0.498312  1
  Ga  Ga28  1  0.603351  0.750000  0.292097  1
  Ga  Ga29  1  0.899920  0.750000  0.795067  1
  Ga  Ga30  1  0.402181  0.250000  0.709206  1
  Ga  Ga31  1  0.101510  0.250000  0.195151  1
