# generated using pymatgen
data_LaNd2Zr(Co4P3)2
_symmetry_space_group_name_H-M   'P 1'
_cell_length_a   3.79092200
_cell_length_b   10.87305500
_cell_length_c   12.64365600
_cell_angle_alpha   90.00000000
_cell_angle_beta   90.00000000
_cell_angle_gamma   90.00000000
_symmetry_Int_Tables_number   1
_chemical_formula_structural   LaNd2Zr(Co4P3)2
_chemical_formula_sum   'La2 Nd4 Zr2 Co16 P12'
_cell_volume   521.15763537
_cell_formula_units_Z   2
loop_
 _symmetry_equiv_pos_site_id
 _symmetry_equiv_pos_as_xyz
  1  'x, y, z'
loop_
 _atom_site_type_symbol
 _atom_site_label
 _atom_site_symmetry_multiplicity
 _atom_site_fract_x
 _atom_site_fract_y
 _atom_site_fract_z
 _atom_site_occupancy
  La  La0  1  0.000000  0.500000  0.531472  1
  La  La1  1  0.500000  0.000000  0.468528  1
  Nd  Nd2  1  0.500000  0.820742  0.204902  1
  Nd  Nd3  1  0.500000  0.179258  0.204902  1
  Nd  Nd4  1  0.000000  0.679258  0.795098  1
  Nd  Nd5  1  0.000000  0.320742  0.795098  1
  Zr  Zr6  1  0.500000  0.500000  0.155452  1
  Zr  Zr7  1  0.000000  0.000000  0.844548  1
  Co  Co8  1  0.500000  0.500000  0.704955  1
  Co  Co9  1  0.000000  0.000000  0.295045  1
  Co  Co10  1  0.000000  0.500000  0.986443  1
  Co  Co11  1  0.500000  0.000000  0.013557  1
  Co  Co12  1  0.500000  0.331949  0.993624  1
  Co  Co13  1  0.500000  0.668051  0.993624  1
  Co  Co14  1  0.000000  0.168051  0.006376  1
  Co  Co15  1  0.000000  0.831949  0.006376  1
  Co  Co16  1  0.500000  0.296124  0.432807  1
  Co  Co17  1  0.500000  0.703876  0.432807  1
  Co  Co18  1  0.000000  0.203876  0.567193  1
  Co  Co19  1  0.000000  0.796124  0.567193  1
  Co  Co20  1  0.500000  0.880965  0.701955  1
  Co  Co21  1  0.500000  0.119035  0.701955  1
  Co  Co22  1  0.000000  0.619035  0.298045  1
  Co  Co23  1  0.000000  0.380965  0.298045  1
  P  P24  1  0.500000  0.500000  0.887011  1
  P  P25  1  0.000000  0.000000  0.112989  1
  P  P26  1  0.500000  0.500000  0.357865  1
  P  P27  1  0.000000  0.000000  0.642135  1
  P  P28  1  0.500000  0.301752  0.613736  1
  P  P29  1  0.500000  0.698248  0.613736  1
  P  P30  1  0.000000  0.198248  0.386264  1
  P  P31  1  0.000000  0.801752  0.386264  1
  P  P32  1  0.500000  0.840508  0.898113  1
  P  P33  1  0.500000  0.159492  0.898113  1
  P  P34  1  0.000000  0.659492  0.101887  1
  P  P35  1  0.000000  0.340508  0.101887  1
