# generated using pymatgen
data_Zr8Ti2(GaBi)3
_symmetry_space_group_name_H-M   'P 1'
_cell_length_a   5.48816173
_cell_length_b   8.32080546
_cell_length_c   8.32815401
_cell_angle_alpha   83.76178767
_cell_angle_beta   70.76191846
_cell_angle_gamma   70.74425570
_symmetry_Int_Tables_number   1
_chemical_formula_structural   Zr8Ti2(GaBi)3
_chemical_formula_sum   'Zr8 Ti2 Ga3 Bi3'
_cell_volume   338.98715400
_cell_formula_units_Z   1
loop_
 _symmetry_equiv_pos_site_id
 _symmetry_equiv_pos_as_xyz
  1  'x, y, z'
loop_
 _atom_site_type_symbol
 _atom_site_label
 _atom_site_symmetry_multiplicity
 _atom_site_fract_x
 _atom_site_fract_y
 _atom_site_fract_z
 _atom_site_occupancy
  Zr  Zr0  1  0.706604  0.878191  0.708602  1
  Zr  Zr1  1  0.285051  0.132862  0.297034  1
  Zr  Zr2  1  0.777476  0.294106  0.150942  1
  Zr  Zr3  1  0.207882  0.715905  0.868332  1
  Zr  Zr4  1  0.576213  0.715905  0.131668  1
  Zr  Zr5  1  0.428419  0.294106  0.849058  1
  Zr  Zr6  1  0.082086  0.132862  0.702966  1
  Zr  Zr7  1  0.915206  0.878191  0.291398  1
  Ti  Ti8  1  0.753431  0.475599  0.500000  1
  Ti  Ti9  1  0.270970  0.475599  0.500000  1
  Ga  Ga10  1  0.659375  0.181249  0.500000  1
  Ga  Ga11  1  0.245964  0.008072  0.000000  1
  Ga  Ga12  1  0.745964  0.008072  0.000000  1
  Bi  Bi13  1  0.157358  0.501748  0.183537  1
  Bi  Bi14  1  0.840895  0.501748  0.816463  1
  Bi  Bi15  1  0.347106  0.805786  0.500000  1
