# generated using pymatgen
data_Nb12Co8Re4C3N
_symmetry_space_group_name_H-M   'P 1'
_cell_length_a   8.15064540
_cell_length_b   8.15064532
_cell_length_c   8.15064563
_cell_angle_alpha   60.09975656
_cell_angle_beta   60.09975913
_cell_angle_gamma   60.09975638
_symmetry_Int_Tables_number   1
_chemical_formula_structural   Nb12Co8Re4C3N
_chemical_formula_sum   'Nb12 Co8 Re4 C3 N1'
_cell_volume   383.74395357
_cell_formula_units_Z   1
loop_
 _symmetry_equiv_pos_site_id
 _symmetry_equiv_pos_as_xyz
  1  'x, y, z'
loop_
 _atom_site_type_symbol
 _atom_site_label
 _atom_site_symmetry_multiplicity
 _atom_site_fract_x
 _atom_site_fract_y
 _atom_site_fract_z
 _atom_site_occupancy
  Nb  Nb0  1  0.693093  0.307266  0.693093  1
  Nb  Nb1  1  0.942734  0.556907  0.556907  1
  Nb  Nb2  1  0.556671  0.943772  0.943772  1
  Nb  Nb3  1  0.943772  0.556671  0.943772  1
  Nb  Nb4  1  0.556907  0.556907  0.942734  1
  Nb  Nb5  1  0.943772  0.943772  0.556671  1
  Nb  Nb6  1  0.693093  0.693093  0.307266  1
  Nb  Nb7  1  0.307266  0.693093  0.693093  1
  Nb  Nb8  1  0.693329  0.306228  0.306228  1
  Nb  Nb9  1  0.306228  0.306228  0.693329  1
  Nb  Nb10  1  0.556907  0.942734  0.556907  1
  Nb  Nb11  1  0.306228  0.693329  0.306228  1
  Co  Co12  1  0.325996  0.325996  0.325996  1
  Co  Co13  1  0.227876  0.923977  0.923977  1
  Co  Co14  1  0.923977  0.227876  0.923977  1
  Co  Co15  1  0.923977  0.923977  0.227876  1
  Co  Co16  1  0.326023  0.022124  0.326023  1
  Co  Co17  1  0.326023  0.326023  0.022124  1
  Co  Co18  1  0.022124  0.326023  0.326023  1
  Co  Co19  1  0.924004  0.924004  0.924004  1
  Re  Re20  1  0.125000  0.125000  0.125000  1
  Re  Re21  1  0.625000  0.125000  0.125000  1
  Re  Re22  1  0.125000  0.625000  0.125000  1
  Re  Re23  1  0.125000  0.125000  0.625000  1
  C  C24  1  0.125000  0.625000  0.625000  1
  C  C25  1  0.625000  0.125000  0.625000  1
  C  C26  1  0.625000  0.625000  0.125000  1
  N  N27  1  0.625000  0.625000  0.625000  1
