# generated using pymatgen
data_Ta3Mn4AsRu8
_symmetry_space_group_name_H-M   'P 1'
_cell_length_a   6.17905200
_cell_length_b   4.36400000
_cell_length_c   8.69823000
_cell_angle_alpha   90.00000000
_cell_angle_beta   90.00010833
_cell_angle_gamma   90.00000000
_symmetry_Int_Tables_number   1
_chemical_formula_structural   Ta3Mn4AsRu8
_chemical_formula_sum   'Ta3 Mn4 As1 Ru8'
_cell_volume   234.55110275
_cell_formula_units_Z   1
loop_
 _symmetry_equiv_pos_site_id
 _symmetry_equiv_pos_as_xyz
  1  'x, y, z'
loop_
 _atom_site_type_symbol
 _atom_site_label
 _atom_site_symmetry_multiplicity
 _atom_site_fract_x
 _atom_site_fract_y
 _atom_site_fract_z
 _atom_site_occupancy
  Ta  Ta0  1  0.249991  0.749999  0.373056  1
  Ta  Ta1  1  0.750006  0.249999  0.625029  1
  Ta  Ta2  1  0.250000  0.749999  0.876982  1
  Mn  Mn3  1  0.250009  0.249999  0.124999  1
  Mn  Mn4  1  0.749992  0.749999  0.379003  1
  Mn  Mn5  1  0.250006  0.249999  0.624959  1
  Mn  Mn6  1  0.750002  0.749999  0.871058  1
  As  As7  1  0.749993  0.249999  0.125003  1
  Ru  Ru8  1  0.990852  0.749999  0.124984  1
  Ru  Ru9  1  0.509147  0.749999  0.124985  1
  Ru  Ru10  1  0.993468  0.249999  0.368319  1
  Ru  Ru11  1  0.506523  0.249999  0.368327  1
  Ru  Ru12  1  0.499278  0.749999  0.625037  1
  Ru  Ru13  1  0.000720  0.749999  0.625035  1
  Ru  Ru14  1  0.506552  0.249999  0.881612  1
  Ru  Ru15  1  0.993462  0.249999  0.881610  1
