# generated using pymatgen
data_Ho7TmSc11Si16Ru
_symmetry_space_group_name_H-M   'P 1'
_cell_length_a   6.97734906
_cell_length_b   7.33999662
_cell_length_c   13.85096739
_cell_angle_alpha   89.97485573
_cell_angle_beta   90.01016162
_cell_angle_gamma   90.10447704
_symmetry_Int_Tables_number   1
_chemical_formula_structural   Ho7TmSc11Si16Ru
_chemical_formula_sum   'Ho7 Tm1 Sc11 Si16 Ru1'
_cell_volume   709.35828625
_cell_formula_units_Z   1
loop_
 _symmetry_equiv_pos_site_id
 _symmetry_equiv_pos_as_xyz
  1  'x, y, z'
loop_
 _atom_site_type_symbol
 _atom_site_label
 _atom_site_symmetry_multiplicity
 _atom_site_fract_x
 _atom_site_fract_y
 _atom_site_fract_z
 _atom_site_occupancy
  Ho  Ho0  1  0.011624  0.178519  0.093210  1
  Ho  Ho1  1  0.992814  0.817669  0.901496  1
  Ho  Ho2  1  0.489446  0.673450  0.902981  1
  Ho  Ho3  1  0.992820  0.817576  0.598386  1
  Ho  Ho4  1  0.510455  0.323157  0.094415  1
  Ho  Ho5  1  0.011655  0.178518  0.406887  1
  Ho  Ho6  1  0.510436  0.323182  0.405724  1
  Tm  Tm7  1  0.489275  0.673648  0.597342  1
  Sc  Sc8  1  0.840874  0.496174  0.250032  1
  Sc  Sc9  1  0.341536  0.003536  0.250020  1
  Sc  Sc10  1  0.657034  0.995436  0.749886  1
  Sc  Sc11  1  0.326217  0.177440  0.627384  1
  Sc  Sc12  1  0.671475  0.824464  0.374313  1
  Sc  Sc13  1  0.172298  0.674076  0.376307  1
  Sc  Sc14  1  0.671490  0.824637  0.125812  1
  Sc  Sc15  1  0.826902  0.331226  0.628582  1
  Sc  Sc16  1  0.326109  0.177349  0.872526  1
  Sc  Sc17  1  0.827153  0.331020  0.871240  1
  Sc  Sc18  1  0.172260  0.674082  0.123787  1
  Si  Si19  1  0.028831  0.113183  0.749933  1
  Si  Si20  1  0.972498  0.887511  0.250017  1
  Si  Si21  1  0.468838  0.613837  0.250039  1
  Si  Si22  1  0.516068  0.397229  0.749779  1
  Si  Si23  1  0.284872  0.860366  0.749734  1
  Si  Si24  1  0.716078  0.130488  0.250010  1
  Si  Si25  1  0.214444  0.369828  0.249999  1
  Si  Si26  1  0.794578  0.630468  0.749784  1
  Si  Si27  1  0.158846  0.465929  0.546477  1
  Si  Si28  1  0.842265  0.535623  0.463429  1
  Si  Si29  1  0.344300  0.964370  0.463450  1
  Si  Si30  1  0.842437  0.535595  0.036649  1
  Si  Si31  1  0.659352  0.033996  0.539782  1
  Si  Si32  1  0.158077  0.465466  0.953653  1
  Si  Si33  1  0.659575  0.034532  0.960326  1
  Si  Si34  1  0.344154  0.964811  0.036714  1
  Ru  Ru35  1  0.152909  0.501607  0.749894  1
