# generated using pymatgen
data_Dy3ZrSc2(SnRh)6
_symmetry_space_group_name_H-M   'P 1'
_cell_length_a   7.49894750
_cell_length_b   7.53311538
_cell_length_c   7.48611100
_cell_angle_alpha   90.00000000
_cell_angle_beta   90.00000000
_cell_angle_gamma   120.15105850
_symmetry_Int_Tables_number   1
_chemical_formula_structural   Dy3ZrSc2(SnRh)6
_chemical_formula_sum   'Dy3 Zr1 Sc2 Sn6 Rh6'
_cell_volume   365.67792479
_cell_formula_units_Z   1
loop_
 _symmetry_equiv_pos_site_id
 _symmetry_equiv_pos_as_xyz
  1  'x, y, z'
loop_
 _atom_site_type_symbol
 _atom_site_label
 _atom_site_symmetry_multiplicity
 _atom_site_fract_x
 _atom_site_fract_y
 _atom_site_fract_z
 _atom_site_occupancy
  Dy  Dy0  1  0.595787  0.003594  0.750000  1
  Dy  Dy1  1  0.404233  0.407894  0.750000  1
  Dy  Dy2  1  0.000056  0.591111  0.750000  1
  Zr  Zr3  1  0.999850  0.599751  0.250000  1
  Sc  Sc4  1  0.598001  0.997120  0.250000  1
  Sc  Sc5  1  0.402116  0.398845  0.250000  1
  Sn  Sn6  1  0.268755  0.002854  0.005980  1
  Sn  Sn7  1  0.731190  0.734229  0.493969  1
  Sn  Sn8  1  0.000002  0.262343  0.487976  1
  Sn  Sn9  1  0.000002  0.262343  0.012024  1
  Sn  Sn10  1  0.731190  0.734229  0.006031  1
  Sn  Sn11  1  0.268755  0.002854  0.494020  1
  Rh  Rh12  1  0.672233  0.338508  0.026225  1
  Rh  Rh13  1  0.672233  0.338508  0.473775  1
  Rh  Rh14  1  0.327744  0.666220  0.026710  1
  Rh  Rh15  1  0.327744  0.666220  0.473290  1
  Rh  Rh16  1  0.000008  0.001141  0.750000  1
  Rh  Rh17  1  0.000103  0.992235  0.250000  1
