# generated using pymatgen
data_PuSc5H18
_symmetry_space_group_name_H-M   'P 1'
_cell_length_a   5.93106400
_cell_length_b   5.96216546
_cell_length_c   6.19816803
_cell_angle_alpha   90.08110451
_cell_angle_beta   89.99907376
_cell_angle_gamma   119.82989452
_symmetry_Int_Tables_number   1
_chemical_formula_structural   PuSc5H18
_chemical_formula_sum   'Pu1 Sc5 H18'
_cell_volume   190.13930984
_cell_formula_units_Z   1
loop_
 _symmetry_equiv_pos_site_id
 _symmetry_equiv_pos_as_xyz
  1  'x, y, z'
loop_
 _atom_site_type_symbol
 _atom_site_label
 _atom_site_symmetry_multiplicity
 _atom_site_fract_x
 _atom_site_fract_y
 _atom_site_fract_z
 _atom_site_occupancy
  Pu  Pu0  1  0.336477  0.000002  0.249995  1
  Sc  Sc1  1  0.661049  0.999998  0.749996  1
  Sc  Sc2  1  0.338498  0.345546  0.749550  1
  Sc  Sc3  1  0.992956  0.654457  0.750447  1
  Sc  Sc4  1  0.670219  0.667945  0.250650  1
  Sc  Sc5  1  0.002266  0.332039  0.249346  1
  H  H6  1  0.325622  0.946618  0.902109  1
  H  H7  1  0.635146  0.672254  0.909391  1
  H  H8  1  0.037347  0.369276  0.910121  1
  H  H9  1  0.312398  0.328126  0.408288  1
  H  H10  1  0.011317  0.680261  0.418552  1
  H  H11  1  0.663948  0.977111  0.412255  1
  H  H12  1  0.686840  0.022894  0.087742  1
  H  H13  1  0.331062  0.319746  0.081451  1
  H  H14  1  0.984274  0.671875  0.091713  1
  H  H15  1  0.668068  0.630727  0.589881  1
  H  H16  1  0.962892  0.327743  0.590610  1
  H  H17  1  0.379004  0.053382  0.597894  1
  H  H18  1  0.001724  0.999999  0.750001  1
  H  H19  1  0.985550  0.000001  0.249996  1
  H  H20  1  0.662448  0.330447  0.822563  1
  H  H21  1  0.685148  0.351393  0.291400  1
  H  H22  1  0.333755  0.648611  0.208609  1
  H  H23  1  0.331994  0.669547  0.677438  1
