# generated using pymatgen
data_AlPbIO6
_symmetry_space_group_name_H-M   'P 1'
_cell_length_a   5.08940977
_cell_length_b   5.08940953
_cell_length_c   5.48590400
_cell_angle_alpha   90.06974236
_cell_angle_beta   90.06975362
_cell_angle_gamma   119.99002743
_symmetry_Int_Tables_number   1
_chemical_formula_structural   AlPbIO6
_chemical_formula_sum   'Al1 Pb1 I1 O6'
_cell_volume   123.07107669
_cell_formula_units_Z   1
loop_
 _symmetry_equiv_pos_site_id
 _symmetry_equiv_pos_as_xyz
  1  'x, y, z'
loop_
 _atom_site_type_symbol
 _atom_site_label
 _atom_site_symmetry_multiplicity
 _atom_site_fract_x
 _atom_site_fract_y
 _atom_site_fract_z
 _atom_site_occupancy
  Al  Al0  1  0.333282  0.666718  0.000000  1
  Pb  Pb1  1  0.999775  0.000226  0.500000  1
  I  I2  1  0.666791  0.333209  0.000000  1
  O  O3  1  0.998457  0.380864  0.195166  1
  O  O4  1  0.620294  0.618175  0.195030  1
  O  O5  1  0.383180  0.002750  0.195362  1
  O  O6  1  0.997250  0.616819  0.804637  1
  O  O7  1  0.381827  0.379708  0.804971  1
  O  O8  1  0.619137  0.001545  0.804835  1
