# generated using pymatgen
data_NaNb3InCl9
_symmetry_space_group_name_H-M   'P 1'
_cell_length_a   9.60892680
_cell_length_b   9.77267075
_cell_length_c   9.72328880
_cell_angle_alpha   118.80872342
_cell_angle_beta   104.45482899
_cell_angle_gamma   98.02550891
_symmetry_Int_Tables_number   1
_chemical_formula_structural   NaNb3InCl9
_chemical_formula_sum   'Na2 Nb6 In2 Cl18'
_cell_volume   737.49188818
_cell_formula_units_Z   2
loop_
 _symmetry_equiv_pos_site_id
 _symmetry_equiv_pos_as_xyz
  1  'x, y, z'
loop_
 _atom_site_type_symbol
 _atom_site_label
 _atom_site_symmetry_multiplicity
 _atom_site_fract_x
 _atom_site_fract_y
 _atom_site_fract_z
 _atom_site_occupancy
  Na  Na0  1  0.634080  0.052954  0.203914  1
  Na  Na1  1  0.365920  0.947046  0.796086  1
  Nb  Nb2  1  0.139006  0.563448  0.236878  1
  Nb  Nb3  1  0.860994  0.436552  0.763122  1
  Nb  Nb4  1  0.128113  0.354552  0.889725  1
  Nb  Nb5  1  0.860585  0.300076  0.974731  1
  Nb  Nb6  1  0.871887  0.645448  0.110275  1
  Nb  Nb7  1  0.139415  0.699924  0.025269  1
  In  In8  1  0.346930  0.272343  0.491310  1
  In  In9  1  0.653070  0.727657  0.508690  1
  Cl  Cl10  1  0.003363  0.656747  0.747565  1
  Cl  Cl11  1  0.686356  0.597703  0.849543  1
  Cl  Cl12  1  0.320640  0.961243  0.068410  1
  Cl  Cl13  1  0.989126  0.094641  0.846059  1
  Cl  Cl14  1  0.015518  0.747876  0.409170  1
  Cl  Cl15  1  0.672117  0.360170  0.464753  1
  Cl  Cl16  1  0.315736  0.565979  0.903771  1
  Cl  Cl17  1  0.313644  0.402297  0.150457  1
  Cl  Cl18  1  0.290234  0.177471  0.744537  1
  Cl  Cl19  1  0.996637  0.343253  0.252435  1
  Cl  Cl20  1  0.684264  0.434021  0.096229  1
  Cl  Cl21  1  0.672742  0.186131  0.687724  1
  Cl  Cl22  1  0.709766  0.822529  0.255463  1
  Cl  Cl23  1  0.010874  0.905359  0.153941  1
  Cl  Cl24  1  0.984482  0.252124  0.590830  1
  Cl  Cl25  1  0.327883  0.639830  0.535247  1
  Cl  Cl26  1  0.679360  0.038757  0.931590  1
  Cl  Cl27  1  0.327258  0.813869  0.312276  1
