# generated using pymatgen
data_TbY3Cl6
_symmetry_space_group_name_H-M   'P 1'
_cell_length_a   8.15755128
_cell_length_b   8.15755129
_cell_length_c   10.38366203
_cell_angle_alpha   61.06792966
_cell_angle_beta   61.06792816
_cell_angle_gamma   27.39807671
_symmetry_Int_Tables_number   1
_chemical_formula_structural   TbY3Cl6
_chemical_formula_sum   'Tb1 Y3 Cl6'
_cell_volume   275.74922762
_cell_formula_units_Z   1
loop_
 _symmetry_equiv_pos_site_id
 _symmetry_equiv_pos_as_xyz
  1  'x, y, z'
loop_
 _atom_site_type_symbol
 _atom_site_label
 _atom_site_symmetry_multiplicity
 _atom_site_fract_x
 _atom_site_fract_y
 _atom_site_fract_z
 _atom_site_occupancy
  Tb  Tb0  1  0.862123  0.862123  0.290361  1
  Y  Y1  1  0.137685  0.137685  0.709718  1
  Y  Y2  1  0.584853  0.584853  0.048107  1
  Y  Y3  1  0.415307  0.415307  0.951567  1
  Cl  Cl4  1  0.042920  0.042920  0.261397  1
  Cl  Cl5  1  0.957131  0.957131  0.738624  1
  Cl  Cl6  1  0.223924  0.223924  0.882385  1
  Cl  Cl7  1  0.776065  0.776065  0.117648  1
  Cl  Cl8  1  0.661810  0.661810  0.493459  1
  Cl  Cl9  1  0.338181  0.338181  0.506734  1
