# generated using pymatgen
data_Dy3Co6(B3Ru)2
_symmetry_space_group_name_H-M   'P 1'
_cell_length_a   9.60646525
_cell_length_b   8.86028689
_cell_length_c   5.30500136
_cell_angle_alpha   81.21127971
_cell_angle_beta   65.71291046
_cell_angle_gamma   32.11486830
_symmetry_Int_Tables_number   1
_chemical_formula_structural   Dy3Co6(B3Ru)2
_chemical_formula_sum   'Dy3 Co6 B6 Ru2'
_cell_volume   200.18806449
_cell_formula_units_Z   1
loop_
 _symmetry_equiv_pos_site_id
 _symmetry_equiv_pos_as_xyz
  1  'x, y, z'
loop_
 _atom_site_type_symbol
 _atom_site_label
 _atom_site_symmetry_multiplicity
 _atom_site_fract_x
 _atom_site_fract_y
 _atom_site_fract_z
 _atom_site_occupancy
  Dy  Dy0  1  0.000000  0.000000  0.000000  1
  Dy  Dy1  1  0.818975  0.818975  0.181025  1
  Dy  Dy2  1  0.181025  0.181025  0.818975  1
  Co  Co3  1  0.908560  0.908560  0.591440  1
  Co  Co4  1  0.415569  0.415569  0.584431  1
  Co  Co5  1  0.584431  0.584431  0.415569  1
  Co  Co6  1  0.249148  0.249148  0.250852  1
  Co  Co7  1  0.750852  0.750852  0.749148  1
  Co  Co8  1  0.091440  0.091440  0.408560  1
  B  B9  1  0.682295  0.317705  0.649009  1
  B  B10  1  0.317705  0.682295  0.350991  1
  B  B11  1  0.171539  0.480677  0.521574  1
  B  B12  1  0.480677  0.171539  0.826210  1
  B  B13  1  0.828461  0.519323  0.478426  1
  B  B14  1  0.519323  0.828461  0.173790  1
  Ru  Ru15  1  0.587559  0.587559  0.912441  1
  Ru  Ru16  1  0.412441  0.412441  0.087559  1
