# generated using pymatgen
data_LaBi3(AuO3)4
_symmetry_space_group_name_H-M   'P 1'
_cell_length_a   4.05660701
_cell_length_b   5.68728000
_cell_length_c   13.29846061
_cell_angle_alpha   90.00000000
_cell_angle_beta   90.51033118
_cell_angle_gamma   90.00000000
_symmetry_Int_Tables_number   1
_chemical_formula_structural   LaBi3(AuO3)4
_chemical_formula_sum   'La1 Bi3 Au4 O12'
_cell_volume   306.79741104
_cell_formula_units_Z   1
loop_
 _symmetry_equiv_pos_site_id
 _symmetry_equiv_pos_as_xyz
  1  'x, y, z'
loop_
 _atom_site_type_symbol
 _atom_site_label
 _atom_site_symmetry_multiplicity
 _atom_site_fract_x
 _atom_site_fract_y
 _atom_site_fract_z
 _atom_site_occupancy
  La  La0  1  0.740569  0.750000  0.579359  1
  Bi  Bi1  1  0.278085  0.750000  0.075913  1
  Bi  Bi2  1  0.276442  0.250000  0.421723  1
  Bi  Bi3  1  0.723129  0.250000  0.926351  1
  Au  Au4  1  0.080813  0.750000  0.830122  1
  Au  Au5  1  0.076971  0.250000  0.669948  1
  Au  Au6  1  0.918505  0.250000  0.170674  1
  Au  Au7  1  0.916365  0.750000  0.329025  1
  O  O8  1  0.162883  0.497767  0.251205  1
  O  O9  1  0.835245  0.996706  0.748120  1
  O  O10  1  0.835245  0.503294  0.748120  1
  O  O11  1  0.162883  0.002233  0.251205  1
  O  O12  1  0.739814  0.491347  0.071668  1
  O  O13  1  0.741130  0.502757  0.423252  1
  O  O14  1  0.257006  0.991437  0.928808  1
  O  O15  1  0.258484  0.007813  0.575389  1
  O  O16  1  0.741130  0.997243  0.423252  1
  O  O17  1  0.739814  0.008653  0.071668  1
  O  O18  1  0.258484  0.492187  0.575389  1
  O  O19  1  0.257006  0.508563  0.928808  1
