# generated using pymatgen
data_Tb4Dy6B2I15
_symmetry_space_group_name_H-M   'P 1'
_cell_length_a   9.63126883
_cell_length_b   10.36988599
_cell_length_c   11.31879972
_cell_angle_alpha   91.74579250
_cell_angle_beta   114.41467275
_cell_angle_gamma   110.43118760
_symmetry_Int_Tables_number   1
_chemical_formula_structural   Tb4Dy6B2I15
_chemical_formula_sum   'Tb4 Dy6 B2 I15'
_cell_volume   944.17607711
_cell_formula_units_Z   1
loop_
 _symmetry_equiv_pos_site_id
 _symmetry_equiv_pos_as_xyz
  1  'x, y, z'
loop_
 _atom_site_type_symbol
 _atom_site_label
 _atom_site_symmetry_multiplicity
 _atom_site_fract_x
 _atom_site_fract_y
 _atom_site_fract_z
 _atom_site_occupancy
  Tb  Tb0  1  0.784858  0.393838  0.267942  1
  Tb  Tb1  1  0.215142  0.606162  0.732058  1
  Tb  Tb2  1  0.663668  0.752066  0.825502  1
  Tb  Tb3  1  0.336332  0.247934  0.174498  1
  Dy  Dy4  1  0.523134  0.713037  0.085697  1
  Dy  Dy5  1  0.476866  0.286963  0.914303  1
  Dy  Dy6  1  0.580423  0.043787  0.308745  1
  Dy  Dy7  1  0.419577  0.956213  0.691255  1
  Dy  Dy8  1  0.707267  0.069874  0.045531  1
  Dy  Dy9  1  0.292733  0.930126  0.954469  1
  B  B10  1  0.468616  0.823351  0.880421  1
  B  B11  1  0.531384  0.176649  0.119579  1
  I  I12  1  0.000000  0.000000  0.000000  1
  I  I13  1  0.638374  0.882658  0.582808  1
  I  I14  1  0.361626  0.117342  0.417192  1
  I  I15  1  0.884511  0.298880  0.531114  1
  I  I16  1  0.115489  0.701120  0.468886  1
  I  I17  1  0.284939  0.760261  0.177478  1
  I  I18  1  0.715061  0.239739  0.822522  1
  I  I19  1  0.054807  0.340041  0.225535  1
  I  I20  1  0.160433  0.056068  0.702125  1
  I  I21  1  0.839567  0.943932  0.297875  1
  I  I22  1  0.228435  0.409912  0.942095  1
  I  I23  1  0.771565  0.590088  0.057905  1
  I  I24  1  0.409745  0.459210  0.659870  1
  I  I25  1  0.590255  0.540790  0.340130  1
  I  I26  1  0.945193  0.659959  0.774465  1
