# generated using pymatgen
data_Er3TiGa2Ir3
_symmetry_space_group_name_H-M   'P 1'
_cell_length_a   6.98474401
_cell_length_b   6.98474344
_cell_length_c   4.14937200
_cell_angle_alpha   90.00000000
_cell_angle_beta   90.00000000
_cell_angle_gamma   121.06085105
_symmetry_Int_Tables_number   1
_chemical_formula_structural   Er3TiGa2Ir3
_chemical_formula_sum   'Er3 Ti1 Ga2 Ir3'
_cell_volume   173.40892407
_cell_formula_units_Z   1
loop_
 _symmetry_equiv_pos_site_id
 _symmetry_equiv_pos_as_xyz
  1  'x, y, z'
loop_
 _atom_site_type_symbol
 _atom_site_label
 _atom_site_symmetry_multiplicity
 _atom_site_fract_x
 _atom_site_fract_y
 _atom_site_fract_z
 _atom_site_occupancy
  Er  Er0  1  0.397654  0.397654  0.500000  1
  Er  Er1  1  0.582697  0.007243  0.500000  1
  Er  Er2  1  0.007243  0.582697  0.500000  1
  Ti  Ti3  1  0.769154  0.769154  0.000000  1
  Ga  Ga4  1  0.245803  0.996928  0.000000  1
  Ga  Ga5  1  0.996928  0.245803  0.000000  1
  Ir  Ir6  1  0.666514  0.349882  0.000000  1
  Ir  Ir7  1  0.349882  0.666514  0.000000  1
  Ir  Ir8  1  0.984125  0.984125  0.500000  1
