# generated using pymatgen
data_EuP12PdRu3
_symmetry_space_group_name_H-M   'P 1'
_cell_length_a   7.04839342
_cell_length_b   7.04839338
_cell_length_c   7.04839315
_cell_angle_alpha   109.45931394
_cell_angle_beta   109.45931482
_cell_angle_gamma   109.45932293
_symmetry_Int_Tables_number   1
_chemical_formula_structural   EuP12PdRu3
_chemical_formula_sum   'Eu1 P12 Pd1 Ru3'
_cell_volume   269.67441965
_cell_formula_units_Z   1
loop_
 _symmetry_equiv_pos_site_id
 _symmetry_equiv_pos_as_xyz
  1  'x, y, z'
loop_
 _atom_site_type_symbol
 _atom_site_label
 _atom_site_symmetry_multiplicity
 _atom_site_fract_x
 _atom_site_fract_y
 _atom_site_fract_z
 _atom_site_occupancy
  Eu  Eu0  1  0.000000  0.000000  0.000000  1
  P  P1  1  0.355607  0.212323  0.856245  1
  P  P2  1  0.644393  0.787677  0.143755  1
  P  P3  1  0.647736  0.500769  0.865782  1
  P  P4  1  0.352264  0.499231  0.134218  1
  P  P5  1  0.212323  0.856245  0.355607  1
  P  P6  1  0.787677  0.143755  0.644393  1
  P  P7  1  0.500769  0.865782  0.647736  1
  P  P8  1  0.499231  0.134218  0.352264  1
  P  P9  1  0.856245  0.355607  0.212323  1
  P  P10  1  0.143755  0.644393  0.787677  1
  P  P11  1  0.865782  0.647736  0.500769  1
  P  P12  1  0.134218  0.352264  0.499231  1
  Pd  Pd13  1  0.500000  0.500000  0.500000  1
  Ru  Ru14  1  0.000000  0.000000  0.500000  1
  Ru  Ru15  1  0.500000  0.000000  0.000000  1
  Ru  Ru16  1  0.000000  0.500000  0.000000  1
