# generated using pymatgen
data_Ce4Ta4N11O
_symmetry_space_group_name_H-M   'P 1'
_cell_length_a   5.62566664
_cell_length_b   5.74376964
_cell_length_c   7.97435100
_cell_angle_alpha   90.00000000
_cell_angle_beta   90.00000000
_cell_angle_gamma   90.05424826
_symmetry_Int_Tables_number   1
_chemical_formula_structural   Ce4Ta4N11O
_chemical_formula_sum   'Ce4 Ta4 N11 O1'
_cell_volume   257.67136608
_cell_formula_units_Z   1
loop_
 _symmetry_equiv_pos_site_id
 _symmetry_equiv_pos_as_xyz
  1  'x, y, z'
loop_
 _atom_site_type_symbol
 _atom_site_label
 _atom_site_symmetry_multiplicity
 _atom_site_fract_x
 _atom_site_fract_y
 _atom_site_fract_z
 _atom_site_occupancy
  Ce  Ce0  1  0.512396  0.552397  0.250000  1
  Ce  Ce1  1  0.989251  0.047427  0.250000  1
  Ce  Ce2  1  0.493606  0.459329  0.750000  1
  Ce  Ce3  1  0.019424  0.947035  0.750000  1
  Ta  Ta4  1  0.005579  0.495121  0.999992  1
  Ta  Ta5  1  0.509685  0.002504  0.506431  1
  Ta  Ta6  1  0.005579  0.495121  0.500008  1
  Ta  Ta7  1  0.509685  0.002504  0.993569  1
  N  N8  1  0.099242  0.466958  0.250000  1
  N  N9  1  0.595981  0.023880  0.750000  1
  N  N10  1  0.896164  0.533044  0.750000  1
  N  N11  1  0.794797  0.801537  0.057315  1
  N  N12  1  0.695175  0.299659  0.444344  1
  N  N13  1  0.198784  0.199850  0.552437  1
  N  N14  1  0.296221  0.702774  0.950623  1
  N  N15  1  0.198784  0.199850  0.947563  1
  N  N16  1  0.296221  0.702774  0.549377  1
  N  N17  1  0.794797  0.801537  0.442685  1
  N  N18  1  0.695175  0.299659  0.055656  1
  O  O19  1  0.393453  0.967040  0.250000  1
