# generated using pymatgen
data_TbHo5Fe2(Co4P3)4
_symmetry_space_group_name_H-M   'P 1'
_cell_length_a   3.68582700
_cell_length_b   10.50138800
_cell_length_c   12.15196200
_cell_angle_alpha   90.00000000
_cell_angle_beta   90.00000000
_cell_angle_gamma   90.00000000
_symmetry_Int_Tables_number   1
_chemical_formula_structural   TbHo5Fe2(Co4P3)4
_chemical_formula_sum   'Tb1 Ho5 Fe2 Co16 P12'
_cell_volume   470.35747981
_cell_formula_units_Z   1
loop_
 _symmetry_equiv_pos_site_id
 _symmetry_equiv_pos_as_xyz
  1  'x, y, z'
loop_
 _atom_site_type_symbol
 _atom_site_label
 _atom_site_symmetry_multiplicity
 _atom_site_fract_x
 _atom_site_fract_y
 _atom_site_fract_z
 _atom_site_occupancy
  Tb  Tb0  1  0.500000  0.000000  0.478193  1
  Ho  Ho1  1  0.000000  0.500000  0.521735  1
  Ho  Ho2  1  0.500000  0.817821  0.204958  1
  Ho  Ho3  1  0.500000  0.182179  0.204958  1
  Ho  Ho4  1  0.000000  0.681980  0.794830  1
  Ho  Ho5  1  0.000000  0.318020  0.794830  1
  Fe  Fe6  1  0.500000  0.500000  0.157744  1
  Fe  Fe7  1  0.000000  0.000000  0.842858  1
  Co  Co8  1  0.500000  0.500000  0.702018  1
  Co  Co9  1  0.000000  0.000000  0.297372  1
  Co  Co10  1  0.000000  0.500000  0.986068  1
  Co  Co11  1  0.500000  0.000000  0.013747  1
  Co  Co12  1  0.500000  0.333134  0.994030  1
  Co  Co13  1  0.500000  0.666866  0.994030  1
  Co  Co14  1  0.000000  0.166962  0.005954  1
  Co  Co15  1  0.000000  0.833038  0.005954  1
  Co  Co16  1  0.500000  0.297415  0.430583  1
  Co  Co17  1  0.500000  0.702585  0.430583  1
  Co  Co18  1  0.000000  0.203871  0.569434  1
  Co  Co19  1  0.000000  0.796129  0.569434  1
  Co  Co20  1  0.500000  0.878502  0.709477  1
  Co  Co21  1  0.500000  0.121498  0.709477  1
  Co  Co22  1  0.000000  0.621193  0.290727  1
  Co  Co23  1  0.000000  0.378807  0.290727  1
  P  P24  1  0.500000  0.500000  0.882067  1
  P  P25  1  0.000000  0.000000  0.117668  1
  P  P26  1  0.500000  0.500000  0.343033  1
  P  P27  1  0.000000  0.000000  0.657929  1
  P  P28  1  0.500000  0.310788  0.616208  1
  P  P29  1  0.500000  0.689212  0.616208  1
  P  P30  1  0.000000  0.190070  0.383514  1
  P  P31  1  0.000000  0.809930  0.383514  1
  P  P32  1  0.500000  0.847065  0.892617  1
  P  P33  1  0.500000  0.152935  0.892617  1
  P  P34  1  0.000000  0.652646  0.107452  1
  P  P35  1  0.000000  0.347354  0.107452  1
