# generated using pymatgen
data_TmLu4PtPb3
_symmetry_space_group_name_H-M   'P 1'
_cell_length_a   9.06300600
_cell_length_b   9.06300476
_cell_length_c   6.69136000
_cell_angle_alpha   90.00000000
_cell_angle_beta   90.00000000
_cell_angle_gamma   120.00000452
_symmetry_Int_Tables_number   1
_chemical_formula_structural   TmLu4PtPb3
_chemical_formula_sum   'Tm2 Lu8 Pt2 Pb6'
_cell_volume   475.98085350
_cell_formula_units_Z   2
loop_
 _symmetry_equiv_pos_site_id
 _symmetry_equiv_pos_as_xyz
  1  'x, y, z'
loop_
 _atom_site_type_symbol
 _atom_site_label
 _atom_site_symmetry_multiplicity
 _atom_site_fract_x
 _atom_site_fract_y
 _atom_site_fract_z
 _atom_site_occupancy
  Tm  Tm0  1  0.333333  0.666667  0.500000  1
  Tm  Tm1  1  0.666667  0.333333  0.500000  1
  Lu  Lu2  1  0.245391  0.000000  0.750301  1
  Lu  Lu3  1  0.754609  0.000000  0.249699  1
  Lu  Lu4  1  0.000000  0.245391  0.750301  1
  Lu  Lu5  1  0.000000  0.754609  0.249699  1
  Lu  Lu6  1  0.754609  0.754609  0.750301  1
  Lu  Lu7  1  0.245391  0.245391  0.249699  1
  Lu  Lu8  1  0.666667  0.333333  0.000000  1
  Lu  Lu9  1  0.333333  0.666667  0.000000  1
  Pt  Pt10  1  0.000000  0.000000  0.500000  1
  Pt  Pt11  1  0.000000  0.000000  0.000000  1
  Pb  Pb12  1  0.600478  0.000000  0.750407  1
  Pb  Pb13  1  0.399522  0.000000  0.249593  1
  Pb  Pb14  1  0.000000  0.600478  0.750407  1
  Pb  Pb15  1  0.000000  0.399522  0.249593  1
  Pb  Pb16  1  0.399522  0.399522  0.750407  1
  Pb  Pb17  1  0.600478  0.600478  0.249593  1
