# generated using pymatgen
data_Tb16Sc4Ir5Rh7
_symmetry_space_group_name_H-M   'P 1'
_cell_length_a   10.82566407
_cell_length_b   10.82566407
_cell_length_c   6.30519800
_cell_angle_alpha   90.00270902
_cell_angle_beta   90.00270902
_cell_angle_gamma   89.98761531
_symmetry_Int_Tables_number   1
_chemical_formula_structural   Tb16Sc4Ir5Rh7
_chemical_formula_sum   'Tb16 Sc4 Ir5 Rh7'
_cell_volume   738.93767672
_cell_formula_units_Z   1
loop_
 _symmetry_equiv_pos_site_id
 _symmetry_equiv_pos_as_xyz
  1  'x, y, z'
loop_
 _atom_site_type_symbol
 _atom_site_label
 _atom_site_symmetry_multiplicity
 _atom_site_fract_x
 _atom_site_fract_y
 _atom_site_fract_z
 _atom_site_occupancy
  Tb  Tb0  1  0.286969  0.086386  0.378357  1
  Tb  Tb1  1  0.286906  0.912345  0.879085  1
  Tb  Tb2  1  0.712594  0.087392  0.878882  1
  Tb  Tb3  1  0.712427  0.912557  0.378546  1
  Tb  Tb4  1  0.585567  0.786267  0.879367  1
  Tb  Tb5  1  0.585451  0.213766  0.379357  1
  Tb  Tb6  1  0.413359  0.786485  0.379174  1
  Tb  Tb7  1  0.414444  0.213796  0.879306  1
  Tb  Tb8  1  0.213733  0.414433  0.620633  1
  Tb  Tb9  1  0.213515  0.586641  0.120826  1
  Tb  Tb10  1  0.786234  0.414549  0.120643  1
  Tb  Tb11  1  0.786204  0.585556  0.620694  1
  Tb  Tb12  1  0.913614  0.713031  0.121643  1
  Tb  Tb13  1  0.912608  0.287406  0.621118  1
  Tb  Tb14  1  0.087655  0.713094  0.620915  1
  Tb  Tb15  1  0.087443  0.287573  0.121454  1
  Sc  Sc16  1  0.000493  0.999469  0.499325  1
  Sc  Sc17  1  0.000531  0.999507  0.000675  1
  Sc  Sc18  1  0.499976  0.499943  0.000012  1
  Sc  Sc19  1  0.500057  0.500024  0.499988  1
  Ir  Ir20  1  0.146375  0.853625  0.250000  1
  Ir  Ir21  1  0.647783  0.352217  0.750000  1
  Ir  Ir22  1  0.647747  0.647673  0.249974  1
  Ir  Ir23  1  0.352327  0.352253  0.250026  1
  Ir  Ir24  1  0.352679  0.647321  0.750000  1
  Rh  Rh25  1  0.853377  0.146623  0.250000  1
  Rh  Rh26  1  0.852966  0.853611  0.749943  1
  Rh  Rh27  1  0.146389  0.147034  0.750057  1
  Rh  Rh28  1  0.500522  0.000203  0.122117  1
  Rh  Rh29  1  0.500375  0.000116  0.622504  1
  Rh  Rh30  1  0.999884  0.499625  0.877496  1
  Rh  Rh31  1  0.999797  0.499478  0.377883  1
