# generated using pymatgen
data_Y8In3Fe
_symmetry_space_group_name_H-M   'P 1'
_cell_length_a   10.38177000
_cell_length_b   10.38176646
_cell_length_c   7.10056000
_cell_angle_alpha   90.00000000
_cell_angle_beta   90.00000000
_cell_angle_gamma   120.00008264
_symmetry_Int_Tables_number   1
_chemical_formula_structural   Y8In3Fe
_chemical_formula_sum   'Y16 In6 Fe2'
_cell_volume   662.77410170
_cell_formula_units_Z   2
loop_
 _symmetry_equiv_pos_site_id
 _symmetry_equiv_pos_as_xyz
  1  'x, y, z'
loop_
 _atom_site_type_symbol
 _atom_site_label
 _atom_site_symmetry_multiplicity
 _atom_site_fract_x
 _atom_site_fract_y
 _atom_site_fract_z
 _atom_site_occupancy
  Y  Y0  1  0.463682  0.536318  0.481565  1
  Y  Y1  1  0.072636  0.536318  0.481565  1
  Y  Y2  1  0.463682  0.927364  0.481564  1
  Y  Y3  1  0.536318  0.463682  0.981565  1
  Y  Y4  1  0.927364  0.463682  0.981565  1
  Y  Y5  1  0.536318  0.072636  0.981564  1
  Y  Y6  1  0.821569  0.178431  0.276526  1
  Y  Y7  1  0.356862  0.178431  0.276526  1
  Y  Y8  1  0.821569  0.643138  0.276526  1
  Y  Y9  1  0.178431  0.821569  0.776526  1
  Y  Y10  1  0.643138  0.821569  0.776526  1
  Y  Y11  1  0.178431  0.356862  0.776526  1
  Y  Y12  1  0.333333  0.666667  0.092808  1
  Y  Y13  1  0.666667  0.333333  0.592808  1
  Y  Y14  1  0.000000  0.000000  0.495455  1
  Y  Y15  1  0.000000  0.000000  0.995455  1
  In  In16  1  0.162814  0.837186  0.234059  1
  In  In17  1  0.674372  0.837186  0.234059  1
  In  In18  1  0.162814  0.325628  0.234059  1
  In  In19  1  0.837186  0.162814  0.734059  1
  In  In20  1  0.325628  0.162814  0.734059  1
  In  In21  1  0.837186  0.674372  0.734059  1
  Fe  Fe22  1  0.333333  0.666666  0.707565  1
  Fe  Fe23  1  0.666667  0.333334  0.207565  1
