# generated using pymatgen
data_RbPdF5
_symmetry_space_group_name_H-M   'P 1'
_cell_length_a   5.55710900
_cell_length_b   7.98963900
_cell_length_c   11.23106000
_cell_angle_alpha   90.00000000
_cell_angle_beta   90.00000000
_cell_angle_gamma   90.00000000
_symmetry_Int_Tables_number   1
_chemical_formula_structural   RbPdF5
_chemical_formula_sum   'Rb4 Pd4 F20'
_cell_volume   498.65114379
_cell_formula_units_Z   4
loop_
 _symmetry_equiv_pos_site_id
 _symmetry_equiv_pos_as_xyz
  1  'x, y, z'
loop_
 _atom_site_type_symbol
 _atom_site_label
 _atom_site_symmetry_multiplicity
 _atom_site_fract_x
 _atom_site_fract_y
 _atom_site_fract_z
 _atom_site_occupancy
  Rb  Rb0  1  0.500000  0.892070  0.967044  1
  Rb  Rb1  1  0.500000  0.107930  0.467044  1
  Rb  Rb2  1  0.000000  0.339047  0.114267  1
  Rb  Rb3  1  0.000000  0.660953  0.614267  1
  Pd  Pd4  1  0.000000  0.863993  0.242013  1
  Pd  Pd5  1  0.500000  0.572600  0.338018  1
  Pd  Pd6  1  0.500000  0.427400  0.838018  1
  Pd  Pd7  1  0.000000  0.136007  0.742013  1
  F  F8  1  0.258331  0.543820  0.926130  1
  F  F9  1  0.749822  0.680397  0.230695  1
  F  F10  1  0.241309  0.034817  0.237869  1
  F  F11  1  0.749822  0.319603  0.730695  1
  F  F12  1  0.500000  0.250033  0.956415  1
  F  F13  1  0.758691  0.965183  0.737869  1
  F  F14  1  0.500000  0.607674  0.721211  1
  F  F15  1  0.241309  0.965183  0.737869  1
  F  F16  1  0.000000  0.857981  0.068955  1
  F  F17  1  0.758691  0.034817  0.237869  1
  F  F18  1  0.500000  0.392326  0.221211  1
  F  F19  1  0.741669  0.456180  0.426130  1
  F  F20  1  0.250178  0.680397  0.230695  1
  F  F21  1  0.000000  0.870416  0.414199  1
  F  F22  1  0.000000  0.142019  0.568955  1
  F  F23  1  0.250178  0.319603  0.730695  1
  F  F24  1  0.000000  0.129584  0.914199  1
  F  F25  1  0.258331  0.456180  0.426130  1
  F  F26  1  0.500000  0.749967  0.456415  1
  F  F27  1  0.741669  0.543820  0.926130  1
