# generated using pymatgen
data_Ba2Cd21Au
_symmetry_space_group_name_H-M   'P 1'
_cell_length_a   9.46562941
_cell_length_b   9.46569573
_cell_length_c   9.46562910
_cell_angle_alpha   100.16181833
_cell_angle_beta   99.99351853
_cell_angle_gamma   130.54375743
_symmetry_Int_Tables_number   1
_chemical_formula_structural   Ba2Cd21Au
_chemical_formula_sum   'Ba2 Cd21 Au1'
_cell_volume   585.38977961
_cell_formula_units_Z   1
loop_
 _symmetry_equiv_pos_site_id
 _symmetry_equiv_pos_as_xyz
  1  'x, y, z'
loop_
 _atom_site_type_symbol
 _atom_site_label
 _atom_site_symmetry_multiplicity
 _atom_site_fract_x
 _atom_site_fract_y
 _atom_site_fract_z
 _atom_site_occupancy
  Ba  Ba0  1  0.749253  0.250529  0.501276  1
  Ba  Ba1  1  0.500747  0.499471  0.998724  1
  Cd  Cd2  1  0.923543  0.010772  0.326465  1
  Cd  Cd3  1  0.679708  0.594529  0.673074  1
  Cd  Cd4  1  0.246826  0.742035  0.495209  1
  Cd  Cd5  1  0.003174  0.007965  0.004791  1
  Cd  Cd6  1  0.125000  0.875000  0.250000  1
  Cd  Cd7  1  0.125000  0.875000  0.750000  1
  Cd  Cd8  1  0.625000  0.875000  0.750000  1
  Cd  Cd9  1  0.921454  0.594529  0.914821  1
  Cd  Cd10  1  0.851688  0.430374  0.176306  1
  Cd  Cd11  1  0.256036  0.669559  0.827437  1
  Cd  Cd12  1  0.684307  0.010772  0.087228  1
  Cd  Cd13  1  0.407877  0.080441  0.086476  1
  Cd  Cd14  1  0.995932  0.319626  0.921313  1
  Cd  Cd15  1  0.570292  0.155471  0.826926  1
  Cd  Cd16  1  0.326457  0.739228  0.173535  1
  Cd  Cd17  1  0.328546  0.155471  0.585179  1
  Cd  Cd18  1  0.398312  0.319626  0.323694  1
  Cd  Cd19  1  0.993964  0.080441  0.672563  1
  Cd  Cd20  1  0.565693  0.739228  0.412772  1
  Cd  Cd21  1  0.842123  0.669559  0.413524  1
  Cd  Cd22  1  0.254068  0.430374  0.578687  1
  Au  Au23  1  0.125000  0.375000  0.250000  1
