# generated using pymatgen
data_SrCe(Zn9Pt2)2
_symmetry_space_group_name_H-M   'P 1'
_cell_length_a   8.32064464
_cell_length_b   8.32064448
_cell_length_c   8.32064500
_cell_angle_alpha   99.89817617
_cell_angle_beta   99.89818296
_cell_angle_gamma   131.01102720
_symmetry_Int_Tables_number   1
_chemical_formula_structural   SrCe(Zn9Pt2)2
_chemical_formula_sum   'Sr1 Ce1 Zn18 Pt4'
_cell_volume   395.56705093
_cell_formula_units_Z   1
loop_
 _symmetry_equiv_pos_site_id
 _symmetry_equiv_pos_as_xyz
  1  'x, y, z'
loop_
 _atom_site_type_symbol
 _atom_site_label
 _atom_site_symmetry_multiplicity
 _atom_site_fract_x
 _atom_site_fract_y
 _atom_site_fract_z
 _atom_site_occupancy
  Sr  Sr0  1  0.000013  0.000014  0.000001  1
  Ce  Ce1  1  0.249823  0.749793  0.499970  1
  Zn  Zn2  1  0.905093  0.572988  0.086101  1
  Zn  Zn3  1  0.427029  0.513127  0.332101  1
  Zn  Zn4  1  0.486887  0.572988  0.667894  1
  Zn  Zn5  1  0.427033  0.094934  0.913904  1
  Zn  Zn6  1  0.757884  0.174534  0.824528  1
  Zn  Zn7  1  0.486884  0.818993  0.913903  1
  Zn  Zn8  1  0.500005  0.500006  0.000001  1
  Zn  Zn9  1  0.757884  0.933357  0.583351  1
  Zn  Zn10  1  0.750009  0.250010  0.500002  1
  Zn  Zn11  1  0.066653  0.650008  0.824528  1
  Zn  Zn12  1  0.350007  0.174534  0.416650  1
  Zn  Zn13  1  0.825482  0.650008  0.583355  1
  Zn  Zn14  1  0.905090  0.818993  0.332109  1
  Zn  Zn15  1  0.181030  0.094934  0.667901  1
  Zn  Zn16  1  0.066649  0.242127  0.416648  1
  Zn  Zn17  1  0.350006  0.933357  0.175472  1
  Zn  Zn18  1  0.825478  0.242127  0.175476  1
  Zn  Zn19  1  0.181026  0.513127  0.086097  1
  Pt  Pt20  1  0.625522  0.872050  0.246529  1
  Pt  Pt21  1  0.127964  0.374497  0.753470  1
  Pt  Pt22  1  0.621028  0.374497  0.246533  1
  Pt  Pt23  1  0.625523  0.378997  0.753474  1
