# generated using pymatgen
data_La6Zn4CuIrPd11
_symmetry_space_group_name_H-M   'P 1'
_cell_length_a   8.39618654
_cell_length_b   8.39618713
_cell_length_c   8.46856019
_cell_angle_alpha   109.40758126
_cell_angle_beta   109.40758595
_cell_angle_gamma   109.25054262
_symmetry_Int_Tables_number   1
_chemical_formula_structural   La6Zn4CuIrPd11
_chemical_formula_sum   'La6 Zn4 Cu1 Ir1 Pd11'
_cell_volume   461.53228480
_cell_formula_units_Z   1
loop_
 _symmetry_equiv_pos_site_id
 _symmetry_equiv_pos_as_xyz
  1  'x, y, z'
loop_
 _atom_site_type_symbol
 _atom_site_label
 _atom_site_symmetry_multiplicity
 _atom_site_fract_x
 _atom_site_fract_y
 _atom_site_fract_z
 _atom_site_occupancy
  La  La0  1  0.705440  0.705440  0.003412  1
  La  La1  1  0.297464  0.997155  0.294619  1
  La  La2  1  0.997155  0.297464  0.294619  1
  La  La3  1  0.297972  0.297972  0.003412  1
  La  La4  1  0.702328  0.999564  0.701893  1
  La  La5  1  0.999564  0.702328  0.701893  1
  Zn  Zn6  1  0.000701  0.000701  0.499879  1
  Zn  Zn7  1  0.999347  0.499347  0.998694  1
  Zn  Zn8  1  0.499347  0.999347  0.998694  1
  Zn  Zn9  1  0.499178  0.499178  0.499879  1
  Cu  Cu10  1  0.330365  0.330365  0.660732  1
  Ir  Ir11  1  0.000175  0.000175  0.000351  1
  Pd  Pd12  1  0.669904  0.000812  0.331798  1
  Pd  Pd13  1  0.000812  0.669904  0.331798  1
  Pd  Pd14  1  0.668182  0.332703  0.000884  1
  Pd  Pd15  1  0.330986  0.661895  0.331798  1
  Pd  Pd16  1  0.006957  0.331813  0.668857  1
  Pd  Pd17  1  0.332703  0.668182  0.000884  1
  Pd  Pd18  1  0.331813  0.006957  0.668857  1
  Pd  Pd19  1  0.661895  0.330986  0.331798  1
  Pd  Pd20  1  0.668768  0.668768  0.337534  1
  Pd  Pd21  1  0.661901  0.337044  0.668857  1
  Pd  Pd22  1  0.337044  0.661901  0.668857  1
