# generated using pymatgen
data_TmAgIr2O7
_symmetry_space_group_name_H-M   'P 1'
_cell_length_a   7.20205663
_cell_length_b   7.14857434
_cell_length_c   7.20205633
_cell_angle_alpha   60.24534006
_cell_angle_beta   61.07540129
_cell_angle_gamma   60.24534299
_symmetry_Int_Tables_number   1
_chemical_formula_structural   TmAgIr2O7
_chemical_formula_sum   'Tm2 Ag2 Ir4 O14'
_cell_volume   265.24690211
_cell_formula_units_Z   2
loop_
 _symmetry_equiv_pos_site_id
 _symmetry_equiv_pos_as_xyz
  1  'x, y, z'
loop_
 _atom_site_type_symbol
 _atom_site_label
 _atom_site_symmetry_multiplicity
 _atom_site_fract_x
 _atom_site_fract_y
 _atom_site_fract_z
 _atom_site_occupancy
  Tm  Tm0  1  0.625000  0.125000  0.125000  1
  Tm  Tm1  1  0.125000  0.125000  0.625000  1
  Ag  Ag2  1  0.125000  0.625000  0.125000  1
  Ag  Ag3  1  0.125000  0.125000  0.125000  1
  Ir  Ir4  1  0.125000  0.625000  0.625000  1
  Ir  Ir5  1  0.625000  0.125000  0.625000  1
  Ir  Ir6  1  0.625000  0.625000  0.125000  1
  Ir  Ir7  1  0.625000  0.625000  0.625000  1
  O  O8  1  0.692032  0.717465  0.297613  1
  O  O9  1  0.297613  0.292890  0.692032  1
  O  O10  1  0.713273  0.286727  0.713273  1
  O  O11  1  0.305518  0.694482  0.305518  1
  O  O12  1  0.297613  0.717465  0.692032  1
  O  O13  1  0.692032  0.292890  0.297613  1
  O  O14  1  0.557968  0.532535  0.952387  1
  O  O15  1  0.952387  0.957110  0.557968  1
  O  O16  1  0.536727  0.963273  0.536727  1
  O  O17  1  0.944482  0.555518  0.944482  1
  O  O18  1  0.952387  0.532535  0.557968  1
  O  O19  1  0.557968  0.957110  0.952387  1
  O  O20  1  0.248134  0.251866  0.248134  1
  O  O21  1  0.001866  0.998134  0.001866  1
