# generated using pymatgen
data_Sm8Tm7Lu5Si16
_symmetry_space_group_name_H-M   'P 1'
_cell_length_a   7.36276872
_cell_length_b   7.66744945
_cell_length_c   14.53739290
_cell_angle_alpha   90.01726886
_cell_angle_beta   90.03636101
_cell_angle_gamma   90.03522731
_symmetry_Int_Tables_number   1
_chemical_formula_structural   Sm8Tm7Lu5Si16
_chemical_formula_sum   'Sm8 Tm7 Lu5 Si16'
_cell_volume   820.68863394
_cell_formula_units_Z   1
loop_
 _symmetry_equiv_pos_site_id
 _symmetry_equiv_pos_as_xyz
  1  'x, y, z'
loop_
 _atom_site_type_symbol
 _atom_site_label
 _atom_site_symmetry_multiplicity
 _atom_site_fract_x
 _atom_site_fract_y
 _atom_site_fract_z
 _atom_site_occupancy
  Sm  Sm0  1  0.017976  0.177987  0.097795  1
  Sm  Sm1  1  0.981871  0.821950  0.902810  1
  Sm  Sm2  1  0.481833  0.678308  0.902577  1
  Sm  Sm3  1  0.981614  0.821905  0.597563  1
  Sm  Sm4  1  0.518052  0.321657  0.097493  1
  Sm  Sm5  1  0.018213  0.178334  0.401968  1
  Sm  Sm6  1  0.518265  0.321831  0.402144  1
  Sm  Sm7  1  0.481802  0.678256  0.597597  1
  Tm  Tm8  1  0.324446  0.178176  0.623590  1
  Tm  Tm9  1  0.675564  0.821939  0.376102  1
  Tm  Tm10  1  0.175711  0.677866  0.376195  1
  Tm  Tm11  1  0.675271  0.821850  0.123563  1
  Tm  Tm12  1  0.824480  0.321973  0.623609  1
  Tm  Tm13  1  0.324698  0.178169  0.876605  1
  Tm  Tm14  1  0.824647  0.322136  0.876677  1
  Lu  Lu15  1  0.156514  0.509921  0.750198  1
  Lu  Lu16  1  0.843447  0.490345  0.249760  1
  Lu  Lu17  1  0.343326  0.009410  0.249643  1
  Lu  Lu18  1  0.656644  0.990193  0.750161  1
  Lu  Lu19  1  0.175584  0.677662  0.123929  1
  Si  Si20  1  0.028567  0.111208  0.750111  1
  Si  Si21  1  0.971916  0.888166  0.249685  1
  Si  Si22  1  0.470976  0.610998  0.249556  1
  Si  Si23  1  0.528564  0.389116  0.750088  1
  Si  Si24  1  0.277170  0.874643  0.750096  1
  Si  Si25  1  0.722593  0.125580  0.249857  1
  Si  Si26  1  0.222586  0.374711  0.249649  1
  Si  Si27  1  0.777206  0.625515  0.750085  1
  Si  Si28  1  0.150723  0.468473  0.539610  1
  Si  Si29  1  0.849126  0.531706  0.460290  1
  Si  Si30  1  0.349323  0.968399  0.460288  1
  Si  Si31  1  0.850137  0.531992  0.040017  1
  Si  Si32  1  0.650771  0.031730  0.539451  1
  Si  Si33  1  0.151570  0.468785  0.961008  1
  Si  Si34  1  0.650928  0.031625  0.960503  1
  Si  Si35  1  0.347883  0.967482  0.039727  1
