# generated using pymatgen
data_Dy3Y4Ho13Pb16
_symmetry_space_group_name_H-M   'P 1'
_cell_length_a   8.19624333
_cell_length_b   8.27108008
_cell_length_c   15.61808202
_cell_angle_alpha   90.00543404
_cell_angle_beta   90.01909229
_cell_angle_gamma   89.99182254
_symmetry_Int_Tables_number   1
_chemical_formula_structural   Dy3Y4Ho13Pb16
_chemical_formula_sum   'Dy3 Y4 Ho13 Pb16'
_cell_volume   1058.77758350
_cell_formula_units_Z   1
loop_
 _symmetry_equiv_pos_site_id
 _symmetry_equiv_pos_as_xyz
  1  'x, y, z'
loop_
 _atom_site_type_symbol
 _atom_site_label
 _atom_site_symmetry_multiplicity
 _atom_site_fract_x
 _atom_site_fract_y
 _atom_site_fract_z
 _atom_site_occupancy
  Dy  Dy0  1  0.963767  0.823358  0.399914  1
  Dy  Dy1  1  0.536218  0.323379  0.600056  1
  Dy  Dy2  1  0.036269  0.176656  0.899900  1
  Y  Y3  1  0.036280  0.176622  0.600097  1
  Y  Y4  1  0.463707  0.676594  0.399935  1
  Y  Y5  1  0.963672  0.823429  0.100084  1
  Y  Y6  1  0.463687  0.676577  0.100055  1
  Ho  Ho7  1  0.376523  0.841254  0.879085  1
  Ho  Ho8  1  0.876524  0.658821  0.620893  1
  Ho  Ho9  1  0.623470  0.158831  0.379108  1
  Ho  Ho10  1  0.123374  0.341131  0.120879  1
  Ho  Ho11  1  0.623392  0.158868  0.120831  1
  Ho  Ho12  1  0.123496  0.341217  0.379070  1
  Ho  Ho13  1  0.376500  0.841243  0.620943  1
  Ho  Ho14  1  0.876453  0.658717  0.879070  1
  Ho  Ho15  1  0.536390  0.323461  0.899855  1
  Ho  Ho16  1  0.208461  0.504304  0.750095  1
  Ho  Ho17  1  0.708284  0.995710  0.750057  1
  Ho  Ho18  1  0.791711  0.495600  0.250007  1
  Ho  Ho19  1  0.291655  0.004443  0.249977  1
  Pb  Pb20  1  0.281506  0.033210  0.042746  1
  Pb  Pb21  1  0.781578  0.466836  0.457234  1
  Pb  Pb22  1  0.718419  0.966855  0.542800  1
  Pb  Pb23  1  0.218780  0.532793  0.957087  1
  Pb  Pb24  1  0.718428  0.967143  0.957120  1
  Pb  Pb25  1  0.218535  0.533113  0.542839  1
  Pb  Pb26  1  0.281468  0.033125  0.457200  1
  Pb  Pb27  1  0.781371  0.466632  0.042604  1
  Pb  Pb28  1  0.571400  0.626296  0.750013  1
  Pb  Pb29  1  0.071418  0.873531  0.750057  1
  Pb  Pb30  1  0.428566  0.373501  0.249988  1
  Pb  Pb31  1  0.928581  0.126439  0.250037  1
  Pb  Pb32  1  0.347300  0.153504  0.750179  1
  Pb  Pb33  1  0.846897  0.346754  0.750101  1
  Pb  Pb34  1  0.653029  0.846823  0.250024  1
  Pb  Pb35  1  0.152889  0.653230  0.250057  1
