# generated using pymatgen
data_YErSi6AsRh12
_symmetry_space_group_name_H-M   'P 1'
_cell_length_a   9.75497392
_cell_length_b   9.80683487
_cell_length_c   3.86494184
_cell_angle_alpha   89.99323283
_cell_angle_beta   90.01585071
_cell_angle_gamma   120.12166865
_symmetry_Int_Tables_number   1
_chemical_formula_structural   YErSi6AsRh12
_chemical_formula_sum   'Y1 Er1 Si6 As1 Rh12'
_cell_volume   319.81202998
_cell_formula_units_Z   1
loop_
 _symmetry_equiv_pos_site_id
 _symmetry_equiv_pos_as_xyz
  1  'x, y, z'
loop_
 _atom_site_type_symbol
 _atom_site_label
 _atom_site_symmetry_multiplicity
 _atom_site_fract_x
 _atom_site_fract_y
 _atom_site_fract_z
 _atom_site_occupancy
  Y  Y0  1  0.672628  0.333686  0.750136  1
  Er  Er1  1  0.331190  0.667600  0.251536  1
  Si  Si2  1  0.998584  0.999515  0.585119  1
  Si  Si3  1  0.287785  0.886275  0.751301  1
  Si  Si4  1  0.109208  0.400897  0.752141  1
  Si  Si5  1  0.600382  0.713133  0.751185  1
  Si  Si6  1  0.709162  0.107954  0.249603  1
  Si  Si7  1  0.890389  0.599859  0.249668  1
  As  As8  1  0.406043  0.290578  0.249268  1
  Rh  Rh9  1  0.065309  0.620579  0.751909  1
  Rh  Rh10  1  0.377159  0.451182  0.751779  1
  Rh  Rh11  1  0.554441  0.932162  0.752077  1
  Rh  Rh12  1  0.937388  0.381249  0.249664  1
  Rh  Rh13  1  0.619742  0.561509  0.249046  1
  Rh  Rh14  1  0.442549  0.056198  0.248984  1
  Rh  Rh15  1  0.265503  0.117345  0.748151  1
  Rh  Rh16  1  0.877354  0.146042  0.746972  1
  Rh  Rh17  1  0.854115  0.732435  0.746438  1
  Rh  Rh18  1  0.746229  0.884482  0.255279  1
  Rh  Rh19  1  0.115665  0.860502  0.255256  1
  Rh  Rh20  1  0.139175  0.256822  0.258112  1
