# generated using pymatgen
data_HoSi(PRh2)3
_symmetry_space_group_name_H-M   'P 1'
_cell_length_a   7.04572600
_cell_length_b   7.04572626
_cell_length_c   3.74348600
_cell_angle_alpha   90.00000000
_cell_angle_beta   90.00000000
_cell_angle_gamma   119.99999880
_symmetry_Int_Tables_number   1
_chemical_formula_structural   HoSi(PRh2)3
_chemical_formula_sum   'Ho1 Si1 P3 Rh6'
_cell_volume   160.93791328
_cell_formula_units_Z   1
loop_
 _symmetry_equiv_pos_site_id
 _symmetry_equiv_pos_as_xyz
  1  'x, y, z'
loop_
 _atom_site_type_symbol
 _atom_site_label
 _atom_site_symmetry_multiplicity
 _atom_site_fract_x
 _atom_site_fract_y
 _atom_site_fract_z
 _atom_site_occupancy
  Ho  Ho0  1  0.000000  0.000000  0.000000  1
  Si  Si1  1  0.666667  0.333333  0.000000  1
  P  P2  1  0.197961  0.374312  0.500000  1
  P  P3  1  0.176351  0.802039  0.500000  1
  P  P4  1  0.625688  0.823649  0.500000  1
  Rh  Rh5  1  0.496918  0.929150  0.000000  1
  Rh  Rh6  1  0.432231  0.503082  0.000000  1
  Rh  Rh7  1  0.070850  0.567769  0.000000  1
  Rh  Rh8  1  0.784763  0.606775  0.500000  1
  Rh  Rh9  1  0.822012  0.215237  0.500000  1
  Rh  Rh10  1  0.393225  0.177988  0.500000  1
