# generated using pymatgen
data_Li2La3Pr3Zn2Pd12Rh
_symmetry_space_group_name_H-M   'P 1'
_cell_length_a   8.41917110
_cell_length_b   8.41917297
_cell_length_c   8.41972800
_cell_angle_alpha   109.47255608
_cell_angle_beta   109.47256059
_cell_angle_gamma   109.46988636
_symmetry_Int_Tables_number   1
_chemical_formula_structural   Li2La3Pr3Zn2Pd12Rh
_chemical_formula_sum   'Li2 La3 Pr3 Zn2 Pd12 Rh1'
_cell_volume   459.41772833
_cell_formula_units_Z   1
loop_
 _symmetry_equiv_pos_site_id
 _symmetry_equiv_pos_as_xyz
  1  'x, y, z'
loop_
 _atom_site_type_symbol
 _atom_site_label
 _atom_site_symmetry_multiplicity
 _atom_site_fract_x
 _atom_site_fract_y
 _atom_site_fract_z
 _atom_site_occupancy
  Li  Li0  1  0.000000  0.999943  0.497275  1
  Li  Li1  1  0.000000  0.501428  0.001527  1
  La  La2  1  0.302126  0.300504  0.002043  1
  La  La3  1  0.697874  0.998377  0.699917  1
  La  La4  1  0.000000  0.699247  0.699521  1
  Pr  Pr5  1  0.699114  0.700941  0.998808  1
  Pr  Pr6  1  0.300886  0.001827  0.299694  1
  Pr  Pr7  1  0.000000  0.299641  0.300126  1
  Zn  Zn8  1  0.501974  0.999999  0.001489  1
  Zn  Zn9  1  0.498026  0.498025  0.499515  1
  Pd  Pd10  1  0.332372  0.332266  0.666375  1
  Pd  Pd11  1  0.667628  0.999894  0.334002  1
  Pd  Pd12  1  0.000000  0.665701  0.334968  1
  Pd  Pd13  1  0.667011  0.333998  0.000958  1
  Pd  Pd14  1  0.332989  0.666988  0.333947  1
  Pd  Pd15  1  0.000000  0.335582  0.665191  1
  Pd  Pd16  1  0.333036  0.666384  0.000993  1
  Pd  Pd17  1  0.333735  0.999941  0.666431  1
  Pd  Pd18  1  0.663053  0.331336  0.332443  1
  Pd  Pd19  1  0.666265  0.666205  0.332695  1
  Pd  Pd20  1  0.666964  0.333347  0.667958  1
  Pd  Pd21  1  0.336947  0.668284  0.669392  1
  Rh  Rh22  1  0.000000  0.000143  0.994732  1
