# generated using pymatgen
data_Gd12InFe4Au
_symmetry_space_group_name_H-M   'P 1'
_cell_length_a   8.41426837
_cell_length_b   8.41426802
_cell_length_c   8.41426800
_cell_angle_alpha   111.07809358
_cell_angle_beta   110.57831590
_cell_angle_gamma   106.79047960
_symmetry_Int_Tables_number   1
_chemical_formula_structural   Gd12InFe4Au
_chemical_formula_sum   'Gd12 In1 Fe4 Au1'
_cell_volume   457.83501192
_cell_formula_units_Z   1
loop_
 _symmetry_equiv_pos_site_id
 _symmetry_equiv_pos_as_xyz
  1  'x, y, z'
loop_
 _atom_site_type_symbol
 _atom_site_label
 _atom_site_symmetry_multiplicity
 _atom_site_fract_x
 _atom_site_fract_y
 _atom_site_fract_z
 _atom_site_occupancy
  Gd  Gd0  1  0.424506  0.220164  0.204695  1
  Gd  Gd1  1  0.575494  0.779836  0.795305  1
  Gd  Gd2  1  0.015468  0.220164  0.795657  1
  Gd  Gd3  1  0.984532  0.779836  0.204343  1
  Gd  Gd4  1  0.187792  0.291125  0.478650  1
  Gd  Gd5  1  0.812208  0.708875  0.521350  1
  Gd  Gd6  1  0.187525  0.708875  0.896667  1
  Gd  Gd7  1  0.812475  0.291125  0.103333  1
  Gd  Gd8  1  0.314022  0.614397  0.300375  1
  Gd  Gd9  1  0.685978  0.385603  0.699625  1
  Gd  Gd10  1  0.314287  0.014104  0.699816  1
  Gd  Gd11  1  0.685713  0.985896  0.300184  1
  In  In12  1  0.500000  0.500000  0.000000  1
  Fe  Fe13  1  0.383004  0.000000  0.383004  1
  Fe  Fe14  1  0.616996  0.000000  0.616996  1
  Fe  Fe15  1  0.109460  0.609414  0.499953  1
  Fe  Fe16  1  0.890540  0.390586  0.500047  1
  Au  Au17  1  0.000000  0.000000  0.000000  1
