# generated using pymatgen
data_HoEr15In4RuRh3
_symmetry_space_group_name_H-M   'P 1'
_cell_length_a   9.57147467
_cell_length_b   9.58101229
_cell_length_c   9.57966900
_cell_angle_alpha   60.00463434
_cell_angle_beta   59.97167228
_cell_angle_gamma   60.00127148
_symmetry_Int_Tables_number   1
_chemical_formula_structural   HoEr15In4RuRh3
_chemical_formula_sum   'Ho1 Er15 In4 Ru1 Rh3'
_cell_volume   621.08646922
_cell_formula_units_Z   1
loop_
 _symmetry_equiv_pos_site_id
 _symmetry_equiv_pos_as_xyz
  1  'x, y, z'
loop_
 _atom_site_type_symbol
 _atom_site_label
 _atom_site_symmetry_multiplicity
 _atom_site_fract_x
 _atom_site_fract_y
 _atom_site_fract_z
 _atom_site_occupancy
  Ho  Ho0  1  0.188714  0.192915  0.809186  1
  Er  Er1  1  0.438329  0.060933  0.062434  1
  Er  Er2  1  0.438329  0.060933  0.438306  1
  Er  Er3  1  0.060336  0.437185  0.060573  1
  Er  Er4  1  0.649651  0.048321  0.651014  1
  Er  Er5  1  0.191494  0.809158  0.808587  1
  Er  Er6  1  0.061658  0.060772  0.438786  1
  Er  Er7  1  0.809644  0.193276  0.188485  1
  Er  Er8  1  0.809725  0.809264  0.190506  1
  Er  Er9  1  0.651180  0.649891  0.045851  1
  Er  Er10  1  0.651180  0.649891  0.653079  1
  Er  Er11  1  0.060336  0.437185  0.441906  1
  Er  Er12  1  0.046929  0.649356  0.651858  1
  Er  Er13  1  0.809644  0.193276  0.808595  1
  Er  Er14  1  0.441030  0.436053  0.061459  1
  Er  Er15  1  0.191494  0.809158  0.190761  1
  In  In16  1  0.417839  0.747931  0.417116  1
  In  In17  1  0.417712  0.416807  0.748922  1
  In  In18  1  0.748882  0.417421  0.416849  1
  In  In19  1  0.417712  0.416807  0.416560  1
  Ru  Ru20  1  0.857527  0.424917  0.858778  1
  Rh  Rh21  1  0.858352  0.859778  0.423992  1
  Rh  Rh22  1  0.423955  0.858992  0.858526  1
  Rh  Rh23  1  0.858352  0.859778  0.857879  1
