# generated using pymatgen
data_Th3In3IrAu2
_symmetry_space_group_name_H-M   'P 1'
_cell_length_a   7.72759800
_cell_length_b   7.72759785
_cell_length_c   4.23529900
_cell_angle_alpha   90.00000000
_cell_angle_beta   90.00000000
_cell_angle_gamma   120.00000066
_symmetry_Int_Tables_number   1
_chemical_formula_structural   Th3In3IrAu2
_chemical_formula_sum   'Th3 In3 Ir1 Au2'
_cell_volume   219.03006834
_cell_formula_units_Z   1
loop_
 _symmetry_equiv_pos_site_id
 _symmetry_equiv_pos_as_xyz
  1  'x, y, z'
loop_
 _atom_site_type_symbol
 _atom_site_label
 _atom_site_symmetry_multiplicity
 _atom_site_fract_x
 _atom_site_fract_y
 _atom_site_fract_z
 _atom_site_occupancy
  Th  Th0  1  0.594110  0.016199  0.500000  1
  Th  Th1  1  0.422089  0.405890  0.500000  1
  Th  Th2  1  0.983801  0.577911  0.500000  1
  In  In3  1  0.999811  0.252414  0.000000  1
  In  In4  1  0.747586  0.747397  0.000000  1
  In  In5  1  0.252603  0.000189  0.000000  1
  Ir  Ir6  1  0.666667  0.333333  0.000000  1
  Au  Au7  1  0.333333  0.666667  0.000000  1
  Au  Au8  1  0.000000  0.000000  0.500000  1
