# generated using pymatgen
data_LiTm2LuIn4Co
_symmetry_space_group_name_H-M   'P 1'
_cell_length_a   8.00768933
_cell_length_b   8.01399135
_cell_length_c   3.55976100
_cell_angle_alpha   90.00000000
_cell_angle_beta   90.00000000
_cell_angle_gamma   120.00709813
_symmetry_Int_Tables_number   1
_chemical_formula_structural   LiTm2LuIn4Co
_chemical_formula_sum   'Li1 Tm2 Lu1 In4 Co1'
_cell_volume   197.82286625
_cell_formula_units_Z   1
loop_
 _symmetry_equiv_pos_site_id
 _symmetry_equiv_pos_as_xyz
  1  'x, y, z'
loop_
 _atom_site_type_symbol
 _atom_site_label
 _atom_site_symmetry_multiplicity
 _atom_site_fract_x
 _atom_site_fract_y
 _atom_site_fract_z
 _atom_site_occupancy
  Li  Li0  1  0.333341  0.666611  0.500000  1
  Tm  Tm1  1  0.760716  0.045031  0.500000  1
  Tm  Tm2  1  0.955460  0.715834  0.500000  1
  Lu  Lu3  1  0.283032  0.238454  0.500000  1
  In  In4  1  0.067010  0.401908  0.000000  1
  In  In5  1  0.597691  0.664130  0.000000  1
  In  In6  1  0.335533  0.933955  0.000000  1
  In  In7  1  0.666207  0.333258  0.000000  1
  Co  Co8  1  0.001011  0.000818  0.000000  1
