# generated using pymatgen
data_Er10MnGaCo10
_symmetry_space_group_name_H-M   'P 1'
_cell_length_a   5.45539339
_cell_length_b   5.45539403
_cell_length_c   20.40227297
_cell_angle_alpha   90.46412907
_cell_angle_beta   89.53587080
_cell_angle_gamma   137.11647762
_symmetry_Int_Tables_number   1
_chemical_formula_structural   Er10MnGaCo10
_chemical_formula_sum   'Er10 Mn1 Ga1 Co10'
_cell_volume   413.18916491
_cell_formula_units_Z   1
loop_
 _symmetry_equiv_pos_site_id
 _symmetry_equiv_pos_as_xyz
  1  'x, y, z'
loop_
 _atom_site_type_symbol
 _atom_site_label
 _atom_site_symmetry_multiplicity
 _atom_site_fract_x
 _atom_site_fract_y
 _atom_site_fract_z
 _atom_site_occupancy
  Er  Er0  1  0.288942  0.711058  0.250532  1
  Er  Er1  1  0.291660  0.708340  0.065980  1
  Er  Er2  1  0.997042  0.002958  0.842692  1
  Er  Er3  1  0.711058  0.288942  0.749468  1
  Er  Er4  1  0.708475  0.291525  0.565680  1
  Er  Er5  1  0.002207  0.997793  0.343247  1
  Er  Er6  1  0.997793  0.002207  0.656753  1
  Er  Er7  1  0.708340  0.291660  0.934020  1
  Er  Er8  1  0.002958  0.997042  0.157308  1
  Er  Er9  1  0.291525  0.708475  0.434320  1
  Mn  Mn10  1  0.000000  0.000000  0.500000  1
  Ga  Ga11  1  0.000000  0.000000  0.000000  1
  Co  Co12  1  0.294413  0.705587  0.654605  1
  Co  Co13  1  0.580049  0.419951  0.442632  1
  Co  Co14  1  0.414573  0.585427  0.750103  1
  Co  Co15  1  0.417610  0.582390  0.941369  1
  Co  Co16  1  0.585427  0.414573  0.249897  1
  Co  Co17  1  0.419951  0.580049  0.557368  1
  Co  Co18  1  0.705587  0.294413  0.345395  1
  Co  Co19  1  0.707014  0.292986  0.154161  1
  Co  Co20  1  0.582390  0.417610  0.058631  1
  Co  Co21  1  0.292986  0.707014  0.845839  1
