# generated using pymatgen
data_Dy8Tc(B8Os)3
_symmetry_space_group_name_H-M   'P 1'
_cell_length_a   3.66895200
_cell_length_b   9.15722371
_cell_length_c   11.54114500
_cell_angle_alpha   89.94679477
_cell_angle_beta   90.00000000
_cell_angle_gamma   90.00000000
_symmetry_Int_Tables_number   1
_chemical_formula_structural   Dy8Tc(B8Os)3
_chemical_formula_sum   'Dy8 Tc1 B24 Os3'
_cell_volume   387.75246244
_cell_formula_units_Z   1
loop_
 _symmetry_equiv_pos_site_id
 _symmetry_equiv_pos_as_xyz
  1  'x, y, z'
loop_
 _atom_site_type_symbol
 _atom_site_label
 _atom_site_symmetry_multiplicity
 _atom_site_fract_x
 _atom_site_fract_y
 _atom_site_fract_z
 _atom_site_occupancy
  Dy  Dy0  1  0.000000  0.324041  0.412989  1
  Dy  Dy1  1  0.000000  0.676930  0.583777  1
  Dy  Dy2  1  0.000000  0.820629  0.088118  1
  Dy  Dy3  1  0.000000  0.177446  0.914689  1
  Dy  Dy4  1  0.000000  0.942796  0.372444  1
  Dy  Dy5  1  0.000000  0.056832  0.627653  1
  Dy  Dy6  1  0.000000  0.444617  0.128268  1
  Dy  Dy7  1  0.000000  0.556590  0.872046  1
  Tc  Tc8  1  0.000000  0.637639  0.321432  1
  B  B9  1  0.500000  0.553170  0.432898  1
  B  B10  1  0.500000  0.446272  0.567441  1
  B  B11  1  0.500000  0.053845  0.067300  1
  B  B12  1  0.500000  0.946168  0.932913  1
  B  B13  1  0.500000  0.747768  0.419342  1
  B  B14  1  0.500000  0.252337  0.580579  1
  B  B15  1  0.500000  0.248042  0.080480  1
  B  B16  1  0.500000  0.752062  0.919484  1
  B  B17  1  0.500000  0.791036  0.266384  1
  B  B18  1  0.500000  0.209304  0.733523  1
  B  B19  1  0.500000  0.290711  0.233033  1
  B  B20  1  0.500000  0.709696  0.766428  1
  B  B21  1  0.500000  0.631943  0.186090  1
  B  B22  1  0.500000  0.367925  0.814341  1
  B  B23  1  0.500000  0.131832  0.313747  1
  B  B24  1  0.500000  0.868391  0.685809  1
  B  B25  1  0.500000  0.983508  0.212621  1
  B  B26  1  0.500000  0.016414  0.787698  1
  B  B27  1  0.500000  0.483053  0.287423  1
  B  B28  1  0.500000  0.516144  0.712675  1
  B  B29  1  0.500000  0.607607  0.029439  1
  B  B30  1  0.500000  0.392223  0.969940  1
  B  B31  1  0.500000  0.108026  0.470150  1
  B  B32  1  0.500000  0.892959  0.530194  1
  Os  Os33  1  0.000000  0.361973  0.679156  1
  Os  Os34  1  0.000000  0.137423  0.177918  1
  Os  Os35  1  0.000000  0.862650  0.821581  1
