# generated using pymatgen
data_Ho6Tm10TlIn5CoRh
_symmetry_space_group_name_H-M   'P 1'
_cell_length_a   10.25377900
_cell_length_b   10.26516085
_cell_length_c   6.97211200
_cell_angle_alpha   90.00182518
_cell_angle_beta   90.00000000
_cell_angle_gamma   119.96333172
_symmetry_Int_Tables_number   1
_chemical_formula_structural   Ho6Tm10TlIn5CoRh
_chemical_formula_sum   'Ho6 Tm10 Tl1 In5 Co1 Rh1'
_cell_volume   635.77734533
_cell_formula_units_Z   1
loop_
 _symmetry_equiv_pos_site_id
 _symmetry_equiv_pos_as_xyz
  1  'x, y, z'
loop_
 _atom_site_type_symbol
 _atom_site_label
 _atom_site_symmetry_multiplicity
 _atom_site_fract_x
 _atom_site_fract_y
 _atom_site_fract_z
 _atom_site_occupancy
  Ho  Ho0  1  0.532524  0.065049  0.515580  1
  Ho  Ho1  1  0.934717  0.467400  0.515349  1
  Ho  Ho2  1  0.532681  0.467400  0.515349  1
  Ho  Ho3  1  0.465289  0.930575  0.013296  1
  Ho  Ho4  1  0.070335  0.534437  0.014228  1
  Ho  Ho5  1  0.464104  0.534437  0.014228  1
  Tm  Tm6  1  0.178394  0.356788  0.720227  1
  Tm  Tm7  1  0.643512  0.821517  0.720362  1
  Tm  Tm8  1  0.178003  0.821517  0.720362  1
  Tm  Tm9  1  0.823449  0.646898  0.217543  1
  Tm  Tm10  1  0.353080  0.176329  0.219287  1
  Tm  Tm11  1  0.823249  0.176329  0.219287  1
  Tm  Tm12  1  0.666461  0.332920  0.897241  1
  Tm  Tm13  1  0.333384  0.666768  0.405357  1
  Tm  Tm14  1  0.000568  0.001136  0.500931  1
  Tm  Tm15  1  0.000591  0.001183  0.000897  1
  Tl  Tl16  1  0.837212  0.674424  0.763496  1
  In  In17  1  0.324954  0.162422  0.761515  1
  In  In18  1  0.837468  0.162422  0.761515  1
  In  In19  1  0.162791  0.325581  0.262144  1
  In  In20  1  0.674247  0.837122  0.262200  1
  In  In21  1  0.162875  0.837122  0.262200  1
  Co  Co22  1  0.333319  0.666638  0.787537  1
  Rh  Rh23  1  0.666792  0.333583  0.287871  1
