# generated using pymatgen
data_Lu3In3Pd2Rh
_symmetry_space_group_name_H-M   'P 1'
_cell_length_a   7.73476800
_cell_length_b   7.73476886
_cell_length_c   3.68097600
_cell_angle_alpha   90.00000000
_cell_angle_beta   90.00000000
_cell_angle_gamma   120.00000486
_symmetry_Int_Tables_number   1
_chemical_formula_structural   Lu3In3Pd2Rh
_chemical_formula_sum   'Lu3 In3 Pd2 Rh1'
_cell_volume   190.71648259
_cell_formula_units_Z   1
loop_
 _symmetry_equiv_pos_site_id
 _symmetry_equiv_pos_as_xyz
  1  'x, y, z'
loop_
 _atom_site_type_symbol
 _atom_site_label
 _atom_site_symmetry_multiplicity
 _atom_site_fract_x
 _atom_site_fract_y
 _atom_site_fract_z
 _atom_site_occupancy
  Lu  Lu0  1  0.011197  0.412453  0.500000  1
  Lu  Lu1  1  0.587547  0.598744  0.500000  1
  Lu  Lu2  1  0.401256  0.988803  0.500000  1
  In  In3  1  0.000203  0.735607  0.000000  1
  In  In4  1  0.264393  0.264596  0.000000  1
  In  In5  1  0.735404  0.999797  0.000000  1
  Pd  Pd6  1  0.666667  0.333333  0.000000  1
  Pd  Pd7  1  0.000000  0.000000  0.500000  1
  Rh  Rh8  1  0.333333  0.666667  0.000000  1
