# generated using pymatgen
data_Zr3Sc2Fe19P12
_symmetry_space_group_name_H-M   'P 1'
_cell_length_a   11.79007200
_cell_length_b   11.79007262
_cell_length_c   3.61202500
_cell_angle_alpha   90.00000000
_cell_angle_beta   90.00000000
_cell_angle_gamma   120.00000388
_symmetry_Int_Tables_number   1
_chemical_formula_structural   Zr3Sc2Fe19P12
_chemical_formula_sum   'Zr3 Sc2 Fe19 P12'
_cell_volume   434.82479366
_cell_formula_units_Z   1
loop_
 _symmetry_equiv_pos_site_id
 _symmetry_equiv_pos_as_xyz
  1  'x, y, z'
loop_
 _atom_site_type_symbol
 _atom_site_label
 _atom_site_symmetry_multiplicity
 _atom_site_fract_x
 _atom_site_fract_y
 _atom_site_fract_z
 _atom_site_occupancy
  Zr  Zr0  1  0.815421  0.000000  0.000000  1
  Zr  Zr1  1  0.000000  0.815421  0.000000  1
  Zr  Zr2  1  0.184579  0.184579  0.000000  1
  Sc  Sc3  1  0.333333  0.666667  0.500000  1
  Sc  Sc4  1  0.666667  0.333333  0.500000  1
  Fe  Fe5  1  0.622424  0.802836  0.500000  1
  Fe  Fe6  1  0.197164  0.819588  0.500000  1
  Fe  Fe7  1  0.180412  0.377576  0.500000  1
  Fe  Fe8  1  0.377576  0.180412  0.500000  1
  Fe  Fe9  1  0.802836  0.622424  0.500000  1
  Fe  Fe10  1  0.819588  0.197164  0.500000  1
  Fe  Fe11  1  0.284141  0.000000  0.000000  1
  Fe  Fe12  1  0.000000  0.284141  0.000000  1
  Fe  Fe13  1  0.715859  0.715859  0.000000  1
  Fe  Fe14  1  0.442687  0.000000  0.500000  1
  Fe  Fe15  1  0.000000  0.442687  0.500000  1
  Fe  Fe16  1  0.557313  0.557313  0.500000  1
  Fe  Fe17  1  0.517712  0.876424  0.000000  1
  Fe  Fe18  1  0.123576  0.641290  0.000000  1
  Fe  Fe19  1  0.358710  0.482288  0.000000  1
  Fe  Fe20  1  0.482288  0.358710  0.000000  1
  Fe  Fe21  1  0.876424  0.517712  0.000000  1
  Fe  Fe22  1  0.641290  0.123576  0.000000  1
  Fe  Fe23  1  0.000000  0.000000  0.500000  1
  P  P24  1  0.181532  0.000000  0.500000  1
  P  P25  1  0.000000  0.181532  0.500000  1
  P  P26  1  0.818468  0.818468  0.500000  1
  P  P27  1  0.517466  0.684805  0.000000  1
  P  P28  1  0.315195  0.832661  0.000000  1
  P  P29  1  0.167339  0.482534  0.000000  1
  P  P30  1  0.482534  0.167339  0.000000  1
  P  P31  1  0.684805  0.517466  0.000000  1
  P  P32  1  0.832661  0.315195  0.000000  1
  P  P33  1  0.631310  0.000000  0.500000  1
  P  P34  1  0.000000  0.631310  0.500000  1
  P  P35  1  0.368690  0.368690  0.500000  1
