# generated using pymatgen
data_CaTbPr5IrBr12
_symmetry_space_group_name_H-M   'P 1'
_cell_length_a   9.70624141
_cell_length_b   9.62989211
_cell_length_c   9.54726724
_cell_angle_alpha   107.19715784
_cell_angle_beta   107.52706805
_cell_angle_gamma   106.76859016
_symmetry_Int_Tables_number   1
_chemical_formula_structural   CaTbPr5IrBr12
_chemical_formula_sum   'Ca1 Tb1 Pr5 Ir1 Br12'
_cell_volume   739.80486730
_cell_formula_units_Z   1
loop_
 _symmetry_equiv_pos_site_id
 _symmetry_equiv_pos_as_xyz
  1  'x, y, z'
loop_
 _atom_site_type_symbol
 _atom_site_label
 _atom_site_symmetry_multiplicity
 _atom_site_fract_x
 _atom_site_fract_y
 _atom_site_fract_z
 _atom_site_occupancy
  Ca  Ca0  1  0.499312  0.500933  0.498022  1
  Tb  Tb1  1  0.107062  0.311328  0.026395  1
  Pr  Pr2  1  0.319220  0.022780  0.110551  1
  Pr  Pr3  1  0.026691  0.108862  0.311674  1
  Pr  Pr4  1  0.974836  0.896294  0.690775  1
  Pr  Pr5  1  0.681167  0.975530  0.889968  1
  Pr  Pr6  1  0.890917  0.678054  0.974636  1
  Ir  Ir7  1  0.000718  0.000356  0.001505  1
  Br  Br8  1  0.215379  0.674301  0.070638  1
  Br  Br9  1  0.447534  0.377790  0.160529  1
  Br  Br10  1  0.685588  0.074815  0.220822  1
  Br  Br11  1  0.928411  0.783423  0.319002  1
  Br  Br12  1  0.167978  0.460487  0.370492  1
  Br  Br13  1  0.380086  0.171051  0.462464  1
  Br  Br14  1  0.620455  0.831512  0.537920  1
  Br  Br15  1  0.829514  0.540307  0.617798  1
  Br  Br16  1  0.074891  0.226047  0.694287  1
  Br  Br17  1  0.314616  0.926449  0.779861  1
  Br  Br18  1  0.541606  0.621531  0.832373  1
  Br  Br19  1  0.794023  0.318152  0.930291  1
