# generated using pymatgen
data_HoLu3Fe4(Co4P3)4
_symmetry_space_group_name_H-M   'P 1'
_cell_length_a   3.63771200
_cell_length_b   10.20926941
_cell_length_c   11.72506947
_cell_angle_alpha   90.03252170
_cell_angle_beta   90.00000000
_cell_angle_gamma   90.00000000
_symmetry_Int_Tables_number   1
_chemical_formula_structural   HoLu3Fe4(Co4P3)4
_chemical_formula_sum   'Ho1 Lu3 Fe4 Co16 P12'
_cell_volume   435.45003711
_cell_formula_units_Z   1
loop_
 _symmetry_equiv_pos_site_id
 _symmetry_equiv_pos_as_xyz
  1  'x, y, z'
loop_
 _atom_site_type_symbol
 _atom_site_label
 _atom_site_symmetry_multiplicity
 _atom_site_fract_x
 _atom_site_fract_y
 _atom_site_fract_z
 _atom_site_occupancy
  Ho  Ho0  1  0.250000  0.580860  0.703449  1
  Lu  Lu1  1  0.250000  0.919467  0.203333  1
  Lu  Lu2  1  0.750000  0.419444  0.296634  1
  Lu  Lu3  1  0.750000  0.080475  0.796679  1
  Fe  Fe4  1  0.250000  0.710529  0.987744  1
  Fe  Fe5  1  0.250000  0.789731  0.487453  1
  Fe  Fe6  1  0.750000  0.289343  0.012566  1
  Fe  Fe7  1  0.750000  0.210113  0.511993  1
  Co  Co8  1  0.250000  0.406065  0.485811  1
  Co  Co9  1  0.250000  0.093500  0.986163  1
  Co  Co10  1  0.750000  0.593465  0.512271  1
  Co  Co11  1  0.750000  0.906484  0.013954  1
  Co  Co12  1  0.250000  0.222038  0.176716  1
  Co  Co13  1  0.250000  0.277464  0.676557  1
  Co  Co14  1  0.750000  0.778699  0.823696  1
  Co  Co15  1  0.750000  0.722305  0.323094  1
  Co  Co16  1  0.250000  0.882796  0.699069  1
  Co  Co17  1  0.250000  0.618011  0.199272  1
  Co  Co18  1  0.750000  0.117936  0.300832  1
  Co  Co19  1  0.750000  0.380787  0.801568  1
  Co  Co20  1  0.250000  0.465377  0.933412  1
  Co  Co21  1  0.250000  0.034195  0.432448  1
  Co  Co22  1  0.750000  0.534086  0.068088  1
  Co  Co23  1  0.750000  0.966605  0.567135  1
  P  P24  1  0.250000  0.419594  0.114598  1
  P  P25  1  0.250000  0.080334  0.614138  1
  P  P26  1  0.750000  0.580434  0.887086  1
  P  P27  1  0.750000  0.919749  0.385664  1
  P  P28  1  0.250000  0.267260  0.867785  1
  P  P29  1  0.250000  0.232552  0.367687  1
  P  P30  1  0.750000  0.732775  0.132180  1
  P  P31  1  0.750000  0.768823  0.631529  1
  P  P32  1  0.250000  0.601107  0.391673  1
  P  P33  1  0.250000  0.898858  0.891678  1
  P  P34  1  0.750000  0.397683  0.607718  1
  P  P35  1  0.750000  0.101057  0.108327  1
