# generated using pymatgen
data_Sr18InFe(PO4)14
_symmetry_space_group_name_H-M   'P 1'
_cell_length_a   9.10708979
_cell_length_b   9.11331327
_cell_length_c   18.25937421
_cell_angle_alpha   71.86957771
_cell_angle_beta   71.90792365
_cell_angle_gamma   72.41908003
_symmetry_Int_Tables_number   1
_chemical_formula_structural   Sr18InFe(PO4)14
_chemical_formula_sum   'Sr18 In1 Fe1 P14 O56'
_cell_volume   1333.14066394
_cell_formula_units_Z   1
loop_
 _symmetry_equiv_pos_site_id
 _symmetry_equiv_pos_as_xyz
  1  'x, y, z'
loop_
 _atom_site_type_symbol
 _atom_site_label
 _atom_site_symmetry_multiplicity
 _atom_site_fract_x
 _atom_site_fract_y
 _atom_site_fract_z
 _atom_site_occupancy
  Sr  Sr0  1  0.956831  0.503453  0.253015  1
  Sr  Sr1  1  0.497619  0.037271  0.250120  1
  Sr  Sr2  1  0.036692  0.498887  0.749547  1
  Sr  Sr3  1  0.504651  0.956289  0.752562  1
  Sr  Sr4  1  0.159358  0.729469  0.859019  1
  Sr  Sr5  1  0.268960  0.846553  0.639135  1
  Sr  Sr6  1  0.843923  0.269509  0.141939  1
  Sr  Sr7  1  0.730078  0.156344  0.361911  1
  Sr  Sr8  1  0.285878  0.281253  0.412430  1
  Sr  Sr9  1  0.721173  0.713433  0.087792  1
  Sr  Sr10  1  0.715062  0.722574  0.586880  1
  Sr  Sr11  1  0.282328  0.287152  0.911844  1
  Sr  Sr12  1  0.162400  0.721021  0.367026  1
  Sr  Sr13  1  0.280416  0.834846  0.136905  1
  Sr  Sr14  1  0.836195  0.280061  0.634806  1
  Sr  Sr15  1  0.720753  0.163309  0.865105  1
  Sr  Sr16  1  0.495620  0.495577  0.513541  1
  Sr  Sr17  1  0.495433  0.495413  0.013843  1
  In  In18  1  0.000907  0.000528  0.000235  1
  Fe  Fe19  1  0.000603  0.000719  0.500280  1
  P  P20  1  0.103788  0.118036  0.793282  1
  P  P21  1  0.883689  0.896677  0.703524  1
  P  P22  1  0.897154  0.882167  0.207611  1
  P  P23  1  0.116600  0.104217  0.297295  1
  P  P24  1  0.412992  0.894632  0.942924  1
  P  P25  1  0.105007  0.592665  0.558361  1
  P  P26  1  0.586415  0.104571  0.058464  1
  P  P27  1  0.894224  0.406671  0.442779  1
  P  P28  1  0.406708  0.884678  0.448852  1
  P  P29  1  0.114604  0.587999  0.051413  1
  P  P30  1  0.593324  0.114675  0.552057  1
  P  P31  1  0.884811  0.412089  0.949514  1
  P  P32  1  0.472121  0.526285  0.746687  1
  P  P33  1  0.525895  0.472104  0.246771  1
  O  O34  1  0.611776  0.215601  0.600849  1
  O  O35  1  0.784927  0.383808  0.903415  1
  O  O36  1  0.388911  0.782690  0.400717  1
  O  O37  1  0.213432  0.616520  0.098291  1
  O  O38  1  0.613810  0.205308  0.105450  1
  O  O39  1  0.792220  0.386094  0.394776  1
  O  O40  1  0.383008  0.795978  0.896116  1
  O  O41  1  0.208552  0.611408  0.606509  1
  O  O42  1  0.479744  0.574835  0.167738  1
  O  O43  1  0.405144  0.529027  0.319094  1
  O  O44  1  0.531577  0.407248  0.818783  1
  O  O45  1  0.576967  0.482903  0.667422  1
  O  O46  1  0.503348  0.973275  0.117542  1
  O  O47  1  0.027135  0.489559  0.385673  1
  O  O48  1  0.497558  0.024998  0.884046  1
  O  O49  1  0.971443  0.510957  0.615712  1
  O  O50  1  0.227716  0.506320  0.984925  1
  O  O51  1  0.488259  0.776689  0.516616  1
  O  O52  1  0.774546  0.492468  0.017112  1
  O  O53  1  0.510560  0.225612  0.485329  1
  O  O54  1  0.212665  0.501155  0.495128  1
  O  O55  1  0.504152  0.785035  0.005891  1
  O  O56  1  0.787380  0.497519  0.506496  1
  O  O57  1  0.494656  0.214640  0.995927  1
  O  O58  1  0.701270  0.479503  0.235067  1
  O  O59  1  0.533130  0.291382  0.263432  1
  O  O60  1  0.292697  0.527126  0.764016  1
  O  O61  1  0.472887  0.703111  0.736149  1
  O  O62  1  0.015053  0.020465  0.875539  1
  O  O63  1  0.975136  0.982464  0.618567  1
  O  O64  1  0.986204  0.979147  0.125307  1
  O  O65  1  0.024717  0.018738  0.382273  1
  O  O66  1  0.237526  0.977210  0.491146  1
  O  O67  1  0.016956  0.751685  0.007898  1
  O  O68  1  0.762208  0.022893  0.509596  1
  O  O69  1  0.983692  0.248439  0.992807  1
  O  O70  1  0.986990  0.210819  0.253367  1
  O  O71  1  0.787749  0.007146  0.253482  1
  O  O72  1  0.013110  0.791330  0.747675  1
  O  O73  1  0.214494  0.992952  0.747640  1
  O  O74  1  0.503368  0.985989  0.606490  1
  O  O75  1  0.009049  0.506262  0.893246  1
  O  O76  1  0.496851  0.013770  0.394831  1
  O  O77  1  0.990356  0.494520  0.108034  1
  O  O78  1  0.798323  0.787482  0.193576  1
  O  O79  1  0.215740  0.205512  0.305649  1
  O  O80  1  0.200720  0.214388  0.807409  1
  O  O81  1  0.786268  0.793567  0.695131  1
  O  O82  1  0.249958  0.985422  0.990256  1
  O  O83  1  0.019686  0.761334  0.512982  1
  O  O84  1  0.750500  0.015125  0.011649  1
  O  O85  1  0.980677  0.238593  0.488570  1
  O  O86  1  0.972483  0.231433  0.751694  1
  O  O87  1  0.771860  0.029473  0.744264  1
  O  O88  1  0.028246  0.767446  0.248898  1
  O  O89  1  0.226995  0.971102  0.256332  1
