# generated using pymatgen
data_EuHo(AgSn)2
_symmetry_space_group_name_H-M   'P 1'
_cell_length_a   4.79991800
_cell_length_b   4.79991720
_cell_length_c   7.64259400
_cell_angle_alpha   90.00000000
_cell_angle_beta   90.00000000
_cell_angle_gamma   120.00000552
_symmetry_Int_Tables_number   1
_chemical_formula_structural   EuHo(AgSn)2
_chemical_formula_sum   'Eu1 Ho1 Ag2 Sn2'
_cell_volume   152.48915590
_cell_formula_units_Z   1
loop_
 _symmetry_equiv_pos_site_id
 _symmetry_equiv_pos_as_xyz
  1  'x, y, z'
loop_
 _atom_site_type_symbol
 _atom_site_label
 _atom_site_symmetry_multiplicity
 _atom_site_fract_x
 _atom_site_fract_y
 _atom_site_fract_z
 _atom_site_occupancy
  Eu  Eu0  1  0.000000  0.000000  0.732514  1
  Ho  Ho1  1  0.000000  0.000000  0.232526  1
  Ag  Ag2  1  0.666667  0.333333  0.510017  1
  Ag  Ag3  1  0.333333  0.666667  0.050750  1
  Sn  Sn4  1  0.333333  0.666667  0.442505  1
  Sn  Sn5  1  0.666667  0.333333  0.965689  1
