# generated using pymatgen
data_Tb9Y7Cd4(OsPt)2
_symmetry_space_group_name_H-M   'P 1'
_cell_length_a   9.71081663
_cell_length_b   9.71081938
_cell_length_c   9.75245256
_cell_angle_alpha   59.66267545
_cell_angle_beta   59.66265626
_cell_angle_gamma   59.71477370
_symmetry_Int_Tables_number   1
_chemical_formula_structural   Tb9Y7Cd4(OsPt)2
_chemical_formula_sum   'Tb9 Y7 Cd4 Os2 Pt2'
_cell_volume   645.56783069
_cell_formula_units_Z   1
loop_
 _symmetry_equiv_pos_site_id
 _symmetry_equiv_pos_as_xyz
  1  'x, y, z'
loop_
 _atom_site_type_symbol
 _atom_site_label
 _atom_site_symmetry_multiplicity
 _atom_site_fract_x
 _atom_site_fract_y
 _atom_site_fract_z
 _atom_site_occupancy
  Tb  Tb0  1  0.348964  0.348962  0.353231  1
  Tb  Tb1  1  0.349638  0.349637  0.948793  1
  Tb  Tb2  1  0.345888  0.955498  0.349382  1
  Tb  Tb3  1  0.955498  0.345888  0.349381  1
  Tb  Tb4  1  0.813593  0.189419  0.190165  1
  Tb  Tb5  1  0.187289  0.813691  0.805728  1
  Tb  Tb6  1  0.189416  0.813593  0.190166  1
  Tb  Tb7  1  0.813686  0.187294  0.805725  1
  Tb  Tb8  1  0.188964  0.188966  0.810495  1
  Y  Y9  1  0.807727  0.807733  0.192042  1
  Y  Y10  1  0.938934  0.556270  0.567307  1
  Y  Y11  1  0.556711  0.937225  0.939339  1
  Y  Y12  1  0.556272  0.938934  0.567307  1
  Y  Y13  1  0.937229  0.556706  0.939341  1
  Y  Y14  1  0.562704  0.562701  0.938319  1
  Y  Y15  1  0.939682  0.939681  0.560873  1
  Cd  Cd16  1  0.580647  0.580647  0.578680  1
  Cd  Cd17  1  0.580844  0.580844  0.257482  1
  Cd  Cd18  1  0.581734  0.255126  0.580933  1
  Cd  Cd19  1  0.255128  0.581733  0.580933  1
  Os  Os20  1  0.143982  0.143982  0.137168  1
  Os  Os21  1  0.144906  0.144908  0.575720  1
  Pt  Pt22  1  0.146060  0.574502  0.140746  1
  Pt  Pt23  1  0.574504  0.146061  0.140746  1
