# generated using pymatgen
data_Yb2NbIrO8
_symmetry_space_group_name_H-M   'P 1'
_cell_length_a   6.57358001
_cell_length_b   6.57358066
_cell_length_c   5.05166022
_cell_angle_alpha   70.24064847
_cell_angle_beta   70.24063445
_cell_angle_gamma   115.90994210
_symmetry_Int_Tables_number   1
_chemical_formula_structural   Yb2NbIrO8
_chemical_formula_sum   'Yb2 Nb1 Ir1 O8'
_cell_volume   151.33224066
_cell_formula_units_Z   1
loop_
 _symmetry_equiv_pos_site_id
 _symmetry_equiv_pos_as_xyz
  1  'x, y, z'
loop_
 _atom_site_type_symbol
 _atom_site_label
 _atom_site_symmetry_multiplicity
 _atom_site_fract_x
 _atom_site_fract_y
 _atom_site_fract_z
 _atom_site_occupancy
  Yb  Yb0  1  0.365738  0.634262  0.250000  1
  Yb  Yb1  1  0.627815  0.372185  0.750000  1
  Nb  Nb2  1  0.108179  0.891821  0.750000  1
  Ir  Ir3  1  0.910051  0.089949  0.250000  1
  O  O4  1  0.645510  0.055553  0.176547  1
  O  O5  1  0.944447  0.354490  0.323453  1
  O  O6  1  0.368579  0.950972  0.844371  1
  O  O7  1  0.049028  0.631421  0.655629  1
  O  O8  1  0.800470  0.742720  0.205520  1
  O  O9  1  0.257280  0.199530  0.294480  1
  O  O10  1  0.201990  0.279088  0.798657  1
  O  O11  1  0.720912  0.798010  0.701343  1
