# generated using pymatgen
data_La3Al12OsRu3
_symmetry_space_group_name_H-M   'P 1'
_cell_length_a   8.96859700
_cell_length_b   8.95812840
_cell_length_c   9.74954064
_cell_angle_alpha   90.02312937
_cell_angle_beta   90.00000000
_cell_angle_gamma   120.03866131
_symmetry_Int_Tables_number   1
_chemical_formula_structural   La3Al12OsRu3
_chemical_formula_sum   'La6 Al24 Os2 Ru6'
_cell_volume   678.08979448
_cell_formula_units_Z   2
loop_
 _symmetry_equiv_pos_site_id
 _symmetry_equiv_pos_as_xyz
  1  'x, y, z'
loop_
 _atom_site_type_symbol
 _atom_site_label
 _atom_site_symmetry_multiplicity
 _atom_site_fract_x
 _atom_site_fract_y
 _atom_site_fract_z
 _atom_site_occupancy
  La  La0  1  0.193402  0.386802  0.249291  1
  La  La1  1  0.806598  0.613198  0.750709  1
  La  La2  1  0.614055  0.806281  0.249177  1
  La  La3  1  0.385945  0.193719  0.750823  1
  La  La4  1  0.192227  0.806281  0.249177  1
  La  La5  1  0.807773  0.193719  0.750823  1
  Al  Al6  1  0.333255  0.666510  0.001802  1
  Al  Al7  1  0.666745  0.333490  0.998198  1
  Al  Al8  1  0.666665  0.333328  0.501706  1
  Al  Al9  1  0.333335  0.666672  0.498294  1
  Al  Al10  1  0.162359  0.324718  0.576411  1
  Al  Al11  1  0.837641  0.675282  0.423589  1
  Al  Al12  1  0.675765  0.838319  0.576338  1
  Al  Al13  1  0.837481  0.674962  0.075508  1
  Al  Al14  1  0.324235  0.161681  0.423662  1
  Al  Al15  1  0.162519  0.325038  0.924492  1
  Al  Al16  1  0.162555  0.838319  0.576338  1
  Al  Al17  1  0.324459  0.162571  0.076331  1
  Al  Al18  1  0.837445  0.161681  0.423662  1
  Al  Al19  1  0.675541  0.837429  0.923669  1
  Al  Al20  1  0.838111  0.162571  0.076331  1
  Al  Al21  1  0.161889  0.837429  0.923669  1
  Al  Al22  1  0.562637  0.125273  0.250157  1
  Al  Al23  1  0.437363  0.874727  0.749843  1
  Al  Al24  1  0.873963  0.436766  0.250409  1
  Al  Al25  1  0.126037  0.563234  0.749591  1
  Al  Al26  1  0.562803  0.436766  0.250409  1
  Al  Al27  1  0.437197  0.563234  0.749591  1
  Al  Al28  1  0.000190  0.000379  0.249938  1
  Al  Al29  1  0.999810  0.999621  0.750062  1
  Os  Os30  1  0.000000  0.500000  0.000000  1
  Os  Os31  1  0.500000  0.500000  0.000000  1
  Ru  Ru32  1  0.500000  0.000000  0.000000  1
  Ru  Ru33  1  0.500000  0.000000  0.500000  1
  Ru  Ru34  1  0.000000  0.500000  0.500000  1
  Ru  Ru35  1  0.500000  0.500000  0.500000  1
  Ru  Ru36  1  0.000000  0.000000  0.000000  1
  Ru  Ru37  1  0.000000  0.000000  0.500000  1
