# generated using pymatgen
data_Yb3Y(Ir2O7)2
_symmetry_space_group_name_H-M   'P 1'
_cell_length_a   7.23382320
_cell_length_b   7.23382382
_cell_length_c   7.21479756
_cell_angle_alpha   59.91273924
_cell_angle_beta   59.91273250
_cell_angle_gamma   60.00000651
_symmetry_Int_Tables_number   1
_chemical_formula_structural   Yb3Y(Ir2O7)2
_chemical_formula_sum   'Yb3 Y1 Ir4 O14'
_cell_volume   266.60660000
_cell_formula_units_Z   1
loop_
 _symmetry_equiv_pos_site_id
 _symmetry_equiv_pos_as_xyz
  1  'x, y, z'
loop_
 _atom_site_type_symbol
 _atom_site_label
 _atom_site_symmetry_multiplicity
 _atom_site_fract_x
 _atom_site_fract_y
 _atom_site_fract_z
 _atom_site_occupancy
  Yb  Yb0  1  0.625000  0.125000  0.125000  1
  Yb  Yb1  1  0.125000  0.625000  0.125000  1
  Yb  Yb2  1  0.125000  0.125000  0.125000  1
  Y  Y3  1  0.125000  0.125000  0.625000  1
  Ir  Ir4  1  0.125000  0.625000  0.625000  1
  Ir  Ir5  1  0.625000  0.125000  0.625000  1
  Ir  Ir6  1  0.625000  0.625000  0.125000  1
  Ir  Ir7  1  0.625000  0.625000  0.625000  1
  O  O8  1  0.702781  0.702781  0.297510  1
  O  O9  1  0.295692  0.295692  0.701467  1
  O  O10  1  0.707148  0.295692  0.701467  1
  O  O11  1  0.296927  0.702781  0.297510  1
  O  O12  1  0.295692  0.707148  0.701467  1
  O  O13  1  0.702781  0.296927  0.297510  1
  O  O14  1  0.547219  0.547219  0.952490  1
  O  O15  1  0.954308  0.954308  0.548533  1
  O  O16  1  0.542852  0.954308  0.548533  1
  O  O17  1  0.953073  0.547219  0.952490  1
  O  O18  1  0.954308  0.542852  0.548533  1
  O  O19  1  0.547219  0.953073  0.952490  1
  O  O20  1  0.247562  0.247562  0.257313  1
  O  O21  1  0.002438  0.002438  0.992687  1
