# generated using pymatgen
data_Pr8Nd2Si5Ge
_symmetry_space_group_name_H-M   'P 1'
_cell_length_a   7.86927309
_cell_length_b   7.86927328
_cell_length_c   8.94611235
_cell_angle_alpha   116.09209027
_cell_angle_beta   116.09209690
_cell_angle_gamma   89.99999772
_symmetry_Int_Tables_number   1
_chemical_formula_structural   Pr8Nd2Si5Ge
_chemical_formula_sum   'Pr8 Nd2 Si5 Ge1'
_cell_volume   433.78861220
_cell_formula_units_Z   1
loop_
 _symmetry_equiv_pos_site_id
 _symmetry_equiv_pos_as_xyz
  1  'x, y, z'
loop_
 _atom_site_type_symbol
 _atom_site_label
 _atom_site_symmetry_multiplicity
 _atom_site_fract_x
 _atom_site_fract_y
 _atom_site_fract_z
 _atom_site_occupancy
  Pr  Pr0  1  0.967903  0.824806  0.290722  1
  Pr  Pr1  1  0.322819  0.465916  0.290722  1
  Pr  Pr2  1  0.824806  0.322819  0.290722  1
  Pr  Pr3  1  0.465916  0.967903  0.290722  1
  Pr  Pr4  1  0.034084  0.177181  0.709278  1
  Pr  Pr5  1  0.675194  0.532097  0.709278  1
  Pr  Pr6  1  0.177181  0.675194  0.709278  1
  Pr  Pr7  1  0.532097  0.034084  0.709278  1
  Nd  Nd8  1  0.499050  0.499050  0.998101  1
  Nd  Nd9  1  0.000950  0.000950  0.001899  1
  Si  Si10  1  0.250000  0.250000  0.500000  1
  Si  Si11  1  0.614109  0.885891  0.000000  1
  Si  Si12  1  0.385891  0.114109  0.000000  1
  Si  Si13  1  0.885891  0.385891  0.000000  1
  Si  Si14  1  0.114109  0.614109  0.000000  1
  Ge  Ge15  1  0.750000  0.750000  0.500000  1
