# generated using pymatgen
data_Tb8MnSiPt23
_symmetry_space_group_name_H-M   'P 1'
_cell_length_a   8.37947100
_cell_length_b   8.37947100
_cell_length_c   8.39537600
_cell_angle_alpha   90.00000000
_cell_angle_beta   90.00000000
_cell_angle_gamma   90.00000000
_symmetry_Int_Tables_number   1
_chemical_formula_structural   Tb8MnSiPt23
_chemical_formula_sum   'Tb8 Mn1 Si1 Pt23'
_cell_volume   589.48581098
_cell_formula_units_Z   1
loop_
 _symmetry_equiv_pos_site_id
 _symmetry_equiv_pos_as_xyz
  1  'x, y, z'
loop_
 _atom_site_type_symbol
 _atom_site_label
 _atom_site_symmetry_multiplicity
 _atom_site_fract_x
 _atom_site_fract_y
 _atom_site_fract_z
 _atom_site_occupancy
  Tb  Tb0  1  0.252583  0.252583  0.253831  1
  Tb  Tb1  1  0.741627  0.741627  0.748753  1
  Tb  Tb2  1  0.747417  0.747417  0.253831  1
  Tb  Tb3  1  0.741627  0.258373  0.748753  1
  Tb  Tb4  1  0.258373  0.258373  0.748753  1
  Tb  Tb5  1  0.252583  0.747417  0.253831  1
  Tb  Tb6  1  0.258373  0.741627  0.748753  1
  Tb  Tb7  1  0.747417  0.252583  0.253831  1
  Mn  Mn8  1  0.000000  0.000000  0.678164  1
  Si  Si9  1  0.000000  0.000000  0.011444  1
  Pt  Pt10  1  0.256136  0.500000  0.003053  1
  Pt  Pt11  1  0.743864  0.500000  0.003053  1
  Pt  Pt12  1  0.000000  0.260524  0.506363  1
  Pt  Pt13  1  0.500000  0.256136  0.003053  1
  Pt  Pt14  1  0.000000  0.739476  0.506363  1
  Pt  Pt15  1  0.500000  0.743864  0.003053  1
  Pt  Pt16  1  0.500000  0.000000  0.254365  1
  Pt  Pt17  1  0.260524  0.000000  0.506363  1
  Pt  Pt18  1  0.500000  0.000000  0.743044  1
  Pt  Pt19  1  0.739476  0.000000  0.506363  1
  Pt  Pt20  1  0.000000  0.500000  0.254365  1
  Pt  Pt21  1  0.000000  0.500000  0.743044  1
  Pt  Pt22  1  0.251450  0.500000  0.498411  1
  Pt  Pt23  1  0.748550  0.500000  0.498411  1
  Pt  Pt24  1  0.500000  0.251450  0.498411  1
  Pt  Pt25  1  0.500000  0.748550  0.498411  1
  Pt  Pt26  1  0.500000  0.500000  0.252314  1
  Pt  Pt27  1  0.500000  0.500000  0.748629  1
  Pt  Pt28  1  0.278517  0.000000  0.995252  1
  Pt  Pt29  1  0.721483  0.000000  0.995252  1
  Pt  Pt30  1  0.000000  0.278517  0.995252  1
  Pt  Pt31  1  0.000000  0.721483  0.995252  1
  Pt  Pt32  1  0.000000  0.000000  0.291985  1
