# generated using pymatgen
data_LaLuZn5Ge
_symmetry_space_group_name_H-M   'P 1'
_cell_length_a   8.29551579
_cell_length_b   8.29551545
_cell_length_c   8.83436900
_cell_angle_alpha   90.00000000
_cell_angle_beta   90.00000000
_cell_angle_gamma   149.57934269
_symmetry_Int_Tables_number   1
_chemical_formula_structural   LaLuZn5Ge
_chemical_formula_sum   'La2 Lu2 Zn10 Ge2'
_cell_volume   307.82832164
_cell_formula_units_Z   2
loop_
 _symmetry_equiv_pos_site_id
 _symmetry_equiv_pos_as_xyz
  1  'x, y, z'
loop_
 _atom_site_type_symbol
 _atom_site_label
 _atom_site_symmetry_multiplicity
 _atom_site_fract_x
 _atom_site_fract_y
 _atom_site_fract_z
 _atom_site_occupancy
  La  La0  1  0.000000  0.000000  0.500000  1
  La  La1  1  0.000000  0.000000  0.000000  1
  Lu  Lu2  1  0.201606  0.798394  0.250000  1
  Lu  Lu3  1  0.798394  0.201606  0.750000  1
  Zn  Zn4  1  0.812101  0.187899  0.390889  1
  Zn  Zn5  1  0.187899  0.812101  0.609111  1
  Zn  Zn6  1  0.812101  0.187899  0.109111  1
  Zn  Zn7  1  0.187899  0.812101  0.890889  1
  Zn  Zn8  1  0.655407  0.344593  0.476440  1
  Zn  Zn9  1  0.344593  0.655407  0.523560  1
  Zn  Zn10  1  0.655407  0.344593  0.023560  1
  Zn  Zn11  1  0.344593  0.655407  0.976440  1
  Zn  Zn12  1  0.399483  0.600517  0.250000  1
  Zn  Zn13  1  0.600517  0.399483  0.750000  1
  Ge  Ge14  1  0.559224  0.440776  0.250000  1
  Ge  Ge15  1  0.440776  0.559224  0.750000  1
