# generated using pymatgen
data_PuTlF4
_symmetry_space_group_name_H-M   'P 1'
_cell_length_a   3.77829100
_cell_length_b   6.37330459
_cell_length_c   8.55248400
_cell_angle_alpha   82.93509362
_cell_angle_beta   90.00000000
_cell_angle_gamma   90.00000000
_symmetry_Int_Tables_number   1
_chemical_formula_structural   PuTlF4
_chemical_formula_sum   'Pu2 Tl2 F8'
_cell_volume   204.38186961
_cell_formula_units_Z   2
loop_
 _symmetry_equiv_pos_site_id
 _symmetry_equiv_pos_as_xyz
  1  'x, y, z'
loop_
 _atom_site_type_symbol
 _atom_site_label
 _atom_site_symmetry_multiplicity
 _atom_site_fract_x
 _atom_site_fract_y
 _atom_site_fract_z
 _atom_site_occupancy
  Pu  Pu0  1  0.750000  0.763715  0.390359  1
  Pu  Pu1  1  0.250000  0.236285  0.609641  1
  Tl  Tl2  1  0.750000  0.746405  0.901801  1
  Tl  Tl3  1  0.250000  0.253595  0.098199  1
  F  F4  1  0.750000  0.345731  0.748645  1
  F  F5  1  0.750000  0.977099  0.149133  1
  F  F6  1  0.750000  0.978304  0.609054  1
  F  F7  1  0.750000  0.376155  0.428871  1
  F  F8  1  0.250000  0.654269  0.251355  1
  F  F9  1  0.250000  0.623845  0.571129  1
  F  F10  1  0.250000  0.021696  0.390946  1
  F  F11  1  0.250000  0.022901  0.850867  1
