# generated using pymatgen
data_U6N11
_symmetry_space_group_name_H-M   'P 1'
_cell_length_a   6.49177870
_cell_length_b   6.49177894
_cell_length_c   6.49200966
_cell_angle_alpha   80.33600688
_cell_angle_beta   80.33600767
_cell_angle_gamma   119.92729724
_symmetry_Int_Tables_number   1
_chemical_formula_structural   U6N11
_chemical_formula_sum   'U6 N11'
_cell_volume   223.38061494
_cell_formula_units_Z   1
loop_
 _symmetry_equiv_pos_site_id
 _symmetry_equiv_pos_as_xyz
  1  'x, y, z'
loop_
 _atom_site_type_symbol
 _atom_site_label
 _atom_site_symmetry_multiplicity
 _atom_site_fract_x
 _atom_site_fract_y
 _atom_site_fract_z
 _atom_site_occupancy
  U  U0  1  0.166417  0.835613  0.495762  1
  U  U1  1  0.835613  0.166417  0.495762  1
  U  U2  1  0.313694  0.669353  0.994489  1
  U  U3  1  0.018129  0.018129  0.994765  1
  U  U4  1  0.495031  0.495031  0.519344  1
  U  U5  1  0.669353  0.313694  0.994489  1
  N  N6  1  0.437660  0.796921  0.629397  1
  N  N7  1  0.997217  0.700366  0.897527  1
  N  N8  1  0.700366  0.997217  0.897527  1
  N  N9  1  0.796921  0.437660  0.629397  1
  N  N10  1  0.859796  0.859796  0.371112  1
  N  N11  1  0.291187  0.961606  0.115829  1
  N  N12  1  0.240884  0.550255  0.350811  1
  N  N13  1  0.403088  0.403088  0.891686  1
  N  N14  1  0.550255  0.240884  0.350811  1
  N  N15  1  0.961606  0.291187  0.115829  1
  N  N16  1  0.137785  0.137785  0.630468  1
