# generated using pymatgen
data_TmMn5P3
_symmetry_space_group_name_H-M   'P 1'
_cell_length_a   3.56631100
_cell_length_b   10.69096900
_cell_length_c   12.21635200
_cell_angle_alpha   90.00000000
_cell_angle_beta   90.00000000
_cell_angle_gamma   90.00000000
_symmetry_Int_Tables_number   1
_chemical_formula_structural   TmMn5P3
_chemical_formula_sum   'Tm4 Mn20 P12'
_cell_volume   465.77676616
_cell_formula_units_Z   4
loop_
 _symmetry_equiv_pos_site_id
 _symmetry_equiv_pos_as_xyz
  1  'x, y, z'
loop_
 _atom_site_type_symbol
 _atom_site_label
 _atom_site_symmetry_multiplicity
 _atom_site_fract_x
 _atom_site_fract_y
 _atom_site_fract_z
 _atom_site_occupancy
  Tm  Tm0  1  0.250000  0.585418  0.705952  1
  Tm  Tm1  1  0.750000  0.414582  0.294048  1
  Tm  Tm2  1  0.750000  0.085418  0.794048  1
  Tm  Tm3  1  0.250000  0.914582  0.205952  1
  Mn  Mn4  1  0.250000  0.409884  0.492880  1
  Mn  Mn5  1  0.750000  0.712836  0.320063  1
  Mn  Mn6  1  0.750000  0.787164  0.820063  1
  Mn  Mn7  1  0.250000  0.287164  0.679937  1
  Mn  Mn8  1  0.250000  0.618232  0.193994  1
  Mn  Mn9  1  0.750000  0.381768  0.806006  1
  Mn  Mn10  1  0.750000  0.118232  0.306006  1
  Mn  Mn11  1  0.250000  0.881768  0.693994  1
  Mn  Mn12  1  0.250000  0.034729  0.434329  1
  Mn  Mn13  1  0.750000  0.965271  0.565671  1
  Mn  Mn14  1  0.750000  0.534729  0.065671  1
  Mn  Mn15  1  0.250000  0.465271  0.934329  1
  Mn  Mn16  1  0.750000  0.909884  0.007120  1
  Mn  Mn17  1  0.250000  0.090116  0.992880  1
  Mn  Mn18  1  0.250000  0.716902  0.983276  1
  Mn  Mn19  1  0.750000  0.283098  0.016724  1
  Mn  Mn20  1  0.750000  0.216902  0.516724  1
  Mn  Mn21  1  0.250000  0.783098  0.483276  1
  Mn  Mn22  1  0.250000  0.212836  0.179937  1
  Mn  Mn23  1  0.750000  0.590116  0.507120  1
  P  P24  1  0.250000  0.590921  0.383550  1
  P  P25  1  0.750000  0.409079  0.616450  1
  P  P26  1  0.750000  0.090921  0.116450  1
  P  P27  1  0.250000  0.909079  0.883550  1
  P  P28  1  0.750000  0.762779  0.625645  1
  P  P29  1  0.250000  0.237221  0.374355  1
  P  P30  1  0.250000  0.411399  0.116290  1
  P  P31  1  0.750000  0.588601  0.883710  1
  P  P32  1  0.750000  0.911399  0.383710  1
  P  P33  1  0.250000  0.088601  0.616290  1
  P  P34  1  0.250000  0.262779  0.874355  1
  P  P35  1  0.750000  0.737221  0.125645  1
