# generated using pymatgen
data_ReTc2Se4I
_symmetry_space_group_name_H-M   'P 1'
_cell_length_a   12.29759700
_cell_length_b   6.69520978
_cell_length_c   11.62495344
_cell_angle_alpha   66.91591072
_cell_angle_beta   90.00000000
_cell_angle_gamma   90.00000000
_symmetry_Int_Tables_number   1
_chemical_formula_structural   ReTc2Se4I
_chemical_formula_sum   'Re4 Tc8 Se16 I4'
_cell_volume   880.50260437
_cell_formula_units_Z   4
loop_
 _symmetry_equiv_pos_site_id
 _symmetry_equiv_pos_as_xyz
  1  'x, y, z'
loop_
 _atom_site_type_symbol
 _atom_site_label
 _atom_site_symmetry_multiplicity
 _atom_site_fract_x
 _atom_site_fract_y
 _atom_site_fract_z
 _atom_site_occupancy
  Re  Re0  1  0.558538  0.033651  0.344850  1
  Re  Re1  1  0.941462  0.033651  0.844850  1
  Re  Re2  1  0.441462  0.966349  0.655150  1
  Re  Re3  1  0.058538  0.966349  0.155150  1
  Tc  Tc4  1  0.359280  0.963131  0.446576  1
  Tc  Tc5  1  0.140720  0.963131  0.946576  1
  Tc  Tc6  1  0.640720  0.036869  0.553424  1
  Tc  Tc7  1  0.859280  0.036869  0.053424  1
  Tc  Tc8  1  0.522487  0.700996  0.557328  1
  Tc  Tc9  1  0.977513  0.700996  0.057328  1
  Tc  Tc10  1  0.477513  0.299004  0.442672  1
  Tc  Tc11  1  0.022487  0.299004  0.942672  1
  Se  Se12  1  0.438491  0.724350  0.344048  1
  Se  Se13  1  0.061509  0.724350  0.844048  1
  Se  Se14  1  0.561509  0.275650  0.655952  1
  Se  Se15  1  0.938491  0.275650  0.155952  1
  Se  Se16  1  0.335749  0.646802  0.654048  1
  Se  Se17  1  0.164251  0.646802  0.154048  1
  Se  Se18  1  0.664251  0.353198  0.345952  1
  Se  Se19  1  0.835749  0.353198  0.845952  1
  Se  Se20  1  0.400147  0.282452  0.245189  1
  Se  Se21  1  0.099853  0.282452  0.745189  1
  Se  Se22  1  0.599853  0.717548  0.754811  1
  Se  Se23  1  0.900147  0.717548  0.254811  1
  Se  Se24  1  0.708861  0.779592  0.460328  1
  Se  Se25  1  0.791139  0.779592  0.960328  1
  Se  Se26  1  0.291139  0.220408  0.539672  1
  Se  Se27  1  0.208861  0.220408  0.039672  1
  I  I28  1  0.138433  0.897706  0.395348  1
  I  I29  1  0.361567  0.897706  0.895348  1
  I  I30  1  0.861567  0.102294  0.604652  1
  I  I31  1  0.638433  0.102294  0.104652  1
