# generated using pymatgen
data_LaZn2InAu3
_symmetry_space_group_name_H-M   'P 1'
_cell_length_a   4.49672800
_cell_length_b   7.46208600
_cell_length_c   8.96001500
_cell_angle_alpha   90.00000000
_cell_angle_beta   90.00000000
_cell_angle_gamma   90.00000000
_symmetry_Int_Tables_number   1
_chemical_formula_structural   LaZn2InAu3
_chemical_formula_sum   'La2 Zn4 In2 Au6'
_cell_volume   300.65304397
_cell_formula_units_Z   2
loop_
 _symmetry_equiv_pos_site_id
 _symmetry_equiv_pos_as_xyz
  1  'x, y, z'
loop_
 _atom_site_type_symbol
 _atom_site_label
 _atom_site_symmetry_multiplicity
 _atom_site_fract_x
 _atom_site_fract_y
 _atom_site_fract_z
 _atom_site_occupancy
  La  La0  1  0.000000  0.500000  0.250890  1
  La  La1  1  0.500000  0.000000  0.749110  1
  Zn  Zn2  1  0.000000  0.316588  0.897107  1
  Zn  Zn3  1  0.000000  0.683412  0.897107  1
  Zn  Zn4  1  0.500000  0.816588  0.102893  1
  Zn  Zn5  1  0.500000  0.183412  0.102893  1
  In  In6  1  0.500000  0.500000  0.650974  1
  In  In7  1  0.000000  0.000000  0.349026  1
  Au  Au8  1  0.000000  0.742215  0.603913  1
  Au  Au9  1  0.500000  0.500000  0.971629  1
  Au  Au10  1  0.000000  0.257785  0.603913  1
  Au  Au11  1  0.500000  0.757785  0.396087  1
  Au  Au12  1  0.000000  0.000000  0.028371  1
  Au  Au13  1  0.500000  0.242215  0.396087  1
