# generated using pymatgen
data_Tb2Dy3Ho3(SiBr6)2
_symmetry_space_group_name_H-M   'P 1'
_cell_length_a   4.05362600
_cell_length_b   13.22301461
_cell_length_c   14.00443712
_cell_angle_alpha   90.10623256
_cell_angle_beta   90.00000000
_cell_angle_gamma   90.00000000
_symmetry_Int_Tables_number   1
_chemical_formula_structural   Tb2Dy3Ho3(SiBr6)2
_chemical_formula_sum   'Tb2 Dy3 Ho3 Si2 Br12'
_cell_volume   750.65272601
_cell_formula_units_Z   1
loop_
 _symmetry_equiv_pos_site_id
 _symmetry_equiv_pos_as_xyz
  1  'x, y, z'
loop_
 _atom_site_type_symbol
 _atom_site_label
 _atom_site_symmetry_multiplicity
 _atom_site_fract_x
 _atom_site_fract_y
 _atom_site_fract_z
 _atom_site_occupancy
  Tb  Tb0  1  0.000000  0.618646  0.921196  1
  Tb  Tb1  1  0.000000  0.381360  0.078798  1
  Dy  Dy2  1  0.500000  0.117835  0.341457  1
  Dy  Dy3  1  0.000000  0.117822  0.578271  1
  Dy  Dy4  1  0.000000  0.882194  0.421704  1
  Ho  Ho5  1  0.500000  0.882232  0.658458  1
  Ho  Ho6  1  0.500000  0.617998  0.158652  1
  Ho  Ho7  1  0.500000  0.382009  0.841342  1
  Si  Si8  1  0.500000  0.999786  0.500296  1
  Si  Si9  1  0.500000  0.500007  0.999996  1
  Br  Br10  1  0.500000  0.242583  0.163942  1
  Br  Br11  1  0.500000  0.757619  0.835777  1
  Br  Br12  1  0.500000  0.744512  0.336997  1
  Br  Br13  1  0.500000  0.255478  0.663024  1
  Br  Br14  1  0.000000  0.255111  0.411329  1
  Br  Br15  1  0.000000  0.745286  0.589003  1
  Br  Br16  1  0.000000  0.755207  0.090261  1
  Br  Br17  1  0.000000  0.244788  0.909730  1
  Br  Br18  1  0.000000  0.001751  0.243304  1
  Br  Br19  1  0.000000  0.997769  0.756461  1
  Br  Br20  1  0.000000  0.503573  0.257425  1
  Br  Br21  1  0.000000  0.496434  0.742575  1
