# generated using pymatgen
data_Ho4Sn5PRh7
_symmetry_space_group_name_H-M   'P 1'
_cell_length_a   7.50760391
_cell_length_b   7.50760488
_cell_length_c   7.50760380
_cell_angle_alpha   109.82594140
_cell_angle_beta   108.76407070
_cell_angle_gamma   109.82595115
_symmetry_Int_Tables_number   1
_chemical_formula_structural   Ho4Sn5PRh7
_chemical_formula_sum   'Ho4 Sn5 P1 Rh7'
_cell_volume   325.71120097
_cell_formula_units_Z   1
loop_
 _symmetry_equiv_pos_site_id
 _symmetry_equiv_pos_as_xyz
  1  'x, y, z'
loop_
 _atom_site_type_symbol
 _atom_site_label
 _atom_site_symmetry_multiplicity
 _atom_site_fract_x
 _atom_site_fract_y
 _atom_site_fract_z
 _atom_site_occupancy
  Ho  Ho0  1  0.471210  0.458045  0.471210  1
  Ho  Ho1  1  0.013166  0.541955  0.013166  1
  Ho  Ho2  1  0.471210  0.000000  0.013166  1
  Ho  Ho3  1  0.013166  0.000000  0.471210  1
  Sn  Sn4  1  0.709251  0.000000  0.709251  1
  Sn  Sn5  1  0.670335  0.684918  0.985418  1
  Sn  Sn6  1  0.300501  0.315082  0.985418  1
  Sn  Sn7  1  0.985418  0.684918  0.670335  1
  Sn  Sn8  1  0.985418  0.315082  0.300501  1
  P  P9  1  0.352244  0.000000  0.352244  1
  Rh  Rh10  1  0.500482  0.758128  0.258610  1
  Rh  Rh11  1  0.742353  0.241872  0.500482  1
  Rh  Rh12  1  0.258610  0.758128  0.500482  1
  Rh  Rh13  1  0.239637  0.500000  0.739637  1
  Rh  Rh14  1  0.046879  0.000000  0.046879  1
  Rh  Rh15  1  0.500482  0.241872  0.742353  1
  Rh  Rh16  1  0.739637  0.500000  0.239637  1
