# generated using pymatgen
data_TbTm3Ga3SiRu4
_symmetry_space_group_name_H-M   'P 1'
_cell_length_a   4.44477400
_cell_length_b   7.07957496
_cell_length_c   7.11864502
_cell_angle_alpha   90.32701789
_cell_angle_beta   90.00000000
_cell_angle_gamma   90.00000000
_symmetry_Int_Tables_number   1
_chemical_formula_structural   TbTm3Ga3SiRu4
_chemical_formula_sum   'Tb1 Tm3 Ga3 Si1 Ru4'
_cell_volume   223.99954272
_cell_formula_units_Z   1
loop_
 _symmetry_equiv_pos_site_id
 _symmetry_equiv_pos_as_xyz
  1  'x, y, z'
loop_
 _atom_site_type_symbol
 _atom_site_label
 _atom_site_symmetry_multiplicity
 _atom_site_fract_x
 _atom_site_fract_y
 _atom_site_fract_z
 _atom_site_occupancy
  Tb  Tb0  1  0.750000  0.515577  0.307891  1
  Tm  Tm1  1  0.250000  0.985551  0.807108  1
  Tm  Tm2  1  0.750000  0.016503  0.196433  1
  Tm  Tm3  1  0.250000  0.475901  0.696036  1
  Ga  Ga4  1  0.250000  0.300207  0.105960  1
  Ga  Ga5  1  0.750000  0.695462  0.891463  1
  Ga  Ga6  1  0.250000  0.802174  0.397077  1
  Si  Si7  1  0.750000  0.196156  0.602148  1
  Ru  Ru8  1  0.750000  0.857631  0.566320  1
  Ru  Ru9  1  0.250000  0.163172  0.447447  1
  Ru  Ru10  1  0.750000  0.329946  0.919977  1
  Ru  Ru11  1  0.250000  0.661720  0.062140  1
