# generated using pymatgen
data_Ho4FeCo4
_symmetry_space_group_name_H-M   'P 1'
_cell_length_a   5.48842912
_cell_length_b   5.48842928
_cell_length_c   8.76143634
_cell_angle_alpha   72.21749116
_cell_angle_beta   72.21749183
_cell_angle_gamma   42.18399431
_symmetry_Int_Tables_number   1
_chemical_formula_structural   Ho4FeCo4
_chemical_formula_sum   'Ho4 Fe1 Co4'
_cell_volume   167.46188894
_cell_formula_units_Z   1
loop_
 _symmetry_equiv_pos_site_id
 _symmetry_equiv_pos_as_xyz
  1  'x, y, z'
loop_
 _atom_site_type_symbol
 _atom_site_label
 _atom_site_symmetry_multiplicity
 _atom_site_fract_x
 _atom_site_fract_y
 _atom_site_fract_z
 _atom_site_occupancy
  Ho  Ho0  1  0.743034  0.743034  0.660505  1
  Ho  Ho1  1  0.256966  0.256966  0.339495  1
  Ho  Ho2  1  0.391353  0.391353  0.883217  1
  Ho  Ho3  1  0.608647  0.608647  0.116783  1
  Fe  Fe4  1  0.500000  0.500000  0.500000  1
  Co  Co5  1  0.034053  0.034053  0.638285  1
  Co  Co6  1  0.965947  0.965947  0.361715  1
  Co  Co7  1  0.089589  0.089589  0.877905  1
  Co  Co8  1  0.910411  0.910411  0.122095  1
