# generated using pymatgen
data_Hf5Cd13
_symmetry_space_group_name_H-M   'P 1'
_cell_length_a   16.91477644
_cell_length_b   16.91477667
_cell_length_c   6.74349646
_cell_angle_alpha   93.95732886
_cell_angle_beta   93.95732891
_cell_angle_gamma   11.55690337
_symmetry_Int_Tables_number   1
_chemical_formula_structural   Hf5Cd13
_chemical_formula_sum   'Hf5 Cd13'
_cell_volume   385.60286528
_cell_formula_units_Z   1
loop_
 _symmetry_equiv_pos_site_id
 _symmetry_equiv_pos_as_xyz
  1  'x, y, z'
loop_
 _atom_site_type_symbol
 _atom_site_label
 _atom_site_symmetry_multiplicity
 _atom_site_fract_x
 _atom_site_fract_y
 _atom_site_fract_z
 _atom_site_occupancy
  Hf  Hf0  1  0.000000  0.000000  0.000000  1
  Hf  Hf1  1  0.666539  0.666539  0.331946  1
  Hf  Hf2  1  0.889193  0.889193  0.454160  1
  Hf  Hf3  1  0.110807  0.110807  0.545841  1
  Hf  Hf4  1  0.333461  0.333461  0.668054  1
  Cd  Cd5  1  0.109512  0.109512  0.049508  1
  Cd  Cd6  1  0.224837  0.224837  0.110812  1
  Cd  Cd7  1  0.332943  0.332943  0.159021  1
  Cd  Cd8  1  0.445145  0.445145  0.220848  1
  Cd  Cd9  1  0.555322  0.555322  0.271916  1
  Cd  Cd10  1  0.777122  0.777122  0.388615  1
  Cd  Cd11  1  0.000000  0.000000  0.500000  1
  Cd  Cd12  1  0.222878  0.222878  0.611386  1
  Cd  Cd13  1  0.444678  0.444678  0.728084  1
  Cd  Cd14  1  0.554855  0.554855  0.779151  1
  Cd  Cd15  1  0.667056  0.667056  0.840979  1
  Cd  Cd16  1  0.775162  0.775162  0.889187  1
  Cd  Cd17  1  0.890489  0.890489  0.950493  1
