# generated using pymatgen
data_Yb3Mg(GePd5)2
_symmetry_space_group_name_H-M   'P 1'
_cell_length_a   4.15575200
_cell_length_b   5.71150174
_cell_length_c   11.17631685
_cell_angle_alpha   89.61091026
_cell_angle_beta   90.00000000
_cell_angle_gamma   90.00000000
_symmetry_Int_Tables_number   1
_chemical_formula_structural   Yb3Mg(GePd5)2
_chemical_formula_sum   'Yb3 Mg1 Ge2 Pd10'
_cell_volume   265.27029933
_cell_formula_units_Z   1
loop_
 _symmetry_equiv_pos_site_id
 _symmetry_equiv_pos_as_xyz
  1  'x, y, z'
loop_
 _atom_site_type_symbol
 _atom_site_label
 _atom_site_symmetry_multiplicity
 _atom_site_fract_x
 _atom_site_fract_y
 _atom_site_fract_z
 _atom_site_occupancy
  Yb  Yb0  1  0.500000  0.180536  0.142808  1
  Yb  Yb1  1  0.500000  0.814357  0.859847  1
  Yb  Yb2  1  0.500000  0.319718  0.636564  1
  Mg  Mg3  1  0.500000  0.673978  0.356712  1
  Ge  Ge4  1  0.000000  0.000195  0.499268  1
  Ge  Ge5  1  0.000000  0.499066  0.001778  1
  Pd  Pd6  1  0.500000  0.188099  0.394991  1
  Pd  Pd7  1  0.500000  0.817140  0.599757  1
  Pd  Pd8  1  0.500000  0.313528  0.895138  1
  Pd  Pd9  1  0.500000  0.684112  0.109461  1
  Pd  Pd10  1  0.000000  0.437636  0.244048  1
  Pd  Pd11  1  0.000000  0.561900  0.755734  1
  Pd  Pd12  1  0.000000  0.062430  0.742131  1
  Pd  Pd13  1  0.000000  0.930758  0.265634  1
  Pd  Pd14  1  0.000000  0.997761  0.002015  1
  Pd  Pd15  1  0.000000  0.518787  0.494117  1
