# generated using pymatgen
data_CsGd(SO4)2
_symmetry_space_group_name_H-M   'P 1'
_cell_length_a   5.33728668
_cell_length_b   5.33728879
_cell_length_c   9.02203786
_cell_angle_alpha   93.94311513
_cell_angle_beta   93.93989172
_cell_angle_gamma   63.58074391
_symmetry_Int_Tables_number   1
_chemical_formula_structural   CsGd(SO4)2
_chemical_formula_sum   'Cs1 Gd1 S2 O8'
_cell_volume   229.41239118
_cell_formula_units_Z   1
loop_
 _symmetry_equiv_pos_site_id
 _symmetry_equiv_pos_as_xyz
  1  'x, y, z'
loop_
 _atom_site_type_symbol
 _atom_site_label
 _atom_site_symmetry_multiplicity
 _atom_site_fract_x
 _atom_site_fract_y
 _atom_site_fract_z
 _atom_site_occupancy
  Cs  Cs0  1  0.000000  0.000000  0.500000  1
  Gd  Gd1  1  0.000000  0.000000  0.000000  1
  S  S2  1  0.369364  0.369408  0.203116  1
  S  S3  1  0.630636  0.630592  0.796884  1
  O  O4  1  0.241803  0.241812  0.087167  1
  O  O5  1  0.677671  0.245518  0.178166  1
  O  O6  1  0.245481  0.677712  0.178163  1
  O  O7  1  0.321808  0.321901  0.353808  1
  O  O8  1  0.678192  0.678099  0.646192  1
  O  O9  1  0.754520  0.322289  0.821837  1
  O  O10  1  0.322330  0.754483  0.821834  1
  O  O11  1  0.758196  0.758187  0.912833  1
