# generated using pymatgen
data_Er8ZrTi3(Si2Mo)8
_symmetry_space_group_name_H-M   'P 1'
_cell_length_a   6.92835619
_cell_length_b   6.92835565
_cell_length_c   12.79525542
_cell_angle_alpha   89.92409329
_cell_angle_beta   90.07590849
_cell_angle_gamma   90.02280496
_symmetry_Int_Tables_number   1
_chemical_formula_structural   Er8ZrTi3(Si2Mo)8
_chemical_formula_sum   'Er8 Zr1 Ti3 Si16 Mo8'
_cell_volume   614.19820543
_cell_formula_units_Z   1
loop_
 _symmetry_equiv_pos_site_id
 _symmetry_equiv_pos_as_xyz
  1  'x, y, z'
loop_
 _atom_site_type_symbol
 _atom_site_label
 _atom_site_symmetry_multiplicity
 _atom_site_fract_x
 _atom_site_fract_y
 _atom_site_fract_z
 _atom_site_occupancy
  Er  Er0  1  0.340392  0.001993  0.468965  1
  Er  Er1  1  0.498634  0.839175  0.717415  1
  Er  Er2  1  0.501889  0.159481  0.219510  1
  Er  Er3  1  0.839175  0.498634  0.282585  1
  Er  Er4  1  0.159481  0.501889  0.780490  1
  Er  Er5  1  0.660601  0.997227  0.968868  1
  Er  Er6  1  0.001993  0.340392  0.531035  1
  Er  Er7  1  0.997227  0.660601  0.031132  1
  Zr  Zr8  1  0.330960  0.330960  0.000000  1
  Ti  Ti9  1  0.168203  0.832012  0.251104  1
  Ti  Ti10  1  0.832012  0.168203  0.748896  1
  Ti  Ti11  1  0.669313  0.669313  0.500000  1
  Si  Si12  1  0.200911  0.128295  0.682323  1
  Si  Si13  1  0.371859  0.707138  0.930945  1
  Si  Si14  1  0.628757  0.298908  0.433201  1
  Si  Si15  1  0.707138  0.371859  0.069055  1
  Si  Si16  1  0.298908  0.628757  0.566799  1
  Si  Si17  1  0.798155  0.871270  0.183351  1
  Si  Si18  1  0.128295  0.200911  0.317677  1
  Si  Si19  1  0.871270  0.798155  0.816649  1
  Si  Si20  1  0.289064  0.953776  0.064745  1
  Si  Si21  1  0.540838  0.790288  0.313874  1
  Si  Si22  1  0.462486  0.207643  0.809358  1
  Si  Si23  1  0.790288  0.540838  0.686126  1
  Si  Si24  1  0.207643  0.462486  0.190642  1
  Si  Si25  1  0.710299  0.040916  0.562867  1
  Si  Si26  1  0.953776  0.289064  0.935255  1
  Si  Si27  1  0.040916  0.710299  0.437133  1
  Mo  Mo28  1  0.158425  0.004704  0.872300  1
  Mo  Mo29  1  0.494208  0.660825  0.125320  1
  Mo  Mo30  1  0.507133  0.340788  0.623094  1
  Mo  Mo31  1  0.660825  0.494208  0.874680  1
  Mo  Mo32  1  0.340788  0.507133  0.376906  1
  Mo  Mo33  1  0.840109  0.993328  0.374331  1
  Mo  Mo34  1  0.004704  0.158425  0.127700  1
  Mo  Mo35  1  0.993328  0.840109  0.625669  1
