# generated using pymatgen
data_Sr3(WN3)2
_symmetry_space_group_name_H-M   'P 1'
_cell_length_a   3.97977530
_cell_length_b   3.97977539
_cell_length_c   10.91681010
_cell_angle_alpha   100.50243477
_cell_angle_beta   100.50243721
_cell_angle_gamma   90.00000174
_symmetry_Int_Tables_number   1
_chemical_formula_structural   Sr3(WN3)2
_chemical_formula_sum   'Sr3 W2 N6'
_cell_volume   167.06352823
_cell_formula_units_Z   1
loop_
 _symmetry_equiv_pos_site_id
 _symmetry_equiv_pos_as_xyz
  1  'x, y, z'
loop_
 _atom_site_type_symbol
 _atom_site_label
 _atom_site_symmetry_multiplicity
 _atom_site_fract_x
 _atom_site_fract_y
 _atom_site_fract_z
 _atom_site_occupancy
  Sr  Sr0  1  0.000000  0.000000  0.000000  1
  Sr  Sr1  1  0.182332  0.182332  0.364664  1
  Sr  Sr2  1  0.817668  0.817668  0.635336  1
  W  W3  1  0.604329  0.604329  0.208656  1
  W  W4  1  0.395671  0.395671  0.791344  1
  N  N5  1  0.585914  0.085914  0.171827  1
  N  N6  1  0.085914  0.585914  0.171827  1
  N  N7  1  0.691198  0.691198  0.382394  1
  N  N8  1  0.308802  0.308802  0.617606  1
  N  N9  1  0.914087  0.414087  0.828174  1
  N  N10  1  0.414087  0.914087  0.828174  1
