# generated using pymatgen
data_LuNp3(B6W)2
_symmetry_space_group_name_H-M   'P 1'
_cell_length_a   3.61832500
_cell_length_b   9.30125313
_cell_length_c   11.35751161
_cell_angle_alpha   89.92230985
_cell_angle_beta   90.00000000
_cell_angle_gamma   90.00000000
_symmetry_Int_Tables_number   1
_chemical_formula_structural   LuNp3(B6W)2
_chemical_formula_sum   'Lu2 Np6 B24 W4'
_cell_volume   382.23621075
_cell_formula_units_Z   2
loop_
 _symmetry_equiv_pos_site_id
 _symmetry_equiv_pos_as_xyz
  1  'x, y, z'
loop_
 _atom_site_type_symbol
 _atom_site_label
 _atom_site_symmetry_multiplicity
 _atom_site_fract_x
 _atom_site_fract_y
 _atom_site_fract_z
 _atom_site_occupancy
  Lu  Lu0  1  0.000000  0.338024  0.407903  1
  Lu  Lu1  1  0.000000  0.661976  0.592097  1
  Np  Np2  1  0.000000  0.837789  0.093097  1
  Np  Np3  1  0.000000  0.162211  0.906903  1
  Np  Np4  1  0.000000  0.958994  0.400378  1
  Np  Np5  1  0.000000  0.041006  0.599622  1
  Np  Np6  1  0.000000  0.458625  0.099640  1
  Np  Np7  1  0.000000  0.541375  0.900360  1
  B  B8  1  0.500000  0.550735  0.432715  1
  B  B9  1  0.500000  0.449265  0.567285  1
  B  B10  1  0.500000  0.051433  0.067559  1
  B  B11  1  0.500000  0.948567  0.932441  1
  B  B12  1  0.500000  0.744492  0.425005  1
  B  B13  1  0.500000  0.255508  0.574995  1
  B  B14  1  0.500000  0.245611  0.075801  1
  B  B15  1  0.500000  0.754389  0.924199  1
  B  B16  1  0.500000  0.806668  0.274317  1
  B  B17  1  0.500000  0.193332  0.725683  1
  B  B18  1  0.500000  0.306240  0.225514  1
  B  B19  1  0.500000  0.693760  0.774486  1
  B  B20  1  0.500000  0.645225  0.186834  1
  B  B21  1  0.500000  0.354775  0.813166  1
  B  B22  1  0.500000  0.145804  0.313427  1
  B  B23  1  0.500000  0.854196  0.686573  1
  B  B24  1  0.500000  0.987179  0.221449  1
  B  B25  1  0.500000  0.012821  0.778551  1
  B  B26  1  0.500000  0.487063  0.279687  1
  B  B27  1  0.500000  0.512937  0.720313  1
  B  B28  1  0.500000  0.641220  0.039259  1
  B  B29  1  0.500000  0.358780  0.960741  1
  B  B30  1  0.500000  0.140391  0.461036  1
  B  B31  1  0.500000  0.859609  0.538964  1
  W  W32  1  0.000000  0.648376  0.316762  1
  W  W33  1  0.000000  0.351624  0.683238  1
  W  W34  1  0.000000  0.145463  0.179314  1
  W  W35  1  0.000000  0.854537  0.820686  1
