# generated using pymatgen
data_Er2SnP6Ir11Rh
_symmetry_space_group_name_H-M   'P 1'
_cell_length_a   9.68364913
_cell_length_b   9.70249114
_cell_length_c   3.97251312
_cell_angle_alpha   91.05538104
_cell_angle_beta   89.42390281
_cell_angle_gamma   119.28249036
_symmetry_Int_Tables_number   1
_chemical_formula_structural   Er2SnP6Ir11Rh
_chemical_formula_sum   'Er2 Sn1 P6 Ir11 Rh1'
_cell_volume   325.49107440
_cell_formula_units_Z   1
loop_
 _symmetry_equiv_pos_site_id
 _symmetry_equiv_pos_as_xyz
  1  'x, y, z'
loop_
 _atom_site_type_symbol
 _atom_site_label
 _atom_site_symmetry_multiplicity
 _atom_site_fract_x
 _atom_site_fract_y
 _atom_site_fract_z
 _atom_site_occupancy
  Er  Er0  1  0.330634  0.665601  0.764153  1
  Er  Er1  1  0.668760  0.333913  0.234128  1
  Sn  Sn2  1  0.001726  0.001242  0.517289  1
  P  P3  1  0.412414  0.284815  0.737755  1
  P  P4  1  0.716302  0.123299  0.727195  1
  P  P5  1  0.875886  0.592137  0.737334  1
  P  P6  1  0.589848  0.718341  0.255043  1
  P  P7  1  0.280838  0.877336  0.274489  1
  P  P8  1  0.122280  0.403460  0.263262  1
  Ir  Ir9  1  0.456577  0.069784  0.741553  1
  Ir  Ir10  1  0.929579  0.385726  0.738909  1
  Ir  Ir11  1  0.612158  0.540784  0.742086  1
  Ir  Ir12  1  0.540591  0.931003  0.250553  1
  Ir  Ir13  1  0.068965  0.609273  0.265566  1
  Ir  Ir14  1  0.391228  0.462848  0.258043  1
  Ir  Ir15  1  0.172863  0.292165  0.767820  1
  Ir  Ir16  1  0.707297  0.870752  0.762886  1
  Ir  Ir17  1  0.122589  0.830410  0.791027  1
  Ir  Ir18  1  0.832263  0.712834  0.232105  1
  Ir  Ir19  1  0.291737  0.132314  0.227184  1
  Rh  Rh20  1  0.875466  0.161964  0.211620  1
