# generated using pymatgen
data_TbSmDy(Co3P2)3
_symmetry_space_group_name_H-M   'P 1'
_cell_length_a   3.71274300
_cell_length_b   10.54143700
_cell_length_c   12.21011600
_cell_angle_alpha   90.00000000
_cell_angle_beta   90.00000000
_cell_angle_gamma   90.00000000
_symmetry_Int_Tables_number   1
_chemical_formula_structural   TbSmDy(Co3P2)3
_chemical_formula_sum   'Tb2 Sm2 Dy2 Co18 P12'
_cell_volume   477.87520290
_cell_formula_units_Z   2
loop_
 _symmetry_equiv_pos_site_id
 _symmetry_equiv_pos_as_xyz
  1  'x, y, z'
loop_
 _atom_site_type_symbol
 _atom_site_label
 _atom_site_symmetry_multiplicity
 _atom_site_fract_x
 _atom_site_fract_y
 _atom_site_fract_z
 _atom_site_occupancy
  Tb  Tb0  1  0.000000  0.682429  0.794523  1
  Tb  Tb1  1  0.000000  0.317571  0.794523  1
  Sm  Sm2  1  0.000000  0.500000  0.521761  1
  Sm  Sm3  1  0.500000  0.000000  0.477887  1
  Dy  Dy4  1  0.500000  0.817427  0.205601  1
  Dy  Dy5  1  0.500000  0.182573  0.205601  1
  Co  Co6  1  0.500000  0.500000  0.157667  1
  Co  Co7  1  0.000000  0.000000  0.842449  1
  Co  Co8  1  0.500000  0.500000  0.705225  1
  Co  Co9  1  0.000000  0.000000  0.294766  1
  Co  Co10  1  0.000000  0.500000  0.987071  1
  Co  Co11  1  0.500000  0.000000  0.013592  1
  Co  Co12  1  0.500000  0.333267  0.995421  1
  Co  Co13  1  0.500000  0.666733  0.995421  1
  Co  Co14  1  0.000000  0.166546  0.005248  1
  Co  Co15  1  0.000000  0.833454  0.005248  1
  Co  Co16  1  0.500000  0.297099  0.429495  1
  Co  Co17  1  0.500000  0.702901  0.429495  1
  Co  Co18  1  0.000000  0.202947  0.569885  1
  Co  Co19  1  0.000000  0.797053  0.569885  1
  Co  Co20  1  0.500000  0.879732  0.711054  1
  Co  Co21  1  0.500000  0.120268  0.711054  1
  Co  Co22  1  0.000000  0.620370  0.288593  1
  Co  Co23  1  0.000000  0.379630  0.288593  1
  P  P24  1  0.500000  0.500000  0.884124  1
  P  P25  1  0.000000  0.000000  0.116637  1
  P  P26  1  0.500000  0.500000  0.341279  1
  P  P27  1  0.000000  0.000000  0.658552  1
  P  P28  1  0.500000  0.308508  0.616138  1
  P  P29  1  0.500000  0.691492  0.616138  1
  P  P30  1  0.000000  0.191397  0.383242  1
  P  P31  1  0.000000  0.808603  0.383242  1
  P  P32  1  0.500000  0.847223  0.893962  1
  P  P33  1  0.500000  0.152777  0.893962  1
  P  P34  1  0.000000  0.653163  0.106334  1
  P  P35  1  0.000000  0.346837  0.106334  1
