# generated using pymatgen
data_Er4GaNi13
_symmetry_space_group_name_H-M   'P 1'
_cell_length_a   4.92578371
_cell_length_b   4.90456016
_cell_length_c   12.40787047
_cell_angle_alpha   78.69706597
_cell_angle_beta   78.55106981
_cell_angle_gamma   59.85675167
_symmetry_Int_Tables_number   1
_chemical_formula_structural   Er4GaNi13
_chemical_formula_sum   'Er4 Ga1 Ni13'
_cell_volume   252.41968285
_cell_formula_units_Z   1
loop_
 _symmetry_equiv_pos_site_id
 _symmetry_equiv_pos_as_xyz
  1  'x, y, z'
loop_
 _atom_site_type_symbol
 _atom_site_label
 _atom_site_symmetry_multiplicity
 _atom_site_fract_x
 _atom_site_fract_y
 _atom_site_fract_z
 _atom_site_occupancy
  Er  Er0  1  0.946717  0.947293  0.159275  1
  Er  Er1  1  0.053283  0.052707  0.840725  1
  Er  Er2  1  0.852152  0.852845  0.442852  1
  Er  Er3  1  0.147848  0.147155  0.557148  1
  Ga  Ga4  1  0.500000  0.000000  0.000000  1
  Ni  Ni5  1  0.500000  0.500000  0.500000  1
  Ni  Ni6  1  0.724759  0.717630  0.832852  1
  Ni  Ni7  1  0.275241  0.282370  0.167148  1
  Ni  Ni8  1  0.612052  0.608764  0.167131  1
  Ni  Ni9  1  0.387948  0.391236  0.832869  1
  Ni  Ni10  1  0.000000  0.500000  0.000000  1
  Ni  Ni11  1  0.500000  0.500000  0.000000  1
  Ni  Ni12  1  0.389151  0.389081  0.331305  1
  Ni  Ni13  1  0.890463  0.389081  0.331305  1
  Ni  Ni14  1  0.388337  0.891881  0.331443  1
  Ni  Ni15  1  0.610849  0.610919  0.668695  1
  Ni  Ni16  1  0.109537  0.610919  0.668695  1
  Ni  Ni17  1  0.611663  0.108119  0.668557  1
