# generated using pymatgen
data_Ho5(In2Rh)2
_symmetry_space_group_name_H-M   'P 1'
_cell_length_a   3.59732000
_cell_length_b   8.03543900
_cell_length_c   18.25521900
_cell_angle_alpha   90.00000000
_cell_angle_beta   90.00000000
_cell_angle_gamma   90.00000000
_symmetry_Int_Tables_number   1
_chemical_formula_structural   Ho5(In2Rh)2
_chemical_formula_sum   'Ho10 In8 Rh4'
_cell_volume   527.68618963
_cell_formula_units_Z   2
loop_
 _symmetry_equiv_pos_site_id
 _symmetry_equiv_pos_as_xyz
  1  'x, y, z'
loop_
 _atom_site_type_symbol
 _atom_site_label
 _atom_site_symmetry_multiplicity
 _atom_site_fract_x
 _atom_site_fract_y
 _atom_site_fract_z
 _atom_site_occupancy
  Ho  Ho0  1  0.000000  0.116418  0.412841  1
  Ho  Ho1  1  0.000000  0.883582  0.587159  1
  Ho  Ho2  1  0.000000  0.383582  0.912841  1
  Ho  Ho3  1  0.000000  0.616418  0.087159  1
  Ho  Ho4  1  0.000000  0.244018  0.220411  1
  Ho  Ho5  1  0.000000  0.755982  0.779589  1
  Ho  Ho6  1  0.000000  0.255982  0.720411  1
  Ho  Ho7  1  0.000000  0.744018  0.279589  1
  Ho  Ho8  1  0.000000  0.000000  0.000000  1
  Ho  Ho9  1  0.000000  0.500000  0.500000  1
  In  In10  1  0.500000  0.425994  0.350299  1
  In  In11  1  0.500000  0.574006  0.649701  1
  In  In12  1  0.500000  0.074006  0.850299  1
  In  In13  1  0.500000  0.925994  0.149701  1
  In  In14  1  0.500000  0.292304  0.067296  1
  In  In15  1  0.500000  0.707696  0.932704  1
  In  In16  1  0.500000  0.207696  0.567296  1
  In  In17  1  0.500000  0.792304  0.432704  1
  Rh  Rh18  1  0.500000  0.023964  0.304208  1
  Rh  Rh19  1  0.500000  0.976036  0.695792  1
  Rh  Rh20  1  0.500000  0.476036  0.804208  1
  Rh  Rh21  1  0.500000  0.523964  0.195792  1
