# generated using pymatgen
data_Np(SCl)2
_symmetry_space_group_name_H-M   'P 1'
_cell_length_a   7.13098615
_cell_length_b   7.13098597
_cell_length_c   7.85972908
_cell_angle_alpha   78.89070958
_cell_angle_beta   78.89070687
_cell_angle_gamma   121.54075809
_symmetry_Int_Tables_number   1
_chemical_formula_structural   Np(SCl)2
_chemical_formula_sum   'Np2 S4 Cl4'
_cell_volume   312.99093167
_cell_formula_units_Z   2
loop_
 _symmetry_equiv_pos_site_id
 _symmetry_equiv_pos_as_xyz
  1  'x, y, z'
loop_
 _atom_site_type_symbol
 _atom_site_label
 _atom_site_symmetry_multiplicity
 _atom_site_fract_x
 _atom_site_fract_y
 _atom_site_fract_z
 _atom_site_occupancy
  Np  Np0  1  0.151553  0.848447  0.000000  1
  Np  Np1  1  0.848447  0.151553  0.000000  1
  S  S2  1  0.865185  0.865185  0.282174  1
  S  S3  1  0.134815  0.134815  0.717826  1
  S  S4  1  0.313795  0.313795  0.870657  1
  S  S5  1  0.686205  0.686205  0.129343  1
  Cl  Cl6  1  0.420269  0.014191  0.215736  1
  Cl  Cl7  1  0.985809  0.579731  0.784264  1
  Cl  Cl8  1  0.579731  0.985809  0.784264  1
  Cl  Cl9  1  0.014191  0.420269  0.215736  1
