# generated using pymatgen
data_Y6Lu4In5Pb
_symmetry_space_group_name_H-M   'P 1'
_cell_length_a   9.00151167
_cell_length_b   9.00751268
_cell_length_c   6.54494100
_cell_angle_alpha   90.00000000
_cell_angle_beta   90.00000000
_cell_angle_gamma   120.02205268
_symmetry_Int_Tables_number   1
_chemical_formula_structural   Y6Lu4In5Pb
_chemical_formula_sum   'Y6 Lu4 In5 Pb1'
_cell_volume   459.47316045
_cell_formula_units_Z   1
loop_
 _symmetry_equiv_pos_site_id
 _symmetry_equiv_pos_as_xyz
  1  'x, y, z'
loop_
 _atom_site_type_symbol
 _atom_site_label
 _atom_site_symmetry_multiplicity
 _atom_site_fract_x
 _atom_site_fract_y
 _atom_site_fract_z
 _atom_site_occupancy
  Y  Y0  1  0.761277  0.759628  0.750000  1
  Y  Y1  1  0.238723  0.998352  0.750000  1
  Y  Y2  1  0.000000  0.239719  0.750000  1
  Y  Y3  1  0.240728  0.240000  0.250000  1
  Y  Y4  1  0.759272  0.999273  0.250000  1
  Y  Y5  1  0.000000  0.762056  0.250000  1
  Lu  Lu6  1  0.666037  0.333586  0.998062  1
  Lu  Lu7  1  0.333963  0.667551  0.998062  1
  Lu  Lu8  1  0.333963  0.667551  0.501938  1
  Lu  Lu9  1  0.666037  0.333586  0.501938  1
  In  In10  1  0.400792  0.400814  0.750000  1
  In  In11  1  0.599208  0.000022  0.750000  1
  In  In12  1  0.000000  0.600719  0.750000  1
  In  In13  1  0.597835  0.598144  0.250000  1
  In  In14  1  0.402165  0.000309  0.250000  1
  Pb  Pb15  1  0.000000  0.398690  0.250000  1
