# generated using pymatgen
data_Sr5Bi3F
_symmetry_space_group_name_H-M   'P 1'
_cell_length_a   9.90700842
_cell_length_b   9.90701975
_cell_length_c   9.90425568
_cell_angle_alpha   124.72053312
_cell_angle_beta   124.72054328
_cell_angle_gamma   82.02004978
_symmetry_Int_Tables_number   1
_chemical_formula_structural   Sr5Bi3F
_chemical_formula_sum   'Sr10 Bi6 F2'
_cell_volume   631.46523626
_cell_formula_units_Z   2
loop_
 _symmetry_equiv_pos_site_id
 _symmetry_equiv_pos_as_xyz
  1  'x, y, z'
loop_
 _atom_site_type_symbol
 _atom_site_label
 _atom_site_symmetry_multiplicity
 _atom_site_fract_x
 _atom_site_fract_y
 _atom_site_fract_z
 _atom_site_occupancy
  Sr  Sr0  1  0.500000  0.500000  0.000000  1
  Sr  Sr1  1  0.000000  0.000000  0.000000  1
  Sr  Sr2  1  0.506869  0.006867  0.798138  1
  Sr  Sr3  1  0.208731  0.708731  0.201864  1
  Sr  Sr4  1  0.007552  0.209552  0.499993  1
  Sr  Sr5  1  0.709551  0.507555  0.499996  1
  Sr  Sr6  1  0.493131  0.993133  0.201862  1
  Sr  Sr7  1  0.791269  0.291269  0.798136  1
  Sr  Sr8  1  0.992448  0.790448  0.500007  1
  Sr  Sr9  1  0.290449  0.492445  0.500004  1
  Bi  Bi10  1  0.250002  0.249998  0.000000  1
  Bi  Bi11  1  0.749998  0.750002  0.000000  1
  Bi  Bi12  1  0.845335  0.345335  0.190668  1
  Bi  Bi13  1  0.154665  0.654665  0.809333  1
  Bi  Bi14  1  0.346009  0.153990  0.500001  1
  Bi  Bi15  1  0.653991  0.846010  0.499999  1
  F  F16  1  0.250030  0.750027  0.500008  1
  F  F17  1  0.749970  0.249973  0.499992  1
