# generated using pymatgen
data_Dy3ErTmPb3
_symmetry_space_group_name_H-M   'P 1'
_cell_length_a   6.57468200
_cell_length_b   9.03720222
_cell_length_c   9.03861901
_cell_angle_alpha   119.99481514
_cell_angle_beta   89.99982410
_cell_angle_gamma   90.00035694
_symmetry_Int_Tables_number   1
_chemical_formula_structural   Dy3ErTmPb3
_chemical_formula_sum   'Dy6 Er2 Tm2 Pb6'
_cell_volume   465.11907667
_cell_formula_units_Z   2
loop_
 _symmetry_equiv_pos_site_id
 _symmetry_equiv_pos_as_xyz
  1  'x, y, z'
loop_
 _atom_site_type_symbol
 _atom_site_label
 _atom_site_symmetry_multiplicity
 _atom_site_fract_x
 _atom_site_fract_y
 _atom_site_fract_z
 _atom_site_occupancy
  Dy  Dy0  1  0.750040  0.238638  0.000000  1
  Dy  Dy1  1  0.750041  0.761300  0.761355  1
  Dy  Dy2  1  0.750041  0.999945  0.238645  1
  Dy  Dy3  1  0.249964  0.761359  0.000000  1
  Dy  Dy4  1  0.249956  0.238700  0.238645  1
  Dy  Dy5  1  0.249956  0.000055  0.761355  1
  Er  Er6  1  0.499992  0.333322  0.666700  1
  Er  Er7  1  0.499992  0.666621  0.333300  1
  Tm  Tm8  1  0.000003  0.666660  0.333270  1
  Tm  Tm9  1  0.000003  0.333390  0.666730  1
  Pb  Pb10  1  0.750100  0.605222  0.000000  1
  Pb  Pb11  1  0.750110  0.394737  0.394685  1
  Pb  Pb12  1  0.750110  0.000052  0.605315  1
  Pb  Pb13  1  0.249891  0.394783  0.000000  1
  Pb  Pb14  1  0.249901  0.605265  0.605313  1
  Pb  Pb15  1  0.249901  0.999952  0.394687  1
