# generated using pymatgen
data_Hf2ThFeCo8
_symmetry_space_group_name_H-M   'P 1'
_cell_length_a   8.38635734
_cell_length_b   8.38635722
_cell_length_c   8.38635779
_cell_angle_alpha   34.20833488
_cell_angle_beta   34.20833767
_cell_angle_gamma   34.20833012
_symmetry_Int_Tables_number   1
_chemical_formula_structural   Hf2ThFeCo8
_chemical_formula_sum   'Hf2 Th1 Fe1 Co8'
_cell_volume   166.23385432
_cell_formula_units_Z   1
loop_
 _symmetry_equiv_pos_site_id
 _symmetry_equiv_pos_as_xyz
  1  'x, y, z'
loop_
 _atom_site_type_symbol
 _atom_site_label
 _atom_site_symmetry_multiplicity
 _atom_site_fract_x
 _atom_site_fract_y
 _atom_site_fract_z
 _atom_site_occupancy
  Hf  Hf0  1  0.858691  0.858691  0.858691  1
  Hf  Hf1  1  0.141309  0.141309  0.141309  1
  Th  Th2  1  0.000000  0.000000  0.000000  1
  Fe  Fe3  1  0.500000  0.500000  0.500000  1
  Co  Co4  1  0.410960  0.919349  0.410960  1
  Co  Co5  1  0.410960  0.410960  0.919349  1
  Co  Co6  1  0.919349  0.410960  0.410960  1
  Co  Co7  1  0.589040  0.080651  0.589040  1
  Co  Co8  1  0.589040  0.589040  0.080651  1
  Co  Co9  1  0.080651  0.589040  0.589040  1
  Co  Co10  1  0.665739  0.665739  0.665739  1
  Co  Co11  1  0.334261  0.334261  0.334261  1
