# generated using pymatgen
data_CaSm3Y4(B6Ru)4
_symmetry_space_group_name_H-M   'P 1'
_cell_length_a   3.68696200
_cell_length_b   9.19706953
_cell_length_c   11.60269926
_cell_angle_alpha   89.90685686
_cell_angle_beta   90.00000000
_cell_angle_gamma   90.00000000
_symmetry_Int_Tables_number   1
_chemical_formula_structural   CaSm3Y4(B6Ru)4
_chemical_formula_sum   'Ca1 Sm3 Y4 B24 Ru4'
_cell_volume   393.43826214
_cell_formula_units_Z   1
loop_
 _symmetry_equiv_pos_site_id
 _symmetry_equiv_pos_as_xyz
  1  'x, y, z'
loop_
 _atom_site_type_symbol
 _atom_site_label
 _atom_site_symmetry_multiplicity
 _atom_site_fract_x
 _atom_site_fract_y
 _atom_site_fract_z
 _atom_site_occupancy
  Ca  Ca0  1  0.000000  0.322765  0.413987  1
  Sm  Sm1  1  0.000000  0.675266  0.584918  1
  Sm  Sm2  1  0.000000  0.823188  0.086667  1
  Sm  Sm3  1  0.000000  0.177078  0.914278  1
  Y  Y4  1  0.000000  0.944298  0.371223  1
  Y  Y5  1  0.000000  0.058301  0.627718  1
  Y  Y6  1  0.000000  0.442856  0.130221  1
  Y  Y7  1  0.000000  0.555964  0.871733  1
  B  B8  1  0.500000  0.554249  0.431433  1
  B  B9  1  0.500000  0.444730  0.568065  1
  B  B10  1  0.500000  0.054776  0.068402  1
  B  B11  1  0.500000  0.944705  0.930953  1
  B  B12  1  0.500000  0.748207  0.417883  1
  B  B13  1  0.500000  0.252380  0.581097  1
  B  B14  1  0.500000  0.247992  0.082112  1
  B  B15  1  0.500000  0.751378  0.918288  1
  B  B16  1  0.500000  0.790297  0.266733  1
  B  B17  1  0.500000  0.210796  0.733009  1
  B  B18  1  0.500000  0.289669  0.234022  1
  B  B19  1  0.500000  0.710229  0.766584  1
  B  B20  1  0.500000  0.631070  0.186678  1
  B  B21  1  0.500000  0.368781  0.814557  1
  B  B22  1  0.500000  0.131576  0.314210  1
  B  B23  1  0.500000  0.869109  0.685274  1
  B  B24  1  0.500000  0.985279  0.212725  1
  B  B25  1  0.500000  0.015130  0.786479  1
  B  B26  1  0.500000  0.484134  0.287910  1
  B  B27  1  0.500000  0.514655  0.712876  1
  B  B28  1  0.500000  0.605103  0.029425  1
  B  B29  1  0.500000  0.394663  0.971498  1
  B  B30  1  0.500000  0.104576  0.470993  1
  B  B31  1  0.500000  0.896399  0.528563  1
  Ru  Ru32  1  0.000000  0.639680  0.320237  1
  Ru  Ru33  1  0.000000  0.361466  0.680448  1
  Ru  Ru34  1  0.000000  0.137811  0.178776  1
  Ru  Ru35  1  0.000000  0.861445  0.820029  1
