# generated using pymatgen
data_TbDy2Al9Si3Os4
_symmetry_space_group_name_H-M   'P 1'
_cell_length_a   8.70695320
_cell_length_b   8.68013042
_cell_length_c   9.56843000
_cell_angle_alpha   90.00000000
_cell_angle_beta   90.00000000
_cell_angle_gamma   120.08751550
_symmetry_Int_Tables_number   1
_chemical_formula_structural   TbDy2Al9Si3Os4
_chemical_formula_sum   'Tb2 Dy4 Al18 Si6 Os8'
_cell_volume   625.72010851
_cell_formula_units_Z   2
loop_
 _symmetry_equiv_pos_site_id
 _symmetry_equiv_pos_as_xyz
  1  'x, y, z'
loop_
 _atom_site_type_symbol
 _atom_site_label
 _atom_site_symmetry_multiplicity
 _atom_site_fract_x
 _atom_site_fract_y
 _atom_site_fract_z
 _atom_site_occupancy
  Tb  Tb0  1  0.197285  0.808524  0.250000  1
  Tb  Tb1  1  0.802715  0.191476  0.750000  1
  Dy  Dy2  1  0.193545  0.386991  0.250000  1
  Dy  Dy3  1  0.806455  0.613009  0.750000  1
  Dy  Dy4  1  0.609220  0.807067  0.250000  1
  Dy  Dy5  1  0.390780  0.192933  0.750000  1
  Al  Al6  1  0.165091  0.330099  0.577461  1
  Al  Al7  1  0.834909  0.669901  0.422539  1
  Al  Al8  1  0.670372  0.834307  0.575579  1
  Al  Al9  1  0.834909  0.669901  0.077461  1
  Al  Al10  1  0.329628  0.165693  0.424421  1
  Al  Al11  1  0.165091  0.330099  0.922539  1
  Al  Al12  1  0.164139  0.834623  0.576102  1
  Al  Al13  1  0.329628  0.165693  0.075579  1
  Al  Al14  1  0.835861  0.165377  0.423898  1
  Al  Al15  1  0.670372  0.834307  0.924421  1
  Al  Al16  1  0.835861  0.165377  0.076102  1
  Al  Al17  1  0.164139  0.834623  0.923898  1
  Al  Al18  1  0.872044  0.432677  0.250000  1
  Al  Al19  1  0.127956  0.567323  0.750000  1
  Al  Al20  1  0.560430  0.432725  0.250000  1
  Al  Al21  1  0.439570  0.567275  0.750000  1
  Al  Al22  1  0.998558  0.998883  0.250000  1
  Al  Al23  1  0.001442  0.001117  0.750000  1
  Si  Si24  1  0.331838  0.663889  0.038130  1
  Si  Si25  1  0.668162  0.336111  0.961870  1
  Si  Si26  1  0.668162  0.336111  0.538130  1
  Si  Si27  1  0.331838  0.663889  0.461870  1
  Si  Si28  1  0.563952  0.127481  0.250000  1
  Si  Si29  1  0.436048  0.872519  0.750000  1
  Os  Os30  1  0.500000  0.000000  0.000000  1
  Os  Os31  1  0.000000  0.500000  0.000000  1
  Os  Os32  1  0.500000  0.000000  0.500000  1
  Os  Os33  1  0.500000  0.500000  0.000000  1
  Os  Os34  1  0.000000  0.500000  0.500000  1
  Os  Os35  1  0.500000  0.500000  0.500000  1
  Os  Os36  1  0.000000  0.000000  0.000000  1
  Os  Os37  1  0.000000  0.000000  0.500000  1
