# generated using pymatgen
data_Cs2Hg(ClF)2
_symmetry_space_group_name_H-M   'P 1'
_cell_length_a   8.86918985
_cell_length_b   8.86918951
_cell_length_c   7.08935500
_cell_angle_alpha   90.00000000
_cell_angle_beta   90.00000000
_cell_angle_gamma   132.87818185
_symmetry_Int_Tables_number   1
_chemical_formula_structural   Cs2Hg(ClF)2
_chemical_formula_sum   'Cs4 Hg2 Cl4 F4'
_cell_volume   408.65921244
_cell_formula_units_Z   2
loop_
 _symmetry_equiv_pos_site_id
 _symmetry_equiv_pos_as_xyz
  1  'x, y, z'
loop_
 _atom_site_type_symbol
 _atom_site_label
 _atom_site_symmetry_multiplicity
 _atom_site_fract_x
 _atom_site_fract_y
 _atom_site_fract_z
 _atom_site_occupancy
  Cs  Cs0  1  0.122329  0.877671  0.500000  1
  Cs  Cs1  1  0.622329  0.377671  0.000000  1
  Cs  Cs2  1  0.877671  0.122329  0.500000  1
  Cs  Cs3  1  0.377671  0.622329  0.000000  1
  Hg  Hg4  1  0.000000  0.000000  0.000000  1
  Hg  Hg5  1  0.500000  0.500000  0.500000  1
  Cl  Cl6  1  0.154582  0.845418  0.000000  1
  Cl  Cl7  1  0.845418  0.154582  0.000000  1
  Cl  Cl8  1  0.654582  0.345418  0.500000  1
  Cl  Cl9  1  0.345418  0.654582  0.500000  1
  F  F10  1  0.250546  0.250546  0.250407  1
  F  F11  1  0.749454  0.749454  0.749593  1
  F  F12  1  0.750546  0.750546  0.249593  1
  F  F13  1  0.249454  0.249454  0.750407  1
