# generated using pymatgen
data_Ho6Cr2Co(P4Rh5)3
_symmetry_space_group_name_H-M   'P 1'
_cell_length_a   3.87487800
_cell_length_b   11.14549300
_cell_length_c   12.75594000
_cell_angle_alpha   90.00000000
_cell_angle_beta   90.00000000
_cell_angle_gamma   90.00000000
_symmetry_Int_Tables_number   1
_chemical_formula_structural   Ho6Cr2Co(P4Rh5)3
_chemical_formula_sum   'Ho6 Cr2 Co1 P12 Rh15'
_cell_volume   550.89621003
_cell_formula_units_Z   1
loop_
 _symmetry_equiv_pos_site_id
 _symmetry_equiv_pos_as_xyz
  1  'x, y, z'
loop_
 _atom_site_type_symbol
 _atom_site_label
 _atom_site_symmetry_multiplicity
 _atom_site_fract_x
 _atom_site_fract_y
 _atom_site_fract_z
 _atom_site_occupancy
  Ho  Ho0  1  0.000000  0.500000  0.520047  1
  Ho  Ho1  1  0.500000  0.000000  0.480060  1
  Ho  Ho2  1  0.500000  0.819293  0.202142  1
  Ho  Ho3  1  0.500000  0.180707  0.202142  1
  Ho  Ho4  1  0.000000  0.685798  0.797753  1
  Ho  Ho5  1  0.000000  0.314202  0.797753  1
  Cr  Cr6  1  0.500000  0.500000  0.161702  1
  Cr  Cr7  1  0.000000  0.000000  0.838259  1
  Co  Co8  1  0.500000  0.000000  0.014291  1
  P  P9  1  0.500000  0.314529  0.618597  1
  P  P10  1  0.500000  0.685471  0.618597  1
  P  P11  1  0.000000  0.184853  0.381397  1
  P  P12  1  0.000000  0.815147  0.381397  1
  P  P13  1  0.500000  0.500000  0.878898  1
  P  P14  1  0.000000  0.000000  0.118136  1
  P  P15  1  0.500000  0.854594  0.892991  1
  P  P16  1  0.500000  0.145406  0.892991  1
  P  P17  1  0.000000  0.654175  0.109530  1
  P  P18  1  0.000000  0.345825  0.109530  1
  P  P19  1  0.500000  0.500000  0.347566  1
  P  P20  1  0.000000  0.000000  0.652666  1
  Rh  Rh21  1  0.000000  0.500000  0.984147  1
  Rh  Rh22  1  0.500000  0.293484  0.430754  1
  Rh  Rh23  1  0.500000  0.706516  0.430754  1
  Rh  Rh24  1  0.000000  0.205756  0.569402  1
  Rh  Rh25  1  0.000000  0.794244  0.569402  1
  Rh  Rh26  1  0.500000  0.874949  0.711619  1
  Rh  Rh27  1  0.500000  0.125051  0.711619  1
  Rh  Rh28  1  0.000000  0.625486  0.288483  1
  Rh  Rh29  1  0.000000  0.374514  0.288483  1
  Rh  Rh30  1  0.500000  0.330393  0.992294  1
  Rh  Rh31  1  0.500000  0.669607  0.992294  1
  Rh  Rh32  1  0.000000  0.162434  0.007714  1
  Rh  Rh33  1  0.000000  0.837566  0.007714  1
  Rh  Rh34  1  0.500000  0.500000  0.701193  1
  Rh  Rh35  1  0.000000  0.000000  0.297681  1
