# generated using pymatgen
data_In3SnBiB4Ir9
_symmetry_space_group_name_H-M   'P 1'
_cell_length_a   5.64995000
_cell_length_b   5.64995030
_cell_length_c   10.45359300
_cell_angle_alpha   90.00000000
_cell_angle_beta   90.00000000
_cell_angle_gamma   120.00000995
_symmetry_Int_Tables_number   1
_chemical_formula_structural   In3SnBiB4Ir9
_chemical_formula_sum   'In3 Sn1 Bi1 B4 Ir9'
_cell_volume   288.99172513
_cell_formula_units_Z   1
loop_
 _symmetry_equiv_pos_site_id
 _symmetry_equiv_pos_as_xyz
  1  'x, y, z'
loop_
 _atom_site_type_symbol
 _atom_site_label
 _atom_site_symmetry_multiplicity
 _atom_site_fract_x
 _atom_site_fract_y
 _atom_site_fract_z
 _atom_site_occupancy
  In  In0  1  0.000000  0.000000  0.002017  1
  In  In1  1  0.666667  0.333333  0.500234  1
  In  In2  1  0.333333  0.666667  0.500234  1
  Sn  Sn3  1  0.000000  0.000000  0.663984  1
  Bi  Bi4  1  0.000000  0.000000  0.356920  1
  B  B5  1  0.666667  0.333333  0.143520  1
  B  B6  1  0.333333  0.666667  0.852644  1
  B  B7  1  0.666667  0.333333  0.852644  1
  B  B8  1  0.333333  0.666667  0.143520  1
  Ir  Ir9  1  0.000000  0.467243  0.273459  1
  Ir  Ir10  1  0.462616  0.000000  0.723004  1
  Ir  Ir11  1  0.467243  0.000000  0.273459  1
  Ir  Ir12  1  0.000000  0.476900  0.998298  1
  Ir  Ir13  1  0.537384  0.537384  0.723004  1
  Ir  Ir14  1  0.000000  0.462616  0.723004  1
  Ir  Ir15  1  0.523100  0.523100  0.998298  1
  Ir  Ir16  1  0.476900  0.000000  0.998298  1
  Ir  Ir17  1  0.532757  0.532757  0.273459  1
