# generated using pymatgen
data_Zr10TlCd2Bi4Pb
_symmetry_space_group_name_H-M   'P 1'
_cell_length_a   8.93132027
_cell_length_b   8.95862383
_cell_length_c   6.01180400
_cell_angle_alpha   90.00000000
_cell_angle_beta   90.00000000
_cell_angle_gamma   119.78534386
_symmetry_Int_Tables_number   1
_chemical_formula_structural   Zr10TlCd2Bi4Pb
_chemical_formula_sum   'Zr10 Tl1 Cd2 Bi4 Pb1'
_cell_volume   417.47236994
_cell_formula_units_Z   1
loop_
 _symmetry_equiv_pos_site_id
 _symmetry_equiv_pos_as_xyz
  1  'x, y, z'
loop_
 _atom_site_type_symbol
 _atom_site_label
 _atom_site_symmetry_multiplicity
 _atom_site_fract_x
 _atom_site_fract_y
 _atom_site_fract_z
 _atom_site_occupancy
  Zr  Zr0  1  0.666765  0.333161  0.001932  1
  Zr  Zr1  1  0.332894  0.666673  0.001947  1
  Zr  Zr2  1  0.332894  0.666673  0.498053  1
  Zr  Zr3  1  0.666765  0.333161  0.498068  1
  Zr  Zr4  1  0.719612  0.719712  0.750000  1
  Zr  Zr5  1  0.280956  0.000257  0.750000  1
  Zr  Zr6  1  0.000050  0.280377  0.750000  1
  Zr  Zr7  1  0.281551  0.280284  0.250000  1
  Zr  Zr8  1  0.716410  0.001075  0.250000  1
  Zr  Zr9  1  0.002318  0.719385  0.250000  1
  Tl  Tl10  1  0.377348  0.999990  0.250000  1
  Cd  Cd11  1  0.001318  0.000546  0.002663  1
  Cd  Cd12  1  0.001318  0.000546  0.497337  1
  Bi  Bi13  1  0.381009  0.380291  0.750000  1
  Bi  Bi14  1  0.618109  0.000564  0.750000  1
  Bi  Bi15  1  0.001244  0.619381  0.750000  1
  Bi  Bi16  1  0.619518  0.619617  0.250000  1
  Pb  Pb17  1  0.999921  0.378307  0.250000  1
