# generated using pymatgen
data_HoLu2Fe7Co2
_symmetry_space_group_name_H-M   'P 1'
_cell_length_a   8.57328285
_cell_length_b   8.57328272
_cell_length_c   8.57328427
_cell_angle_alpha   34.35040827
_cell_angle_beta   34.35041068
_cell_angle_gamma   34.35040906
_symmetry_Int_Tables_number   1
_chemical_formula_structural   HoLu2Fe7Co2
_chemical_formula_sum   'Ho1 Lu2 Fe7 Co2'
_cell_volume   178.93865868
_cell_formula_units_Z   1
loop_
 _symmetry_equiv_pos_site_id
 _symmetry_equiv_pos_as_xyz
  1  'x, y, z'
loop_
 _atom_site_type_symbol
 _atom_site_label
 _atom_site_symmetry_multiplicity
 _atom_site_fract_x
 _atom_site_fract_y
 _atom_site_fract_z
 _atom_site_occupancy
  Ho  Ho0  1  0.000066  0.000066  0.000066  1
  Lu  Lu1  1  0.142135  0.142135  0.142135  1
  Lu  Lu2  1  0.857741  0.857741  0.857741  1
  Fe  Fe3  1  0.667231  0.667231  0.667231  1
  Fe  Fe4  1  0.081629  0.583007  0.583007  1
  Fe  Fe5  1  0.583007  0.583007  0.081629  1
  Fe  Fe6  1  0.583007  0.081629  0.583007  1
  Fe  Fe7  1  0.417250  0.918070  0.417250  1
  Fe  Fe8  1  0.918070  0.417250  0.417250  1
  Fe  Fe9  1  0.417250  0.417250  0.918070  1
  Co  Co10  1  0.499993  0.499993  0.499993  1
  Co  Co11  1  0.332619  0.332619  0.332619  1
