# generated using pymatgen
data_La2Cd3HgPt2
_symmetry_space_group_name_H-M   'P 1'
_cell_length_a   5.53009960
_cell_length_b   5.53010028
_cell_length_c   8.71246768
_cell_angle_alpha   90.02699110
_cell_angle_beta   89.97300767
_cell_angle_gamma   133.99816016
_symmetry_Int_Tables_number   1
_chemical_formula_structural   La2Cd3HgPt2
_chemical_formula_sum   'La2 Cd3 Hg1 Pt2'
_cell_volume   191.67021944
_cell_formula_units_Z   1
loop_
 _symmetry_equiv_pos_site_id
 _symmetry_equiv_pos_as_xyz
  1  'x, y, z'
loop_
 _atom_site_type_symbol
 _atom_site_label
 _atom_site_symmetry_multiplicity
 _atom_site_fract_x
 _atom_site_fract_y
 _atom_site_fract_z
 _atom_site_occupancy
  La  La0  1  0.067695  0.932305  0.252272  1
  La  La1  1  0.933897  0.066103  0.746604  1
  Cd  Cd2  1  0.353382  0.646618  0.450697  1
  Cd  Cd3  1  0.644580  0.355420  0.953076  1
  Cd  Cd4  1  0.357098  0.642902  0.047701  1
  Hg  Hg5  1  0.638160  0.361840  0.548124  1
  Pt  Pt6  1  0.225562  0.774438  0.753317  1
  Pt  Pt7  1  0.779626  0.220374  0.248208  1
