# generated using pymatgen
data_Gd4VFe3B16
_symmetry_space_group_name_H-M   'P 1'
_cell_length_a   3.41914800
_cell_length_b   5.94919382
_cell_length_c   11.50943050
_cell_angle_alpha   89.86966974
_cell_angle_beta   90.00000000
_cell_angle_gamma   90.00000000
_symmetry_Int_Tables_number   1
_chemical_formula_structural   Gd4VFe3B16
_chemical_formula_sum   'Gd4 V1 Fe3 B16'
_cell_volume   234.11472446
_cell_formula_units_Z   1
loop_
 _symmetry_equiv_pos_site_id
 _symmetry_equiv_pos_as_xyz
  1  'x, y, z'
loop_
 _atom_site_type_symbol
 _atom_site_label
 _atom_site_symmetry_multiplicity
 _atom_site_fract_x
 _atom_site_fract_y
 _atom_site_fract_z
 _atom_site_occupancy
  Gd  Gd0  1  0.000000  0.623080  0.346551  1
  Gd  Gd1  1  0.000000  0.374620  0.653847  1
  Gd  Gd2  1  0.000000  0.126576  0.148483  1
  Gd  Gd3  1  0.000000  0.874038  0.852279  1
  V  V4  1  0.000000  0.873600  0.582548  1
  Fe  Fe5  1  0.000000  0.634098  0.088686  1
  Fe  Fe6  1  0.000000  0.368168  0.914444  1
  Fe  Fe7  1  0.000000  0.123644  0.416404  1
  B  B8  1  0.500000  0.780403  0.182736  1
  B  B9  1  0.500000  0.221134  0.817772  1
  B  B10  1  0.500000  0.279038  0.316438  1
  B  B11  1  0.500000  0.715902  0.686236  1
  B  B12  1  0.500000  0.859880  0.032445  1
  B  B13  1  0.500000  0.140901  0.968034  1
  B  B14  1  0.500000  0.360642  0.465752  1
  B  B15  1  0.500000  0.635003  0.530558  1
  B  B16  1  0.500000  0.890112  0.450734  1
  B  B17  1  0.500000  0.116163  0.543788  1
  B  B18  1  0.500000  0.388854  0.046044  1
  B  B19  1  0.500000  0.611375  0.955068  1
  B  B20  1  0.500000  0.977264  0.308423  1
  B  B21  1  0.500000  0.027050  0.691804  1
  B  B22  1  0.500000  0.474913  0.189277  1
  B  B23  1  0.500000  0.523541  0.811648  1
