# generated using pymatgen
data_Ca2NpPdN4
_symmetry_space_group_name_H-M   'P 1'
_cell_length_a   6.46836315
_cell_length_b   8.97275640
_cell_length_c   6.21857173
_cell_angle_alpha   28.29581421
_cell_angle_beta   58.66210031
_cell_angle_gamma   43.87206924
_symmetry_Int_Tables_number   1
_chemical_formula_structural   Ca2NpPdN4
_chemical_formula_sum   'Ca2 Np1 Pd1 N4'
_cell_volume   111.11321404
_cell_formula_units_Z   1
loop_
 _symmetry_equiv_pos_site_id
 _symmetry_equiv_pos_as_xyz
  1  'x, y, z'
loop_
 _atom_site_type_symbol
 _atom_site_label
 _atom_site_symmetry_multiplicity
 _atom_site_fract_x
 _atom_site_fract_y
 _atom_site_fract_z
 _atom_site_occupancy
  Ca  Ca0  1  0.250000  0.500000  0.000000  1
  Ca  Ca1  1  0.750000  0.500000  0.000000  1
  Np  Np2  1  0.000000  0.000000  0.000000  1
  Pd  Pd3  1  0.500000  0.000000  0.000000  1
  N  N4  1  0.500000  0.500000  0.500000  1
  N  N5  1  0.182751  0.000000  0.634497  1
  N  N6  1  0.000000  0.500000  0.500000  1
  N  N7  1  0.817249  0.000000  0.365503  1
