# generated using pymatgen
data_LiB15
_symmetry_space_group_name_H-M   'P 1'
_cell_length_a   5.84859964
_cell_length_b   7.20734701
_cell_length_c   7.20734517
_cell_angle_alpha   90.29595249
_cell_angle_beta   113.93742585
_cell_angle_gamma   113.93742681
_symmetry_Int_Tables_number   1
_chemical_formula_structural   LiB15
_chemical_formula_sum   'Li2 B30'
_cell_volume   248.49850171
_cell_formula_units_Z   2
loop_
 _symmetry_equiv_pos_site_id
 _symmetry_equiv_pos_as_xyz
  1  'x, y, z'
loop_
 _atom_site_type_symbol
 _atom_site_label
 _atom_site_symmetry_multiplicity
 _atom_site_fract_x
 _atom_site_fract_y
 _atom_site_fract_z
 _atom_site_occupancy
  Li  Li0  1  0.329149  0.579149  0.079148  1
  Li  Li1  1  0.670851  0.420851  0.920851  1
  B  B2  1  0.006375  0.215475  0.117337  1
  B  B3  1  0.326437  0.215475  0.117337  1
  B  B4  1  0.283507  0.954070  0.117800  1
  B  B5  1  0.788363  0.954070  0.117800  1
  B  B6  1  0.952326  0.787141  0.117512  1
  B  B7  1  0.600949  0.952728  0.249169  1
  B  B8  1  0.154706  0.053738  0.255675  1
  B  B9  1  0.673562  0.382662  0.284524  1
  B  B10  1  0.993625  0.382662  0.284524  1
  B  B11  1  0.952326  0.617512  0.287142  1
  B  B12  1  0.845294  0.244326  0.446263  1
  B  B13  1  0.283507  0.617800  0.454070  1
  B  B14  1  0.788363  0.617800  0.454070  1
  B  B15  1  0.600949  0.749170  0.452727  1
  B  B16  1  0.747258  0.997258  0.497257  1
  B  B17  1  0.252743  0.002743  0.502744  1
  B  B18  1  0.399051  0.250830  0.547273  1
  B  B19  1  0.211637  0.382200  0.545929  1
  B  B20  1  0.716493  0.382200  0.545929  1
  B  B21  1  0.154706  0.755674  0.553737  1
  B  B22  1  0.047675  0.382489  0.712859  1
  B  B23  1  0.006374  0.617338  0.715475  1
  B  B24  1  0.326438  0.617338  0.715475  1
  B  B25  1  0.845295  0.946263  0.744326  1
  B  B26  1  0.399051  0.047272  0.750831  1
  B  B27  1  0.047675  0.212859  0.882489  1
  B  B28  1  0.211637  0.045930  0.882200  1
  B  B29  1  0.716493  0.045930  0.882200  1
  B  B30  1  0.673563  0.784525  0.882662  1
  B  B31  1  0.993624  0.784525  0.882662  1
