# generated using pymatgen
data_CeDy5Tm2(Si3Rh)4
_symmetry_space_group_name_H-M   'P 1'
_cell_length_a   8.17525100
_cell_length_b   8.17525085
_cell_length_c   7.91406300
_cell_angle_alpha   90.00000000
_cell_angle_beta   90.00000000
_cell_angle_gamma   119.99865319
_symmetry_Int_Tables_number   1
_chemical_formula_structural   CeDy5Tm2(Si3Rh)4
_chemical_formula_sum   'Ce1 Dy5 Tm2 Si12 Rh4'
_cell_volume   458.07670996
_cell_formula_units_Z   1
loop_
 _symmetry_equiv_pos_site_id
 _symmetry_equiv_pos_as_xyz
  1  'x, y, z'
loop_
 _atom_site_type_symbol
 _atom_site_label
 _atom_site_symmetry_multiplicity
 _atom_site_fract_x
 _atom_site_fract_y
 _atom_site_fract_z
 _atom_site_occupancy
  Ce  Ce0  1  0.999968  0.000032  0.250000  1
  Dy  Dy1  1  0.999976  0.000024  0.750000  1
  Dy  Dy2  1  0.492352  0.507648  0.250000  1
  Dy  Dy3  1  0.492433  0.984906  0.250000  1
  Dy  Dy4  1  0.015094  0.507567  0.250000  1
  Dy  Dy5  1  0.509227  0.490773  0.750000  1
  Tm  Tm6  1  0.982759  0.491260  0.750000  1
  Tm  Tm7  1  0.508740  0.017241  0.750000  1
  Si  Si8  1  0.833120  0.166880  0.502423  1
  Si  Si9  1  0.833628  0.666559  0.501375  1
  Si  Si10  1  0.333441  0.166372  0.501375  1
  Si  Si11  1  0.833120  0.166880  0.997577  1
  Si  Si12  1  0.833628  0.666559  0.998625  1
  Si  Si13  1  0.333441  0.166372  0.998625  1
  Si  Si14  1  0.167705  0.832295  0.999235  1
  Si  Si15  1  0.664659  0.832595  0.999429  1
  Si  Si16  1  0.167405  0.335341  0.999429  1
  Si  Si17  1  0.167705  0.832295  0.500765  1
  Si  Si18  1  0.664659  0.832595  0.500571  1
  Si  Si19  1  0.167405  0.335341  0.500571  1
  Rh  Rh20  1  0.666954  0.333046  0.474110  1
  Rh  Rh21  1  0.666954  0.333046  0.025890  1
  Rh  Rh22  1  0.332814  0.667186  0.961546  1
  Rh  Rh23  1  0.332814  0.667186  0.538454  1
