# generated using pymatgen
data_Nd6Er10Cd4OsPt3
_symmetry_space_group_name_H-M   'P 1'
_cell_length_a   9.73738038
_cell_length_b   9.73738024
_cell_length_c   9.73738070
_cell_angle_alpha   59.80663109
_cell_angle_beta   59.80664122
_cell_angle_gamma   59.80663586
_symmetry_Int_Tables_number   1
_chemical_formula_structural   Nd6Er10Cd4OsPt3
_chemical_formula_sum   'Nd6 Er10 Cd4 Os1 Pt3'
_cell_volume   649.98143506
_cell_formula_units_Z   1
loop_
 _symmetry_equiv_pos_site_id
 _symmetry_equiv_pos_as_xyz
  1  'x, y, z'
loop_
 _atom_site_type_symbol
 _atom_site_label
 _atom_site_symmetry_multiplicity
 _atom_site_fract_x
 _atom_site_fract_y
 _atom_site_fract_z
 _atom_site_occupancy
  Nd  Nd0  1  0.938340  0.561612  0.561612  1
  Nd  Nd1  1  0.555950  0.940452  0.940452  1
  Nd  Nd2  1  0.561612  0.938340  0.561612  1
  Nd  Nd3  1  0.940452  0.555950  0.940452  1
  Nd  Nd4  1  0.561612  0.561612  0.938340  1
  Nd  Nd5  1  0.940452  0.940452  0.555950  1
  Er  Er6  1  0.350993  0.350993  0.350993  1
  Er  Er7  1  0.347065  0.347065  0.955452  1
  Er  Er8  1  0.347065  0.955452  0.347065  1
  Er  Er9  1  0.955452  0.347065  0.347065  1
  Er  Er10  1  0.816525  0.186867  0.186867  1
  Er  Er11  1  0.184546  0.811640  0.811640  1
  Er  Er12  1  0.186867  0.816525  0.186867  1
  Er  Er13  1  0.811640  0.184546  0.811640  1
  Er  Er14  1  0.186867  0.186867  0.816525  1
  Er  Er15  1  0.811640  0.811640  0.184546  1
  Cd  Cd16  1  0.579008  0.579008  0.579008  1
  Cd  Cd17  1  0.579731  0.579731  0.259879  1
  Cd  Cd18  1  0.579731  0.259879  0.579731  1
  Cd  Cd19  1  0.259879  0.579731  0.579731  1
  Os  Os20  1  0.142729  0.142729  0.142729  1
  Pt  Pt21  1  0.143535  0.143535  0.574778  1
  Pt  Pt22  1  0.143535  0.574778  0.143535  1
  Pt  Pt23  1  0.574778  0.143535  0.143535  1
