# generated using pymatgen
data_Pr5Mg2Ru3
_symmetry_space_group_name_H-M   'P 1'
_cell_length_a   8.73055260
_cell_length_b   8.73055179
_cell_length_c   8.73055300
_cell_angle_alpha   109.47122111
_cell_angle_beta   109.47121924
_cell_angle_gamma   109.47121733
_symmetry_Int_Tables_number   1
_chemical_formula_structural   Pr5Mg2Ru3
_chemical_formula_sum   'Pr10 Mg4 Ru6'
_cell_volume   512.27517622
_cell_formula_units_Z   2
loop_
 _symmetry_equiv_pos_site_id
 _symmetry_equiv_pos_as_xyz
  1  'x, y, z'
loop_
 _atom_site_type_symbol
 _atom_site_label
 _atom_site_symmetry_multiplicity
 _atom_site_fract_x
 _atom_site_fract_y
 _atom_site_fract_z
 _atom_site_occupancy
  Pr  Pr0  1  0.787287  0.000000  0.000000  1
  Pr  Pr1  1  0.250000  0.324732  0.074732  1
  Pr  Pr2  1  0.712715  0.712715  0.212715  1
  Pr  Pr3  1  0.175268  0.925268  0.250000  1
  Pr  Pr4  1  0.000000  0.500001  0.287286  1
  Pr  Pr5  1  0.750000  0.175268  0.425268  1
  Pr  Pr6  1  0.500001  0.787287  0.500001  1
  Pr  Pr7  1  0.925268  0.750000  0.675268  1
  Pr  Pr8  1  0.324732  0.574732  0.750000  1
  Pr  Pr9  1  0.574732  0.250000  0.824731  1
  Mg  Mg10  1  0.398869  0.000000  0.000000  1
  Mg  Mg11  1  0.500000  0.398869  0.500000  1
  Mg  Mg12  1  0.101131  0.101131  0.601131  1
  Mg  Mg13  1  0.000000  0.500000  0.898869  1
  Ru  Ru14  1  0.381512  0.750000  0.131512  1
  Ru  Ru15  1  0.631512  0.381512  0.250000  1
  Ru  Ru16  1  0.118488  0.250000  0.368488  1
  Ru  Ru17  1  0.250000  0.868488  0.618489  1
  Ru  Ru18  1  0.868487  0.118488  0.750000  1
  Ru  Ru19  1  0.750000  0.631512  0.881512  1
