# generated using pymatgen
data_NdHo5CoCl10
_symmetry_space_group_name_H-M   'P 1'
_cell_length_a   7.08819217
_cell_length_b   8.84782814
_cell_length_c   8.84641447
_cell_angle_alpha   107.89497983
_cell_angle_beta   96.06858191
_cell_angle_gamma   106.35305134
_symmetry_Int_Tables_number   1
_chemical_formula_structural   NdHo5CoCl10
_chemical_formula_sum   'Nd1 Ho5 Co1 Cl10'
_cell_volume   495.25087894
_cell_formula_units_Z   1
loop_
 _symmetry_equiv_pos_site_id
 _symmetry_equiv_pos_as_xyz
  1  'x, y, z'
loop_
 _atom_site_type_symbol
 _atom_site_label
 _atom_site_symmetry_multiplicity
 _atom_site_fract_x
 _atom_site_fract_y
 _atom_site_fract_z
 _atom_site_occupancy
  Nd  Nd0  1  0.365684  0.944729  0.242683  1
  Ho  Ho1  1  0.861454  0.139629  0.185282  1
  Ho  Ho2  1  0.138618  0.861075  0.814766  1
  Ho  Ho3  1  0.530597  0.697824  0.899891  1
  Ho  Ho4  1  0.470375  0.301376  0.095626  1
  Ho  Ho5  1  0.630544  0.053164  0.764275  1
  Co  Co6  1  0.499398  0.999082  0.000587  1
  Cl  Cl7  1  0.751225  0.085242  0.457494  1
  Cl  Cl8  1  0.261659  0.920122  0.555711  1
  Cl  Cl9  1  0.944589  0.824159  0.072576  1
  Cl  Cl10  1  0.045114  0.172195  0.921108  1
  Cl  Cl11  1  0.279321  0.257126  0.338385  1
  Cl  Cl12  1  0.718165  0.754648  0.659942  1
  Cl  Cl13  1  0.590083  0.371046  0.834935  1
  Cl  Cl14  1  0.413711  0.618202  0.157455  1
  Cl  Cl15  1  0.843399  0.448878  0.273788  1
  Cl  Cl16  1  0.156064  0.551502  0.725497  1
