# generated using pymatgen
data_U4Sn2Ir3Pt
_symmetry_space_group_name_H-M   'P 1'
_cell_length_a   7.68616762
_cell_length_b   7.68616762
_cell_length_c   7.19148100
_cell_angle_alpha   90.00000000
_cell_angle_beta   90.00000000
_cell_angle_gamma   90.19928607
_symmetry_Int_Tables_number   1
_chemical_formula_structural   U4Sn2Ir3Pt
_chemical_formula_sum   'U8 Sn4 Ir6 Pt2'
_cell_volume   424.84979534
_cell_formula_units_Z   2
loop_
 _symmetry_equiv_pos_site_id
 _symmetry_equiv_pos_as_xyz
  1  'x, y, z'
loop_
 _atom_site_type_symbol
 _atom_site_label
 _atom_site_symmetry_multiplicity
 _atom_site_fract_x
 _atom_site_fract_y
 _atom_site_fract_z
 _atom_site_occupancy
  U  U0  1  0.682415  0.317585  0.504195  1
  U  U1  1  0.317585  0.682415  0.504195  1
  U  U2  1  0.177045  0.177045  0.998368  1
  U  U3  1  0.822955  0.822955  0.998368  1
  U  U4  1  0.851470  0.851470  0.501861  1
  U  U5  1  0.148530  0.148530  0.501861  1
  U  U6  1  0.347132  0.652868  0.993030  1
  U  U7  1  0.652868  0.347132  0.993030  1
  Sn  Sn8  1  0.500000  0.000000  0.247438  1
  Sn  Sn9  1  0.000000  0.500000  0.749358  1
  Sn  Sn10  1  0.500000  0.000000  0.749358  1
  Sn  Sn11  1  0.000000  0.500000  0.247438  1
  Ir  Ir12  1  0.862587  0.137413  0.223929  1
  Ir  Ir13  1  0.137413  0.862587  0.223929  1
  Ir  Ir14  1  0.362570  0.362570  0.725268  1
  Ir  Ir15  1  0.637430  0.637430  0.725268  1
  Ir  Ir16  1  0.135919  0.864081  0.775412  1
  Ir  Ir17  1  0.864081  0.135919  0.775412  1
  Pt  Pt18  1  0.633780  0.633780  0.281141  1
  Pt  Pt19  1  0.366220  0.366220  0.281141  1
