# generated using pymatgen
data_LiDy16Zn3Co4
_symmetry_space_group_name_H-M   'P 1'
_cell_length_a   9.44306234
_cell_length_b   9.38218265
_cell_length_c   9.38254860
_cell_angle_alpha   60.05453516
_cell_angle_beta   60.22916744
_cell_angle_gamma   60.22822369
_symmetry_Int_Tables_number   1
_chemical_formula_structural   LiDy16Zn3Co4
_chemical_formula_sum   'Li1 Dy16 Zn3 Co4'
_cell_volume   590.05852477
_cell_formula_units_Z   1
loop_
 _symmetry_equiv_pos_site_id
 _symmetry_equiv_pos_as_xyz
  1  'x, y, z'
loop_
 _atom_site_type_symbol
 _atom_site_label
 _atom_site_symmetry_multiplicity
 _atom_site_fract_x
 _atom_site_fract_y
 _atom_site_fract_z
 _atom_site_occupancy
  Li  Li0  1  0.205115  0.931503  0.931486  1
  Dy  Dy1  1  0.151189  0.542162  0.153426  1
  Dy  Dy2  1  0.692451  0.308647  0.690001  1
  Dy  Dy3  1  0.692178  0.309060  0.309042  1
  Dy  Dy4  1  0.937871  0.562773  0.562825  1
  Dy  Dy5  1  0.550132  0.150205  0.150263  1
  Dy  Dy6  1  0.151260  0.153380  0.542122  1
  Dy  Dy7  1  0.938272  0.935995  0.562799  1
  Dy  Dy8  1  0.312138  0.687438  0.312858  1
  Dy  Dy9  1  0.566912  0.937965  0.937957  1
  Dy  Dy10  1  0.566931  0.937487  0.557945  1
  Dy  Dy11  1  0.692432  0.690029  0.308634  1
  Dy  Dy12  1  0.566876  0.557931  0.937505  1
  Dy  Dy13  1  0.938289  0.562765  0.935993  1
  Dy  Dy14  1  0.312386  0.687546  0.687510  1
  Dy  Dy15  1  0.150808  0.153004  0.153058  1
  Dy  Dy16  1  0.312142  0.312882  0.687411  1
  Zn  Zn17  1  0.917766  0.238112  0.921895  1
  Zn  Zn18  1  0.917156  0.922365  0.922312  1
  Zn  Zn19  1  0.917765  0.921911  0.238131  1
  Co  Co20  1  0.361724  0.357259  0.923923  1
  Co  Co21  1  0.361728  0.923902  0.357244  1
  Co  Co22  1  0.924737  0.358412  0.358428  1
  Co  Co23  1  0.361741  0.357266  0.357229  1
