# generated using pymatgen
data_Dy20Tc3Bi8Rh
_symmetry_space_group_name_H-M   'P 1'
_cell_length_a   7.97094094
_cell_length_b   9.06915300
_cell_length_c   12.40363069
_cell_angle_alpha   90.00000000
_cell_angle_beta   90.06254992
_cell_angle_gamma   90.00000000
_symmetry_Int_Tables_number   1
_chemical_formula_structural   Dy20Tc3Bi8Rh
_chemical_formula_sum   'Dy20 Tc3 Bi8 Rh1'
_cell_volume   896.65399511
_cell_formula_units_Z   1
loop_
 _symmetry_equiv_pos_site_id
 _symmetry_equiv_pos_as_xyz
  1  'x, y, z'
loop_
 _atom_site_type_symbol
 _atom_site_label
 _atom_site_symmetry_multiplicity
 _atom_site_fract_x
 _atom_site_fract_y
 _atom_site_fract_z
 _atom_site_occupancy
  Dy  Dy0  1  0.839177  0.750000  0.789378  1
  Dy  Dy1  1  0.157733  0.250000  0.209943  1
  Dy  Dy2  1  0.342642  0.250000  0.708835  1
  Dy  Dy3  1  0.653427  0.750000  0.294850  1
  Dy  Dy4  1  0.378117  0.750000  0.691865  1
  Dy  Dy5  1  0.622099  0.250000  0.307816  1
  Dy  Dy6  1  0.877417  0.250000  0.807014  1
  Dy  Dy7  1  0.125987  0.750000  0.192859  1
  Dy  Dy8  1  0.946777  0.750000  0.504489  1
  Dy  Dy9  1  0.052761  0.250000  0.495783  1
  Dy  Dy10  1  0.447373  0.250000  0.995940  1
  Dy  Dy11  1  0.553128  0.750000  0.004585  1
  Dy  Dy12  1  0.674839  0.041165  0.564678  1
  Dy  Dy13  1  0.323484  0.960242  0.435261  1
  Dy  Dy14  1  0.176835  0.960059  0.934295  1
  Dy  Dy15  1  0.323484  0.539758  0.435261  1
  Dy  Dy16  1  0.824491  0.043651  0.064754  1
  Dy  Dy17  1  0.674839  0.458835  0.564678  1
  Dy  Dy18  1  0.824491  0.456349  0.064754  1
  Dy  Dy19  1  0.176835  0.539941  0.934295  1
  Tc  Tc20  1  0.579142  0.750000  0.513570  1
  Tc  Tc21  1  0.420362  0.250000  0.488095  1
  Tc  Tc22  1  0.078324  0.250000  0.988915  1
  Bi  Bi23  1  0.570356  0.493858  0.827908  1
  Bi  Bi24  1  0.429930  0.506743  0.171791  1
  Bi  Bi25  1  0.070890  0.506533  0.672512  1
  Bi  Bi26  1  0.429930  0.993257  0.171791  1
  Bi  Bi27  1  0.928436  0.494653  0.327199  1
  Bi  Bi28  1  0.570356  0.006142  0.827908  1
  Bi  Bi29  1  0.928436  0.005347  0.327199  1
  Bi  Bi30  1  0.070890  0.993467  0.672512  1
  Rh  Rh31  1  0.927017  0.750000  0.009266  1
