# generated using pymatgen
data_YbEr2Np7O20
_symmetry_space_group_name_H-M   'P 1'
_cell_length_a   6.58009636
_cell_length_b   7.55441717
_cell_length_c   8.45618700
_cell_angle_alpha   102.35174738
_cell_angle_beta   97.32148727
_cell_angle_gamma   106.91202376
_symmetry_Int_Tables_number   1
_chemical_formula_structural   YbEr2Np7O20
_chemical_formula_sum   'Yb1 Er2 Np7 O20'
_cell_volume   384.68431982
_cell_formula_units_Z   1
loop_
 _symmetry_equiv_pos_site_id
 _symmetry_equiv_pos_as_xyz
  1  'x, y, z'
loop_
 _atom_site_type_symbol
 _atom_site_label
 _atom_site_symmetry_multiplicity
 _atom_site_fract_x
 _atom_site_fract_y
 _atom_site_fract_z
 _atom_site_occupancy
  Yb  Yb0  1  0.999605  0.999718  0.999818  1
  Er  Er1  1  0.800441  0.601074  0.601317  1
  Er  Er2  1  0.600213  0.199154  0.198967  1
  Np  Np3  1  0.999866  0.500177  0.000257  1
  Np  Np4  1  0.799222  0.099677  0.601448  1
  Np  Np5  1  0.603582  0.701197  0.199536  1
  Np  Np6  1  0.199288  0.398234  0.396515  1
  Np  Np7  1  0.397411  0.296682  0.801393  1
  Np  Np8  1  0.199809  0.902440  0.397478  1
  Np  Np9  1  0.400492  0.801571  0.803099  1
  O  O10  1  0.857569  0.320898  0.455143  1
  O  O11  1  0.638095  0.912574  0.053288  1
  O  O12  1  0.857020  0.833236  0.449013  1
  O  O13  1  0.950492  0.764915  0.155952  1
  O  O14  1  0.439704  0.519767  0.654318  1
  O  O15  1  0.647957  0.430411  0.046902  1
  O  O16  1  0.740096  0.367111  0.752331  1
  O  O17  1  0.251833  0.127726  0.261739  1
  O  O18  1  0.956373  0.291933  0.152700  1
  O  O19  1  0.550859  0.970683  0.356328  1
  O  O20  1  0.057908  0.712209  0.847717  1
  O  O21  1  0.443619  0.026432  0.645762  1
  O  O22  1  0.734419  0.876764  0.742150  1
  O  O23  1  0.351807  0.570840  0.953904  1
  O  O24  1  0.255831  0.630182  0.245961  1
  O  O25  1  0.051089  0.234246  0.842271  1
  O  O26  1  0.547505  0.483384  0.349271  1
  O  O27  1  0.150904  0.172289  0.551732  1
  O  O28  1  0.359777  0.076320  0.941565  1
  O  O29  1  0.157217  0.678158  0.542127  1
