# generated using pymatgen
data_SrTaRuF12
_symmetry_space_group_name_H-M   'P 1'
_cell_length_a   5.58929943
_cell_length_b   5.53049963
_cell_length_c   10.13447401
_cell_angle_alpha   97.19043274
_cell_angle_beta   95.97578984
_cell_angle_gamma   118.25620167
_symmetry_Int_Tables_number   1
_chemical_formula_structural   SrTaRuF12
_chemical_formula_sum   'Sr1 Ta1 Ru1 F12'
_cell_volume   268.94713062
_cell_formula_units_Z   1
loop_
 _symmetry_equiv_pos_site_id
 _symmetry_equiv_pos_as_xyz
  1  'x, y, z'
loop_
 _atom_site_type_symbol
 _atom_site_label
 _atom_site_symmetry_multiplicity
 _atom_site_fract_x
 _atom_site_fract_y
 _atom_site_fract_z
 _atom_site_occupancy
  Sr  Sr0  1  0.973131  0.953150  0.880600  1
  Ta  Ta1  1  0.210760  0.500333  0.593376  1
  Ru  Ru2  1  0.383941  0.691369  0.128629  1
  F  F3  1  0.357585  0.987017  0.221114  1
  F  F4  1  0.544650  0.602638  0.731055  1
  F  F5  1  0.072913  0.621056  0.990668  1
  F  F6  1  0.134580  0.431747  0.215868  1
  F  F7  1  0.391675  0.383787  0.015277  1
  F  F8  1  0.242955  0.206724  0.499383  1
  F  F9  1  0.688165  0.756435  0.250918  1
  F  F10  1  0.188984  0.793049  0.720253  1
  F  F11  1  0.877386  0.417449  0.486552  1
  F  F12  1  0.009859  0.252350  0.717122  1
  F  F13  1  0.442717  0.775309  0.504935  1
  F  F14  1  0.628696  0.937588  0.022248  1
