# generated using pymatgen
data_Cs3RbSm4(SiSe4)4
_symmetry_space_group_name_H-M   'P 1'
_cell_length_a   7.12515063
_cell_length_b   6.78376149
_cell_length_c   19.52934541
_cell_angle_alpha   71.98406790
_cell_angle_beta   89.87406884
_cell_angle_gamma   89.98478601
_symmetry_Int_Tables_number   1
_chemical_formula_structural   Cs3RbSm4(SiSe4)4
_chemical_formula_sum   'Cs3 Rb1 Sm4 Si4 Se16'
_cell_volume   897.67325433
_cell_formula_units_Z   1
loop_
 _symmetry_equiv_pos_site_id
 _symmetry_equiv_pos_as_xyz
  1  'x, y, z'
loop_
 _atom_site_type_symbol
 _atom_site_label
 _atom_site_symmetry_multiplicity
 _atom_site_fract_x
 _atom_site_fract_y
 _atom_site_fract_z
 _atom_site_occupancy
  Cs  Cs0  1  0.248367  0.729674  0.032468  1
  Cs  Cs1  1  0.251741  0.729914  0.532663  1
  Cs  Cs2  1  0.748294  0.270340  0.467286  1
  Rb  Rb3  1  0.748542  0.272110  0.965168  1
  Sm  Sm4  1  0.774311  0.227654  0.226666  1
  Sm  Sm5  1  0.225679  0.771502  0.773955  1
  Sm  Sm6  1  0.726142  0.227635  0.728019  1
  Sm  Sm7  1  0.274555  0.773098  0.271761  1
  Si  Si8  1  0.261704  0.215423  0.833999  1
  Si  Si9  1  0.237866  0.215263  0.333037  1
  Si  Si10  1  0.761579  0.783706  0.667936  1
  Si  Si11  1  0.738764  0.784931  0.165344  1
  Se  Se12  1  0.494022  0.982601  0.654375  1
  Se  Se13  1  0.177309  0.419136  0.218090  1
  Se  Se14  1  0.505472  0.016805  0.346022  1
  Se  Se15  1  0.993398  0.017759  0.847665  1
  Se  Se16  1  0.322476  0.419848  0.718985  1
  Se  Se17  1  0.256507  0.413672  0.908768  1
  Se  Se18  1  0.744690  0.582713  0.091891  1
  Se  Se19  1  0.822299  0.579250  0.783069  1
  Se  Se20  1  0.756386  0.584401  0.593471  1
  Se  Se21  1  0.243936  0.416252  0.406830  1
  Se  Se22  1  0.496348  0.970877  0.856523  1
  Se  Se23  1  0.996485  0.028342  0.645274  1
  Se  Se24  1  0.505832  0.031266  0.142240  1
  Se  Se25  1  0.006214  0.983911  0.152382  1
  Se  Se26  1  0.003718  0.970198  0.355469  1
  Se  Se27  1  0.677365  0.581719  0.280645  1
