# generated using pymatgen
data_Ho4LuMg3Ir4
_symmetry_space_group_name_H-M   'P 1'
_cell_length_a   4.16195600
_cell_length_b   7.09999463
_cell_length_c   8.60689939
_cell_angle_alpha   89.12553432
_cell_angle_beta   90.00000000
_cell_angle_gamma   90.00000000
_symmetry_Int_Tables_number   1
_chemical_formula_structural   Ho4LuMg3Ir4
_chemical_formula_sum   'Ho4 Lu1 Mg3 Ir4'
_cell_volume   254.30309593
_cell_formula_units_Z   1
loop_
 _symmetry_equiv_pos_site_id
 _symmetry_equiv_pos_as_xyz
  1  'x, y, z'
loop_
 _atom_site_type_symbol
 _atom_site_label
 _atom_site_symmetry_multiplicity
 _atom_site_fract_x
 _atom_site_fract_y
 _atom_site_fract_z
 _atom_site_occupancy
  Ho  Ho0  1  0.250000  0.543981  0.164113  1
  Ho  Ho1  1  0.750000  0.470418  0.829766  1
  Ho  Ho2  1  0.250000  0.022938  0.320454  1
  Ho  Ho3  1  0.750000  0.954226  0.678710  1
  Lu  Lu4  1  0.750000  0.363477  0.440369  1
  Mg  Mg5  1  0.250000  0.136890  0.942550  1
  Mg  Mg6  1  0.750000  0.866648  0.058791  1
  Mg  Mg7  1  0.250000  0.644238  0.565896  1
  Ir  Ir8  1  0.750000  0.746591  0.372123  1
  Ir  Ir9  1  0.250000  0.243202  0.625600  1
  Ir  Ir10  1  0.750000  0.251638  0.128810  1
  Ir  Ir11  1  0.250000  0.755753  0.872819  1
