# generated using pymatgen
data_Lu3MgIr8
_symmetry_space_group_name_H-M   'P 1'
_cell_length_a   5.29613200
_cell_length_b   5.29613126
_cell_length_c   8.58674100
_cell_angle_alpha   90.00000000
_cell_angle_beta   90.00000000
_cell_angle_gamma   120.00000462
_symmetry_Int_Tables_number   1
_chemical_formula_structural   Lu3MgIr8
_chemical_formula_sum   'Lu3 Mg1 Ir8'
_cell_volume   208.58185051
_cell_formula_units_Z   1
loop_
 _symmetry_equiv_pos_site_id
 _symmetry_equiv_pos_as_xyz
  1  'x, y, z'
loop_
 _atom_site_type_symbol
 _atom_site_label
 _atom_site_symmetry_multiplicity
 _atom_site_fract_x
 _atom_site_fract_y
 _atom_site_fract_z
 _atom_site_occupancy
  Lu  Lu0  1  0.333333  0.666667  0.078219  1
  Lu  Lu1  1  0.666667  0.333333  0.559187  1
  Lu  Lu2  1  0.666667  0.333333  0.930830  1
  Mg  Mg3  1  0.333333  0.666667  0.439252  1
  Ir  Ir4  1  0.000000  0.000000  0.997727  1
  Ir  Ir5  1  0.000000  0.000000  0.498135  1
  Ir  Ir6  1  0.829747  0.659495  0.249931  1
  Ir  Ir7  1  0.171340  0.828660  0.748953  1
  Ir  Ir8  1  0.657320  0.828660  0.748953  1
  Ir  Ir9  1  0.340505  0.170253  0.249931  1
  Ir  Ir10  1  0.829747  0.170253  0.249931  1
  Ir  Ir11  1  0.171340  0.342680  0.748953  1
