# generated using pymatgen
data_Hf4Co8(SiP)3
_symmetry_space_group_name_H-M   'P 1'
_cell_length_a   12.16954905
_cell_length_b   12.16439777
_cell_length_c   3.63948000
_cell_angle_alpha   90.00000000
_cell_angle_beta   90.00000000
_cell_angle_gamma   120.00401380
_symmetry_Int_Tables_number   1
_chemical_formula_structural   Hf4Co8(SiP)3
_chemical_formula_sum   'Hf8 Co16 Si6 P6'
_cell_volume   466.57074086
_cell_formula_units_Z   2
loop_
 _symmetry_equiv_pos_site_id
 _symmetry_equiv_pos_as_xyz
  1  'x, y, z'
loop_
 _atom_site_type_symbol
 _atom_site_label
 _atom_site_symmetry_multiplicity
 _atom_site_fract_x
 _atom_site_fract_y
 _atom_site_fract_z
 _atom_site_occupancy
  Hf  Hf0  1  0.818705  0.816922  0.500000  1
  Hf  Hf1  1  0.440590  0.441423  0.000000  1
  Hf  Hf2  1  0.999087  0.179015  0.500000  1
  Hf  Hf3  1  0.558754  0.000378  0.000000  1
  Hf  Hf4  1  0.333515  0.667248  0.000000  1
  Hf  Hf5  1  0.665025  0.331337  0.000000  1
  Hf  Hf6  1  0.001890  0.558097  0.000000  1
  Hf  Hf7  1  0.181250  0.000086  0.500000  1
  Co  Co8  1  0.622890  0.820971  0.000000  1
  Co  Co9  1  0.376585  0.198104  0.000000  1
  Co  Co10  1  0.003250  0.725867  0.500000  1
  Co  Co11  1  0.280385  0.280482  0.500000  1
  Co  Co12  1  0.875592  0.354660  0.500000  1
  Co  Co13  1  0.718738  0.999040  0.500000  1
  Co  Co14  1  0.825244  0.630752  0.000000  1
  Co  Co15  1  0.177233  0.804034  0.000000  1
  Co  Co16  1  0.356086  0.872566  0.500000  1
  Co  Co17  1  0.128391  0.485662  0.500000  1
  Co  Co18  1  0.640203  0.517588  0.500000  1
  Co  Co19  1  0.000416  0.995316  0.000000  1
  Co  Co20  1  0.513958  0.643407  0.500000  1
  Co  Co21  1  0.484058  0.127465  0.500000  1
  Co  Co22  1  0.197193  0.375997  0.000000  1
  Co  Co23  1  0.802195  0.176633  0.000000  1
  Si  Si24  1  0.999525  0.345820  0.000000  1
  Si  Si25  1  0.823510  0.515894  0.500000  1
  Si  Si26  1  0.176882  0.176964  0.000000  1
  Si  Si27  1  0.651444  0.651931  0.000000  1
  Si  Si28  1  0.822741  0.998463  0.000000  1
  Si  Si29  1  0.348054  0.000687  0.000000  1
  P  P30  1  0.692777  0.175456  0.500000  1
  P  P31  1  0.516195  0.825121  0.500000  1
  P  P32  1  0.175572  0.692303  0.500000  1
  P  P33  1  0.483509  0.308921  0.500000  1
  P  P34  1  0.000694  0.821902  0.000000  1
  P  P35  1  0.307864  0.483490  0.500000  1
