# generated using pymatgen
data_Tm20GaHg2Bi9
_symmetry_space_group_name_H-M   'P 1'
_cell_length_a   8.08079752
_cell_length_b   9.36118900
_cell_length_c   11.83848300
_cell_angle_alpha   90.00000000
_cell_angle_beta   89.69898439
_cell_angle_gamma   90.00000000
_symmetry_Int_Tables_number   1
_chemical_formula_structural   Tm20GaHg2Bi9
_chemical_formula_sum   'Tm20 Ga1 Hg2 Bi9'
_cell_volume   895.52002092
_cell_formula_units_Z   1
loop_
 _symmetry_equiv_pos_site_id
 _symmetry_equiv_pos_as_xyz
  1  'x, y, z'
loop_
 _atom_site_type_symbol
 _atom_site_label
 _atom_site_symmetry_multiplicity
 _atom_site_fract_x
 _atom_site_fract_y
 _atom_site_fract_z
 _atom_site_occupancy
  Tm  Tm0  1  0.035043  0.250000  0.508170  1
  Tm  Tm1  1  0.967643  0.750000  0.492654  1
  Tm  Tm2  1  0.464832  0.750000  0.007885  1
  Tm  Tm3  1  0.522787  0.250000  0.990153  1
  Tm  Tm4  1  0.348444  0.250000  0.294557  1
  Tm  Tm5  1  0.653172  0.750000  0.706823  1
  Tm  Tm6  1  0.145684  0.750000  0.790016  1
  Tm  Tm7  1  0.848350  0.250000  0.215375  1
  Tm  Tm8  1  0.195758  0.250000  0.776967  1
  Tm  Tm9  1  0.815870  0.750000  0.215334  1
  Tm  Tm10  1  0.319548  0.750000  0.285138  1
  Tm  Tm11  1  0.674250  0.250000  0.709094  1
  Tm  Tm12  1  0.193543  0.055602  0.061431  1
  Tm  Tm13  1  0.811001  0.931207  0.943053  1
  Tm  Tm14  1  0.314678  0.944868  0.557109  1
  Tm  Tm15  1  0.811001  0.568793  0.943053  1
  Tm  Tm16  1  0.685435  0.062239  0.445850  1
  Tm  Tm17  1  0.193543  0.444398  0.061431  1
  Tm  Tm18  1  0.685435  0.437761  0.445850  1
  Tm  Tm19  1  0.314678  0.555132  0.557109  1
  Ga  Ga20  1  0.405099  0.250000  0.539038  1
  Hg  Hg21  1  0.591852  0.750000  0.458750  1
  Hg  Hg22  1  0.093339  0.750000  0.041645  1
  Bi  Bi23  1  0.908864  0.250000  0.953662  1
  Bi  Bi24  1  0.058562  0.000835  0.322585  1
  Bi  Bi25  1  0.939966  0.000379  0.676423  1
  Bi  Bi26  1  0.441231  0.997769  0.823356  1
  Bi  Bi27  1  0.939966  0.499621  0.676423  1
  Bi  Bi28  1  0.560316  0.002598  0.177559  1
  Bi  Bi29  1  0.058562  0.499165  0.322585  1
  Bi  Bi30  1  0.560316  0.497402  0.177559  1
  Bi  Bi31  1  0.441231  0.502231  0.823356  1
