# generated using pymatgen
data_Dy4Y(GeB4)2
_symmetry_space_group_name_H-M   'P 1'
_cell_length_a   7.25160500
_cell_length_b   7.25160500
_cell_length_c   8.14475100
_cell_angle_alpha   90.00000000
_cell_angle_beta   90.00000000
_cell_angle_gamma   90.00000000
_symmetry_Int_Tables_number   1
_chemical_formula_structural   Dy4Y(GeB4)2
_chemical_formula_sum   'Dy8 Y2 Ge4 B16'
_cell_volume   428.29804414
_cell_formula_units_Z   2
loop_
 _symmetry_equiv_pos_site_id
 _symmetry_equiv_pos_as_xyz
  1  'x, y, z'
loop_
 _atom_site_type_symbol
 _atom_site_label
 _atom_site_symmetry_multiplicity
 _atom_site_fract_x
 _atom_site_fract_y
 _atom_site_fract_z
 _atom_site_occupancy
  Dy  Dy0  1  0.680351  0.180351  0.221023  1
  Dy  Dy1  1  0.319649  0.819649  0.778977  1
  Dy  Dy2  1  0.319649  0.819649  0.221023  1
  Dy  Dy3  1  0.819649  0.680351  0.221023  1
  Dy  Dy4  1  0.819649  0.680351  0.778977  1
  Dy  Dy5  1  0.680351  0.180351  0.778977  1
  Dy  Dy6  1  0.180351  0.319649  0.778977  1
  Dy  Dy7  1  0.180351  0.319649  0.221023  1
  Y  Y8  1  0.000000  0.000000  0.500000  1
  Y  Y9  1  0.500000  0.500000  0.500000  1
  Ge  Ge10  1  0.119834  0.619834  0.500000  1
  Ge  Ge11  1  0.880166  0.380166  0.500000  1
  Ge  Ge12  1  0.380166  0.119834  0.500000  1
  Ge  Ge13  1  0.619834  0.880166  0.500000  1
  B  B14  1  0.172113  0.039181  0.000000  1
  B  B15  1  0.827887  0.960819  0.000000  1
  B  B16  1  0.960819  0.172113  0.000000  1
  B  B17  1  0.327887  0.539181  0.000000  1
  B  B18  1  0.039181  0.827887  0.000000  1
  B  B19  1  0.672113  0.460819  0.000000  1
  B  B20  1  0.539181  0.672113  0.000000  1
  B  B21  1  0.460819  0.327887  0.000000  1
  B  B22  1  0.090257  0.590257  0.000000  1
  B  B23  1  0.909743  0.409743  0.000000  1
  B  B24  1  0.409743  0.090257  0.000000  1
  B  B25  1  0.590257  0.909743  0.000000  1
  B  B26  1  0.000000  0.000000  0.161569  1
  B  B27  1  0.000000  0.000000  0.838431  1
  B  B28  1  0.500000  0.500000  0.838431  1
  B  B29  1  0.500000  0.500000  0.161569  1
