# generated using pymatgen
data_Lu3Nb(ZnRh2)4
_symmetry_space_group_name_H-M   'P 1'
_cell_length_a   6.02729500
_cell_length_b   6.02733000
_cell_length_c   6.85679200
_cell_angle_alpha   90.00000000
_cell_angle_beta   90.00098863
_cell_angle_gamma   90.00000000
_symmetry_Int_Tables_number   1
_chemical_formula_structural   Lu3Nb(ZnRh2)4
_chemical_formula_sum   'Lu3 Nb1 Zn4 Rh8'
_cell_volume   249.09694056
_cell_formula_units_Z   1
loop_
 _symmetry_equiv_pos_site_id
 _symmetry_equiv_pos_as_xyz
  1  'x, y, z'
loop_
 _atom_site_type_symbol
 _atom_site_label
 _atom_site_symmetry_multiplicity
 _atom_site_fract_x
 _atom_site_fract_y
 _atom_site_fract_z
 _atom_site_occupancy
  Lu  Lu0  1  0.750000  0.250015  0.999837  1
  Lu  Lu1  1  0.249998  0.749991  0.999852  1
  Lu  Lu2  1  0.750001  0.249987  0.500120  1
  Nb  Nb3  1  0.249989  0.750027  0.499903  1
  Zn  Zn4  1  0.249961  0.249979  0.000168  1
  Zn  Zn5  1  0.750040  0.750028  0.000171  1
  Zn  Zn6  1  0.750016  0.750026  0.499993  1
  Zn  Zn7  1  0.249977  0.249948  0.500004  1
  Rh  Rh8  1  0.495164  0.995119  0.257127  1
  Rh  Rh9  1  0.495135  0.504873  0.257131  1
  Rh  Rh10  1  0.004850  0.995126  0.257172  1
  Rh  Rh11  1  0.004866  0.504852  0.257149  1
  Rh  Rh12  1  0.004827  0.995195  0.742829  1
  Rh  Rh13  1  0.004823  0.504821  0.742827  1
  Rh  Rh14  1  0.495174  0.995171  0.742860  1
  Rh  Rh15  1  0.495181  0.504840  0.742857  1
