# generated using pymatgen
data_Na5P12Ir13Rh6
_symmetry_space_group_name_H-M   'P 1'
_cell_length_a   12.61425000
_cell_length_b   12.61425091
_cell_length_c   3.95444900
_cell_angle_alpha   90.00000000
_cell_angle_beta   90.00000000
_cell_angle_gamma   119.99999761
_symmetry_Int_Tables_number   1
_chemical_formula_structural   Na5P12Ir13Rh6
_chemical_formula_sum   'Na5 P12 Ir13 Rh6'
_cell_volume   544.92849744
_cell_formula_units_Z   1
loop_
 _symmetry_equiv_pos_site_id
 _symmetry_equiv_pos_as_xyz
  1  'x, y, z'
loop_
 _atom_site_type_symbol
 _atom_site_label
 _atom_site_symmetry_multiplicity
 _atom_site_fract_x
 _atom_site_fract_y
 _atom_site_fract_z
 _atom_site_occupancy
  Na  Na0  1  0.999095  0.179308  0.500000  1
  Na  Na1  1  0.820692  0.819786  0.500000  1
  Na  Na2  1  0.180214  0.000905  0.500000  1
  Na  Na3  1  0.666667  0.333333  0.000000  1
  Na  Na4  1  0.333333  0.666667  0.000000  1
  P  P5  1  0.001926  0.821222  0.000000  1
  P  P6  1  0.178778  0.180704  0.000000  1
  P  P7  1  0.819296  0.998074  0.000000  1
  P  P8  1  0.686932  0.171804  0.500000  1
  P  P9  1  0.828196  0.515128  0.500000  1
  P  P10  1  0.484872  0.313068  0.500000  1
  P  P11  1  0.174875  0.689944  0.500000  1
  P  P12  1  0.515067  0.825125  0.500000  1
  P  P13  1  0.310056  0.484933  0.500000  1
  P  P14  1  0.999610  0.365313  0.000000  1
  P  P15  1  0.634687  0.634297  0.000000  1
  P  P16  1  0.365703  0.000390  0.000000  1
  Ir  Ir17  1  0.000686  0.712649  0.500000  1
  Ir  Ir18  1  0.287351  0.288037  0.500000  1
  Ir  Ir19  1  0.711963  0.999314  0.500000  1
  Ir  Ir20  1  0.183696  0.805033  0.000000  1
  Ir  Ir21  1  0.621337  0.816304  0.000000  1
  Ir  Ir22  1  0.194967  0.378663  0.000000  1
  Ir  Ir23  1  0.871085  0.358307  0.500000  1
  Ir  Ir24  1  0.641693  0.512778  0.500000  1
  Ir  Ir25  1  0.487222  0.128915  0.500000  1
  Ir  Ir26  1  0.362588  0.872567  0.500000  1
  Ir  Ir27  1  0.509978  0.637412  0.500000  1
  Ir  Ir28  1  0.127433  0.490022  0.500000  1
  Ir  Ir29  1  0.000000  0.000000  0.000000  1
  Rh  Rh30  1  0.997151  0.544432  0.000000  1
  Rh  Rh31  1  0.455568  0.452719  0.000000  1
  Rh  Rh32  1  0.547281  0.002849  0.000000  1
  Rh  Rh33  1  0.806417  0.182074  0.000000  1
  Rh  Rh34  1  0.817926  0.624344  0.000000  1
  Rh  Rh35  1  0.375656  0.193583  0.000000  1
