# generated using pymatgen
data_Sc12InCo4Ni
_symmetry_space_group_name_H-M   'P 1'
_cell_length_a   7.70155867
_cell_length_b   7.70155837
_cell_length_c   7.70155790
_cell_angle_alpha   110.53686305
_cell_angle_beta   111.88587174
_cell_angle_gamma   106.04731941
_symmetry_Int_Tables_number   1
_chemical_formula_structural   Sc12InCo4Ni
_chemical_formula_sum   'Sc12 In1 Co4 Ni1'
_cell_volume   350.66620107
_cell_formula_units_Z   1
loop_
 _symmetry_equiv_pos_site_id
 _symmetry_equiv_pos_as_xyz
  1  'x, y, z'
loop_
 _atom_site_type_symbol
 _atom_site_label
 _atom_site_symmetry_multiplicity
 _atom_site_fract_x
 _atom_site_fract_y
 _atom_site_fract_z
 _atom_site_occupancy
  Sc  Sc0  1  0.422295  0.223335  0.198960  1
  Sc  Sc1  1  0.577705  0.776665  0.801040  1
  Sc  Sc2  1  0.024377  0.223335  0.801040  1
  Sc  Sc3  1  0.975623  0.776665  0.198960  1
  Sc  Sc4  1  0.314000  0.615040  0.301040  1
  Sc  Sc5  1  0.686000  0.384960  0.698960  1
  Sc  Sc6  1  0.314000  0.012959  0.698960  1
  Sc  Sc7  1  0.686000  0.987041  0.301040  1
  Sc  Sc8  1  0.186277  0.279720  0.465997  1
  Sc  Sc9  1  0.813723  0.720279  0.534003  1
  Sc  Sc10  1  0.186277  0.720279  0.906557  1
  Sc  Sc11  1  0.813723  0.279720  0.093443  1
  In  In12  1  0.500000  0.500000  0.000000  1
  Co  Co13  1  0.364305  0.000000  0.364305  1
  Co  Co14  1  0.635695  0.000000  0.635695  1
  Co  Co15  1  0.118518  0.618518  0.500000  1
  Co  Co16  1  0.881482  0.381482  0.500000  1
  Ni  Ni17  1  0.000000  0.000000  0.000000  1
