# generated using pymatgen
data_Er5Co19(Si3P)3
_symmetry_space_group_name_H-M   'P 1'
_cell_length_a   12.12282000
_cell_length_b   12.12281993
_cell_length_c   3.69250100
_cell_angle_alpha   90.00000000
_cell_angle_beta   90.00000000
_cell_angle_gamma   120.00000020
_symmetry_Int_Tables_number   1
_chemical_formula_structural   Er5Co19(Si3P)3
_chemical_formula_sum   'Er5 Co19 Si9 P3'
_cell_volume   469.95747673
_cell_formula_units_Z   1
loop_
 _symmetry_equiv_pos_site_id
 _symmetry_equiv_pos_as_xyz
  1  'x, y, z'
loop_
 _atom_site_type_symbol
 _atom_site_label
 _atom_site_symmetry_multiplicity
 _atom_site_fract_x
 _atom_site_fract_y
 _atom_site_fract_z
 _atom_site_occupancy
  Er  Er0  1  0.666667  0.333333  0.000000  1
  Er  Er1  1  0.333333  0.666667  0.000000  1
  Er  Er2  1  0.184183  0.184183  0.500000  1
  Er  Er3  1  0.815817  0.000000  0.500000  1
  Er  Er4  1  0.000000  0.815817  0.500000  1
  Co  Co5  1  0.824246  0.196936  0.000000  1
  Co  Co6  1  0.803064  0.627309  0.000000  1
  Co  Co7  1  0.372691  0.175754  0.000000  1
  Co  Co8  1  0.196936  0.824246  0.000000  1
  Co  Co9  1  0.627309  0.803064  0.000000  1
  Co  Co10  1  0.175754  0.372691  0.000000  1
  Co  Co11  1  0.557732  0.557732  0.000000  1
  Co  Co12  1  0.442268  0.000000  0.000000  1
  Co  Co13  1  0.000000  0.442268  0.000000  1
  Co  Co14  1  0.645126  0.123699  0.500000  1
  Co  Co15  1  0.876301  0.521428  0.500000  1
  Co  Co16  1  0.478572  0.354874  0.500000  1
  Co  Co17  1  0.123699  0.645126  0.500000  1
  Co  Co18  1  0.521428  0.876301  0.500000  1
  Co  Co19  1  0.354874  0.478572  0.500000  1
  Co  Co20  1  0.722603  0.722603  0.500000  1
  Co  Co21  1  0.277397  0.000000  0.500000  1
  Co  Co22  1  0.000000  0.277397  0.500000  1
  Co  Co23  1  0.000000  0.000000  0.000000  1
  Si  Si24  1  0.369291  0.369291  0.000000  1
  Si  Si25  1  0.630709  0.000000  0.000000  1
  Si  Si26  1  0.000000  0.630709  0.000000  1
  Si  Si27  1  0.840061  0.318563  0.500000  1
  Si  Si28  1  0.681437  0.521498  0.500000  1
  Si  Si29  1  0.478502  0.159939  0.500000  1
  Si  Si30  1  0.318563  0.840061  0.500000  1
  Si  Si31  1  0.521498  0.681437  0.500000  1
  Si  Si32  1  0.159939  0.478502  0.500000  1
  P  P33  1  0.819229  0.819229  0.000000  1
  P  P34  1  0.180771  0.000000  0.000000  1
  P  P35  1  0.000000  0.180771  0.000000  1
