# generated using pymatgen
data_Ba8As5I
_symmetry_space_group_name_H-M   'P 1'
_cell_length_a   8.81653190
_cell_length_b   8.81653177
_cell_length_c   8.81653227
_cell_angle_alpha   109.29200660
_cell_angle_beta   109.29200995
_cell_angle_gamma   109.83024078
_symmetry_Int_Tables_number   1
_chemical_formula_structural   Ba8As5I
_chemical_formula_sum   'Ba8 As5 I1'
_cell_volume   527.54399469
_cell_formula_units_Z   1
loop_
 _symmetry_equiv_pos_site_id
 _symmetry_equiv_pos_as_xyz
  1  'x, y, z'
loop_
 _atom_site_type_symbol
 _atom_site_label
 _atom_site_symmetry_multiplicity
 _atom_site_fract_x
 _atom_site_fract_y
 _atom_site_fract_z
 _atom_site_occupancy
  Ba  Ba0  1  0.381124  0.388837  0.379395  1
  Ba  Ba1  1  0.139252  0.479787  0.993738  1
  Ba  Ba2  1  0.986049  0.145514  0.506262  1
  Ba  Ba3  1  0.854486  0.860748  0.840535  1
  Ba  Ba4  1  0.509442  0.001729  0.120605  1
  Ba  Ba5  1  0.611163  0.490558  0.992287  1
  Ba  Ba6  1  0.520213  0.013951  0.659465  1
  Ba  Ba7  1  0.998271  0.618876  0.507713  1
  As  As8  1  0.375000  0.625000  0.750000  1
  As  As9  1  0.883843  0.248643  0.126032  1
  As  As10  1  0.622611  0.757811  0.373968  1
  As  As11  1  0.242189  0.116157  0.864800  1
  As  As12  1  0.751357  0.377389  0.635200  1
  I  I13  1  0.125000  0.875000  0.250000  1
