# generated using pymatgen
data_Ho5CuRhO12
_symmetry_space_group_name_H-M   'P 1'
_cell_length_a   6.77488394
_cell_length_b   6.77488333
_cell_length_c   7.22311773
_cell_angle_alpha   74.40050758
_cell_angle_beta   74.40051601
_cell_angle_gamma   51.46914501
_symmetry_Int_Tables_number   1
_chemical_formula_structural   Ho5CuRhO12
_chemical_formula_sum   'Ho5 Cu1 Rh1 O12'
_cell_volume   247.52473033
_cell_formula_units_Z   1
loop_
 _symmetry_equiv_pos_site_id
 _symmetry_equiv_pos_as_xyz
  1  'x, y, z'
loop_
 _atom_site_type_symbol
 _atom_site_label
 _atom_site_symmetry_multiplicity
 _atom_site_fract_x
 _atom_site_fract_y
 _atom_site_fract_z
 _atom_site_occupancy
  Ho  Ho0  1  0.297520  0.309082  0.358631  1
  Ho  Ho1  1  0.690918  0.702480  0.641369  1
  Ho  Ho2  1  0.306421  0.310805  0.831679  1
  Ho  Ho3  1  0.689195  0.693579  0.168321  1
  Ho  Ho4  1  0.000754  0.999246  0.500000  1
  Cu  Cu5  1  0.250506  0.749494  0.000000  1
  Rh  Rh6  1  0.760795  0.239205  0.000000  1
  O  O7  1  0.902298  0.430948  0.917267  1
  O  O8  1  0.423811  0.900732  0.917822  1
  O  O9  1  0.099268  0.576189  0.082178  1
  O  O10  1  0.569052  0.097702  0.082733  1
  O  O11  1  0.095384  0.598684  0.574646  1
  O  O12  1  0.597617  0.098305  0.575477  1
  O  O13  1  0.901695  0.402383  0.424523  1
  O  O14  1  0.401316  0.904616  0.425354  1
  O  O15  1  0.001724  0.999329  0.817179  1
  O  O16  1  0.000671  0.998276  0.182821  1
  O  O17  1  0.505994  0.494936  0.812406  1
  O  O18  1  0.505064  0.494006  0.187594  1
