# generated using pymatgen
data_Bi3Ru2(RhO7)2
_symmetry_space_group_name_H-M   'P 1'
_cell_length_a   7.17381361
_cell_length_b   7.11649182
_cell_length_c   7.17381311
_cell_angle_alpha   61.71252888
_cell_angle_beta   61.58831756
_cell_angle_gamma   61.71252880
_symmetry_Int_Tables_number   1
_chemical_formula_structural   Bi3Ru2(RhO7)2
_chemical_formula_sum   'Bi3 Ru2 Rh2 O14'
_cell_volume   268.67311232
_cell_formula_units_Z   1
loop_
 _symmetry_equiv_pos_site_id
 _symmetry_equiv_pos_as_xyz
  1  'x, y, z'
loop_
 _atom_site_type_symbol
 _atom_site_label
 _atom_site_symmetry_multiplicity
 _atom_site_fract_x
 _atom_site_fract_y
 _atom_site_fract_z
 _atom_site_occupancy
  Bi  Bi0  1  0.000000  0.500000  0.500000  1
  Bi  Bi1  1  0.500000  0.500000  0.000000  1
  Bi  Bi2  1  0.500000  0.000000  0.500000  1
  Ru  Ru3  1  0.500000  0.000000  0.000000  1
  Ru  Ru4  1  0.000000  0.000000  0.500000  1
  Rh  Rh5  1  0.000000  0.000000  0.000000  1
  Rh  Rh6  1  0.000000  0.500000  0.000000  1
  O  O7  1  0.942438  0.316291  0.326610  1
  O  O8  1  0.330377  0.919100  0.915847  1
  O  O9  1  0.326610  0.316291  0.942438  1
  O  O10  1  0.915847  0.919100  0.330377  1
  O  O11  1  0.914475  0.332588  0.914475  1
  O  O12  1  0.320463  0.943075  0.320463  1
  O  O13  1  0.057562  0.683709  0.673390  1
  O  O14  1  0.669623  0.080900  0.084153  1
  O  O15  1  0.673390  0.683709  0.057562  1
  O  O16  1  0.084153  0.080900  0.669623  1
  O  O17  1  0.085525  0.667412  0.085525  1
  O  O18  1  0.679537  0.056925  0.679537  1
  O  O19  1  0.373268  0.376312  0.373268  1
  O  O20  1  0.626732  0.623688  0.626732  1
