# generated using pymatgen
data_Tb8Ti12Si15As
_symmetry_space_group_name_H-M   'P 1'
_cell_length_a   7.07530316
_cell_length_b   7.06912824
_cell_length_c   13.00430181
_cell_angle_alpha   89.98152908
_cell_angle_beta   89.81685551
_cell_angle_gamma   89.93480844
_symmetry_Int_Tables_number   1
_chemical_formula_structural   Tb8Ti12Si15As
_chemical_formula_sum   'Tb8 Ti12 Si15 As1'
_cell_volume   650.42231295
_cell_formula_units_Z   1
loop_
 _symmetry_equiv_pos_site_id
 _symmetry_equiv_pos_as_xyz
  1  'x, y, z'
loop_
 _atom_site_type_symbol
 _atom_site_label
 _atom_site_symmetry_multiplicity
 _atom_site_fract_x
 _atom_site_fract_y
 _atom_site_fract_z
 _atom_site_occupancy
  Tb  Tb0  1  0.340856  0.002237  0.466199  1
  Tb  Tb1  1  0.497060  0.841027  0.717195  1
  Tb  Tb2  1  0.502591  0.159832  0.216488  1
  Tb  Tb3  1  0.839899  0.497127  0.283232  1
  Tb  Tb4  1  0.159712  0.502128  0.783387  1
  Tb  Tb5  1  0.660656  0.995674  0.967135  1
  Tb  Tb6  1  0.000616  0.342171  0.532176  1
  Tb  Tb7  1  0.997575  0.659996  0.033492  1
  Ti  Ti8  1  0.326190  0.326758  0.999721  1
  Ti  Ti9  1  0.172997  0.827183  0.250075  1
  Ti  Ti10  1  0.824107  0.173271  0.750190  1
  Ti  Ti11  1  0.673064  0.672835  0.500063  1
  Ti  Ti12  1  0.154339  0.009381  0.876218  1
  Ti  Ti13  1  0.491131  0.652777  0.126363  1
  Ti  Ti14  1  0.509690  0.347221  0.627198  1
  Ti  Ti15  1  0.654609  0.493129  0.873982  1
  Ti  Ti16  1  0.346804  0.508432  0.373444  1
  Ti  Ti17  1  0.846926  0.991383  0.376267  1
  Ti  Ti18  1  0.008792  0.152703  0.123579  1
  Ti  Ti19  1  0.989432  0.843820  0.622929  1
  Si  Si20  1  0.369999  0.702720  0.934704  1
  Si  Si21  1  0.628871  0.298047  0.435251  1
  Si  Si22  1  0.702220  0.370922  0.065173  1
  Si  Si23  1  0.297703  0.629520  0.565186  1
  Si  Si24  1  0.797527  0.870873  0.185211  1
  Si  Si25  1  0.129551  0.202210  0.315261  1
  Si  Si26  1  0.871043  0.797766  0.814788  1
  Si  Si27  1  0.290632  0.952896  0.064790  1
  Si  Si28  1  0.546905  0.790379  0.314697  1
  Si  Si29  1  0.461014  0.211384  0.819152  1
  Si  Si30  1  0.790611  0.546703  0.684996  1
  Si  Si31  1  0.209445  0.453012  0.185295  1
  Si  Si32  1  0.709252  0.046267  0.564428  1
  Si  Si33  1  0.953529  0.290501  0.935365  1
  Si  Si34  1  0.046909  0.709779  0.434963  1
  As  As35  1  0.197744  0.127938  0.681406  1
