# generated using pymatgen
data_Sm4Be2(SiRh3)3
_symmetry_space_group_name_H-M   'P 1'
_cell_length_a   11.41043627
_cell_length_b   11.41043702
_cell_length_c   11.41043526
_cell_angle_alpha   28.31951134
_cell_angle_beta   28.31951394
_cell_angle_gamma   28.31951699
_symmetry_Int_Tables_number   1
_chemical_formula_structural   Sm4Be2(SiRh3)3
_chemical_formula_sum   'Sm4 Be2 Si3 Rh9'
_cell_volume   295.42528708
_cell_formula_units_Z   1
loop_
 _symmetry_equiv_pos_site_id
 _symmetry_equiv_pos_as_xyz
  1  'x, y, z'
loop_
 _atom_site_type_symbol
 _atom_site_label
 _atom_site_symmetry_multiplicity
 _atom_site_fract_x
 _atom_site_fract_y
 _atom_site_fract_z
 _atom_site_occupancy
  Sm  Sm0  1  0.948605  0.948605  0.948605  1
  Sm  Sm1  1  0.850682  0.850682  0.850682  1
  Sm  Sm2  1  0.147873  0.147873  0.147873  1
  Sm  Sm3  1  0.050421  0.050421  0.050421  1
  Be  Be4  1  0.279386  0.279386  0.279386  1
  Be  Be5  1  0.387737  0.387737  0.387737  1
  Si  Si6  1  0.501156  0.501156  0.501156  1
  Si  Si7  1  0.720561  0.720561  0.720561  1
  Si  Si8  1  0.613208  0.613208  0.613208  1
  Rh  Rh9  1  0.603615  0.603615  0.112579  1
  Rh  Rh10  1  0.898094  0.391033  0.391033  1
  Rh  Rh11  1  0.496981  0.006440  0.496981  1
  Rh  Rh12  1  0.391033  0.898094  0.391033  1
  Rh  Rh13  1  0.496981  0.496981  0.006440  1
  Rh  Rh14  1  0.112579  0.603615  0.603615  1
  Rh  Rh15  1  0.006440  0.496981  0.496981  1
  Rh  Rh16  1  0.391033  0.391033  0.898094  1
  Rh  Rh17  1  0.603615  0.112579  0.603615  1
