# generated using pymatgen
data_Ni2Ag3BiO6
_symmetry_space_group_name_H-M   'P 1'
_cell_length_a   5.49863302
_cell_length_b   5.49822907
_cell_length_c   19.06343104
_cell_angle_alpha   89.99361771
_cell_angle_beta   89.99961377
_cell_angle_gamma   119.99315466
_symmetry_Int_Tables_number   1
_chemical_formula_structural   Ni2Ag3BiO6
_chemical_formula_sum   'Ni6 Ag9 Bi3 O18'
_cell_volume   499.15935362
_cell_formula_units_Z   3
loop_
 _symmetry_equiv_pos_site_id
 _symmetry_equiv_pos_as_xyz
  1  'x, y, z'
loop_
 _atom_site_type_symbol
 _atom_site_label
 _atom_site_symmetry_multiplicity
 _atom_site_fract_x
 _atom_site_fract_y
 _atom_site_fract_z
 _atom_site_occupancy
  Ni  Ni0  1  0.119137  0.559623  0.000022  1
  Ni  Ni1  1  0.785571  0.892724  0.000019  1
  Ni  Ni2  1  0.107413  0.892801  0.333383  1
  Ni  Ni3  1  0.440271  0.559453  0.333378  1
  Ni  Ni4  1  0.107282  0.214469  0.666669  1
  Ni  Ni5  1  0.440330  0.880809  0.666649  1
  Ag  Ag6  1  0.445654  0.891278  0.166664  1
  Ag  Ag7  1  0.113385  0.226726  0.166665  1
  Ag  Ag8  1  0.781370  0.562763  0.166666  1
  Ag  Ag9  1  0.108698  0.554371  0.500015  1
  Ag  Ag10  1  0.773283  0.886716  0.500013  1
  Ag  Ag11  1  0.437235  0.218621  0.500011  1
  Ag  Ag12  1  0.445596  0.554371  0.833334  1
  Ag  Ag13  1  0.113313  0.886677  0.833338  1
  Ag  Ag14  1  0.781366  0.218665  0.833342  1
  Bi  Bi15  1  0.451622  0.225818  0.000010  1
  Bi  Bi16  1  0.774217  0.225802  0.333331  1
  Bi  Bi17  1  0.774177  0.548368  0.666653  1
  O  O18  1  0.793311  0.567436  0.056137  1
  O  O19  1  0.110314  0.226109  0.056115  1
  O  O20  1  0.452022  0.884705  0.056180  1
  O  O21  1  0.432689  0.884641  0.277149  1
  O  O22  1  0.115783  0.226063  0.277219  1
  O  O23  1  0.774101  0.567372  0.277195  1
  O  O24  1  0.432670  0.225896  0.389500  1
  O  O25  1  0.773941  0.884252  0.389479  1
  O  O26  1  0.115317  0.567280  0.389557  1
  O  O27  1  0.115284  0.547995  0.610505  1
  O  O28  1  0.773857  0.889643  0.610567  1
  O  O29  1  0.432613  0.206705  0.610535  1
  O  O30  1  0.774116  0.206779  0.722826  1
  O  O31  1  0.115742  0.889657  0.722796  1
  O  O32  1  0.432769  0.548018  0.722849  1
  O  O33  1  0.451972  0.567248  0.943798  1
  O  O34  1  0.110335  0.884244  0.943851  1
  O  O35  1  0.793248  0.225902  0.943835  1
