# generated using pymatgen
data_ScMn4VP3
_symmetry_space_group_name_H-M   'P 1'
_cell_length_a   3.52121500
_cell_length_b   10.65965500
_cell_length_c   12.21925200
_cell_angle_alpha   90.00000000
_cell_angle_beta   90.00000000
_cell_angle_gamma   90.00000000
_symmetry_Int_Tables_number   1
_chemical_formula_structural   ScMn4VP3
_chemical_formula_sum   'Sc4 Mn16 V4 P12'
_cell_volume   458.64885499
_cell_formula_units_Z   4
loop_
 _symmetry_equiv_pos_site_id
 _symmetry_equiv_pos_as_xyz
  1  'x, y, z'
loop_
 _atom_site_type_symbol
 _atom_site_label
 _atom_site_symmetry_multiplicity
 _atom_site_fract_x
 _atom_site_fract_y
 _atom_site_fract_z
 _atom_site_occupancy
  Sc  Sc0  1  0.250000  0.584710  0.707405  1
  Sc  Sc1  1  0.250000  0.915290  0.207405  1
  Sc  Sc2  1  0.750000  0.415290  0.292595  1
  Sc  Sc3  1  0.750000  0.084710  0.792595  1
  Mn  Mn4  1  0.250000  0.410482  0.491975  1
  Mn  Mn5  1  0.250000  0.089518  0.991975  1
  Mn  Mn6  1  0.750000  0.589518  0.508025  1
  Mn  Mn7  1  0.750000  0.910482  0.008025  1
  Mn  Mn8  1  0.250000  0.213088  0.181534  1
  Mn  Mn9  1  0.250000  0.286913  0.681534  1
  Mn  Mn10  1  0.750000  0.786913  0.818466  1
  Mn  Mn11  1  0.750000  0.713087  0.318466  1
  Mn  Mn12  1  0.250000  0.883215  0.694444  1
  Mn  Mn13  1  0.250000  0.616785  0.194444  1
  Mn  Mn14  1  0.750000  0.116785  0.305556  1
  Mn  Mn15  1  0.750000  0.383215  0.805556  1
  Mn  Mn16  1  0.250000  0.463761  0.934892  1
  Mn  Mn17  1  0.250000  0.036239  0.434892  1
  Mn  Mn18  1  0.750000  0.536239  0.065108  1
  Mn  Mn19  1  0.750000  0.963761  0.565108  1
  V  V20  1  0.250000  0.709422  0.983548  1
  V  V21  1  0.250000  0.790578  0.483548  1
  V  V22  1  0.750000  0.290578  0.016452  1
  V  V23  1  0.750000  0.209422  0.516452  1
  P  P24  1  0.250000  0.412315  0.120215  1
  P  P25  1  0.250000  0.087685  0.620215  1
  P  P26  1  0.750000  0.587685  0.879785  1
  P  P27  1  0.750000  0.912315  0.379785  1
  P  P28  1  0.250000  0.259029  0.871807  1
  P  P29  1  0.250000  0.240971  0.371807  1
  P  P30  1  0.750000  0.740971  0.128193  1
  P  P31  1  0.750000  0.759029  0.628193  1
  P  P32  1  0.250000  0.587924  0.382328  1
  P  P33  1  0.250000  0.912076  0.882328  1
  P  P34  1  0.750000  0.412076  0.617672  1
  P  P35  1  0.750000  0.087924  0.117672  1
