# generated using pymatgen
data_Li2SmB(PPd4)5
_symmetry_space_group_name_H-M   'P 1'
_cell_length_a   8.59800713
_cell_length_b   8.53006443
_cell_length_c   8.53006332
_cell_angle_alpha   60.30521048
_cell_angle_beta   59.73615494
_cell_angle_gamma   59.73615676
_symmetry_Int_Tables_number   1
_chemical_formula_structural   Li2SmB(PPd4)5
_chemical_formula_sum   'Li2 Sm1 B1 P5 Pd20'
_cell_volume   441.59837534
_cell_formula_units_Z   1
loop_
 _symmetry_equiv_pos_site_id
 _symmetry_equiv_pos_as_xyz
  1  'x, y, z'
loop_
 _atom_site_type_symbol
 _atom_site_label
 _atom_site_symmetry_multiplicity
 _atom_site_fract_x
 _atom_site_fract_y
 _atom_site_fract_z
 _atom_site_occupancy
  Li  Li0  1  0.249434  0.250566  0.250566  1
  Li  Li1  1  0.999520  0.000480  0.000480  1
  Sm  Sm2  1  0.748640  0.751360  0.751360  1
  B  B3  1  0.737550  0.262450  0.262450  1
  P  P4  1  0.262203  0.737797  0.737797  1
  P  P5  1  0.262606  0.737487  0.264584  1
  P  P6  1  0.735323  0.264584  0.737487  1
  P  P7  1  0.262606  0.264584  0.737487  1
  P  P8  1  0.735323  0.737487  0.264584  1
  Pd  Pd9  1  0.386198  0.377961  0.377961  1
  Pd  Pd10  1  0.612492  0.612895  0.612895  1
  Pd  Pd11  1  0.381034  0.378959  0.858970  1
  Pd  Pd12  1  0.381034  0.858970  0.378959  1
  Pd  Pd13  1  0.616273  0.602453  0.165004  1
  Pd  Pd14  1  0.616273  0.165004  0.602453  1
  Pd  Pd15  1  0.857880  0.377961  0.377961  1
  Pd  Pd16  1  0.161722  0.612895  0.612895  1
  Pd  Pd17  1  0.343124  0.000211  0.000211  1
  Pd  Pd18  1  0.656455  0.000211  0.000211  1
  Pd  Pd19  1  0.999253  0.343520  0.657975  1
  Pd  Pd20  1  0.999253  0.657975  0.343520  1
  Pd  Pd21  1  0.989650  0.339147  0.008660  1
  Pd  Pd22  1  0.662544  0.008660  0.339147  1
  Pd  Pd23  1  0.999239  0.655440  0.998852  1
  Pd  Pd24  1  0.346470  0.998852  0.655440  1
  Pd  Pd25  1  0.989650  0.008660  0.339147  1
  Pd  Pd26  1  0.999239  0.998852  0.655440  1
  Pd  Pd27  1  0.662544  0.339147  0.008660  1
  Pd  Pd28  1  0.346470  0.655440  0.998852  1
