# generated using pymatgen
data_Ho4MnV(B8Rh)2
_symmetry_space_group_name_H-M   'P 1'
_cell_length_a   3.49540900
_cell_length_b   5.94073524
_cell_length_c   11.50799584
_cell_angle_alpha   90.41251764
_cell_angle_beta   90.00000000
_cell_angle_gamma   90.00000000
_symmetry_Int_Tables_number   1
_chemical_formula_structural   Ho4MnV(B8Rh)2
_chemical_formula_sum   'Ho4 Mn1 V1 B16 Rh2'
_cell_volume   238.96078567
_cell_formula_units_Z   1
loop_
 _symmetry_equiv_pos_site_id
 _symmetry_equiv_pos_as_xyz
  1  'x, y, z'
loop_
 _atom_site_type_symbol
 _atom_site_label
 _atom_site_symmetry_multiplicity
 _atom_site_fract_x
 _atom_site_fract_y
 _atom_site_fract_z
 _atom_site_occupancy
  Ho  Ho0  1  0.500000  0.123734  0.648041  1
  Ho  Ho1  1  0.500000  0.873722  0.352162  1
  Ho  Ho2  1  0.500000  0.630421  0.847297  1
  Ho  Ho3  1  0.500000  0.370633  0.151568  1
  Mn  Mn4  1  0.500000  0.622922  0.581864  1
  V  V5  1  0.500000  0.375723  0.419068  1
  B  B6  1  0.000000  0.479490  0.690576  1
  B  B7  1  0.000000  0.524289  0.308961  1
  B  B8  1  0.000000  0.973029  0.805510  1
  B  B9  1  0.000000  0.025091  0.193965  1
  B  B10  1  0.000000  0.288383  0.811214  1
  B  B11  1  0.000000  0.712520  0.188015  1
  B  B12  1  0.000000  0.782120  0.682290  1
  B  B13  1  0.000000  0.213728  0.315329  1
  B  B14  1  0.000000  0.364991  0.969444  1
  B  B15  1  0.000000  0.634892  0.030727  1
  B  B16  1  0.000000  0.861991  0.533517  1
  B  B17  1  0.000000  0.135129  0.469275  1
  B  B18  1  0.000000  0.389817  0.548284  1
  B  B19  1  0.000000  0.615268  0.455998  1
  B  B20  1  0.000000  0.886321  0.951871  1
  B  B21  1  0.000000  0.113635  0.047592  1
  Rh  Rh22  1  0.500000  0.142476  0.904911  1
  Rh  Rh23  1  0.500000  0.859674  0.092523  1
