# generated using pymatgen
data_Pr4Ga9SiAu6
_symmetry_space_group_name_H-M   'P 1'
_cell_length_a   8.73570380
_cell_length_b   8.74401040
_cell_length_c   8.74400939
_cell_angle_alpha   138.21768128
_cell_angle_beta   104.69534482
_cell_angle_gamma   90.05046097
_symmetry_Int_Tables_number   1
_chemical_formula_structural   Pr4Ga9SiAu6
_chemical_formula_sum   'Pr4 Ga9 Si1 Au6'
_cell_volume   411.33379282
_cell_formula_units_Z   1
loop_
 _symmetry_equiv_pos_site_id
 _symmetry_equiv_pos_as_xyz
  1  'x, y, z'
loop_
 _atom_site_type_symbol
 _atom_site_label
 _atom_site_symmetry_multiplicity
 _atom_site_fract_x
 _atom_site_fract_y
 _atom_site_fract_z
 _atom_site_occupancy
  Pr  Pr0  1  0.865114  0.627845  0.237269  1
  Pr  Pr1  1  0.135662  0.373664  0.761998  1
  Pr  Pr2  1  0.388390  0.127370  0.261021  1
  Pr  Pr3  1  0.605956  0.870565  0.735391  1
  Ga  Ga4  1  0.502496  0.750341  0.249451  1
  Ga  Ga5  1  0.502496  0.253045  0.752155  1
  Ga  Ga6  1  0.229478  0.975358  0.746335  1
  Ga  Ga7  1  0.768196  0.520412  0.750655  1
  Ga  Ga8  1  0.768196  0.017541  0.247784  1
  Ga  Ga9  1  0.229478  0.483143  0.254120  1
  Ga  Ga10  1  0.031395  0.882973  0.148422  1
  Ga  Ga11  1  0.967051  0.113945  0.853106  1
  Ga  Ga12  1  0.735715  0.384345  0.351370  1
  Si  Si13  1  0.263133  0.615717  0.647416  1
  Au  Au14  1  0.006902  0.747065  0.750273  1
  Au  Au15  1  0.006902  0.256629  0.259837  1
  Au  Au16  1  0.250112  0.866580  0.383532  1
  Au  Au17  1  0.754058  0.135394  0.618662  1
  Au  Au18  1  0.480067  0.363864  0.116202  1
  Au  Au19  1  0.509203  0.634202  0.875001  1
