# generated using pymatgen
data_Li8CdAg9
_symmetry_space_group_name_H-M   'P 1'
_cell_length_a   7.85189800
_cell_length_b   7.85189825
_cell_length_c   5.57045200
_cell_angle_alpha   90.00000000
_cell_angle_beta   90.00000000
_cell_angle_gamma   119.99999053
_symmetry_Int_Tables_number   1
_chemical_formula_structural   Li8CdAg9
_chemical_formula_sum   'Li8 Cd1 Ag9'
_cell_volume   297.42017288
_cell_formula_units_Z   1
loop_
 _symmetry_equiv_pos_site_id
 _symmetry_equiv_pos_as_xyz
  1  'x, y, z'
loop_
 _atom_site_type_symbol
 _atom_site_label
 _atom_site_symmetry_multiplicity
 _atom_site_fract_x
 _atom_site_fract_y
 _atom_site_fract_z
 _atom_site_occupancy
  Li  Li0  1  0.988444  0.654369  0.233102  1
  Li  Li1  1  0.665923  0.011556  0.233102  1
  Li  Li2  1  0.345631  0.334077  0.233102  1
  Li  Li3  1  0.335905  0.003854  0.885280  1
  Li  Li4  1  0.667949  0.664095  0.885280  1
  Li  Li5  1  0.996146  0.332051  0.885280  1
  Li  Li6  1  0.333333  0.666667  0.564607  1
  Li  Li7  1  0.000000  0.000000  0.569037  1
  Cd  Cd8  1  0.666667  0.333333  0.539556  1
  Ag  Ag9  1  0.012133  0.677695  0.739307  1
  Ag  Ag10  1  0.665562  0.987867  0.739307  1
  Ag  Ag11  1  0.322305  0.334438  0.739307  1
  Ag  Ag12  1  0.312358  0.979761  0.381307  1
  Ag  Ag13  1  0.667402  0.687642  0.381307  1
  Ag  Ag14  1  0.020239  0.332598  0.381307  1
  Ag  Ag15  1  0.333333  0.666667  0.062753  1
  Ag  Ag16  1  0.000000  0.000000  0.066307  1
  Ag  Ag17  1  0.666667  0.333333  0.039115  1
