# generated using pymatgen
data_Eu4NiH12Pt
_symmetry_space_group_name_H-M   'P 1'
_cell_length_a   7.27909889
_cell_length_b   7.27909922
_cell_length_c   5.41762548
_cell_angle_alpha   89.46577186
_cell_angle_beta   89.46576861
_cell_angle_gamma   136.24612974
_symmetry_Int_Tables_number   1
_chemical_formula_structural   Eu4NiH12Pt
_chemical_formula_sum   'Eu4 Ni1 H12 Pt1'
_cell_volume   198.45372472
_cell_formula_units_Z   1
loop_
 _symmetry_equiv_pos_site_id
 _symmetry_equiv_pos_as_xyz
  1  'x, y, z'
loop_
 _atom_site_type_symbol
 _atom_site_label
 _atom_site_symmetry_multiplicity
 _atom_site_fract_x
 _atom_site_fract_y
 _atom_site_fract_z
 _atom_site_occupancy
  Eu  Eu0  1  0.644726  0.355274  0.000000  1
  Eu  Eu1  1  0.355274  0.644726  0.000000  1
  Eu  Eu2  1  0.856200  0.143800  0.500000  1
  Eu  Eu3  1  0.143800  0.856200  0.500000  1
  Ni  Ni4  1  0.000000  0.000000  0.000000  1
  H  H5  1  0.882691  0.117309  0.000000  1
  H  H6  1  0.117309  0.882691  0.000000  1
  H  H7  1  0.624973  0.375027  0.500000  1
  H  H8  1  0.375027  0.624973  0.500000  1
  H  H9  1  0.999818  0.501530  0.251423  1
  H  H10  1  0.000182  0.498470  0.748577  1
  H  H11  1  0.498470  0.000182  0.748577  1
  H  H12  1  0.501530  0.999818  0.251423  1
  H  H13  1  0.209799  0.209799  0.214408  1
  H  H14  1  0.790201  0.790201  0.785592  1
  H  H15  1  0.267840  0.267840  0.736986  1
  H  H16  1  0.732160  0.732160  0.263014  1
  Pt  Pt17  1  0.500000  0.500000  0.500000  1
