# generated using pymatgen
data_YbPa9Se20
_symmetry_space_group_name_H-M   'P 1'
_cell_length_a   10.74147271
_cell_length_b   10.71659849
_cell_length_c   6.63728622
_cell_angle_alpha   89.70360272
_cell_angle_beta   89.53190933
_cell_angle_gamma   89.54866378
_symmetry_Int_Tables_number   1
_chemical_formula_structural   YbPa9Se20
_chemical_formula_sum   'Yb1 Pa9 Se20'
_cell_volume   763.97245222
_cell_formula_units_Z   1
loop_
 _symmetry_equiv_pos_site_id
 _symmetry_equiv_pos_as_xyz
  1  'x, y, z'
loop_
 _atom_site_type_symbol
 _atom_site_label
 _atom_site_symmetry_multiplicity
 _atom_site_fract_x
 _atom_site_fract_y
 _atom_site_fract_z
 _atom_site_occupancy
  Yb  Yb0  1  0.836443  0.152655  0.247114  1
  Pa  Pa1  1  0.656463  0.657430  0.252775  1
  Pa  Pa2  1  0.346957  0.338154  0.247372  1
  Pa  Pa3  1  0.157762  0.846122  0.248960  1
  Pa  Pa4  1  0.498526  0.999061  0.857196  1
  Pa  Pa5  1  0.339655  0.654999  0.750291  1
  Pa  Pa6  1  0.152038  0.158959  0.749637  1
  Pa  Pa7  1  0.846864  0.843161  0.748800  1
  Pa  Pa8  1  0.663390  0.344000  0.751969  1
  Pa  Pa9  1  0.999992  0.499048  0.143948  1
  Se  Se10  1  0.711443  0.087382  0.637600  1
  Se  Se11  1  0.588711  0.788663  0.618622  1
  Se  Se12  1  0.410229  0.207437  0.616658  1
  Se  Se13  1  0.291501  0.911000  0.616920  1
  Se  Se14  1  0.704193  0.905097  0.104359  1
  Se  Se15  1  0.580623  0.209077  0.105973  1
  Se  Se16  1  0.409911  0.790216  0.110669  1
  Se  Se17  1  0.288158  0.086454  0.110740  1
  Se  Se18  1  0.501994  0.502192  0.999743  1
  Se  Se19  1  0.999942  0.998129  0.997666  1
  Se  Se20  1  0.211242  0.412403  0.890622  1
  Se  Se21  1  0.087834  0.707120  0.889627  1
  Se  Se22  1  0.915756  0.295876  0.880596  1
  Se  Se23  1  0.792502  0.589231  0.890704  1
  Se  Se24  1  0.498432  0.497266  0.500779  1
  Se  Se25  1  0.001824  0.001364  0.501023  1
  Se  Se26  1  0.209422  0.590136  0.381962  1
  Se  Se27  1  0.095078  0.296026  0.387110  1
  Se  Se28  1  0.913054  0.712889  0.378615  1
  Se  Se29  1  0.790061  0.418450  0.381951  1
