# generated using pymatgen
data_Lu8Sc4InCo4Ag
_symmetry_space_group_name_H-M   'P 1'
_cell_length_a   8.03151276
_cell_length_b   8.03151290
_cell_length_c   8.03151367
_cell_angle_alpha   110.89007313
_cell_angle_beta   111.29770629
_cell_angle_gamma   106.27273458
_symmetry_Int_Tables_number   1
_chemical_formula_structural   Lu8Sc4InCo4Ag
_chemical_formula_sum   'Lu8 Sc4 In1 Co4 Ag1'
_cell_volume   397.88301373
_cell_formula_units_Z   1
loop_
 _symmetry_equiv_pos_site_id
 _symmetry_equiv_pos_as_xyz
  1  'x, y, z'
loop_
 _atom_site_type_symbol
 _atom_site_label
 _atom_site_symmetry_multiplicity
 _atom_site_fract_x
 _atom_site_fract_y
 _atom_site_fract_z
 _atom_site_occupancy
  Lu  Lu0  1  0.191766  0.289066  0.480833  1
  Lu  Lu1  1  0.808234  0.710934  0.519167  1
  Lu  Lu2  1  0.191766  0.710934  0.902702  1
  Lu  Lu3  1  0.808234  0.289066  0.097298  1
  Lu  Lu4  1  0.311941  0.611480  0.299538  1
  Lu  Lu5  1  0.688059  0.388520  0.700462  1
  Lu  Lu6  1  0.311941  0.012403  0.700462  1
  Lu  Lu7  1  0.688059  0.987597  0.299538  1
  Sc  Sc8  1  0.433180  0.223748  0.209432  1
  Sc  Sc9  1  0.566820  0.776252  0.790568  1
  Sc  Sc10  1  0.014314  0.223748  0.790568  1
  Sc  Sc11  1  0.985686  0.776252  0.209432  1
  In  In12  1  0.500000  0.500000  0.000000  1
  Co  Co13  1  0.372585  0.000000  0.372585  1
  Co  Co14  1  0.627415  0.000000  0.627415  1
  Co  Co15  1  0.114320  0.614320  0.500000  1
  Co  Co16  1  0.885680  0.385680  0.500000  1
  Ag  Ag17  1  0.000000  0.000000  0.000000  1
