# generated using pymatgen
data_Tb4Cu2OsRu5
_symmetry_space_group_name_H-M   'P 1'
_cell_length_a   5.29599382
_cell_length_b   5.20520244
_cell_length_c   8.82619400
_cell_angle_alpha   90.00000000
_cell_angle_beta   90.00000000
_cell_angle_gamma   117.82802830
_symmetry_Int_Tables_number   1
_chemical_formula_structural   Tb4Cu2OsRu5
_chemical_formula_sum   'Tb4 Cu2 Os1 Ru5'
_cell_volume   215.17116888
_cell_formula_units_Z   1
loop_
 _symmetry_equiv_pos_site_id
 _symmetry_equiv_pos_as_xyz
  1  'x, y, z'
loop_
 _atom_site_type_symbol
 _atom_site_label
 _atom_site_symmetry_multiplicity
 _atom_site_fract_x
 _atom_site_fract_y
 _atom_site_fract_z
 _atom_site_occupancy
  Tb  Tb0  1  0.323365  0.663604  0.436548  1
  Tb  Tb1  1  0.658406  0.330559  0.563599  1
  Tb  Tb2  1  0.658406  0.330559  0.936401  1
  Tb  Tb3  1  0.323365  0.663604  0.063452  1
  Cu  Cu4  1  0.186197  0.840499  0.750000  1
  Cu  Cu5  1  0.182978  0.344133  0.750000  1
  Os  Os6  1  0.833460  0.160163  0.250000  1
  Ru  Ru7  1  0.980295  0.998699  0.501783  1
  Ru  Ru8  1  0.980295  0.998699  0.998217  1
  Ru  Ru9  1  0.831823  0.655867  0.250000  1
  Ru  Ru10  1  0.349847  0.167237  0.250000  1
  Ru  Ru11  1  0.691563  0.846376  0.750000  1
