# generated using pymatgen
data_LaPrTh2(MgSi2)2
_symmetry_space_group_name_H-M   'P 1'
_cell_length_a   7.41331213
_cell_length_b   7.41331273
_cell_length_c   4.39026500
_cell_angle_alpha   90.00000000
_cell_angle_beta   90.00000000
_cell_angle_gamma   90.83665121
_symmetry_Int_Tables_number   1
_chemical_formula_structural   LaPrTh2(MgSi2)2
_chemical_formula_sum   'La1 Pr1 Th2 Mg2 Si4'
_cell_volume   241.25095383
_cell_formula_units_Z   1
loop_
 _symmetry_equiv_pos_site_id
 _symmetry_equiv_pos_as_xyz
  1  'x, y, z'
loop_
 _atom_site_type_symbol
 _atom_site_label
 _atom_site_symmetry_multiplicity
 _atom_site_fract_x
 _atom_site_fract_y
 _atom_site_fract_z
 _atom_site_occupancy
  La  La0  1  0.178403  0.321597  0.500000  1
  Pr  Pr1  1  0.821262  0.678738  0.500000  1
  Th  Th2  1  0.677938  0.177747  0.500000  1
  Th  Th3  1  0.322253  0.822062  0.500000  1
  Mg  Mg4  1  0.999293  0.998963  0.000000  1
  Mg  Mg5  1  0.501037  0.500707  0.000000  1
  Si  Si6  1  0.116471  0.617780  0.000000  1
  Si  Si7  1  0.882220  0.383529  0.000000  1
  Si  Si8  1  0.614529  0.885471  0.000000  1
  Si  Si9  1  0.386594  0.113406  0.000000  1
