# generated using pymatgen
data_Tb2Tm4CoTe2
_symmetry_space_group_name_H-M   'P 1'
_cell_length_a   8.37214455
_cell_length_b   8.21260017
_cell_length_c   3.91993700
_cell_angle_alpha   90.00000000
_cell_angle_beta   90.00000000
_cell_angle_gamma   119.37158376
_symmetry_Int_Tables_number   1
_chemical_formula_structural   Tb2Tm4CoTe2
_chemical_formula_sum   'Tb2 Tm4 Co1 Te2'
_cell_volume   234.87810408
_cell_formula_units_Z   1
loop_
 _symmetry_equiv_pos_site_id
 _symmetry_equiv_pos_as_xyz
  1  'x, y, z'
loop_
 _atom_site_type_symbol
 _atom_site_label
 _atom_site_symmetry_multiplicity
 _atom_site_fract_x
 _atom_site_fract_y
 _atom_site_fract_z
 _atom_site_occupancy
  Tb  Tb0  1  0.597585  0.599122  0.500000  1
  Tb  Tb1  1  0.402415  0.001537  0.500000  1
  Tm  Tm2  1  0.000000  0.382327  0.500000  1
  Tm  Tm3  1  0.000000  0.767152  0.000000  1
  Tm  Tm4  1  0.237490  0.229579  0.000000  1
  Tm  Tm5  1  0.762510  0.992089  0.000000  1
  Co  Co6  1  0.000000  0.031425  0.500000  1
  Te  Te7  1  0.327803  0.662286  0.000000  1
  Te  Te8  1  0.672197  0.334482  0.000000  1
