# generated using pymatgen
data_Nd4Ho2NiCl10
_symmetry_space_group_name_H-M   'P 1'
_cell_length_a   7.17973981
_cell_length_b   9.16907302
_cell_length_c   9.13795608
_cell_angle_alpha   109.46179842
_cell_angle_beta   94.95650901
_cell_angle_gamma   105.95665157
_symmetry_Int_Tables_number   1
_chemical_formula_structural   Nd4Ho2NiCl10
_chemical_formula_sum   'Nd4 Ho2 Ni1 Cl10'
_cell_volume   534.72557833
_cell_formula_units_Z   1
loop_
 _symmetry_equiv_pos_site_id
 _symmetry_equiv_pos_as_xyz
  1  'x, y, z'
loop_
 _atom_site_type_symbol
 _atom_site_label
 _atom_site_symmetry_multiplicity
 _atom_site_fract_x
 _atom_site_fract_y
 _atom_site_fract_z
 _atom_site_occupancy
  Nd  Nd0  1  0.138431  0.049373  0.749218  1
  Nd  Nd1  1  0.861569  0.950627  0.250782  1
  Nd  Nd2  1  0.971109  0.306407  0.103021  1
  Nd  Nd3  1  0.028891  0.693593  0.896979  1
  Ho  Ho4  1  0.357464  0.132965  0.177802  1
  Ho  Ho5  1  0.642536  0.867035  0.822198  1
  Ni  Ni6  1  0.000000  0.000000  0.000000  1
  Cl  Cl7  1  0.549897  0.166123  0.923828  1
  Cl  Cl8  1  0.450103  0.833877  0.076172  1
  Cl  Cl9  1  0.359634  0.437633  0.265100  1
  Cl  Cl10  1  0.640366  0.562367  0.734900  1
  Cl  Cl11  1  0.249783  0.080780  0.439174  1
  Cl  Cl12  1  0.750217  0.919220  0.560826  1
  Cl  Cl13  1  0.761674  0.247077  0.340146  1
  Cl  Cl14  1  0.238326  0.752923  0.659854  1
  Cl  Cl15  1  0.085418  0.362423  0.830720  1
  Cl  Cl16  1  0.914582  0.637577  0.169280  1
