# generated using pymatgen
data_Na16HfZrAs8
_symmetry_space_group_name_H-M   'P 1'
_cell_length_a   9.91901837
_cell_length_b   9.91901944
_cell_length_c   9.91901900
_cell_angle_alpha   60.00000481
_cell_angle_beta   60.00000125
_cell_angle_gamma   60.00000440
_symmetry_Int_Tables_number   1
_chemical_formula_structural   Na16HfZrAs8
_chemical_formula_sum   'Na16 Hf1 Zr1 As8'
_cell_volume   690.06689773
_cell_formula_units_Z   1
loop_
 _symmetry_equiv_pos_site_id
 _symmetry_equiv_pos_as_xyz
  1  'x, y, z'
loop_
 _atom_site_type_symbol
 _atom_site_label
 _atom_site_symmetry_multiplicity
 _atom_site_fract_x
 _atom_site_fract_y
 _atom_site_fract_z
 _atom_site_occupancy
  Na  Na0  1  0.624964  0.624964  0.125107  1
  Na  Na1  1  0.624964  0.125107  0.624964  1
  Na  Na2  1  0.125107  0.624964  0.624964  1
  Na  Na3  1  0.624964  0.624964  0.624964  1
  Na  Na4  1  0.029559  0.470441  0.470441  1
  Na  Na5  1  0.779555  0.220445  0.220445  1
  Na  Na6  1  0.470441  0.029559  0.470441  1
  Na  Na7  1  0.470441  0.470441  0.029559  1
  Na  Na8  1  0.029559  0.029559  0.470441  1
  Na  Na9  1  0.029559  0.470441  0.029559  1
  Na  Na10  1  0.470441  0.029559  0.029559  1
  Na  Na11  1  0.779555  0.220445  0.779555  1
  Na  Na12  1  0.220445  0.779555  0.220445  1
  Na  Na13  1  0.220445  0.220445  0.779555  1
  Na  Na14  1  0.779555  0.779555  0.220445  1
  Na  Na15  1  0.220445  0.779555  0.779555  1
  Hf  Hf16  1  0.750000  0.750000  0.750000  1
  Zr  Zr17  1  0.500000  0.500000  0.500000  1
  As  As18  1  0.857599  0.857599  0.427203  1
  As  As19  1  0.857599  0.427203  0.857599  1
  As  As20  1  0.391572  0.391572  0.825285  1
  As  As21  1  0.391572  0.825285  0.391572  1
  As  As22  1  0.825285  0.391572  0.391572  1
  As  As23  1  0.857599  0.857599  0.857599  1
  As  As24  1  0.427203  0.857599  0.857599  1
  As  As25  1  0.391572  0.391572  0.391572  1
