# generated using pymatgen
data_Ti3Nb4VP4
_symmetry_space_group_name_H-M   'P 1'
_cell_length_a   3.44957100
_cell_length_b   6.50152254
_cell_length_c   7.97847747
_cell_angle_alpha   90.29504712
_cell_angle_beta   90.00000000
_cell_angle_gamma   90.00000000
_symmetry_Int_Tables_number   1
_chemical_formula_structural   Ti3Nb4VP4
_chemical_formula_sum   'Ti3 Nb4 V1 P4'
_cell_volume   178.93464039
_cell_formula_units_Z   1
loop_
 _symmetry_equiv_pos_site_id
 _symmetry_equiv_pos_as_xyz
  1  'x, y, z'
loop_
 _atom_site_type_symbol
 _atom_site_label
 _atom_site_symmetry_multiplicity
 _atom_site_fract_x
 _atom_site_fract_y
 _atom_site_fract_z
 _atom_site_occupancy
  Ti  Ti0  1  0.250000  0.144506  0.438497  1
  Ti  Ti1  1  0.250000  0.636036  0.059824  1
  Ti  Ti2  1  0.750000  0.859797  0.562928  1
  Nb  Nb3  1  0.250000  0.037926  0.831907  1
  Nb  Nb4  1  0.250000  0.534328  0.674549  1
  Nb  Nb5  1  0.750000  0.967168  0.169267  1
  Nb  Nb6  1  0.750000  0.463778  0.323343  1
  V  V7  1  0.750000  0.360243  0.940122  1
  P  P8  1  0.250000  0.760124  0.360325  1
  P  P9  1  0.250000  0.258017  0.133104  1
  P  P10  1  0.750000  0.240057  0.644649  1
  P  P11  1  0.750000  0.738020  0.861484  1
