# generated using pymatgen
data_Rb2SmGd(SiSe4)2
_symmetry_space_group_name_H-M   'P 1'
_cell_length_a   7.07834978
_cell_length_b   6.79327626
_cell_length_c   9.51952484
_cell_angle_alpha   72.49468288
_cell_angle_beta   89.95271535
_cell_angle_gamma   90.01922259
_symmetry_Int_Tables_number   1
_chemical_formula_structural   Rb2SmGd(SiSe4)2
_chemical_formula_sum   'Rb2 Sm1 Gd1 Si2 Se8'
_cell_volume   436.54913356
_cell_formula_units_Z   1
loop_
 _symmetry_equiv_pos_site_id
 _symmetry_equiv_pos_as_xyz
  1  'x, y, z'
loop_
 _atom_site_type_symbol
 _atom_site_label
 _atom_site_symmetry_multiplicity
 _atom_site_fract_x
 _atom_site_fract_y
 _atom_site_fract_z
 _atom_site_occupancy
  Rb  Rb0  1  0.990506  0.737223  0.065338  1
  Rb  Rb1  1  0.491021  0.262095  0.934648  1
  Sm  Sm2  1  0.508213  0.228333  0.452720  1
  Gd  Gd3  1  0.010130  0.770243  0.547687  1
  Si  Si4  1  0.471736  0.779327  0.333498  1
  Si  Si5  1  0.970740  0.220892  0.666329  1
  Se  Se6  1  0.475561  0.581495  0.179176  1
  Se  Se7  1  0.238101  0.026071  0.285104  1
  Se  Se8  1  0.741796  0.976859  0.306431  1
  Se  Se9  1  0.908608  0.425120  0.432196  1
  Se  Se10  1  0.406986  0.577645  0.568214  1
  Se  Se11  1  0.238723  0.020511  0.694547  1
  Se  Se12  1  0.738473  0.972928  0.715025  1
  Se  Se13  1  0.975411  0.421259  0.819088  1
