# generated using pymatgen
data_Li3Ca4InAu4
_symmetry_space_group_name_H-M   'P 1'
_cell_length_a   4.36448000
_cell_length_b   7.43323146
_cell_length_c   8.67559074
_cell_angle_alpha   89.91710561
_cell_angle_beta   90.00000000
_cell_angle_gamma   90.00000000
_symmetry_Int_Tables_number   1
_chemical_formula_structural   Li3Ca4InAu4
_chemical_formula_sum   'Li3 Ca4 In1 Au4'
_cell_volume   281.45486892
_cell_formula_units_Z   1
loop_
 _symmetry_equiv_pos_site_id
 _symmetry_equiv_pos_as_xyz
  1  'x, y, z'
loop_
 _atom_site_type_symbol
 _atom_site_label
 _atom_site_symmetry_multiplicity
 _atom_site_fract_x
 _atom_site_fract_y
 _atom_site_fract_z
 _atom_site_occupancy
  Li  Li0  1  0.750000  0.366564  0.438651  1
  Li  Li1  1  0.250000  0.132964  0.942204  1
  Li  Li2  1  0.250000  0.634609  0.562615  1
  Ca  Ca3  1  0.750000  0.961509  0.679208  1
  Ca  Ca4  1  0.250000  0.037009  0.320737  1
  Ca  Ca5  1  0.750000  0.465385  0.820243  1
  Ca  Ca6  1  0.250000  0.538866  0.179411  1
  In  In7  1  0.750000  0.864176  0.060053  1
  Au  Au8  1  0.250000  0.760107  0.867142  1
  Au  Au9  1  0.250000  0.261172  0.623685  1
  Au  Au10  1  0.750000  0.733388  0.381075  1
  Au  Au11  1  0.750000  0.244252  0.124977  1
