# generated using pymatgen
data_Y4HoCo2Rh
_symmetry_space_group_name_H-M   'P 1'
_cell_length_a   7.09448258
_cell_length_b   7.09448246
_cell_length_c   8.78185372
_cell_angle_alpha   113.82399122
_cell_angle_beta   113.82399179
_cell_angle_gamma   90.00001189
_symmetry_Int_Tables_number   1
_chemical_formula_structural   Y4HoCo2Rh
_chemical_formula_sum   'Y8 Ho2 Co4 Rh2'
_cell_volume   362.79028612
_cell_formula_units_Z   2
loop_
 _symmetry_equiv_pos_site_id
 _symmetry_equiv_pos_as_xyz
  1  'x, y, z'
loop_
 _atom_site_type_symbol
 _atom_site_label
 _atom_site_symmetry_multiplicity
 _atom_site_fract_x
 _atom_site_fract_y
 _atom_site_fract_z
 _atom_site_occupancy
  Y  Y0  1  0.463770  0.319139  0.282909  1
  Y  Y1  1  0.963771  0.463770  0.282909  1
  Y  Y2  1  0.319139  0.819138  0.282909  1
  Y  Y3  1  0.819138  0.963771  0.282909  1
  Y  Y4  1  0.180861  0.036230  0.717090  1
  Y  Y5  1  0.680860  0.180861  0.717090  1
  Y  Y6  1  0.036230  0.536229  0.717090  1
  Y  Y7  1  0.536229  0.680860  0.717090  1
  Ho  Ho8  1  0.000000  0.000000  0.000000  1
  Ho  Ho9  1  0.500000  0.500000  0.000000  1
  Co  Co10  1  0.611631  0.111631  0.000000  1
  Co  Co11  1  0.111631  0.388370  0.000000  1
  Co  Co12  1  0.888369  0.611631  0.000000  1
  Co  Co13  1  0.388370  0.888369  0.000000  1
  Rh  Rh14  1  0.250000  0.250000  0.500000  1
  Rh  Rh15  1  0.750000  0.750000  0.500000  1
