# generated using pymatgen
data_Ho4TmGa2Sn
_symmetry_space_group_name_H-M   'P 1'
_cell_length_a   8.86125275
_cell_length_b   8.86125272
_cell_length_c   8.86125200
_cell_angle_alpha   127.39908180
_cell_angle_beta   127.39908168
_cell_angle_gamma   77.60054251
_symmetry_Int_Tables_number   1
_chemical_formula_structural   Ho4TmGa2Sn
_chemical_formula_sum   'Ho8 Tm2 Ga4 Sn2'
_cell_volume   425.82446881
_cell_formula_units_Z   2
loop_
 _symmetry_equiv_pos_site_id
 _symmetry_equiv_pos_as_xyz
  1  'x, y, z'
loop_
 _atom_site_type_symbol
 _atom_site_label
 _atom_site_symmetry_multiplicity
 _atom_site_fract_x
 _atom_site_fract_y
 _atom_site_fract_z
 _atom_site_occupancy
  Ho  Ho0  1  0.523026  0.023026  0.831018  1
  Ho  Ho1  1  0.191994  0.691994  0.168961  1
  Ho  Ho2  1  0.023020  0.192019  0.500012  1
  Ho  Ho3  1  0.692019  0.523020  0.500012  1
  Ho  Ho4  1  0.476974  0.976974  0.168982  1
  Ho  Ho5  1  0.808006  0.308006  0.831039  1
  Ho  Ho6  1  0.976980  0.807981  0.499988  1
  Ho  Ho7  1  0.307981  0.476980  0.499988  1
  Tm  Tm8  1  0.500000  0.500000  0.000000  1
  Tm  Tm9  1  0.000000  0.000000  0.000000  1
  Ga  Ga10  1  0.871648  0.371648  0.243294  1
  Ga  Ga11  1  0.128352  0.628352  0.756706  1
  Ga  Ga12  1  0.371668  0.128332  0.500000  1
  Ga  Ga13  1  0.628332  0.871668  0.500000  1
  Sn  Sn14  1  0.250019  0.249981  0.000000  1
  Sn  Sn15  1  0.749981  0.750019  0.000000  1
