# generated using pymatgen
data_Lu5V(P2Ir3)6
_symmetry_space_group_name_H-M   'P 1'
_cell_length_a   12.61297309
_cell_length_b   12.76753204
_cell_length_c   3.95162000
_cell_angle_alpha   90.00000000
_cell_angle_beta   90.00000000
_cell_angle_gamma   120.40618942
_symmetry_Int_Tables_number   1
_chemical_formula_structural   Lu5V(P2Ir3)6
_chemical_formula_sum   'Lu5 V1 P12 Ir18'
_cell_volume   548.83027266
_cell_formula_units_Z   1
loop_
 _symmetry_equiv_pos_site_id
 _symmetry_equiv_pos_as_xyz
  1  'x, y, z'
loop_
 _atom_site_type_symbol
 _atom_site_label
 _atom_site_symmetry_multiplicity
 _atom_site_fract_x
 _atom_site_fract_y
 _atom_site_fract_z
 _atom_site_occupancy
  Lu  Lu0  1  0.328821  0.663846  0.500000  1
  Lu  Lu1  1  0.671179  0.335023  0.500000  1
  Lu  Lu2  1  0.000000  0.813230  0.000000  1
  Lu  Lu3  1  0.181888  0.185197  0.000000  1
  Lu  Lu4  1  0.818112  0.003308  0.000000  1
  V  V5  1  0.000000  0.451775  0.500000  1
  P  P6  1  0.000000  0.634258  0.500000  1
  P  P7  1  0.354154  0.353112  0.500000  1
  P  P8  1  0.645846  0.998957  0.500000  1
  P  P9  1  0.514363  0.688564  0.000000  1
  P  P10  1  0.311327  0.828661  0.000000  1
  P  P11  1  0.164458  0.484274  0.000000  1
  P  P12  1  0.485637  0.174201  0.000000  1
  P  P13  1  0.688673  0.517333  0.000000  1
  P  P14  1  0.835542  0.319816  0.000000  1
  P  P15  1  0.000000  0.174861  0.500000  1
  P  P16  1  0.821412  0.821492  0.500000  1
  P  P17  1  0.178588  0.000080  0.500000  1
  Ir  Ir18  1  0.506739  0.867910  0.000000  1
  Ir  Ir19  1  0.131083  0.640946  0.000000  1
  Ir  Ir20  1  0.355951  0.495873  0.000000  1
  Ir  Ir21  1  0.493261  0.361169  0.000000  1
  Ir  Ir22  1  0.868917  0.509862  0.000000  1
  Ir  Ir23  1  0.644049  0.139922  0.000000  1
  Ir  Ir24  1  0.533715  0.535297  0.500000  1
  Ir  Ir25  1  0.466285  0.001583  0.500000  1
  Ir  Ir26  1  0.000000  0.286973  0.000000  1
  Ir  Ir27  1  0.714221  0.714948  0.000000  1
  Ir  Ir28  1  0.285779  0.000727  0.000000  1
  Ir  Ir29  1  0.622904  0.805009  0.500000  1
  Ir  Ir30  1  0.195586  0.822063  0.500000  1
  Ir  Ir31  1  0.179392  0.371244  0.500000  1
  Ir  Ir32  1  0.377096  0.182105  0.500000  1
  Ir  Ir33  1  0.804414  0.626475  0.500000  1
  Ir  Ir34  1  0.820608  0.191851  0.500000  1
  Ir  Ir35  1  0.000000  0.998053  0.500000  1
