# generated using pymatgen
data_NdNpO5
_symmetry_space_group_name_H-M   'P 1'
_cell_length_a   12.62806400
_cell_length_b   5.59595425
_cell_length_c   7.47281688
_cell_angle_alpha   64.75698349
_cell_angle_beta   90.00000000
_cell_angle_gamma   90.00000000
_symmetry_Int_Tables_number   1
_chemical_formula_structural   NdNpO5
_chemical_formula_sum   'Nd4 Np4 O20'
_cell_volume   477.64723145
_cell_formula_units_Z   4
loop_
 _symmetry_equiv_pos_site_id
 _symmetry_equiv_pos_as_xyz
  1  'x, y, z'
loop_
 _atom_site_type_symbol
 _atom_site_label
 _atom_site_symmetry_multiplicity
 _atom_site_fract_x
 _atom_site_fract_y
 _atom_site_fract_z
 _atom_site_occupancy
  Nd  Nd0  1  0.070499  0.689585  0.663488  1
  Nd  Nd1  1  0.929501  0.310415  0.336512  1
  Nd  Nd2  1  0.570499  0.310415  0.836512  1
  Nd  Nd3  1  0.429501  0.689585  0.163488  1
  Np  Np4  1  0.387098  0.985965  0.639172  1
  Np  Np5  1  0.612902  0.014035  0.360828  1
  Np  Np6  1  0.887098  0.014035  0.860828  1
  Np  Np7  1  0.112902  0.985965  0.139172  1
  O  O8  1  0.440901  0.651947  0.841896  1
  O  O9  1  0.559099  0.348053  0.158104  1
  O  O10  1  0.940901  0.348053  0.658104  1
  O  O11  1  0.059099  0.651947  0.341896  1
  O  O12  1  0.907685  0.906280  0.624835  1
  O  O13  1  0.092315  0.093720  0.375165  1
  O  O14  1  0.407685  0.093720  0.875165  1
  O  O15  1  0.592315  0.906280  0.124835  1
  O  O16  1  0.461786  0.848048  0.419208  1
  O  O17  1  0.538214  0.151952  0.580792  1
  O  O18  1  0.961786  0.151952  0.080792  1
  O  O19  1  0.038214  0.848048  0.919208  1
  O  O20  1  0.245889  0.844639  0.694110  1
  O  O21  1  0.754111  0.155361  0.305890  1
  O  O22  1  0.745889  0.155361  0.805890  1
  O  O23  1  0.254111  0.844639  0.194110  1
  O  O24  1  0.658637  0.694760  0.571711  1
  O  O25  1  0.341363  0.305240  0.428289  1
  O  O26  1  0.158637  0.305240  0.928289  1
  O  O27  1  0.841363  0.694760  0.071711  1
