# generated using pymatgen
data_BeV3PtN
_symmetry_space_group_name_H-M   'P 1'
_cell_length_a   6.46750800
_cell_length_b   6.46750800
_cell_length_c   6.46750800
_cell_angle_alpha   90.00000000
_cell_angle_beta   90.00000000
_cell_angle_gamma   90.00000000
_symmetry_Int_Tables_number   1
_chemical_formula_structural   BeV3PtN
_chemical_formula_sum   'Be4 V12 Pt4 N4'
_cell_volume   270.52719143
_cell_formula_units_Z   4
loop_
 _symmetry_equiv_pos_site_id
 _symmetry_equiv_pos_as_xyz
  1  'x, y, z'
loop_
 _atom_site_type_symbol
 _atom_site_label
 _atom_site_symmetry_multiplicity
 _atom_site_fract_x
 _atom_site_fract_y
 _atom_site_fract_z
 _atom_site_occupancy
  Be  Be0  1  0.178475  0.821525  0.321525  1
  Be  Be1  1  0.321525  0.178475  0.821525  1
  Be  Be2  1  0.821525  0.321525  0.178475  1
  Be  Be3  1  0.678475  0.678475  0.678475  1
  V  V4  1  0.795203  0.962017  0.368162  1
  V  V5  1  0.704797  0.037983  0.868162  1
  V  V6  1  0.204797  0.462017  0.131838  1
  V  V7  1  0.295203  0.537983  0.631838  1
  V  V8  1  0.962017  0.368162  0.795203  1
  V  V9  1  0.037983  0.868162  0.704797  1
  V  V10  1  0.462017  0.131838  0.204797  1
  V  V11  1  0.537983  0.631838  0.295203  1
  V  V12  1  0.368162  0.795203  0.962017  1
  V  V13  1  0.868162  0.704797  0.037983  1
  V  V14  1  0.131838  0.204797  0.462017  1
  V  V15  1  0.631838  0.295203  0.537983  1
  Pt  Pt16  1  0.574619  0.425381  0.925381  1
  Pt  Pt17  1  0.425381  0.925381  0.574619  1
  Pt  Pt18  1  0.925381  0.574619  0.425381  1
  Pt  Pt19  1  0.074619  0.074619  0.074619  1
  N  N20  1  0.878135  0.121865  0.621865  1
  N  N21  1  0.621865  0.878135  0.121865  1
  N  N22  1  0.121865  0.621865  0.878135  1
  N  N23  1  0.378135  0.378135  0.378135  1
