# generated using pymatgen
data_Zr6CuPO2
_symmetry_space_group_name_H-M   'P 1'
_cell_length_a   5.86602611
_cell_length_b   5.86602636
_cell_length_c   8.58753500
_cell_angle_alpha   90.00000000
_cell_angle_beta   90.00000000
_cell_angle_gamma   145.99236650
_symmetry_Int_Tables_number   1
_chemical_formula_structural   Zr6CuPO2
_chemical_formula_sum   'Zr6 Cu1 P1 O2'
_cell_volume   165.27377370
_cell_formula_units_Z   1
loop_
 _symmetry_equiv_pos_site_id
 _symmetry_equiv_pos_as_xyz
  1  'x, y, z'
loop_
 _atom_site_type_symbol
 _atom_site_label
 _atom_site_symmetry_multiplicity
 _atom_site_fract_x
 _atom_site_fract_y
 _atom_site_fract_z
 _atom_site_occupancy
  Zr  Zr0  1  0.138228  0.861775  0.065483  1
  Zr  Zr1  1  0.430597  0.569406  0.250000  1
  Zr  Zr2  1  0.138228  0.861775  0.434517  1
  Zr  Zr3  1  0.865062  0.134941  0.550991  1
  Zr  Zr4  1  0.558926  0.441077  0.750000  1
  Zr  Zr5  1  0.865062  0.134941  0.949009  1
  Cu  Cu6  1  0.249470  0.750533  0.750000  1
  P  P7  1  0.753803  0.246200  0.250000  1
  O  O8  1  0.500319  0.499683  0.001510  1
  O  O9  1  0.500319  0.499683  0.498489  1
