# generated using pymatgen
data_YHoBi2(SeO3)6
_symmetry_space_group_name_H-M   'P 1'
_cell_length_a   7.24346281
_cell_length_b   8.24306588
_cell_length_c   9.30783549
_cell_angle_alpha   70.97029638
_cell_angle_beta   70.25283355
_cell_angle_gamma   65.61997963
_symmetry_Int_Tables_number   1
_chemical_formula_structural   YHoBi2(SeO3)6
_chemical_formula_sum   'Y1 Ho1 Bi2 Se6 O18'
_cell_volume   465.00703435
_cell_formula_units_Z   1
loop_
 _symmetry_equiv_pos_site_id
 _symmetry_equiv_pos_as_xyz
  1  'x, y, z'
loop_
 _atom_site_type_symbol
 _atom_site_label
 _atom_site_symmetry_multiplicity
 _atom_site_fract_x
 _atom_site_fract_y
 _atom_site_fract_z
 _atom_site_occupancy
  Y  Y0  1  0.261643  0.263010  0.197303  1
  Ho  Ho1  1  0.738882  0.736565  0.802503  1
  Bi  Bi2  1  0.330638  0.727649  0.600655  1
  Bi  Bi3  1  0.669273  0.272513  0.399282  1
  Se  Se4  1  0.428163  0.777079  0.193800  1
  Se  Se5  1  0.572329  0.222538  0.805614  1
  Se  Se6  1  0.147699  0.750600  0.967325  1
  Se  Se7  1  0.852339  0.250072  0.031912  1
  Se  Se8  1  0.882881  0.751536  0.426785  1
  Se  Se9  1  0.116821  0.248647  0.573642  1
  O  O10  1  0.645679  0.785543  0.048017  1
  O  O11  1  0.354508  0.214373  0.950781  1
  O  O12  1  0.369440  0.949902  0.285631  1
  O  O13  1  0.630915  0.048482  0.715140  1
  O  O14  1  0.520498  0.598195  0.346216  1
  O  O15  1  0.479218  0.401802  0.653788  1
  O  O16  1  0.170027  0.566831  0.118426  1
  O  O17  1  0.829618  0.434788  0.881430  1
  O  O18  1  0.402791  0.711050  0.850174  1
  O  O19  1  0.598165  0.288882  0.149834  1
  O  O20  1  0.349051  0.241141  0.428517  1
  O  O21  1  0.651122  0.758770  0.572506  1
  O  O22  1  0.981020  0.294647  0.432498  1
  O  O23  1  0.018157  0.705436  0.568378  1
  O  O24  1  0.145560  0.028186  0.663049  1
  O  O25  1  0.854461  0.971854  0.336899  1
  O  O26  1  0.940232  0.299062  0.160840  1
  O  O27  1  0.058872  0.700846  0.839058  1
