# generated using pymatgen
data_ReTe4OsBr8
_symmetry_space_group_name_H-M   'P 1'
_cell_length_a   11.08903966
_cell_length_b   11.53485422
_cell_length_c   11.02557025
_cell_angle_alpha   115.07911722
_cell_angle_beta   116.78976917
_cell_angle_gamma   97.17848612
_symmetry_Int_Tables_number   1
_chemical_formula_structural   ReTe4OsBr8
_chemical_formula_sum   'Re2 Te8 Os2 Br16'
_cell_volume   1049.52774363
_cell_formula_units_Z   2
loop_
 _symmetry_equiv_pos_site_id
 _symmetry_equiv_pos_as_xyz
  1  'x, y, z'
loop_
 _atom_site_type_symbol
 _atom_site_label
 _atom_site_symmetry_multiplicity
 _atom_site_fract_x
 _atom_site_fract_y
 _atom_site_fract_z
 _atom_site_occupancy
  Re  Re0  1  0.428974  0.784170  0.577106  1
  Re  Re1  1  0.212600  0.790940  0.639470  1
  Te  Te2  1  0.642595  0.679459  0.573169  1
  Te  Te3  1  0.408885  0.020299  0.734948  1
  Te  Te4  1  0.311153  0.896600  0.961916  1
  Te  Te5  1  0.265670  0.674929  0.268240  1
  Te  Te6  1  0.108580  0.082767  0.432414  1
  Te  Te7  1  0.988681  0.692782  0.350528  1
  Te  Te8  1  0.934972  0.339760  0.037249  1
  Te  Te9  1  0.339445  0.610807  0.644202  1
  Os  Os10  1  0.211604  0.885926  0.427700  1
  Os  Os11  1  0.145900  0.539843  0.352371  1
  Br  Br12  1  0.696993  0.391256  0.945142  1
  Br  Br13  1  0.108917  0.973937  0.759691  1
  Br  Br14  1  0.947713  0.352448  0.311999  1
  Br  Br15  1  0.584005  0.543942  0.284030  1
  Br  Br16  1  0.535572  0.130395  0.147562  1
  Br  Br17  1  0.604111  0.468616  0.601539  1
  Br  Br18  1  0.012208  0.824635  0.134028  1
  Br  Br19  1  0.051354  0.646553  0.688052  1
  Br  Br20  1  0.456280  0.760424  0.062259  1
  Br  Br21  1  0.631744  0.928359  0.572485  1
  Br  Br22  1  0.218108  0.335925  0.223993  1
  Br  Br23  1  0.371525  0.063539  0.415795  1
  Br  Br24  1  0.669987  0.879018  0.870939  1
  Br  Br25  1  0.259352  0.304239  0.722626  1
  Br  Br26  1  0.865641  0.013169  0.408396  1
  Br  Br27  1  0.987429  0.385263  0.852151  1
