# generated using pymatgen
data_ErTm7InHg3Au8
_symmetry_space_group_name_H-M   'P 1'
_cell_length_a   7.92365455
_cell_length_b   7.92303855
_cell_length_c   7.31012900
_cell_angle_alpha   90.00070719
_cell_angle_beta   89.99923257
_cell_angle_gamma   90.04262105
_symmetry_Int_Tables_number   1
_chemical_formula_structural   ErTm7InHg3Au8
_chemical_formula_sum   'Er1 Tm7 In1 Hg3 Au8'
_cell_volume   458.92553484
_cell_formula_units_Z   1
loop_
 _symmetry_equiv_pos_site_id
 _symmetry_equiv_pos_as_xyz
  1  'x, y, z'
loop_
 _atom_site_type_symbol
 _atom_site_label
 _atom_site_symmetry_multiplicity
 _atom_site_fract_x
 _atom_site_fract_y
 _atom_site_fract_z
 _atom_site_occupancy
  Er  Er0  1  0.839779  0.157334  0.500265  1
  Tm  Tm1  1  0.160304  0.842560  0.500312  1
  Tm  Tm2  1  0.342614  0.339788  0.999692  1
  Tm  Tm3  1  0.657360  0.660251  0.999698  1
  Tm  Tm4  1  0.680797  0.685450  0.500497  1
  Tm  Tm5  1  0.319185  0.314556  0.500498  1
  Tm  Tm6  1  0.185482  0.819148  0.999512  1
  Tm  Tm7  1  0.814518  0.180839  0.999504  1
  In  In8  1  0.000016  0.500029  0.249978  1
  Hg  Hg9  1  0.499993  0.999992  0.249997  1
  Hg  Hg10  1  0.000009  0.500002  0.750017  1
  Hg  Hg11  1  0.500001  0.999992  0.750007  1
  Au  Au12  1  0.630488  0.373761  0.274163  1
  Au  Au13  1  0.369282  0.626466  0.274423  1
  Au  Au14  1  0.127833  0.128364  0.774466  1
  Au  Au15  1  0.872364  0.871438  0.774460  1
  Au  Au16  1  0.371573  0.627701  0.725692  1
  Au  Au17  1  0.628203  0.372519  0.725943  1
  Au  Au18  1  0.873592  0.869145  0.225437  1
  Au  Au19  1  0.126607  0.130667  0.225438  1
