# generated using pymatgen
data_Tm7Co3Sn23Rh3
_symmetry_space_group_name_H-M   'P 1'
_cell_length_a   9.73392543
_cell_length_b   9.74119797
_cell_length_c   10.01569233
_cell_angle_alpha   89.95829763
_cell_angle_beta   90.01434748
_cell_angle_gamma   119.97237613
_symmetry_Int_Tables_number   1
_chemical_formula_structural   Tm7Co3Sn23Rh3
_chemical_formula_sum   'Tm7 Co3 Sn23 Rh3'
_cell_volume   822.68332383
_cell_formula_units_Z   1
loop_
 _symmetry_equiv_pos_site_id
 _symmetry_equiv_pos_as_xyz
  1  'x, y, z'
loop_
 _atom_site_type_symbol
 _atom_site_label
 _atom_site_symmetry_multiplicity
 _atom_site_fract_x
 _atom_site_fract_y
 _atom_site_fract_z
 _atom_site_occupancy
  Tm  Tm0  1  0.998318  0.996708  0.001844  1
  Tm  Tm1  1  0.478684  0.520353  0.307624  1
  Tm  Tm2  1  0.519852  0.479030  0.692857  1
  Tm  Tm3  1  0.479956  0.959663  0.307351  1
  Tm  Tm4  1  0.520608  0.041650  0.692994  1
  Tm  Tm5  1  0.041147  0.520002  0.307029  1
  Tm  Tm6  1  0.959771  0.479542  0.693319  1
  Co  Co7  1  0.169615  0.336850  0.802325  1
  Co  Co8  1  0.337564  0.170731  0.197131  1
  Co  Co9  1  0.663524  0.832482  0.800584  1
  Sn  Sn10  1  0.351181  0.005147  0.004730  1
  Sn  Sn11  1  0.649112  0.995293  0.994779  1
  Sn  Sn12  1  0.005527  0.349527  0.994835  1
  Sn  Sn13  1  0.000796  0.647697  0.999838  1
  Sn  Sn14  1  0.647858  0.652983  0.994948  1
  Sn  Sn15  1  0.345198  0.345510  0.999843  1
  Sn  Sn16  1  0.335843  0.664042  0.817614  1
  Sn  Sn17  1  0.660781  0.330661  0.180665  1
  Sn  Sn18  1  0.999643  0.999105  0.500457  1
  Sn  Sn19  1  0.778263  0.221677  0.456535  1
  Sn  Sn20  1  0.221814  0.777904  0.543541  1
  Sn  Sn21  1  0.777687  0.555534  0.456712  1
  Sn  Sn22  1  0.219628  0.438944  0.549262  1
  Sn  Sn23  1  0.438968  0.219515  0.450984  1
  Sn  Sn24  1  0.559376  0.779630  0.549475  1
  Sn  Sn25  1  0.333733  0.667641  0.123350  1
  Sn  Sn26  1  0.667378  0.334300  0.876345  1
  Sn  Sn27  1  0.124902  0.886991  0.277075  1
  Sn  Sn28  1  0.882837  0.118694  0.725662  1
  Sn  Sn29  1  0.124444  0.238470  0.277152  1
  Sn  Sn30  1  0.875708  0.761444  0.722544  1
  Sn  Sn31  1  0.758058  0.879895  0.282798  1
  Sn  Sn32  1  0.239078  0.125489  0.722241  1
  Rh  Rh33  1  0.832420  0.169277  0.196052  1
  Rh  Rh34  1  0.169863  0.833924  0.801764  1
  Rh  Rh35  1  0.830864  0.663696  0.197742  1
