# generated using pymatgen
data_SmDyErGa8Ag3
_symmetry_space_group_name_H-M   'P 1'
_cell_length_a   4.35745588
_cell_length_b   8.39245738
_cell_length_c   8.39245641
_cell_angle_alpha   69.44350780
_cell_angle_beta   74.95333980
_cell_angle_gamma   74.95334678
_symmetry_Int_Tables_number   1
_chemical_formula_structural   SmDyErGa8Ag3
_chemical_formula_sum   'Sm1 Dy1 Er1 Ga8 Ag3'
_cell_volume   272.65750268
_cell_formula_units_Z   1
loop_
 _symmetry_equiv_pos_site_id
 _symmetry_equiv_pos_as_xyz
  1  'x, y, z'
loop_
 _atom_site_type_symbol
 _atom_site_label
 _atom_site_symmetry_multiplicity
 _atom_site_fract_x
 _atom_site_fract_y
 _atom_site_fract_z
 _atom_site_occupancy
  Sm  Sm0  1  0.500044  0.499956  0.499956  1
  Dy  Dy1  1  0.199926  0.800074  0.800074  1
  Er  Er2  1  0.800207  0.199793  0.199793  1
  Ga  Ga3  1  0.644277  0.072936  0.638511  1
  Ga  Ga4  1  0.355675  0.927377  0.361272  1
  Ga  Ga5  1  0.644277  0.638511  0.072936  1
  Ga  Ga6  1  0.355675  0.361272  0.927377  1
  Ga  Ga7  1  0.840763  0.790810  0.527665  1
  Ga  Ga8  1  0.159428  0.209097  0.472045  1
  Ga  Ga9  1  0.840763  0.527665  0.790810  1
  Ga  Ga10  1  0.159428  0.472045  0.209097  1
  Ag  Ag11  1  0.499849  0.000151  0.000151  1
  Ag  Ag12  1  0.999844  0.805278  0.195035  1
  Ag  Ag13  1  0.999844  0.195035  0.805278  1
