# generated using pymatgen
data_K5IO5
_symmetry_space_group_name_H-M   'P 1'
_cell_length_a   6.41418336
_cell_length_b   6.41418278
_cell_length_c   7.07975000
_cell_angle_alpha   108.65803641
_cell_angle_beta   108.65803466
_cell_angle_gamma   50.77177532
_symmetry_Int_Tables_number   1
_chemical_formula_structural   K5IO5
_chemical_formula_sum   'K5 I1 O5'
_cell_volume   211.00977300
_cell_formula_units_Z   1
loop_
 _symmetry_equiv_pos_site_id
 _symmetry_equiv_pos_as_xyz
  1  'x, y, z'
loop_
 _atom_site_type_symbol
 _atom_site_label
 _atom_site_symmetry_multiplicity
 _atom_site_fract_x
 _atom_site_fract_y
 _atom_site_fract_z
 _atom_site_occupancy
  K  K0  1  0.324863  0.345465  0.164158  1
  K  K1  1  0.680994  0.703917  0.312541  1
  K  K2  1  0.970243  0.029756  0.500000  1
  K  K3  1  0.296083  0.319006  0.687459  1
  K  K4  1  0.654535  0.675137  0.835841  1
  I  I5  1  0.987904  0.012097  0.000000  1
  O  O6  1  0.644774  0.355227  0.000000  1
  O  O7  1  0.856352  0.879399  0.133610  1
  O  O8  1  0.126012  0.156594  0.285825  1
  O  O9  1  0.843407  0.873988  0.714175  1
  O  O10  1  0.120601  0.143648  0.866390  1
