# generated using pymatgen
data_Tb4YHo(AlC3)2
_symmetry_space_group_name_H-M   'P 1'
_cell_length_a   3.58654700
_cell_length_b   7.08932700
_cell_length_c   10.00625700
_cell_angle_alpha   89.82757642
_cell_angle_beta   90.00000000
_cell_angle_gamma   90.00000000
_symmetry_Int_Tables_number   1
_chemical_formula_structural   Tb4YHo(AlC3)2
_chemical_formula_sum   'Tb4 Y1 Ho1 Al2 C6'
_cell_volume   254.41998460
_cell_formula_units_Z   1
loop_
 _symmetry_equiv_pos_site_id
 _symmetry_equiv_pos_as_xyz
  1  'x, y, z'
loop_
 _atom_site_type_symbol
 _atom_site_label
 _atom_site_symmetry_multiplicity
 _atom_site_fract_x
 _atom_site_fract_y
 _atom_site_fract_z
 _atom_site_occupancy
  Tb  Tb0  1  0.500000  0.510094  0.199246  1
  Tb  Tb1  1  0.500000  0.489710  0.800905  1
  Tb  Tb2  1  0.000000  0.750100  0.459123  1
  Tb  Tb3  1  0.000000  0.250029  0.541185  1
  Y  Y4  1  0.500000  0.009491  0.799984  1
  Ho  Ho5  1  0.500000  0.988037  0.200365  1
  Al  Al6  1  0.000000  0.753773  0.006248  1
  Al  Al7  1  0.000000  0.246288  0.994275  1
  C  C8  1  0.500000  0.508952  0.565799  1
  C  C9  1  0.500000  0.491102  0.434088  1
  C  C10  1  0.500000  0.991132  0.565091  1
  C  C11  1  0.500000  0.008985  0.433331  1
  C  C12  1  0.000000  0.752253  0.208443  1
  C  C13  1  0.000000  0.250054  0.791916  1
