# generated using pymatgen
data_La7PrCo3Si12Pd
_symmetry_space_group_name_H-M   'P 1'
_cell_length_a   8.19901200
_cell_length_b   8.19901414
_cell_length_c   8.68148300
_cell_angle_alpha   90.00000000
_cell_angle_beta   90.00000000
_cell_angle_gamma   120.00000748
_symmetry_Int_Tables_number   1
_chemical_formula_structural   La7PrCo3Si12Pd
_chemical_formula_sum   'La7 Pr1 Co3 Si12 Pd1'
_cell_volume   505.41447488
_cell_formula_units_Z   1
loop_
 _symmetry_equiv_pos_site_id
 _symmetry_equiv_pos_as_xyz
  1  'x, y, z'
loop_
 _atom_site_type_symbol
 _atom_site_label
 _atom_site_symmetry_multiplicity
 _atom_site_fract_x
 _atom_site_fract_y
 _atom_site_fract_z
 _atom_site_occupancy
  La  La0  1  0.497689  0.502311  0.753761  1
  La  La1  1  0.498320  0.501680  0.247360  1
  La  La2  1  0.004620  0.502311  0.753761  1
  La  La3  1  0.003360  0.501680  0.247360  1
  La  La4  1  0.497689  0.995380  0.753761  1
  La  La5  1  0.498320  0.996640  0.247360  1
  La  La6  1  0.000000  0.000000  0.751048  1
  Pr  Pr7  1  0.000000  0.000000  0.248833  1
  Co  Co8  1  0.666667  0.333333  0.994374  1
  Co  Co9  1  0.333333  0.666667  0.006603  1
  Co  Co10  1  0.333333  0.666667  0.492087  1
  Si  Si11  1  0.829059  0.170941  0.001816  1
  Si  Si12  1  0.170031  0.829969  0.999132  1
  Si  Si13  1  0.341882  0.170941  0.001816  1
  Si  Si14  1  0.171387  0.828613  0.501820  1
  Si  Si15  1  0.659937  0.829969  0.999132  1
  Si  Si16  1  0.836960  0.163040  0.496735  1
  Si  Si17  1  0.829059  0.658118  0.001816  1
  Si  Si18  1  0.657226  0.828613  0.501820  1
  Si  Si19  1  0.170031  0.340063  0.999132  1
  Si  Si20  1  0.326080  0.163040  0.496735  1
  Si  Si21  1  0.171387  0.342774  0.501820  1
  Si  Si22  1  0.836960  0.673920  0.496735  1
  Pd  Pd23  1  0.666667  0.333333  0.505187  1
