# generated using pymatgen
data_Dy10TcRh3
_symmetry_space_group_name_H-M   'P 1'
_cell_length_a   6.44016740
_cell_length_b   7.25191207
_cell_length_c   8.58292297
_cell_angle_alpha   96.44142551
_cell_angle_beta   112.62981289
_cell_angle_gamma   90.00359171
_symmetry_Int_Tables_number   1
_chemical_formula_structural   Dy10TcRh3
_chemical_formula_sum   'Dy10 Tc1 Rh3'
_cell_volume   367.24684214
_cell_formula_units_Z   1
loop_
 _symmetry_equiv_pos_site_id
 _symmetry_equiv_pos_as_xyz
  1  'x, y, z'
loop_
 _atom_site_type_symbol
 _atom_site_label
 _atom_site_symmetry_multiplicity
 _atom_site_fract_x
 _atom_site_fract_y
 _atom_site_fract_z
 _atom_site_occupancy
  Dy  Dy0  1  0.788978  0.083244  0.811114  1
  Dy  Dy1  1  0.973600  0.417090  0.178866  1
  Dy  Dy2  1  0.206742  0.916012  0.186003  1
  Dy  Dy3  1  0.022753  0.581842  0.811220  1
  Dy  Dy4  1  0.215534  0.186728  0.564066  1
  Dy  Dy5  1  0.646423  0.315578  0.440259  1
  Dy  Dy6  1  0.788140  0.814730  0.437359  1
  Dy  Dy7  1  0.351862  0.683092  0.564312  1
  Dy  Dy8  1  0.424079  0.249765  0.999576  1
  Dy  Dy9  1  0.576291  0.749157  0.999400  1
  Tc  Tc10  1  0.610314  0.428055  0.786710  1
  Rh  Rh11  1  0.824833  0.072561  0.224886  1
  Rh  Rh12  1  0.397002  0.576232  0.220101  1
  Rh  Rh13  1  0.173451  0.925911  0.776130  1
