# generated using pymatgen
data_Pr2HoAg(Ir2O7)2
_symmetry_space_group_name_H-M   'P 1'
_cell_length_a   7.42592799
_cell_length_b   7.42592785
_cell_length_c   7.25279053
_cell_angle_alpha   59.00605215
_cell_angle_beta   59.00604724
_cell_angle_gamma   60.12300860
_symmetry_Int_Tables_number   1
_chemical_formula_structural   Pr2HoAg(Ir2O7)2
_chemical_formula_sum   'Pr2 Ho1 Ag1 Ir4 O14'
_cell_volume   278.73424896
_cell_formula_units_Z   1
loop_
 _symmetry_equiv_pos_site_id
 _symmetry_equiv_pos_as_xyz
  1  'x, y, z'
loop_
 _atom_site_type_symbol
 _atom_site_label
 _atom_site_symmetry_multiplicity
 _atom_site_fract_x
 _atom_site_fract_y
 _atom_site_fract_z
 _atom_site_occupancy
  Pr  Pr0  1  0.625000  0.125000  0.125000  1
  Pr  Pr1  1  0.125000  0.625000  0.125000  1
  Ho  Ho2  1  0.125000  0.125000  0.125000  1
  Ag  Ag3  1  0.125000  0.125000  0.625000  1
  Ir  Ir4  1  0.625000  0.625000  0.625000  1
  Ir  Ir5  1  0.125000  0.625000  0.625000  1
  Ir  Ir6  1  0.625000  0.125000  0.625000  1
  Ir  Ir7  1  0.625000  0.625000  0.125000  1
  O  O8  1  0.948402  0.554653  0.551071  1
  O  O9  1  0.301317  0.301317  0.711205  1
  O  O10  1  0.956811  0.532748  0.961694  1
  O  O11  1  0.717252  0.293189  0.288306  1
  O  O12  1  0.540712  0.540712  0.962975  1
  O  O13  1  0.554653  0.948402  0.551071  1
  O  O14  1  0.532748  0.956811  0.961694  1
  O  O15  1  0.240981  0.240981  0.254938  1
  O  O16  1  0.301598  0.695347  0.698929  1
  O  O17  1  0.695347  0.301598  0.698929  1
  O  O18  1  0.009019  0.009019  0.995062  1
  O  O19  1  0.948683  0.948683  0.538795  1
  O  O20  1  0.293189  0.717252  0.288306  1
  O  O21  1  0.709288  0.709288  0.287025  1
