# generated using pymatgen
data_CaNdNi3Ir
_symmetry_space_group_name_H-M   'P 1'
_cell_length_a   5.24294879
_cell_length_b   5.19217359
_cell_length_c   5.19217200
_cell_angle_alpha   59.99999737
_cell_angle_beta   60.31984350
_cell_angle_gamma   60.31984900
_symmetry_Int_Tables_number   1
_chemical_formula_structural   CaNdNi3Ir
_chemical_formula_sum   'Ca1 Nd1 Ni3 Ir1'
_cell_volume   100.42495338
_cell_formula_units_Z   1
loop_
 _symmetry_equiv_pos_site_id
 _symmetry_equiv_pos_as_xyz
  1  'x, y, z'
loop_
 _atom_site_type_symbol
 _atom_site_label
 _atom_site_symmetry_multiplicity
 _atom_site_fract_x
 _atom_site_fract_y
 _atom_site_fract_z
 _atom_site_occupancy
  Ca  Ca0  1  0.000304  0.999899  0.999899  1
  Nd  Nd1  1  0.752156  0.749281  0.749281  1
  Ni  Ni2  1  0.374070  0.875864  0.375034  1
  Ni  Ni3  1  0.374070  0.375034  0.375034  1
  Ni  Ni4  1  0.374070  0.375034  0.875864  1
  Ir  Ir5  1  0.875333  0.374889  0.374889  1
