# generated using pymatgen
data_K5NbO5
_symmetry_space_group_name_H-M   'P 1'
_cell_length_a   6.74746343
_cell_length_b   6.74746328
_cell_length_c   11.24332228
_cell_angle_alpha   80.46899275
_cell_angle_beta   80.46899349
_cell_angle_gamma   116.98687200
_symmetry_Int_Tables_number   1
_chemical_formula_structural   K5NbO5
_chemical_formula_sum   'K10 Nb2 O10'
_cell_volume   432.64775352
_cell_formula_units_Z   2
loop_
 _symmetry_equiv_pos_site_id
 _symmetry_equiv_pos_as_xyz
  1  'x, y, z'
loop_
 _atom_site_type_symbol
 _atom_site_label
 _atom_site_symmetry_multiplicity
 _atom_site_fract_x
 _atom_site_fract_y
 _atom_site_fract_z
 _atom_site_occupancy
  K  K0  1  0.661873  0.962984  0.584044  1
  K  K1  1  0.561378  0.790810  0.945076  1
  K  K2  1  0.668231  0.331769  0.750000  1
  K  K3  1  0.962984  0.661873  0.084044  1
  K  K4  1  0.790810  0.561378  0.445076  1
  K  K5  1  0.209190  0.438622  0.554924  1
  K  K6  1  0.037016  0.338127  0.915956  1
  K  K7  1  0.331769  0.668231  0.250000  1
  K  K8  1  0.438622  0.209190  0.054924  1
  K  K9  1  0.338127  0.037016  0.415956  1
  Nb  Nb10  1  0.094664  0.905336  0.750000  1
  Nb  Nb11  1  0.905336  0.094664  0.250000  1
  O  O12  1  0.280675  0.936603  0.869646  1
  O  O13  1  0.379675  0.175109  0.617988  1
  O  O14  1  0.936603  0.280675  0.369646  1
  O  O15  1  0.175109  0.379675  0.117988  1
  O  O16  1  0.926033  0.073967  0.750000  1
  O  O17  1  0.073967  0.926033  0.250000  1
  O  O18  1  0.824891  0.620325  0.882012  1
  O  O19  1  0.063397  0.719325  0.630354  1
  O  O20  1  0.620325  0.824891  0.382012  1
  O  O21  1  0.719325  0.063397  0.130354  1
