# generated using pymatgen
data_LiLa7TbPt6
_symmetry_space_group_name_H-M   'P 1'
_cell_length_a   7.81277008
_cell_length_b   7.81277071
_cell_length_c   7.81277017
_cell_angle_alpha   70.07579370
_cell_angle_beta   70.07579201
_cell_angle_gamma   70.07579486
_symmetry_Int_Tables_number   1
_chemical_formula_structural   LiLa7TbPt6
_chemical_formula_sum   'Li1 La7 Tb1 Pt6'
_cell_volume   407.66461979
_cell_formula_units_Z   1
loop_
 _symmetry_equiv_pos_site_id
 _symmetry_equiv_pos_as_xyz
  1  'x, y, z'
loop_
 _atom_site_type_symbol
 _atom_site_label
 _atom_site_symmetry_multiplicity
 _atom_site_fract_x
 _atom_site_fract_y
 _atom_site_fract_z
 _atom_site_occupancy
  Li  Li0  1  0.998472  0.998472  0.998472  1
  La  La1  1  0.186042  0.186042  0.186042  1
  La  La2  1  0.317068  0.616122  0.855290  1
  La  La3  1  0.855290  0.317068  0.616122  1
  La  La4  1  0.616122  0.855290  0.317068  1
  La  La5  1  0.681770  0.388467  0.142138  1
  La  La6  1  0.142138  0.681770  0.388467  1
  La  La7  1  0.388467  0.142138  0.681770  1
  Tb  Tb8  1  0.815827  0.815827  0.815827  1
  Pt  Pt9  1  0.174739  0.952761  0.580604  1
  Pt  Pt10  1  0.580604  0.174739  0.952761  1
  Pt  Pt11  1  0.952761  0.580604  0.174739  1
  Pt  Pt12  1  0.819644  0.042301  0.428754  1
  Pt  Pt13  1  0.428754  0.819644  0.042301  1
  Pt  Pt14  1  0.042301  0.428754  0.819644  1
