# generated using pymatgen
data_YTh2AlIn2Pt3
_symmetry_space_group_name_H-M   'P 1'
_cell_length_a   7.53845410
_cell_length_b   7.60993786
_cell_length_c   4.08073200
_cell_angle_alpha   90.00000000
_cell_angle_beta   90.00000000
_cell_angle_gamma   119.96517265
_symmetry_Int_Tables_number   1
_chemical_formula_structural   YTh2AlIn2Pt3
_chemical_formula_sum   'Y1 Th2 Al1 In2 Pt3'
_cell_volume   202.80768915
_cell_formula_units_Z   1
loop_
 _symmetry_equiv_pos_site_id
 _symmetry_equiv_pos_as_xyz
  1  'x, y, z'
loop_
 _atom_site_type_symbol
 _atom_site_label
 _atom_site_symmetry_multiplicity
 _atom_site_fract_x
 _atom_site_fract_y
 _atom_site_fract_z
 _atom_site_occupancy
  Y  Y0  1  0.588882  0.594131  0.500000  1
  Th  Th1  1  0.421939  0.998274  0.500000  1
  Th  Th2  1  0.998186  0.412040  0.500000  1
  Al  Al3  1  0.754175  0.991456  0.000000  1
  In  In4  1  0.256524  0.253855  0.000000  1
  In  In5  1  0.990183  0.751622  0.000000  1
  Pt  Pt6  1  0.973005  0.005794  0.500000  1
  Pt  Pt7  1  0.672408  0.313587  0.000000  1
  Pt  Pt8  1  0.344698  0.679243  0.000000  1
