# generated using pymatgen
data_Lu6MnCo22
_symmetry_space_group_name_H-M   'P 1'
_cell_length_a   8.29271041
_cell_length_b   8.29270994
_cell_length_c   8.29271000
_cell_angle_alpha   59.99999977
_cell_angle_beta   60.00000164
_cell_angle_gamma   59.99999462
_symmetry_Int_Tables_number   1
_chemical_formula_structural   Lu6MnCo22
_chemical_formula_sum   'Lu6 Mn1 Co22'
_cell_volume   403.25006133
_cell_formula_units_Z   1
loop_
 _symmetry_equiv_pos_site_id
 _symmetry_equiv_pos_as_xyz
  1  'x, y, z'
loop_
 _atom_site_type_symbol
 _atom_site_label
 _atom_site_symmetry_multiplicity
 _atom_site_fract_x
 _atom_site_fract_y
 _atom_site_fract_z
 _atom_site_occupancy
  Lu  Lu0  1  0.785166  0.785166  0.214834  1
  Lu  Lu1  1  0.214834  0.785166  0.214834  1
  Lu  Lu2  1  0.785166  0.214834  0.214834  1
  Lu  Lu3  1  0.214834  0.214834  0.785166  1
  Lu  Lu4  1  0.785166  0.214834  0.785166  1
  Lu  Lu5  1  0.214834  0.785166  0.785166  1
  Mn  Mn6  1  0.500000  0.500000  0.500000  1
  Co  Co7  1  0.000000  0.000000  0.500000  1
  Co  Co8  1  0.500000  0.000000  0.500000  1
  Co  Co9  1  0.000000  0.500000  0.500000  1
  Co  Co10  1  0.500000  0.500000  0.000000  1
  Co  Co11  1  0.000000  0.500000  0.000000  1
  Co  Co12  1  0.500000  0.000000  0.000000  1
  Co  Co13  1  0.823833  0.823833  0.528500  1
  Co  Co14  1  0.823833  0.528500  0.823833  1
  Co  Co15  1  0.528500  0.823833  0.823833  1
  Co  Co16  1  0.823833  0.823833  0.823833  1
  Co  Co17  1  0.176167  0.176167  0.471500  1
  Co  Co18  1  0.176167  0.471500  0.176167  1
  Co  Co19  1  0.471500  0.176167  0.176167  1
  Co  Co20  1  0.176167  0.176167  0.176167  1
  Co  Co21  1  0.624435  0.624435  0.126694  1
  Co  Co22  1  0.624435  0.126694  0.624435  1
  Co  Co23  1  0.126694  0.624435  0.624435  1
  Co  Co24  1  0.624435  0.624435  0.624435  1
  Co  Co25  1  0.375565  0.375565  0.873306  1
  Co  Co26  1  0.375565  0.873306  0.375565  1
  Co  Co27  1  0.873306  0.375565  0.375565  1
  Co  Co28  1  0.375565  0.375565  0.375565  1
