# generated using pymatgen
data_Hf4Si4Au
_symmetry_space_group_name_H-M   'P 1'
_cell_length_a   5.25995444
_cell_length_b   5.25995557
_cell_length_c   8.87727356
_cell_angle_alpha   109.54657864
_cell_angle_beta   109.54658129
_cell_angle_gamma   42.78647861
_symmetry_Int_Tables_number   1
_chemical_formula_structural   Hf4Si4Au
_chemical_formula_sum   'Hf4 Si4 Au1'
_cell_volume   155.69127961
_cell_formula_units_Z   1
loop_
 _symmetry_equiv_pos_site_id
 _symmetry_equiv_pos_as_xyz
  1  'x, y, z'
loop_
 _atom_site_type_symbol
 _atom_site_label
 _atom_site_symmetry_multiplicity
 _atom_site_fract_x
 _atom_site_fract_y
 _atom_site_fract_z
 _atom_site_occupancy
  Hf  Hf0  1  0.754336  0.754336  0.161859  1
  Hf  Hf1  1  0.106817  0.106817  0.385379  1
  Hf  Hf2  1  0.893183  0.893183  0.614621  1
  Hf  Hf3  1  0.245663  0.245663  0.838141  1
  Si  Si4  1  0.458267  0.458267  0.161690  1
  Si  Si5  1  0.381752  0.381752  0.388686  1
  Si  Si6  1  0.618248  0.618248  0.611315  1
  Si  Si7  1  0.541732  0.541732  0.838310  1
  Au  Au8  1  0.000000  0.000000  0.000000  1
