# generated using pymatgen
data_TiAsO4F
_symmetry_space_group_name_H-M   'P 1'
_cell_length_a   5.38027241
_cell_length_b   5.36438259
_cell_length_c   7.58365200
_cell_angle_alpha   109.88685661
_cell_angle_beta   107.53767679
_cell_angle_gamma   95.44544270
_symmetry_Int_Tables_number   1
_chemical_formula_structural   TiAsO4F
_chemical_formula_sum   'Ti2 As2 O8 F2'
_cell_volume   191.44355777
_cell_formula_units_Z   2
loop_
 _symmetry_equiv_pos_site_id
 _symmetry_equiv_pos_as_xyz
  1  'x, y, z'
loop_
 _atom_site_type_symbol
 _atom_site_label
 _atom_site_symmetry_multiplicity
 _atom_site_fract_x
 _atom_site_fract_y
 _atom_site_fract_z
 _atom_site_occupancy
  Ti  Ti0  1  0.000000  0.000000  0.000000  1
  Ti  Ti1  1  0.500000  0.500000  0.500000  1
  As  As2  1  0.435224  0.130770  0.760196  1
  As  As3  1  0.564776  0.869230  0.239804  1
  O  O4  1  0.229214  0.788576  0.106990  1
  O  O5  1  0.736338  0.864925  0.083418  1
  O  O6  1  0.651969  0.186336  0.429652  1
  O  O7  1  0.648570  0.630511  0.335609  1
  O  O8  1  0.263662  0.135075  0.916582  1
  O  O9  1  0.348031  0.813664  0.570348  1
  O  O10  1  0.351430  0.369489  0.664391  1
  O  O11  1  0.770786  0.211424  0.893010  1
  F  F12  1  0.167910  0.307140  0.265696  1
  F  F13  1  0.832090  0.692860  0.734304  1
