# generated using pymatgen
data_KCe(CN2)2
_symmetry_space_group_name_H-M   'P 1'
_cell_length_a   6.83861000
_cell_length_b   8.38348100
_cell_length_c   10.15217600
_cell_angle_alpha   90.00000000
_cell_angle_beta   90.00000000
_cell_angle_gamma   90.00000000
_symmetry_Int_Tables_number   1
_chemical_formula_structural   KCe(CN2)2
_chemical_formula_sum   'K4 Ce4 C8 N16'
_cell_volume   582.03802660
_cell_formula_units_Z   4
loop_
 _symmetry_equiv_pos_site_id
 _symmetry_equiv_pos_as_xyz
  1  'x, y, z'
loop_
 _atom_site_type_symbol
 _atom_site_label
 _atom_site_symmetry_multiplicity
 _atom_site_fract_x
 _atom_site_fract_y
 _atom_site_fract_z
 _atom_site_occupancy
  K  K0  1  0.250000  0.618783  0.000000  1
  K  K1  1  0.750000  0.881217  0.500000  1
  K  K2  1  0.750000  0.381217  0.000000  1
  K  K3  1  0.250000  0.118783  0.500000  1
  Ce  Ce4  1  0.250000  0.121814  0.000000  1
  Ce  Ce5  1  0.750000  0.378186  0.500000  1
  Ce  Ce6  1  0.750000  0.878186  0.000000  1
  Ce  Ce7  1  0.250000  0.621814  0.500000  1
  C  C8  1  0.408479  0.371594  0.743895  1
  C  C9  1  0.908479  0.128406  0.756105  1
  C  C10  1  0.591521  0.128406  0.243895  1
  C  C11  1  0.091521  0.371594  0.256105  1
  C  C12  1  0.591521  0.628406  0.256105  1
  C  C13  1  0.091521  0.871594  0.243895  1
  C  C14  1  0.408479  0.871594  0.756105  1
  C  C15  1  0.908479  0.628406  0.743895  1
  N  N16  1  0.379382  0.336779  0.859522  1
  N  N17  1  0.879382  0.163221  0.640478  1
  N  N18  1  0.620618  0.163221  0.359522  1
  N  N19  1  0.120618  0.336779  0.140478  1
  N  N20  1  0.620618  0.663221  0.140478  1
  N  N21  1  0.120618  0.836779  0.359522  1
  N  N22  1  0.379382  0.836779  0.640478  1
  N  N23  1  0.879382  0.663221  0.859522  1
  N  N24  1  0.438795  0.407363  0.626204  1
  N  N25  1  0.938795  0.092637  0.873796  1
  N  N26  1  0.561205  0.092637  0.126204  1
  N  N27  1  0.061205  0.407363  0.373796  1
  N  N28  1  0.561205  0.592637  0.373796  1
  N  N29  1  0.061205  0.907363  0.126204  1
  N  N30  1  0.438795  0.907363  0.873796  1
  N  N31  1  0.938795  0.592637  0.626204  1
