# generated using pymatgen
data_Ti(GaRh2)5
_symmetry_space_group_name_H-M   'P 1'
_cell_length_a   4.15539300
_cell_length_b   5.34779085
_cell_length_c   10.28074455
_cell_angle_alpha   89.01278446
_cell_angle_beta   90.00000000
_cell_angle_gamma   90.00000000
_symmetry_Int_Tables_number   1
_chemical_formula_structural   Ti(GaRh2)5
_chemical_formula_sum   'Ti1 Ga5 Rh10'
_cell_volume   228.42656892
_cell_formula_units_Z   1
loop_
 _symmetry_equiv_pos_site_id
 _symmetry_equiv_pos_as_xyz
  1  'x, y, z'
loop_
 _atom_site_type_symbol
 _atom_site_label
 _atom_site_symmetry_multiplicity
 _atom_site_fract_x
 _atom_site_fract_y
 _atom_site_fract_z
 _atom_site_occupancy
  Ti  Ti0  1  0.500000  0.147119  0.639015  1
  Ga  Ga1  1  0.000000  0.998637  0.999538  1
  Ga  Ga2  1  0.000000  0.478748  0.502228  1
  Ga  Ga3  1  0.500000  0.352299  0.137049  1
  Ga  Ga4  1  0.500000  0.656567  0.862732  1
  Ga  Ga5  1  0.500000  0.851118  0.361264  1
  Rh  Rh6  1  0.000000  0.983602  0.496997  1
  Rh  Rh7  1  0.000000  0.500219  0.002850  1
  Rh  Rh8  1  0.000000  0.134750  0.230889  1
  Rh  Rh9  1  0.000000  0.882477  0.762408  1
  Rh  Rh10  1  0.000000  0.632774  0.268747  1
  Rh  Rh11  1  0.000000  0.380020  0.738914  1
  Rh  Rh12  1  0.500000  0.326527  0.388723  1
  Rh  Rh13  1  0.500000  0.668572  0.609447  1
  Rh  Rh14  1  0.500000  0.829930  0.111135  1
  Rh  Rh15  1  0.500000  0.176642  0.888064  1
