# generated using pymatgen
data_Y3ZnIn3CuRh
_symmetry_space_group_name_H-M   'P 1'
_cell_length_a   7.64281100
_cell_length_b   7.64281070
_cell_length_c   3.88559500
_cell_angle_alpha   90.00000000
_cell_angle_beta   90.00000000
_cell_angle_gamma   119.99998832
_symmetry_Int_Tables_number   1
_chemical_formula_structural   Y3ZnIn3CuRh
_chemical_formula_sum   'Y3 Zn1 In3 Cu1 Rh1'
_cell_volume   196.55968038
_cell_formula_units_Z   1
loop_
 _symmetry_equiv_pos_site_id
 _symmetry_equiv_pos_as_xyz
  1  'x, y, z'
loop_
 _atom_site_type_symbol
 _atom_site_label
 _atom_site_symmetry_multiplicity
 _atom_site_fract_x
 _atom_site_fract_y
 _atom_site_fract_z
 _atom_site_occupancy
  Y  Y0  1  0.022194  0.602592  0.500000  1
  Y  Y1  1  0.397408  0.419603  0.500000  1
  Y  Y2  1  0.580397  0.977806  0.500000  1
  Zn  Zn3  1  0.666667  0.333333  0.000000  1
  In  In4  1  0.748594  0.744503  0.000000  1
  In  In5  1  0.995907  0.251406  0.000000  1
  In  In6  1  0.255497  0.004093  0.000000  1
  Cu  Cu7  1  0.000000  0.000000  0.500000  1
  Rh  Rh8  1  0.333333  0.666667  0.000000  1
