# generated using pymatgen
data_Tm13Th7Sn16
_symmetry_space_group_name_H-M   'P 1'
_cell_length_a   8.07191666
_cell_length_b   8.16907765
_cell_length_c   15.43082001
_cell_angle_alpha   89.99265622
_cell_angle_beta   90.41402352
_cell_angle_gamma   89.87789960
_symmetry_Int_Tables_number   1
_chemical_formula_structural   Tm13Th7Sn16
_chemical_formula_sum   'Tm13 Th7 Sn16'
_cell_volume   1017.48114509
_cell_formula_units_Z   1
loop_
 _symmetry_equiv_pos_site_id
 _symmetry_equiv_pos_as_xyz
  1  'x, y, z'
loop_
 _atom_site_type_symbol
 _atom_site_label
 _atom_site_symmetry_multiplicity
 _atom_site_fract_x
 _atom_site_fract_y
 _atom_site_fract_z
 _atom_site_occupancy
  Tm  Tm0  1  0.361075  0.836228  0.875535  1
  Tm  Tm1  1  0.859120  0.661184  0.624827  1
  Tm  Tm2  1  0.639156  0.163090  0.375910  1
  Tm  Tm3  1  0.135038  0.337406  0.123288  1
  Tm  Tm4  1  0.637095  0.163051  0.123393  1
  Tm  Tm5  1  0.139936  0.337800  0.375984  1
  Tm  Tm6  1  0.360483  0.839221  0.625806  1
  Tm  Tm7  1  0.863995  0.662244  0.875918  1
  Tm  Tm8  1  0.527894  0.324806  0.900344  1
  Tm  Tm9  1  0.192325  0.499681  0.750571  1
  Tm  Tm10  1  0.693292  0.000319  0.750566  1
  Tm  Tm11  1  0.807401  0.500683  0.249738  1
  Tm  Tm12  1  0.306960  0.998815  0.250107  1
  Th  Th13  1  0.020593  0.178499  0.597359  1
  Th  Th14  1  0.481187  0.678573  0.404007  1
  Th  Th15  1  0.977966  0.822199  0.095246  1
  Th  Th16  1  0.479915  0.677999  0.096316  1
  Th  Th17  1  0.981543  0.822269  0.404960  1
  Th  Th18  1  0.517042  0.320911  0.594931  1
  Th  Th19  1  0.018886  0.176510  0.904253  1
  Sn  Sn20  1  0.298615  0.038054  0.042969  1
  Sn  Sn21  1  0.800688  0.459060  0.458078  1
  Sn  Sn22  1  0.699702  0.959627  0.542452  1
  Sn  Sn23  1  0.207903  0.534407  0.956683  1
  Sn  Sn24  1  0.697212  0.961352  0.956798  1
  Sn  Sn25  1  0.198567  0.543271  0.541863  1
  Sn  Sn26  1  0.300758  0.040824  0.458691  1
  Sn  Sn27  1  0.795128  0.457662  0.040235  1
  Sn  Sn28  1  0.558136  0.623308  0.749847  1
  Sn  Sn29  1  0.058003  0.876391  0.750249  1
  Sn  Sn30  1  0.440907  0.374809  0.249368  1
  Sn  Sn31  1  0.941383  0.124759  0.249770  1
  Sn  Sn32  1  0.332135  0.147259  0.753403  1
  Sn  Sn33  1  0.825758  0.356985  0.750567  1
  Sn  Sn34  1  0.673112  0.857907  0.250080  1
  Sn  Sn35  1  0.171089  0.642838  0.249887  1
