# generated using pymatgen
data_Ho5Tm7Tc4
_symmetry_space_group_name_H-M   'P 1'
_cell_length_a   7.40228939
_cell_length_b   8.98124176
_cell_length_c   6.19914505
_cell_angle_alpha   89.92011091
_cell_angle_beta   89.95981113
_cell_angle_gamma   89.97103206
_symmetry_Int_Tables_number   1
_chemical_formula_structural   Ho5Tm7Tc4
_chemical_formula_sum   'Ho5 Tm7 Tc4'
_cell_volume   412.12946083
_cell_formula_units_Z   1
loop_
 _symmetry_equiv_pos_site_id
 _symmetry_equiv_pos_as_xyz
  1  'x, y, z'
loop_
 _atom_site_type_symbol
 _atom_site_label
 _atom_site_symmetry_multiplicity
 _atom_site_fract_x
 _atom_site_fract_y
 _atom_site_fract_z
 _atom_site_occupancy
  Ho  Ho0  1  0.039248  0.250726  0.625529  1
  Ho  Ho1  1  0.959974  0.749455  0.374957  1
  Ho  Ho2  1  0.460205  0.749413  0.124941  1
  Ho  Ho3  1  0.540836  0.250460  0.874212  1
  Ho  Ho4  1  0.175957  0.062713  0.158055  1
  Tm  Tm5  1  0.824310  0.936887  0.841986  1
  Tm  Tm6  1  0.324794  0.937149  0.658673  1
  Tm  Tm7  1  0.824389  0.562574  0.842202  1
  Tm  Tm8  1  0.675032  0.062568  0.342289  1
  Tm  Tm9  1  0.175266  0.437886  0.157790  1
  Tm  Tm10  1  0.675439  0.437439  0.342185  1
  Tm  Tm11  1  0.324495  0.562680  0.657478  1
  Tc  Tc12  1  0.384040  0.250902  0.457844  1
  Tc  Tc13  1  0.616387  0.750227  0.543375  1
  Tc  Tc14  1  0.116238  0.748665  0.955266  1
  Tc  Tc15  1  0.883390  0.250257  0.043218  1
