# generated using pymatgen
data_Gd8Er12Si15Hg
_symmetry_space_group_name_H-M   'P 1'
_cell_length_a   7.39491735
_cell_length_b   7.67716235
_cell_length_c   14.60503700
_cell_angle_alpha   89.86885003
_cell_angle_beta   89.08383808
_cell_angle_gamma   90.03040084
_symmetry_Int_Tables_number   1
_chemical_formula_structural   Gd8Er12Si15Hg
_chemical_formula_sum   'Gd8 Er12 Si15 Hg1'
_cell_volume   829.04858079
_cell_formula_units_Z   1
loop_
 _symmetry_equiv_pos_site_id
 _symmetry_equiv_pos_as_xyz
  1  'x, y, z'
loop_
 _atom_site_type_symbol
 _atom_site_label
 _atom_site_symmetry_multiplicity
 _atom_site_fract_x
 _atom_site_fract_y
 _atom_site_fract_z
 _atom_site_occupancy
  Gd  Gd0  1  0.020344  0.179747  0.098319  1
  Gd  Gd1  1  0.979055  0.821482  0.903255  1
  Gd  Gd2  1  0.479489  0.680617  0.903157  1
  Gd  Gd3  1  0.984260  0.829218  0.598440  1
  Gd  Gd4  1  0.519914  0.317876  0.097616  1
  Gd  Gd5  1  0.011808  0.173115  0.399319  1
  Gd  Gd6  1  0.517389  0.316674  0.399073  1
  Gd  Gd7  1  0.491004  0.687876  0.600093  1
  Er  Er8  1  0.159636  0.511269  0.752808  1
  Er  Er9  1  0.840357  0.488901  0.250846  1
  Er  Er10  1  0.339871  0.008743  0.250267  1
  Er  Er11  1  0.662406  0.988293  0.750410  1
  Er  Er12  1  0.337578  0.170180  0.625851  1
  Er  Er13  1  0.666625  0.823105  0.376111  1
  Er  Er14  1  0.169319  0.677888  0.372173  1
  Er  Er15  1  0.675441  0.821551  0.122479  1
  Er  Er16  1  0.825409  0.326511  0.623766  1
  Er  Er17  1  0.323799  0.178135  0.878172  1
  Er  Er18  1  0.822468  0.321223  0.878445  1
  Er  Er19  1  0.175270  0.677568  0.122833  1
  Si  Si20  1  0.032677  0.113260  0.752557  1
  Si  Si21  1  0.966824  0.891507  0.247422  1
  Si  Si22  1  0.468954  0.606901  0.247948  1
  Si  Si23  1  0.531235  0.393426  0.752020  1
  Si  Si24  1  0.275211  0.875465  0.751947  1
  Si  Si25  1  0.722583  0.124857  0.248354  1
  Si  Si26  1  0.222753  0.371271  0.247798  1
  Si  Si27  1  0.778719  0.626771  0.752750  1
  Si  Si28  1  0.834494  0.533110  0.458292  1
  Si  Si29  1  0.336297  0.966102  0.459823  1
  Si  Si30  1  0.849995  0.530497  0.039482  1
  Si  Si31  1  0.662072  0.035242  0.538243  1
  Si  Si32  1  0.148154  0.469005  0.961461  1
  Si  Si33  1  0.648852  0.029673  0.960310  1
  Si  Si34  1  0.350176  0.968868  0.040003  1
  Hg  Hg35  1  0.169562  0.464071  0.538159  1
