# generated using pymatgen
data_GdY(ScIr)2
_symmetry_space_group_name_H-M   'P 1'
_cell_length_a   7.20341100
_cell_length_b   4.30561100
_cell_length_c   8.81382700
_cell_angle_alpha   90.00000000
_cell_angle_beta   90.00000000
_cell_angle_gamma   90.00000000
_symmetry_Int_Tables_number   1
_chemical_formula_structural   GdY(ScIr)2
_chemical_formula_sum   'Gd2 Y2 Sc4 Ir4'
_cell_volume   273.36159921
_cell_formula_units_Z   2
loop_
 _symmetry_equiv_pos_site_id
 _symmetry_equiv_pos_as_xyz
  1  'x, y, z'
loop_
 _atom_site_type_symbol
 _atom_site_label
 _atom_site_symmetry_multiplicity
 _atom_site_fract_x
 _atom_site_fract_y
 _atom_site_fract_z
 _atom_site_occupancy
  Gd  Gd0  1  0.014048  0.750000  0.826840  1
  Gd  Gd1  1  0.514048  0.750000  0.673160  1
  Y  Y2  1  0.982062  0.250000  0.174896  1
  Y  Y3  1  0.482062  0.250000  0.325104  1
  Sc  Sc4  1  0.859956  0.250000  0.561607  1
  Sc  Sc5  1  0.359956  0.250000  0.938393  1
  Sc  Sc6  1  0.141815  0.750000  0.433178  1
  Sc  Sc7  1  0.641815  0.750000  0.066822  1
  Ir  Ir8  1  0.737834  0.250000  0.897135  1
  Ir  Ir9  1  0.237834  0.250000  0.602865  1
  Ir  Ir10  1  0.264286  0.750000  0.106633  1
  Ir  Ir11  1  0.764286  0.750000  0.393367  1
