# generated using pymatgen
data_Y4Ho2Al24PdRu4Rh3
_symmetry_space_group_name_H-M   'P 1'
_cell_length_a   8.81531732
_cell_length_b   8.81531704
_cell_length_c   9.55160200
_cell_angle_alpha   89.83106940
_cell_angle_beta   90.16893059
_cell_angle_gamma   119.72127058
_symmetry_Int_Tables_number   1
_chemical_formula_structural   Y4Ho2Al24PdRu4Rh3
_chemical_formula_sum   'Y4 Ho2 Al24 Pd1 Ru4 Rh3'
_cell_volume   644.60424144
_cell_formula_units_Z   1
loop_
 _symmetry_equiv_pos_site_id
 _symmetry_equiv_pos_as_xyz
  1  'x, y, z'
loop_
 _atom_site_type_symbol
 _atom_site_label
 _atom_site_symmetry_multiplicity
 _atom_site_fract_x
 _atom_site_fract_y
 _atom_site_fract_z
 _atom_site_occupancy
  Y  Y0  1  0.193157  0.384944  0.250578  1
  Y  Y1  1  0.806843  0.615056  0.749422  1
  Y  Y2  1  0.613619  0.807378  0.249588  1
  Y  Y3  1  0.386381  0.192622  0.750412  1
  Ho  Ho4  1  0.194427  0.808494  0.251206  1
  Ho  Ho5  1  0.805573  0.191506  0.748794  1
  Al  Al6  1  0.331936  0.670593  0.026364  1
  Al  Al7  1  0.668064  0.329407  0.973636  1
  Al  Al8  1  0.665635  0.334092  0.523359  1
  Al  Al9  1  0.334365  0.665908  0.476641  1
  Al  Al10  1  0.163967  0.325384  0.576637  1
  Al  Al11  1  0.836033  0.674616  0.423363  1
  Al  Al12  1  0.673976  0.835742  0.576047  1
  Al  Al13  1  0.842579  0.676624  0.078301  1
  Al  Al14  1  0.326024  0.164258  0.423953  1
  Al  Al15  1  0.157421  0.323376  0.921699  1
  Al  Al16  1  0.162523  0.837417  0.576779  1
  Al  Al17  1  0.325090  0.157120  0.077383  1
  Al  Al18  1  0.837477  0.162583  0.423221  1
  Al  Al19  1  0.674910  0.842880  0.922617  1
  Al  Al20  1  0.835413  0.161477  0.075540  1
  Al  Al21  1  0.164587  0.838523  0.924460  1
  Al  Al22  1  0.562428  0.123792  0.248239  1
  Al  Al23  1  0.437572  0.876208  0.751761  1
  Al  Al24  1  0.876716  0.438393  0.249145  1
  Al  Al25  1  0.123284  0.561607  0.750855  1
  Al  Al26  1  0.563165  0.437536  0.253543  1
  Al  Al27  1  0.436835  0.562464  0.746457  1
  Al  Al28  1  0.000218  0.000165  0.250106  1
  Al  Al29  1  0.999782  0.999835  0.749894  1
  Pd  Pd30  1  0.500000  0.500000  0.000000  1
  Ru  Ru31  1  0.500000  0.000000  0.000000  1
  Ru  Ru32  1  0.500000  0.500000  0.500000  1
  Ru  Ru33  1  0.000000  0.000000  0.000000  1
  Ru  Ru34  1  0.000000  0.000000  0.500000  1
  Rh  Rh35  1  0.000000  0.500000  0.000000  1
  Rh  Rh36  1  0.500000  0.000000  0.500000  1
  Rh  Rh37  1  0.000000  0.500000  0.500000  1
