# generated using pymatgen
data_TbHoFe3Re14C3
_symmetry_space_group_name_H-M   'P 1'
_cell_length_a   6.92640849
_cell_length_b   6.92640804
_cell_length_c   6.92640804
_cell_angle_alpha   82.53022489
_cell_angle_beta   82.53022598
_cell_angle_gamma   82.53022919
_symmetry_Int_Tables_number   1
_chemical_formula_structural   TbHoFe3Re14C3
_chemical_formula_sum   'Tb1 Ho1 Fe3 Re14 C3'
_cell_volume   324.51015177
_cell_formula_units_Z   1
loop_
 _symmetry_equiv_pos_site_id
 _symmetry_equiv_pos_as_xyz
  1  'x, y, z'
loop_
 _atom_site_type_symbol
 _atom_site_label
 _atom_site_symmetry_multiplicity
 _atom_site_fract_x
 _atom_site_fract_y
 _atom_site_fract_z
 _atom_site_occupancy
  Tb  Tb0  1  0.648709  0.648709  0.648709  1
  Ho  Ho1  1  0.351231  0.351231  0.351231  1
  Fe  Fe2  1  0.000018  0.000018  0.500001  1
  Fe  Fe3  1  0.500001  0.000018  0.000018  1
  Fe  Fe4  1  0.000018  0.500001  0.000018  1
  Re  Re5  1  0.722259  0.277663  0.000098  1
  Re  Re6  1  0.000098  0.722259  0.277663  1
  Re  Re7  1  0.277663  0.000098  0.722259  1
  Re  Re8  1  0.000098  0.277663  0.722259  1
  Re  Re9  1  0.722259  0.000098  0.277663  1
  Re  Re10  1  0.277663  0.722259  0.000098  1
  Re  Re11  1  0.346461  0.860863  0.346461  1
  Re  Re12  1  0.346461  0.346461  0.860863  1
  Re  Re13  1  0.860863  0.346461  0.346461  1
  Re  Re14  1  0.653309  0.139382  0.653309  1
  Re  Re15  1  0.653309  0.653309  0.139382  1
  Re  Re16  1  0.139382  0.653309  0.653309  1
  Re  Re17  1  0.897850  0.897850  0.897850  1
  Re  Re18  1  0.102305  0.102305  0.102305  1
  C  C19  1  0.499675  0.499675  0.000695  1
  C  C20  1  0.000695  0.499675  0.499675  1
  C  C21  1  0.499675  0.000695  0.499675  1
