# generated using pymatgen
data_TaTi6RuPt20
_symmetry_space_group_name_H-M   'P 1'
_cell_length_a   5.60029771
_cell_length_b   5.57939895
_cell_length_c   15.97260479
_cell_angle_alpha   90.00000153
_cell_angle_beta   90.20805307
_cell_angle_gamma   119.87661315
_symmetry_Int_Tables_number   1
_chemical_formula_structural   TaTi6RuPt20
_chemical_formula_sum   'Ta1 Ti6 Ru1 Pt20'
_cell_volume   432.75264372
_cell_formula_units_Z   1
loop_
 _symmetry_equiv_pos_site_id
 _symmetry_equiv_pos_as_xyz
  1  'x, y, z'
loop_
 _atom_site_type_symbol
 _atom_site_label
 _atom_site_symmetry_multiplicity
 _atom_site_fract_x
 _atom_site_fract_y
 _atom_site_fract_z
 _atom_site_occupancy
  Ta  Ta0  1  0.000000  0.000000  0.000000  1
  Ti  Ti1  1  0.998376  0.999188  0.718859  1
  Ti  Ti2  1  0.678065  0.339032  0.860092  1
  Ti  Ti3  1  0.321935  0.660968  0.139908  1
  Ti  Ti4  1  0.001624  0.000812  0.281141  1
  Ti  Ti5  1  0.665150  0.332575  0.428494  1
  Ti  Ti6  1  0.334850  0.667425  0.571506  1
  Ru  Ru7  1  0.000000  0.500000  0.000000  1
  Pt  Pt8  1  0.833149  0.666289  0.571219  1
  Pt  Pt9  1  0.333639  0.166820  0.570679  1
  Pt  Pt10  1  0.169781  0.337466  0.857203  1
  Pt  Pt11  1  0.166851  0.333711  0.428781  1
  Pt  Pt12  1  0.166851  0.833141  0.428781  1
  Pt  Pt13  1  0.499589  0.001918  0.713389  1
  Pt  Pt14  1  0.666361  0.833180  0.429321  1
  Pt  Pt15  1  0.169781  0.832315  0.857203  1
  Pt  Pt16  1  0.670597  0.835298  0.856136  1
  Pt  Pt17  1  0.830219  0.167685  0.142797  1
  Pt  Pt18  1  0.833149  0.166859  0.571219  1
  Pt  Pt19  1  0.499589  0.497670  0.713389  1
  Pt  Pt20  1  0.329403  0.164702  0.143864  1
  Pt  Pt21  1  0.830219  0.662534  0.142797  1
  Pt  Pt22  1  0.500411  0.502330  0.286611  1
  Pt  Pt23  1  0.500411  0.998082  0.286611  1
  Pt  Pt24  1  0.500000  0.000000  0.000000  1
  Pt  Pt25  1  0.999495  0.499748  0.286790  1
  Pt  Pt26  1  0.000505  0.500252  0.713210  1
  Pt  Pt27  1  0.500000  0.500000  0.000000  1
