# generated using pymatgen
data_Dy2Ta3Ni9P7
_symmetry_space_group_name_H-M   'P 1'
_cell_length_a   9.30334600
_cell_length_b   9.30334565
_cell_length_c   3.70420500
_cell_angle_alpha   90.00000000
_cell_angle_beta   90.00000000
_cell_angle_gamma   120.00000834
_symmetry_Int_Tables_number   1
_chemical_formula_structural   Dy2Ta3Ni9P7
_chemical_formula_sum   'Dy2 Ta3 Ni9 P7'
_cell_volume   277.65400278
_cell_formula_units_Z   1
loop_
 _symmetry_equiv_pos_site_id
 _symmetry_equiv_pos_as_xyz
  1  'x, y, z'
loop_
 _atom_site_type_symbol
 _atom_site_label
 _atom_site_symmetry_multiplicity
 _atom_site_fract_x
 _atom_site_fract_y
 _atom_site_fract_z
 _atom_site_occupancy
  Dy  Dy0  1  0.333333  0.666667  0.000000  1
  Dy  Dy1  1  0.666667  0.333333  0.500000  1
  Ta  Ta2  1  0.225262  0.119767  0.500000  1
  Ta  Ta3  1  0.880233  0.105495  0.500000  1
  Ta  Ta4  1  0.894505  0.774738  0.500000  1
  Ni  Ni5  1  0.128195  0.283931  0.000000  1
  Ni  Ni6  1  0.716069  0.844264  0.000000  1
  Ni  Ni7  1  0.155736  0.871805  0.000000  1
  Ni  Ni8  1  0.432596  0.368656  0.000000  1
  Ni  Ni9  1  0.631344  0.063941  0.000000  1
  Ni  Ni10  1  0.936059  0.567404  0.000000  1
  Ni  Ni11  1  0.057780  0.443438  0.500000  1
  Ni  Ni12  1  0.556562  0.614342  0.500000  1
  Ni  Ni13  1  0.385658  0.942220  0.500000  1
  P  P14  1  0.290875  0.411084  0.500000  1
  P  P15  1  0.588916  0.879791  0.500000  1
  P  P16  1  0.120209  0.709125  0.500000  1
  P  P17  1  0.415833  0.111806  0.000000  1
  P  P18  1  0.888194  0.304026  0.000000  1
  P  P19  1  0.695974  0.584167  0.000000  1
  P  P20  1  0.000000  0.000000  0.000000  1
