# generated using pymatgen
data_TbTmPa4(Ni3Bi4)2
_symmetry_space_group_name_H-M   'P 1'
_cell_length_a   8.34293785
_cell_length_b   8.34316401
_cell_length_c   8.34276952
_cell_angle_alpha   109.36944933
_cell_angle_beta   109.57396321
_cell_angle_gamma   109.46656088
_symmetry_Int_Tables_number   1
_chemical_formula_structural   TbTmPa4(Ni3Bi4)2
_chemical_formula_sum   'Tb1 Tm1 Pa4 Ni6 Bi8'
_cell_volume   447.05079726
_cell_formula_units_Z   1
loop_
 _symmetry_equiv_pos_site_id
 _symmetry_equiv_pos_as_xyz
  1  'x, y, z'
loop_
 _atom_site_type_symbol
 _atom_site_label
 _atom_site_symmetry_multiplicity
 _atom_site_fract_x
 _atom_site_fract_y
 _atom_site_fract_z
 _atom_site_occupancy
  Tb  Tb0  1  0.249972  0.124960  0.874948  1
  Tm  Tm1  1  0.749983  0.375017  0.625002  1
  Pa  Pa2  1  0.127144  0.876855  0.250191  1
  Pa  Pa3  1  0.372849  0.623030  0.749697  1
  Pa  Pa4  1  0.873349  0.250309  0.123131  1
  Pa  Pa5  1  0.626762  0.749816  0.377049  1
  Ni  Ni6  1  0.630829  0.380850  0.252215  1
  Ni  Ni7  1  0.869038  0.121193  0.749796  1
  Ni  Ni8  1  0.371541  0.250160  0.619441  1
  Ni  Ni9  1  0.128453  0.747782  0.878497  1
  Ni  Ni10  1  0.250131  0.624973  0.375012  1
  Ni  Ni11  1  0.749909  0.874988  0.125045  1
  Bi  Bi12  1  0.335942  0.333017  0.332772  1
  Bi  Bi13  1  0.164198  0.496959  0.997147  1
  Bi  Bi14  1  0.999048  0.167386  0.502420  1
  Bi  Bi15  1  0.835024  0.831636  0.832470  1
  Bi  Bi16  1  0.500905  0.003272  0.168364  1
  Bi  Bi17  1  0.665006  0.497601  0.996666  1
  Bi  Bi18  1  0.499769  0.002922  0.666986  1
  Bi  Bi19  1  0.000149  0.667274  0.503149  1
