# generated using pymatgen
data_Y5ZrSn6Ir5Pt
_symmetry_space_group_name_H-M   'P 1'
_cell_length_a   7.52166589
_cell_length_b   7.55836085
_cell_length_c   7.77771578
_cell_angle_alpha   89.95831964
_cell_angle_beta   90.04635303
_cell_angle_gamma   120.22989056
_symmetry_Int_Tables_number   1
_chemical_formula_structural   Y5ZrSn6Ir5Pt
_chemical_formula_sum   'Y5 Zr1 Sn6 Ir5 Pt1'
_cell_volume   382.04407147
_cell_formula_units_Z   1
loop_
 _symmetry_equiv_pos_site_id
 _symmetry_equiv_pos_as_xyz
  1  'x, y, z'
loop_
 _atom_site_type_symbol
 _atom_site_label
 _atom_site_symmetry_multiplicity
 _atom_site_fract_x
 _atom_site_fract_y
 _atom_site_fract_z
 _atom_site_occupancy
  Y  Y0  1  0.403835  0.001283  0.247923  1
  Y  Y1  1  0.594807  0.595283  0.752640  1
  Y  Y2  1  0.595484  0.598471  0.248175  1
  Y  Y3  1  0.004496  0.410098  0.752278  1
  Y  Y4  1  0.400139  0.991606  0.752055  1
  Zr  Zr5  1  0.006775  0.402077  0.244844  1
  Sn  Sn6  1  0.260574  0.262481  0.501403  1
  Sn  Sn7  1  0.264636  0.261247  0.998871  1
  Sn  Sn8  1  0.736218  0.999109  0.999180  1
  Sn  Sn9  1  0.002690  0.743432  0.491577  1
  Sn  Sn10  1  0.735609  0.995252  0.500742  1
  Sn  Sn11  1  0.998766  0.740900  0.008373  1
  Ir  Ir12  1  0.678174  0.335764  0.009405  1
  Ir  Ir13  1  0.321069  0.656902  0.014764  1
  Ir  Ir14  1  0.322014  0.657870  0.485379  1
  Ir  Ir15  1  0.999631  0.998923  0.750414  1
  Ir  Ir16  1  0.000368  0.014289  0.249559  1
  Pt  Pt17  1  0.674714  0.335010  0.492417  1
