# generated using pymatgen
data_Er8B24Os3Ru
_symmetry_space_group_name_H-M   'P 1'
_cell_length_a   3.63139700
_cell_length_b   9.10190571
_cell_length_c   11.47575408
_cell_angle_alpha   90.04202914
_cell_angle_beta   90.00000000
_cell_angle_gamma   90.00000000
_symmetry_Int_Tables_number   1
_chemical_formula_structural   Er8B24Os3Ru
_chemical_formula_sum   'Er8 B24 Os3 Ru1'
_cell_volume   379.30378701
_cell_formula_units_Z   1
loop_
 _symmetry_equiv_pos_site_id
 _symmetry_equiv_pos_as_xyz
  1  'x, y, z'
loop_
 _atom_site_type_symbol
 _atom_site_label
 _atom_site_symmetry_multiplicity
 _atom_site_fract_x
 _atom_site_fract_y
 _atom_site_fract_z
 _atom_site_occupancy
  Er  Er0  1  0.000000  0.321392  0.413969  1
  Er  Er1  1  0.000000  0.678059  0.585751  1
  Er  Er2  1  0.000000  0.821734  0.085837  1
  Er  Er3  1  0.000000  0.178700  0.914156  1
  Er  Er4  1  0.000000  0.942935  0.372664  1
  Er  Er5  1  0.000000  0.056179  0.626772  1
  Er  Er6  1  0.000000  0.443897  0.127696  1
  Er  Er7  1  0.000000  0.556491  0.873146  1
  B  B8  1  0.500000  0.553572  0.433206  1
  B  B9  1  0.500000  0.446436  0.566335  1
  B  B10  1  0.500000  0.053736  0.066728  1
  B  B11  1  0.500000  0.946717  0.933476  1
  B  B12  1  0.500000  0.747834  0.420013  1
  B  B13  1  0.500000  0.251880  0.579627  1
  B  B14  1  0.500000  0.248492  0.080260  1
  B  B15  1  0.500000  0.752113  0.920226  1
  B  B16  1  0.500000  0.790700  0.266070  1
  B  B17  1  0.500000  0.209111  0.733725  1
  B  B18  1  0.500000  0.291010  0.234228  1
  B  B19  1  0.500000  0.709040  0.766091  1
  B  B20  1  0.500000  0.631203  0.185035  1
  B  B21  1  0.500000  0.368981  0.814988  1
  B  B22  1  0.500000  0.130906  0.314994  1
  B  B23  1  0.500000  0.868667  0.684876  1
  B  B24  1  0.500000  0.982079  0.212918  1
  B  B25  1  0.500000  0.017893  0.786955  1
  B  B26  1  0.500000  0.482326  0.287240  1
  B  B27  1  0.500000  0.517929  0.712810  1
  B  B28  1  0.500000  0.607369  0.030008  1
  B  B29  1  0.500000  0.393333  0.970674  1
  B  B30  1  0.500000  0.106963  0.470043  1
  B  B31  1  0.500000  0.892205  0.529505  1
  Os  Os32  1  0.000000  0.362906  0.678652  1
  Os  Os33  1  0.000000  0.137132  0.178708  1
  Os  Os34  1  0.000000  0.863002  0.821397  1
  Ru  Ru35  1  0.000000  0.637074  0.321222  1
