# generated using pymatgen
data_HfTi3(SiMo)4
_symmetry_space_group_name_H-M   'P 1'
_cell_length_a   3.40607600
_cell_length_b   6.81187232
_cell_length_c   8.09627480
_cell_angle_alpha   90.09486403
_cell_angle_beta   90.00000000
_cell_angle_gamma   90.00000000
_symmetry_Int_Tables_number   1
_chemical_formula_structural   HfTi3(SiMo)4
_chemical_formula_sum   'Hf1 Ti3 Si4 Mo4'
_cell_volume   187.84752522
_cell_formula_units_Z   1
loop_
 _symmetry_equiv_pos_site_id
 _symmetry_equiv_pos_as_xyz
  1  'x, y, z'
loop_
 _atom_site_type_symbol
 _atom_site_label
 _atom_site_symmetry_multiplicity
 _atom_site_fract_x
 _atom_site_fract_y
 _atom_site_fract_z
 _atom_site_occupancy
  Hf  Hf0  1  0.750000  0.456957  0.834172  1
  Ti  Ti1  1  0.250000  0.043699  0.332777  1
  Ti  Ti2  1  0.750000  0.954374  0.665305  1
  Ti  Ti3  1  0.250000  0.545451  0.169464  1
  Si  Si4  1  0.250000  0.244496  0.634438  1
  Si  Si5  1  0.750000  0.749001  0.361117  1
  Si  Si6  1  0.250000  0.762201  0.858933  1
  Si  Si7  1  0.750000  0.246110  0.142072  1
  Mo  Mo8  1  0.750000  0.364461  0.435314  1
  Mo  Mo9  1  0.250000  0.636873  0.562816  1
  Mo  Mo10  1  0.750000  0.862828  0.065887  1
  Mo  Mo11  1  0.250000  0.133548  0.937705  1
