# generated using pymatgen
data_LiThNi3Ir
_symmetry_space_group_name_H-M   'P 1'
_cell_length_a   5.09442893
_cell_length_b   5.09442890
_cell_length_c   5.09442800
_cell_angle_alpha   58.94333861
_cell_angle_beta   58.94333882
_cell_angle_gamma   58.94332950
_symmetry_Int_Tables_number   1
_chemical_formula_structural   LiThNi3Ir
_chemical_formula_sum   'Li1 Th1 Ni3 Ir1'
_cell_volume   91.23718605
_cell_formula_units_Z   1
loop_
 _symmetry_equiv_pos_site_id
 _symmetry_equiv_pos_as_xyz
  1  'x, y, z'
loop_
 _atom_site_type_symbol
 _atom_site_label
 _atom_site_symmetry_multiplicity
 _atom_site_fract_x
 _atom_site_fract_y
 _atom_site_fract_z
 _atom_site_occupancy
  Li  Li0  1  0.999872  0.999872  0.999872  1
  Th  Th1  1  0.249404  0.249404  0.249404  1
  Ni  Ni2  1  0.122150  0.626055  0.626055  1
  Ni  Ni3  1  0.626055  0.122150  0.626055  1
  Ni  Ni4  1  0.626055  0.626055  0.122150  1
  Ir  Ir5  1  0.626465  0.626465  0.626465  1
