# generated using pymatgen
data_Ba7ErUTlS12
_symmetry_space_group_name_H-M   'P 1'
_cell_length_a   8.71316651
_cell_length_b   8.71316627
_cell_length_c   8.71316814
_cell_angle_alpha   89.19508804
_cell_angle_beta   89.19509107
_cell_angle_gamma   89.19509413
_symmetry_Int_Tables_number   1
_chemical_formula_structural   Ba7ErUTlS12
_chemical_formula_sum   'Ba7 Er1 U1 Tl1 S12'
_cell_volume   661.30334495
_cell_formula_units_Z   1
loop_
 _symmetry_equiv_pos_site_id
 _symmetry_equiv_pos_as_xyz
  1  'x, y, z'
loop_
 _atom_site_type_symbol
 _atom_site_label
 _atom_site_symmetry_multiplicity
 _atom_site_fract_x
 _atom_site_fract_y
 _atom_site_fract_z
 _atom_site_occupancy
  Ba  Ba0  1  0.877752  0.613742  0.261075  1
  Ba  Ba1  1  0.261075  0.877752  0.613742  1
  Ba  Ba2  1  0.613742  0.261075  0.877752  1
  Ba  Ba3  1  0.737468  0.128037  0.379894  1
  Ba  Ba4  1  0.379894  0.737468  0.128037  1
  Ba  Ba5  1  0.128037  0.379894  0.737468  1
  Ba  Ba6  1  0.743836  0.743836  0.743836  1
  Er  Er7  1  0.497207  0.497207  0.497207  1
  U  U8  1  0.001615  0.001615  0.001615  1
  Tl  Tl9  1  0.262090  0.262090  0.262090  1
  S  S10  1  0.204369  0.570553  0.423280  1
  S  S11  1  0.423280  0.204369  0.570553  1
  S  S12  1  0.570553  0.423280  0.204369  1
  S  S13  1  0.932071  0.054721  0.716893  1
  S  S14  1  0.716893  0.932071  0.054721  1
  S  S15  1  0.054721  0.716893  0.932071  1
  S  S16  1  0.795228  0.433941  0.583400  1
  S  S17  1  0.583400  0.795228  0.433941  1
  S  S18  1  0.433941  0.583400  0.795228  1
  S  S19  1  0.060834  0.939546  0.282449  1
  S  S20  1  0.282449  0.060834  0.939546  1
  S  S21  1  0.939546  0.282449  0.060834  1
