# generated using pymatgen
data_Ba6YHoSc2O12
_symmetry_space_group_name_H-M   'P 1'
_cell_length_a   7.25992176
_cell_length_b   7.25992061
_cell_length_c   7.25992253
_cell_angle_alpha   93.11234875
_cell_angle_beta   93.11235058
_cell_angle_gamma   93.11234978
_symmetry_Int_Tables_number   1
_chemical_formula_structural   Ba6YHoSc2O12
_chemical_formula_sum   'Ba6 Y1 Ho1 Sc2 O12'
_cell_volume   380.88754232
_cell_formula_units_Z   1
loop_
 _symmetry_equiv_pos_site_id
 _symmetry_equiv_pos_as_xyz
  1  'x, y, z'
loop_
 _atom_site_type_symbol
 _atom_site_label
 _atom_site_symmetry_multiplicity
 _atom_site_fract_x
 _atom_site_fract_y
 _atom_site_fract_z
 _atom_site_occupancy
  Ba  Ba0  1  0.250000  0.888867  0.611133  1
  Ba  Ba1  1  0.888867  0.611133  0.250000  1
  Ba  Ba2  1  0.750000  0.110914  0.389086  1
  Ba  Ba3  1  0.389086  0.750000  0.110914  1
  Ba  Ba4  1  0.110914  0.389086  0.750000  1
  Ba  Ba5  1  0.611133  0.250000  0.888867  1
  Y  Y6  1  0.250000  0.250000  0.250000  1
  Ho  Ho7  1  0.750000  0.750000  0.750000  1
  Sc  Sc8  1  0.500326  0.500326  0.500326  1
  Sc  Sc9  1  0.999674  0.999674  0.999674  1
  O  O10  1  0.596337  0.782175  0.468086  1
  O  O11  1  0.468086  0.596337  0.782175  1
  O  O12  1  0.782175  0.468086  0.596337  1
  O  O13  1  0.903663  0.031914  0.717825  1
  O  O14  1  0.717825  0.903663  0.031914  1
  O  O15  1  0.031914  0.717825  0.903663  1
  O  O16  1  0.404677  0.218011  0.533431  1
  O  O17  1  0.533431  0.404677  0.218011  1
  O  O18  1  0.218011  0.533431  0.404677  1
  O  O19  1  0.095323  0.966569  0.281989  1
  O  O20  1  0.966569  0.281989  0.095323  1
  O  O21  1  0.281989  0.095323  0.966569  1
