# generated using pymatgen
data_LiPr2Si2(PPd5)4
_symmetry_space_group_name_H-M   'P 1'
_cell_length_a   8.70091215
_cell_length_b   8.70669742
_cell_length_c   8.70669692
_cell_angle_alpha   59.95604812
_cell_angle_beta   60.02197824
_cell_angle_gamma   60.02197280
_symmetry_Int_Tables_number   1
_chemical_formula_structural   LiPr2Si2(PPd5)4
_chemical_formula_sum   'Li1 Pr2 Si2 P4 Pd20'
_cell_volume   466.39756967
_cell_formula_units_Z   1
loop_
 _symmetry_equiv_pos_site_id
 _symmetry_equiv_pos_as_xyz
  1  'x, y, z'
loop_
 _atom_site_type_symbol
 _atom_site_label
 _atom_site_symmetry_multiplicity
 _atom_site_fract_x
 _atom_site_fract_y
 _atom_site_fract_z
 _atom_site_occupancy
  Li  Li0  1  0.000000  0.000000  0.000000  1
  Pr  Pr1  1  0.250000  0.250000  0.250000  1
  Pr  Pr2  1  0.750000  0.750000  0.750000  1
  Si  Si3  1  0.738512  0.261488  0.261488  1
  Si  Si4  1  0.261488  0.738512  0.738512  1
  P  P5  1  0.261243  0.738757  0.261243  1
  P  P6  1  0.738757  0.261243  0.738757  1
  P  P7  1  0.261243  0.261243  0.738757  1
  P  P8  1  0.738757  0.738757  0.261243  1
  Pd  Pd9  1  0.385360  0.386935  0.386935  1
  Pd  Pd10  1  0.614640  0.613065  0.613065  1
  Pd  Pd11  1  0.386935  0.385360  0.840772  1
  Pd  Pd12  1  0.386935  0.840772  0.385360  1
  Pd  Pd13  1  0.613065  0.614640  0.159228  1
  Pd  Pd14  1  0.613065  0.159228  0.614640  1
  Pd  Pd15  1  0.840772  0.386935  0.386935  1
  Pd  Pd16  1  0.159228  0.613065  0.613065  1
  Pd  Pd17  1  0.343350  0.000000  0.000000  1
  Pd  Pd18  1  0.656650  0.000000  0.000000  1
  Pd  Pd19  1  0.000000  0.343350  0.656650  1
  Pd  Pd20  1  0.000000  0.656650  0.343350  1
  Pd  Pd21  1  0.002064  0.345445  0.997936  1
  Pd  Pd22  1  0.654555  0.997936  0.345445  1
  Pd  Pd23  1  0.997936  0.654555  0.002064  1
  Pd  Pd24  1  0.345445  0.002064  0.654555  1
  Pd  Pd25  1  0.002064  0.997936  0.345445  1
  Pd  Pd26  1  0.997936  0.002064  0.654555  1
  Pd  Pd27  1  0.654555  0.345445  0.997936  1
  Pd  Pd28  1  0.345445  0.654555  0.002064  1
