# generated using pymatgen
data_YbPr4Rh3
_symmetry_space_group_name_H-M   'P 1'
_cell_length_a   11.27845200
_cell_length_b   11.27845200
_cell_length_c   6.57223300
_cell_angle_alpha   90.00000000
_cell_angle_beta   90.00000000
_cell_angle_gamma   90.00000000
_symmetry_Int_Tables_number   1
_chemical_formula_structural   YbPr4Rh3
_chemical_formula_sum   'Yb4 Pr16 Rh12'
_cell_volume   836.01090579
_cell_formula_units_Z   4
loop_
 _symmetry_equiv_pos_site_id
 _symmetry_equiv_pos_as_xyz
  1  'x, y, z'
loop_
 _atom_site_type_symbol
 _atom_site_label
 _atom_site_symmetry_multiplicity
 _atom_site_fract_x
 _atom_site_fract_y
 _atom_site_fract_z
 _atom_site_occupancy
  Yb  Yb0  1  0.000000  0.000000  0.000000  1
  Yb  Yb1  1  0.500000  0.500000  0.000000  1
  Yb  Yb2  1  0.500000  0.500000  0.500000  1
  Yb  Yb3  1  0.000000  0.000000  0.500000  1
  Pr  Pr4  1  0.088865  0.288495  0.114372  1
  Pr  Pr5  1  0.788495  0.411135  0.114372  1
  Pr  Pr6  1  0.211505  0.588865  0.114372  1
  Pr  Pr7  1  0.911135  0.711505  0.114372  1
  Pr  Pr8  1  0.411135  0.788495  0.385628  1
  Pr  Pr9  1  0.588865  0.211505  0.385628  1
  Pr  Pr10  1  0.288495  0.088865  0.385628  1
  Pr  Pr11  1  0.711505  0.911135  0.385628  1
  Pr  Pr12  1  0.411135  0.211505  0.885628  1
  Pr  Pr13  1  0.711505  0.088865  0.885628  1
  Pr  Pr14  1  0.288495  0.911135  0.885628  1
  Pr  Pr15  1  0.588865  0.788495  0.885628  1
  Pr  Pr16  1  0.088865  0.711505  0.614372  1
  Pr  Pr17  1  0.911135  0.288495  0.614372  1
  Pr  Pr18  1  0.211505  0.411135  0.614372  1
  Pr  Pr19  1  0.788495  0.588865  0.614372  1
  Rh  Rh20  1  0.153602  0.846398  0.250000  1
  Rh  Rh21  1  0.346398  0.346398  0.250000  1
  Rh  Rh22  1  0.653602  0.653602  0.250000  1
  Rh  Rh23  1  0.846398  0.153602  0.250000  1
  Rh  Rh24  1  0.346398  0.653602  0.750000  1
  Rh  Rh25  1  0.153602  0.153602  0.750000  1
  Rh  Rh26  1  0.846398  0.846398  0.750000  1
  Rh  Rh27  1  0.653602  0.346398  0.750000  1
  Rh  Rh28  1  0.000000  0.500000  0.380042  1
  Rh  Rh29  1  0.500000  0.000000  0.119958  1
  Rh  Rh30  1  0.500000  0.000000  0.619958  1
  Rh  Rh31  1  0.000000  0.500000  0.880042  1
