# generated using pymatgen
data_SrEu(SiPt2)2
_symmetry_space_group_name_H-M   'P 1'
_cell_length_a   4.22406783
_cell_length_b   4.24522200
_cell_length_c   9.24011399
_cell_angle_alpha   90.00000000
_cell_angle_beta   103.21301415
_cell_angle_gamma   90.00000000
_symmetry_Int_Tables_number   1
_chemical_formula_structural   SrEu(SiPt2)2
_chemical_formula_sum   'Sr1 Eu1 Si2 Pt4'
_cell_volume   161.30826667
_cell_formula_units_Z   1
loop_
 _symmetry_equiv_pos_site_id
 _symmetry_equiv_pos_as_xyz
  1  'x, y, z'
loop_
 _atom_site_type_symbol
 _atom_site_label
 _atom_site_symmetry_multiplicity
 _atom_site_fract_x
 _atom_site_fract_y
 _atom_site_fract_z
 _atom_site_occupancy
  Sr  Sr0  1  0.598418  0.250000  0.196835  1
  Eu  Eu1  1  0.401156  0.750000  0.802312  1
  Si  Si2  1  0.821887  0.250000  0.643773  1
  Si  Si3  1  0.178381  0.750000  0.356762  1
  Pt  Pt4  1  0.952005  0.250000  0.904009  1
  Pt  Pt5  1  0.046475  0.750000  0.092949  1
  Pt  Pt6  1  0.252341  0.250000  0.504682  1
  Pt  Pt7  1  0.749338  0.750000  0.498678  1
