# generated using pymatgen
data_Th7Fe2Co
_symmetry_space_group_name_H-M   'P 1'
_cell_length_a   9.70709064
_cell_length_b   9.70248577
_cell_length_c   6.20091643
_cell_angle_alpha   89.97893216
_cell_angle_beta   90.04211570
_cell_angle_gamma   120.01569430
_symmetry_Int_Tables_number   1
_chemical_formula_structural   Th7Fe2Co
_chemical_formula_sum   'Th14 Fe4 Co2'
_cell_volume   505.69631406
_cell_formula_units_Z   2
loop_
 _symmetry_equiv_pos_site_id
 _symmetry_equiv_pos_as_xyz
  1  'x, y, z'
loop_
 _atom_site_type_symbol
 _atom_site_label
 _atom_site_symmetry_multiplicity
 _atom_site_fract_x
 _atom_site_fract_y
 _atom_site_fract_z
 _atom_site_occupancy
  Th  Th0  1  0.334307  0.666184  0.036300  1
  Th  Th1  1  0.668124  0.333816  0.536300  1
  Th  Th2  1  0.123301  0.873355  0.247431  1
  Th  Th3  1  0.249947  0.126645  0.747431  1
  Th  Th4  1  0.872889  0.749296  0.745874  1
  Th  Th5  1  0.123592  0.250704  0.245874  1
  Th  Th6  1  0.751111  0.875698  0.247095  1
  Th  Th7  1  0.875414  0.124302  0.747095  1
  Th  Th8  1  0.544995  0.458646  0.055561  1
  Th  Th9  1  0.086348  0.541354  0.555561  1
  Th  Th10  1  0.459239  0.913915  0.554408  1
  Th  Th11  1  0.545325  0.086085  0.054408  1
  Th  Th12  1  0.913180  0.456406  0.054694  1
  Th  Th13  1  0.456774  0.543594  0.554694  1
  Fe  Fe14  1  0.812482  0.184069  0.294879  1
  Fe  Fe15  1  0.628415  0.815931  0.794879  1
  Fe  Fe16  1  0.184598  0.370193  0.795123  1
  Fe  Fe17  1  0.814404  0.629807  0.295123  1
  Co  Co18  1  0.369733  0.183911  0.298636  1
  Co  Co19  1  0.185823  0.816089  0.798636  1
