# generated using pymatgen
data_CuIrPdO6
_symmetry_space_group_name_H-M   'P 1'
_cell_length_a   4.57250665
_cell_length_b   4.51123100
_cell_length_c   9.45588648
_cell_angle_alpha   90.00000000
_cell_angle_beta   90.07942116
_cell_angle_gamma   90.00000000
_symmetry_Int_Tables_number   1
_chemical_formula_structural   CuIrPdO6
_chemical_formula_sum   'Cu2 Ir2 Pd2 O12'
_cell_volume   195.05237595
_cell_formula_units_Z   2
loop_
 _symmetry_equiv_pos_site_id
 _symmetry_equiv_pos_as_xyz
  1  'x, y, z'
loop_
 _atom_site_type_symbol
 _atom_site_label
 _atom_site_symmetry_multiplicity
 _atom_site_fract_x
 _atom_site_fract_y
 _atom_site_fract_z
 _atom_site_occupancy
  Cu  Cu0  1  0.499749  0.499745  0.499093  1
  Cu  Cu1  1  0.999749  0.000255  0.999093  1
  Ir  Ir2  1  0.499953  0.497512  0.832696  1
  Ir  Ir3  1  0.999953  0.002488  0.332696  1
  Pd  Pd4  1  0.499650  0.502362  0.167888  1
  Pd  Pd5  1  0.999650  0.997638  0.667888  1
  O  O6  1  0.679622  0.693957  0.668857  1
  O  O7  1  0.179622  0.806043  0.168857  1
  O  O8  1  0.304269  0.290879  0.334995  1
  O  O9  1  0.804269  0.209121  0.834995  1
  O  O10  1  0.194781  0.783468  0.834359  1
  O  O11  1  0.694781  0.716532  0.334359  1
  O  O12  1  0.821482  0.201589  0.169187  1
  O  O13  1  0.321482  0.298411  0.669187  1
  O  O14  1  0.186047  0.796689  0.496157  1
  O  O15  1  0.686047  0.703311  0.996157  1
  O  O16  1  0.814447  0.204380  0.496768  1
  O  O17  1  0.314447  0.295620  0.996768  1
