# generated using pymatgen
data_TbTh2(SnRu)3
_symmetry_space_group_name_H-M   'P 1'
_cell_length_a   7.57113468
_cell_length_b   7.34829097
_cell_length_c   4.10051400
_cell_angle_alpha   90.00000000
_cell_angle_beta   90.00000000
_cell_angle_gamma   119.03104458
_symmetry_Int_Tables_number   1
_chemical_formula_structural   TbTh2(SnRu)3
_chemical_formula_sum   'Tb1 Th2 Sn3 Ru3'
_cell_volume   199.46851491
_cell_formula_units_Z   1
loop_
 _symmetry_equiv_pos_site_id
 _symmetry_equiv_pos_as_xyz
  1  'x, y, z'
loop_
 _atom_site_type_symbol
 _atom_site_label
 _atom_site_symmetry_multiplicity
 _atom_site_fract_x
 _atom_site_fract_y
 _atom_site_fract_z
 _atom_site_occupancy
  Tb  Tb0  1  0.000000  0.410684  0.500000  1
  Th  Th1  1  0.586494  0.586251  0.500000  1
  Th  Th2  1  0.413506  0.999757  0.500000  1
  Sn  Sn3  1  0.000000  0.734234  0.000000  1
  Sn  Sn4  1  0.235328  0.251554  0.000000  1
  Sn  Sn5  1  0.764672  0.016226  0.000000  1
  Ru  Ru6  1  0.360324  0.688518  0.000000  1
  Ru  Ru7  1  0.639676  0.328193  0.000000  1
  Ru  Ru8  1  0.000000  0.984584  0.500000  1
