# generated using pymatgen
data_TbYb3Y4(Pd2Pb)4
_symmetry_space_group_name_H-M   'P 1'
_cell_length_a   7.88049003
_cell_length_b   7.88049015
_cell_length_c   7.35910200
_cell_angle_alpha   90.00000000
_cell_angle_beta   90.00000000
_cell_angle_gamma   90.25975783
_symmetry_Int_Tables_number   1
_chemical_formula_structural   TbYb3Y4(Pd2Pb)4
_chemical_formula_sum   'Tb1 Yb3 Y4 Pd8 Pb4'
_cell_volume   457.01116868
_cell_formula_units_Z   1
loop_
 _symmetry_equiv_pos_site_id
 _symmetry_equiv_pos_as_xyz
  1  'x, y, z'
loop_
 _atom_site_type_symbol
 _atom_site_label
 _atom_site_symmetry_multiplicity
 _atom_site_fract_x
 _atom_site_fract_y
 _atom_site_fract_z
 _atom_site_occupancy
  Tb  Tb0  1  0.677166  0.677166  0.000000  1
  Yb  Yb1  1  0.664152  0.664152  0.500000  1
  Yb  Yb2  1  0.837342  0.163324  0.000000  1
  Yb  Yb3  1  0.163324  0.837342  0.000000  1
  Y  Y4  1  0.336314  0.336314  0.500000  1
  Y  Y5  1  0.822432  0.176444  0.500000  1
  Y  Y6  1  0.322430  0.322430  0.000000  1
  Y  Y7  1  0.176444  0.822432  0.500000  1
  Pd  Pd8  1  0.873799  0.873799  0.734593  1
  Pd  Pd9  1  0.126446  0.126446  0.733275  1
  Pd  Pd10  1  0.625350  0.374616  0.764886  1
  Pd  Pd11  1  0.625350  0.374616  0.235114  1
  Pd  Pd12  1  0.374616  0.625350  0.235114  1
  Pd  Pd13  1  0.126446  0.126446  0.266725  1
  Pd  Pd14  1  0.873799  0.873799  0.265407  1
  Pd  Pd15  1  0.374616  0.625350  0.764886  1
  Pb  Pb16  1  0.500699  0.999288  0.750329  1
  Pb  Pb17  1  0.500699  0.999288  0.249671  1
  Pb  Pb18  1  0.999288  0.500699  0.750329  1
  Pb  Pb19  1  0.999288  0.500699  0.249671  1
