# generated using pymatgen
data_Tb6DyEr(InRh)2
_symmetry_space_group_name_H-M   'P 1'
_cell_length_a   9.67885485
_cell_length_b   9.68831893
_cell_length_c   9.68552261
_cell_angle_alpha   59.99044286
_cell_angle_beta   60.00289705
_cell_angle_gamma   59.96764388
_symmetry_Int_Tables_number   1
_chemical_formula_structural   Tb6DyEr(InRh)2
_chemical_formula_sum   'Tb12 Dy2 Er2 In4 Rh4'
_cell_volume   642.02552270
_cell_formula_units_Z   2
loop_
 _symmetry_equiv_pos_site_id
 _symmetry_equiv_pos_as_xyz
  1  'x, y, z'
loop_
 _atom_site_type_symbol
 _atom_site_label
 _atom_site_symmetry_multiplicity
 _atom_site_fract_x
 _atom_site_fract_y
 _atom_site_fract_z
 _atom_site_occupancy
  Tb  Tb0  1  0.312027  0.688633  0.310706  1
  Tb  Tb1  1  0.937042  0.938751  0.561861  1
  Tb  Tb2  1  0.149252  0.150571  0.549605  1
  Tb  Tb3  1  0.562057  0.938403  0.561136  1
  Tb  Tb4  1  0.149579  0.151229  0.150424  1
  Tb  Tb5  1  0.311964  0.310588  0.688833  1
  Tb  Tb6  1  0.937042  0.562347  0.561861  1
  Tb  Tb7  1  0.562001  0.561483  0.938223  1
  Tb  Tb8  1  0.562001  0.938293  0.938223  1
  Tb  Tb9  1  0.937049  0.562162  0.938625  1
  Tb  Tb10  1  0.149579  0.548766  0.150424  1
  Tb  Tb11  1  0.311964  0.688616  0.688833  1
  Dy  Dy12  1  0.689135  0.311341  0.688182  1
  Dy  Dy13  1  0.549932  0.150240  0.149589  1
  Er  Er14  1  0.689347  0.311268  0.311277  1
  Er  Er15  1  0.689347  0.688109  0.311277  1
  In  In16  1  0.917130  0.917311  0.248247  1
  In  In17  1  0.248090  0.917217  0.917477  1
  In  In18  1  0.917049  0.248268  0.917566  1
  In  In19  1  0.917049  0.917117  0.917566  1
  Rh  Rh20  1  0.358726  0.357070  0.357333  1
  Rh  Rh21  1  0.925655  0.358200  0.357948  1
  Rh  Rh22  1  0.358256  0.357147  0.927451  1
  Rh  Rh23  1  0.358726  0.926872  0.357333  1
