# generated using pymatgen
data_Ho2MnOs3
_symmetry_space_group_name_H-M   'P 1'
_cell_length_a   5.33743000
_cell_length_b   5.33742966
_cell_length_c   8.61767000
_cell_angle_alpha   90.00000000
_cell_angle_beta   90.00000000
_cell_angle_gamma   120.00001451
_symmetry_Int_Tables_number   1
_chemical_formula_structural   Ho2MnOs3
_chemical_formula_sum   'Ho4 Mn2 Os6'
_cell_volume   212.61053709
_cell_formula_units_Z   2
loop_
 _symmetry_equiv_pos_site_id
 _symmetry_equiv_pos_as_xyz
  1  'x, y, z'
loop_
 _atom_site_type_symbol
 _atom_site_label
 _atom_site_symmetry_multiplicity
 _atom_site_fract_x
 _atom_site_fract_y
 _atom_site_fract_z
 _atom_site_occupancy
  Ho  Ho0  1  0.333333  0.666667  0.433123  1
  Ho  Ho1  1  0.666667  0.333333  0.566877  1
  Ho  Ho2  1  0.666667  0.333333  0.933123  1
  Ho  Ho3  1  0.333333  0.666667  0.066877  1
  Mn  Mn4  1  0.000000  0.000000  0.500000  1
  Mn  Mn5  1  0.000000  0.000000  0.000000  1
  Os  Os6  1  0.830470  0.169530  0.250000  1
  Os  Os7  1  0.830470  0.660941  0.250000  1
  Os  Os8  1  0.339059  0.169530  0.250000  1
  Os  Os9  1  0.169530  0.830470  0.750000  1
  Os  Os10  1  0.169530  0.339059  0.750000  1
  Os  Os11  1  0.660941  0.830470  0.750000  1
