# generated using pymatgen
data_HoLu2Hf(Al8Pt3)3
_symmetry_space_group_name_H-M   'P 1'
_cell_length_a   7.50075728
_cell_length_b   7.51018840
_cell_length_c   13.05707136
_cell_angle_alpha   84.54703518
_cell_angle_beta   79.02671518
_cell_angle_gamma   59.89881836
_symmetry_Int_Tables_number   1
_chemical_formula_structural   HoLu2Hf(Al8Pt3)3
_chemical_formula_sum   'Ho1 Lu2 Hf1 Al24 Pt9'
_cell_volume   624.70428645
_cell_formula_units_Z   1
loop_
 _symmetry_equiv_pos_site_id
 _symmetry_equiv_pos_as_xyz
  1  'x, y, z'
loop_
 _atom_site_type_symbol
 _atom_site_label
 _atom_site_symmetry_multiplicity
 _atom_site_fract_x
 _atom_site_fract_y
 _atom_site_fract_z
 _atom_site_occupancy
  Ho  Ho0  1  0.606493  0.831655  0.191943  1
  Lu  Lu1  1  0.734211  0.498831  0.806786  1
  Lu  Lu2  1  0.266449  0.500991  0.192781  1
  Hf  Hf3  1  0.393515  0.168403  0.808255  1
  Al  Al4  1  0.681605  0.836139  0.940683  1
  Al  Al5  1  0.316774  0.166759  0.054488  1
  Al  Al6  1  0.146347  0.832732  0.562832  1
  Al  Al7  1  0.853044  0.167106  0.438033  1
  Al  Al8  1  0.479880  0.166735  0.560604  1
  Al  Al9  1  0.519322  0.833835  0.441410  1
  Al  Al10  1  0.217459  0.165817  0.328655  1
  Al  Al11  1  0.779034  0.836390  0.675101  1
  Al  Al12  1  0.435620  0.504529  0.675588  1
  Al  Al13  1  0.562773  0.493444  0.327647  1
  Al  Al14  1  0.110014  0.159903  0.674399  1
  Al  Al15  1  0.891154  0.839606  0.328805  1
  Al  Al16  1  0.355453  0.495953  0.940876  1
  Al  Al17  1  0.646822  0.500487  0.055620  1
  Al  Al18  1  0.019143  0.169185  0.948185  1
  Al  Al19  1  0.984721  0.832005  0.047487  1
  Al  Al20  1  0.186797  0.499262  0.441335  1
  Al  Al21  1  0.813753  0.500304  0.559005  1
  Al  Al22  1  0.733290  0.164371  0.183156  1
  Al  Al23  1  0.266926  0.840763  0.816847  1
  Al  Al24  1  0.065345  0.626231  0.815531  1
  Al  Al25  1  0.939850  0.368525  0.183963  1
  Al  Al26  1  0.849671  0.042848  0.815980  1
  Al  Al27  1  0.145156  0.957748  0.183482  1
  Pt  Pt28  1  0.119642  0.489679  0.640474  1
  Pt  Pt29  1  0.879819  0.509105  0.360598  1
  Pt  Pt30  1  0.657157  0.171984  0.998785  1
  Pt  Pt31  1  0.343902  0.827748  0.999318  1
  Pt  Pt32  1  0.536859  0.167090  0.361133  1
  Pt  Pt33  1  0.463733  0.832743  0.640211  1
  Pt  Pt34  1  0.776929  0.176961  0.638597  1
  Pt  Pt35  1  0.221331  0.823992  0.362585  1
  Pt  Pt36  1  0.000009  0.500140  0.998821  1
