# generated using pymatgen
data_HoTmMnC2
_symmetry_space_group_name_H-M   'P 1'
_cell_length_a   4.98526100
_cell_length_b   6.31726300
_cell_length_c   9.56156500
_cell_angle_alpha   90.00000000
_cell_angle_beta   90.00000000
_cell_angle_gamma   90.00000000
_symmetry_Int_Tables_number   1
_chemical_formula_structural   HoTmMnC2
_chemical_formula_sum   'Ho4 Tm4 Mn4 C8'
_cell_volume   301.12432533
_cell_formula_units_Z   4
loop_
 _symmetry_equiv_pos_site_id
 _symmetry_equiv_pos_as_xyz
  1  'x, y, z'
loop_
 _atom_site_type_symbol
 _atom_site_label
 _atom_site_symmetry_multiplicity
 _atom_site_fract_x
 _atom_site_fract_y
 _atom_site_fract_z
 _atom_site_occupancy
  Ho  Ho0  1  0.250000  0.525267  0.213855  1
  Ho  Ho1  1  0.750000  0.474733  0.786145  1
  Ho  Ho2  1  0.750000  0.974733  0.713855  1
  Ho  Ho3  1  0.250000  0.025267  0.286145  1
  Tm  Tm4  1  0.250000  0.680403  0.555735  1
  Tm  Tm5  1  0.750000  0.319597  0.444265  1
  Tm  Tm6  1  0.750000  0.819597  0.055735  1
  Tm  Tm7  1  0.250000  0.180403  0.944265  1
  Mn  Mn8  1  0.250000  0.728867  0.857819  1
  Mn  Mn9  1  0.750000  0.271133  0.142181  1
  Mn  Mn10  1  0.750000  0.771133  0.357819  1
  Mn  Mn11  1  0.250000  0.228867  0.642181  1
  C  C12  1  0.250000  0.462161  0.761131  1
  C  C13  1  0.750000  0.537839  0.238869  1
  C  C14  1  0.750000  0.037839  0.261131  1
  C  C15  1  0.250000  0.962161  0.738869  1
  C  C16  1  0.250000  0.812975  0.037114  1
  C  C17  1  0.750000  0.187025  0.962886  1
  C  C18  1  0.750000  0.687025  0.537114  1
  C  C19  1  0.250000  0.312975  0.462886  1
