# generated using pymatgen
data_Sm5V3(Co4P3)4
_symmetry_space_group_name_H-M   'P 1'
_cell_length_a   12.11649800
_cell_length_b   12.11649744
_cell_length_c   3.69770000
_cell_angle_alpha   90.00000000
_cell_angle_beta   90.00000000
_cell_angle_gamma   119.99999608
_symmetry_Int_Tables_number   1
_chemical_formula_structural   Sm5V3(Co4P3)4
_chemical_formula_sum   'Sm5 V3 Co16 P12'
_cell_volume   470.12844827
_cell_formula_units_Z   1
loop_
 _symmetry_equiv_pos_site_id
 _symmetry_equiv_pos_as_xyz
  1  'x, y, z'
loop_
 _atom_site_type_symbol
 _atom_site_label
 _atom_site_symmetry_multiplicity
 _atom_site_fract_x
 _atom_site_fract_y
 _atom_site_fract_z
 _atom_site_occupancy
  Sm  Sm0  1  0.666667  0.333333  0.000000  1
  Sm  Sm1  1  0.333333  0.666667  0.000000  1
  Sm  Sm2  1  0.186527  0.186527  0.500000  1
  Sm  Sm3  1  0.813473  0.000000  0.500000  1
  Sm  Sm4  1  0.000000  0.813473  0.500000  1
  V  V5  1  0.557558  0.557558  0.000000  1
  V  V6  1  0.442442  0.000000  0.000000  1
  V  V7  1  0.000000  0.442442  0.000000  1
  Co  Co8  1  0.823636  0.201016  0.000000  1
  Co  Co9  1  0.798984  0.622620  0.000000  1
  Co  Co10  1  0.377380  0.176364  0.000000  1
  Co  Co11  1  0.201016  0.823636  0.000000  1
  Co  Co12  1  0.622620  0.798984  0.000000  1
  Co  Co13  1  0.176364  0.377380  0.000000  1
  Co  Co14  1  0.643898  0.124926  0.500000  1
  Co  Co15  1  0.875074  0.518972  0.500000  1
  Co  Co16  1  0.481028  0.356102  0.500000  1
  Co  Co17  1  0.124926  0.643898  0.500000  1
  Co  Co18  1  0.518972  0.875074  0.500000  1
  Co  Co19  1  0.356102  0.481028  0.500000  1
  Co  Co20  1  0.717072  0.717072  0.500000  1
  Co  Co21  1  0.282928  0.000000  0.500000  1
  Co  Co22  1  0.000000  0.282928  0.500000  1
  Co  Co23  1  0.000000  0.000000  0.000000  1
  P  P24  1  0.365722  0.365722  0.000000  1
  P  P25  1  0.634278  0.000000  0.000000  1
  P  P26  1  0.000000  0.634278  0.000000  1
  P  P27  1  0.836969  0.315522  0.500000  1
  P  P28  1  0.684478  0.521447  0.500000  1
  P  P29  1  0.478553  0.163031  0.500000  1
  P  P30  1  0.315522  0.836969  0.500000  1
  P  P31  1  0.521447  0.684478  0.500000  1
  P  P32  1  0.163031  0.478553  0.500000  1
  P  P33  1  0.818590  0.818590  0.000000  1
  P  P34  1  0.181410  0.000000  0.000000  1
  P  P35  1  0.000000  0.181410  0.000000  1
