# generated using pymatgen
data_Nd5ErAl24Os5Pt3
_symmetry_space_group_name_H-M   'P 1'
_cell_length_a   8.88233163
_cell_length_b   8.90123656
_cell_length_c   9.64987132
_cell_angle_alpha   90.05196710
_cell_angle_beta   89.84881784
_cell_angle_gamma   119.56984801
_symmetry_Int_Tables_number   1
_chemical_formula_structural   Nd5ErAl24Os5Pt3
_chemical_formula_sum   'Nd5 Er1 Al24 Os5 Pt3'
_cell_volume   663.58124093
_cell_formula_units_Z   1
loop_
 _symmetry_equiv_pos_site_id
 _symmetry_equiv_pos_as_xyz
  1  'x, y, z'
loop_
 _atom_site_type_symbol
 _atom_site_label
 _atom_site_symmetry_multiplicity
 _atom_site_fract_x
 _atom_site_fract_y
 _atom_site_fract_z
 _atom_site_occupancy
  Nd  Nd0  1  0.188055  0.379977  0.250011  1
  Nd  Nd1  1  0.812385  0.619761  0.750278  1
  Nd  Nd2  1  0.617766  0.813527  0.251748  1
  Nd  Nd3  1  0.383088  0.186371  0.748367  1
  Nd  Nd4  1  0.192647  0.810312  0.250345  1
  Er  Er5  1  0.802590  0.192015  0.748352  1
  Al  Al6  1  0.335962  0.671385  0.024512  1
  Al  Al7  1  0.665894  0.328445  0.971486  1
  Al  Al8  1  0.670132  0.330780  0.526720  1
  Al  Al9  1  0.330556  0.668331  0.476703  1
  Al  Al10  1  0.156202  0.324769  0.574710  1
  Al  Al11  1  0.841208  0.673210  0.427678  1
  Al  Al12  1  0.674307  0.842589  0.575656  1
  Al  Al13  1  0.836118  0.674948  0.075609  1
  Al  Al14  1  0.327423  0.159476  0.426477  1
  Al  Al15  1  0.161614  0.323636  0.922424  1
  Al  Al16  1  0.164331  0.834441  0.575758  1
  Al  Al17  1  0.326978  0.159209  0.073989  1
  Al  Al18  1  0.835718  0.165094  0.427546  1
  Al  Al19  1  0.675068  0.843261  0.923714  1
  Al  Al20  1  0.831647  0.159660  0.074211  1
  Al  Al21  1  0.168860  0.840637  0.922313  1
  Al  Al22  1  0.562639  0.126682  0.249720  1
  Al  Al23  1  0.440507  0.875141  0.750228  1
  Al  Al24  1  0.872280  0.435773  0.253488  1
  Al  Al25  1  0.125569  0.560739  0.747433  1
  Al  Al26  1  0.563592  0.435539  0.249737  1
  Al  Al27  1  0.436409  0.564400  0.750389  1
  Al  Al28  1  0.998440  0.003362  0.250146  1
  Al  Al29  1  0.998854  0.999687  0.749771  1
  Os  Os30  1  0.501932  0.001069  0.998494  1
  Os  Os31  1  0.501605  0.000695  0.501413  1
  Os  Os32  1  0.999164  0.498306  0.501506  1
  Os  Os33  1  0.000198  0.999912  0.999601  1
  Os  Os34  1  0.000166  0.999648  0.500280  1
  Pt  Pt35  1  0.999446  0.498292  0.998989  1
  Pt  Pt36  1  0.500357  0.499442  0.999578  1
  Pt  Pt37  1  0.500288  0.499482  0.500622  1
