# generated using pymatgen
data_Hf7V(Ni4P3)4
_symmetry_space_group_name_H-M   'P 1'
_cell_length_a   12.11164500
_cell_length_b   12.11164406
_cell_length_c   3.64275800
_cell_angle_alpha   90.00000000
_cell_angle_beta   90.00000000
_cell_angle_gamma   119.90303494
_symmetry_Int_Tables_number   1
_chemical_formula_structural   Hf7V(Ni4P3)4
_chemical_formula_sum   'Hf7 V1 Ni16 P12'
_cell_volume   463.22362187
_cell_formula_units_Z   1
loop_
 _symmetry_equiv_pos_site_id
 _symmetry_equiv_pos_as_xyz
  1  'x, y, z'
loop_
 _atom_site_type_symbol
 _atom_site_label
 _atom_site_symmetry_multiplicity
 _atom_site_fract_x
 _atom_site_fract_y
 _atom_site_fract_z
 _atom_site_occupancy
  Hf  Hf0  1  0.819726  0.819726  0.500000  1
  Hf  Hf1  1  0.999695  0.176124  0.500000  1
  Hf  Hf2  1  0.554897  0.000380  0.000000  1
  Hf  Hf3  1  0.335160  0.665803  0.000000  1
  Hf  Hf4  1  0.665803  0.335160  0.000000  1
  Hf  Hf5  1  0.000380  0.554897  0.000000  1
  Hf  Hf6  1  0.176124  0.999695  0.500000  1
  V  V7  1  0.445953  0.445953  0.000000  1
  Ni  Ni8  1  0.629513  0.815844  0.000000  1
  Ni  Ni9  1  0.373165  0.196138  0.000000  1
  Ni  Ni10  1  0.000484  0.725149  0.500000  1
  Ni  Ni11  1  0.278554  0.278554  0.500000  1
  Ni  Ni12  1  0.874591  0.354380  0.500000  1
  Ni  Ni13  1  0.725149  0.000484  0.500000  1
  Ni  Ni14  1  0.815844  0.629513  0.000000  1
  Ni  Ni15  1  0.180920  0.811229  0.000000  1
  Ni  Ni16  1  0.354380  0.874591  0.500000  1
  Ni  Ni17  1  0.130936  0.479990  0.500000  1
  Ni  Ni18  1  0.642238  0.517450  0.500000  1
  Ni  Ni19  1  0.000520  0.000520  0.000000  1
  Ni  Ni20  1  0.517450  0.642238  0.500000  1
  Ni  Ni21  1  0.479990  0.130936  0.500000  1
  Ni  Ni22  1  0.196138  0.373165  0.000000  1
  Ni  Ni23  1  0.811229  0.180920  0.000000  1
  P  P24  1  0.003520  0.349282  0.000000  1
  P  P25  1  0.826387  0.514548  0.500000  1
  P  P26  1  0.686034  0.173955  0.500000  1
  P  P27  1  0.176307  0.176307  0.000000  1
  P  P28  1  0.637935  0.637935  0.000000  1
  P  P29  1  0.822995  0.997640  0.000000  1
  P  P30  1  0.514548  0.826387  0.500000  1
  P  P31  1  0.173955  0.686034  0.500000  1
  P  P32  1  0.349282  0.003520  0.000000  1
  P  P33  1  0.482544  0.320013  0.500000  1
  P  P34  1  0.997640  0.822995  0.000000  1
  P  P35  1  0.320013  0.482544  0.500000  1
