# generated using pymatgen
data_Er4Tm8CdCo4Ir
_symmetry_space_group_name_H-M   'P 1'
_cell_length_a   8.20134134
_cell_length_b   8.19556379
_cell_length_c   8.19926557
_cell_angle_alpha   111.28561533
_cell_angle_beta   110.51862953
_cell_angle_gamma   106.63020582
_symmetry_Int_Tables_number   1
_chemical_formula_structural   Er4Tm8CdCo4Ir
_chemical_formula_sum   'Er4 Tm8 Cd1 Co4 Ir1'
_cell_volume   423.53888542
_cell_formula_units_Z   1
loop_
 _symmetry_equiv_pos_site_id
 _symmetry_equiv_pos_as_xyz
  1  'x, y, z'
loop_
 _atom_site_type_symbol
 _atom_site_label
 _atom_site_symmetry_multiplicity
 _atom_site_fract_x
 _atom_site_fract_y
 _atom_site_fract_z
 _atom_site_occupancy
  Er  Er0  1  0.586906  0.281087  0.305254  1
  Er  Er1  1  0.181598  0.215599  0.397875  1
  Er  Er2  1  0.182293  0.784048  0.966266  1
  Er  Er3  1  0.685061  0.490921  0.806693  1
  Tm  Tm4  1  0.684764  0.877585  0.194014  1
  Tm  Tm5  1  0.976224  0.280242  0.695693  1
  Tm  Tm6  1  0.024533  0.718455  0.306200  1
  Tm  Tm7  1  0.315633  0.122099  0.806214  1
  Tm  Tm8  1  0.315851  0.509638  0.193767  1
  Tm  Tm9  1  0.817740  0.215920  0.033564  1
  Tm  Tm10  1  0.817712  0.784364  0.601272  1
  Tm  Tm11  1  0.414180  0.719513  0.695147  1
  Cd  Cd12  1  0.499887  0.999479  0.500150  1
  Co  Co13  1  0.886317  0.887726  0.998780  1
  Co  Co14  1  0.374930  0.499953  0.875272  1
  Co  Co15  1  0.624444  0.500318  0.124855  1
  Co  Co16  1  0.111144  0.113109  0.997789  1
  Ir  Ir17  1  0.000784  0.499943  0.501197  1
