# generated using pymatgen
data_CePrSi2IrRh3
_symmetry_space_group_name_H-M   'P 1'
_cell_length_a   9.21427139
_cell_length_b   9.21427092
_cell_length_c   4.10128900
_cell_angle_alpha   90.00000000
_cell_angle_beta   90.00000000
_cell_angle_gamma   154.71296803
_symmetry_Int_Tables_number   1
_chemical_formula_structural   CePrSi2IrRh3
_chemical_formula_sum   'Ce1 Pr1 Si2 Ir1 Rh3'
_cell_volume   148.73940572
_cell_formula_units_Z   1
loop_
 _symmetry_equiv_pos_site_id
 _symmetry_equiv_pos_as_xyz
  1  'x, y, z'
loop_
 _atom_site_type_symbol
 _atom_site_label
 _atom_site_symmetry_multiplicity
 _atom_site_fract_x
 _atom_site_fract_y
 _atom_site_fract_z
 _atom_site_occupancy
  Ce  Ce0  1  0.902681  0.097319  0.250000  1
  Pr  Pr1  1  0.100851  0.899149  0.750000  1
  Si  Si2  1  0.320637  0.679363  0.750000  1
  Si  Si3  1  0.678632  0.321368  0.250000  1
  Ir  Ir4  1  0.451751  0.548249  0.750000  1
  Rh  Rh5  1  0.544934  0.455066  0.250000  1
  Rh  Rh6  1  0.250031  0.749969  0.250000  1
  Rh  Rh7  1  0.750485  0.249515  0.750000  1
