# generated using pymatgen
data_YTm5Co17P12Os
_symmetry_space_group_name_H-M   'P 1'
_cell_length_a   3.67612100
_cell_length_b   10.45893400
_cell_length_c   12.15377500
_cell_angle_alpha   90.00000000
_cell_angle_beta   90.00000000
_cell_angle_gamma   90.00000000
_symmetry_Int_Tables_number   1
_chemical_formula_structural   YTm5Co17P12Os
_chemical_formula_sum   'Y1 Tm5 Co17 P12 Os1'
_cell_volume   467.29207138
_cell_formula_units_Z   1
loop_
 _symmetry_equiv_pos_site_id
 _symmetry_equiv_pos_as_xyz
  1  'x, y, z'
loop_
 _atom_site_type_symbol
 _atom_site_label
 _atom_site_symmetry_multiplicity
 _atom_site_fract_x
 _atom_site_fract_y
 _atom_site_fract_z
 _atom_site_occupancy
  Y  Y0  1  0.500000  0.000000  0.477801  1
  Tm  Tm1  1  0.000000  0.500000  0.525264  1
  Tm  Tm2  1  0.500000  0.818130  0.207083  1
  Tm  Tm3  1  0.500000  0.181870  0.207083  1
  Tm  Tm4  1  0.000000  0.682159  0.793794  1
  Tm  Tm5  1  0.000000  0.317841  0.793794  1
  Co  Co6  1  0.000000  0.000000  0.840133  1
  Co  Co7  1  0.500000  0.500000  0.703546  1
  Co  Co8  1  0.000000  0.000000  0.294423  1
  Co  Co9  1  0.000000  0.500000  0.988146  1
  Co  Co10  1  0.500000  0.000000  0.014143  1
  Co  Co11  1  0.500000  0.332598  0.990883  1
  Co  Co12  1  0.500000  0.667402  0.990883  1
  Co  Co13  1  0.000000  0.167004  0.005871  1
  Co  Co14  1  0.000000  0.832996  0.005871  1
  Co  Co15  1  0.500000  0.298322  0.430464  1
  Co  Co16  1  0.500000  0.701678  0.430464  1
  Co  Co17  1  0.000000  0.204011  0.568795  1
  Co  Co18  1  0.000000  0.795989  0.568795  1
  Co  Co19  1  0.500000  0.878090  0.709458  1
  Co  Co20  1  0.500000  0.121910  0.709458  1
  Co  Co21  1  0.000000  0.620896  0.291233  1
  Co  Co22  1  0.000000  0.379104  0.291233  1
  P  P23  1  0.500000  0.500000  0.880354  1
  P  P24  1  0.000000  0.000000  0.117177  1
  P  P25  1  0.500000  0.500000  0.352285  1
  P  P26  1  0.000000  0.000000  0.655654  1
  P  P27  1  0.500000  0.312423  0.616819  1
  P  P28  1  0.500000  0.687577  0.616819  1
  P  P29  1  0.000000  0.188121  0.383191  1
  P  P30  1  0.000000  0.811879  0.383191  1
  P  P31  1  0.500000  0.848473  0.891275  1
  P  P32  1  0.500000  0.151527  0.891275  1
  P  P33  1  0.000000  0.656335  0.106996  1
  P  P34  1  0.000000  0.343665  0.106996  1
  Os  Os35  1  0.500000  0.500000  0.159349  1
