# generated using pymatgen
data_YErTm8(In2Pt)4
_symmetry_space_group_name_H-M   'P 1'
_cell_length_a   3.57253400
_cell_length_b   8.13370800
_cell_length_c   18.18144501
_cell_angle_alpha   89.99698786
_cell_angle_beta   90.00000000
_cell_angle_gamma   90.00000000
_symmetry_Int_Tables_number   1
_chemical_formula_structural   YErTm8(In2Pt)4
_chemical_formula_sum   'Y1 Er1 Tm8 In8 Pt4'
_cell_volume   528.31548985
_cell_formula_units_Z   1
loop_
 _symmetry_equiv_pos_site_id
 _symmetry_equiv_pos_as_xyz
  1  'x, y, z'
loop_
 _atom_site_type_symbol
 _atom_site_label
 _atom_site_symmetry_multiplicity
 _atom_site_fract_x
 _atom_site_fract_y
 _atom_site_fract_z
 _atom_site_occupancy
  Y  Y0  1  0.000000  0.000000  0.000000  1
  Er  Er1  1  0.000000  0.500000  0.500000  1
  Tm  Tm2  1  0.000000  0.116730  0.414888  1
  Tm  Tm3  1  0.000000  0.883270  0.585112  1
  Tm  Tm4  1  0.000000  0.383204  0.914707  1
  Tm  Tm5  1  0.000000  0.616796  0.085293  1
  Tm  Tm6  1  0.000000  0.243039  0.220933  1
  Tm  Tm7  1  0.000000  0.756961  0.779067  1
  Tm  Tm8  1  0.000000  0.256905  0.720741  1
  Tm  Tm9  1  0.000000  0.743095  0.279259  1
  In  In10  1  0.500000  0.423222  0.351461  1
  In  In11  1  0.500000  0.576778  0.648539  1
  In  In12  1  0.500000  0.077276  0.850954  1
  In  In13  1  0.500000  0.922724  0.149046  1
  In  In14  1  0.500000  0.293648  0.067041  1
  In  In15  1  0.500000  0.706352  0.932959  1
  In  In16  1  0.500000  0.207752  0.566688  1
  In  In17  1  0.500000  0.792248  0.433312  1
  Pt  Pt18  1  0.500000  0.025179  0.303565  1
  Pt  Pt19  1  0.500000  0.974821  0.696435  1
  Pt  Pt20  1  0.500000  0.474943  0.803330  1
  Pt  Pt21  1  0.500000  0.525057  0.196670  1
