# generated using pymatgen
data_Hf5ZrZn15SiAu8
_symmetry_space_group_name_H-M   'P 1'
_cell_length_a   8.90279119
_cell_length_b   8.90279142
_cell_length_c   8.90292600
_cell_angle_alpha   59.99950738
_cell_angle_beta   59.99950654
_cell_angle_gamma   60.00100003
_symmetry_Int_Tables_number   1
_chemical_formula_structural   Hf5ZrZn15SiAu8
_chemical_formula_sum   'Hf5 Zr1 Zn15 Si1 Au8'
_cell_volume   498.96513157
_cell_formula_units_Z   1
loop_
 _symmetry_equiv_pos_site_id
 _symmetry_equiv_pos_as_xyz
  1  'x, y, z'
loop_
 _atom_site_type_symbol
 _atom_site_label
 _atom_site_symmetry_multiplicity
 _atom_site_fract_x
 _atom_site_fract_y
 _atom_site_fract_z
 _atom_site_occupancy
  Hf  Hf0  1  0.710328  0.289234  0.289672  1
  Hf  Hf1  1  0.289234  0.710328  0.710766  1
  Hf  Hf2  1  0.289234  0.710328  0.289672  1
  Hf  Hf3  1  0.710328  0.289234  0.710766  1
  Hf  Hf4  1  0.288529  0.288529  0.711471  1
  Zr  Zr5  1  0.709023  0.709023  0.290977  1
  Zn  Zn6  1  0.500464  0.999833  0.000167  1
  Zn  Zn7  1  0.999833  0.500464  0.499536  1
  Zn  Zn8  1  0.999833  0.500464  0.000167  1
  Zn  Zn9  1  0.500464  0.999833  0.499536  1
  Zn  Zn10  1  0.000247  0.000247  0.499753  1
  Zn  Zn11  1  0.500247  0.500247  0.999753  1
  Zn  Zn12  1  0.338544  0.338544  0.338816  1
  Zn  Zn13  1  0.661488  0.661488  0.662295  1
  Zn  Zn14  1  0.338544  0.338544  0.984097  1
  Zn  Zn15  1  0.337705  0.985270  0.338512  1
  Zn  Zn16  1  0.661488  0.661488  0.014730  1
  Zn  Zn17  1  0.661184  0.015903  0.661456  1
  Zn  Zn18  1  0.985270  0.337705  0.338512  1
  Zn  Zn19  1  0.015903  0.661184  0.661456  1
  Zn  Zn20  1  0.999165  0.999165  0.000835  1
  Si  Si21  1  0.498460  0.498460  0.501540  1
  Au  Au22  1  0.122185  0.122185  0.121526  1
  Au  Au23  1  0.878937  0.878937  0.875371  1
  Au  Au24  1  0.122185  0.122185  0.634105  1
  Au  Au25  1  0.124629  0.633245  0.121063  1
  Au  Au26  1  0.878937  0.878937  0.366755  1
  Au  Au27  1  0.878474  0.365895  0.877815  1
  Au  Au28  1  0.633245  0.124629  0.121063  1
  Au  Au29  1  0.365895  0.878474  0.877815  1
