# generated using pymatgen
data_AcAl2Au5
_symmetry_space_group_name_H-M   'P 1'
_cell_length_a   7.34154400
_cell_length_b   8.94960000
_cell_length_c   9.99317600
_cell_angle_alpha   90.00000000
_cell_angle_beta   90.00000000
_cell_angle_gamma   90.00000000
_symmetry_Int_Tables_number   1
_chemical_formula_structural   AcAl2Au5
_chemical_formula_sum   'Ac4 Al8 Au20'
_cell_volume   656.59045853
_cell_formula_units_Z   4
loop_
 _symmetry_equiv_pos_site_id
 _symmetry_equiv_pos_as_xyz
  1  'x, y, z'
loop_
 _atom_site_type_symbol
 _atom_site_label
 _atom_site_symmetry_multiplicity
 _atom_site_fract_x
 _atom_site_fract_y
 _atom_site_fract_z
 _atom_site_occupancy
  Ac  Ac0  1  0.250000  0.251710  0.124103  1
  Ac  Ac1  1  0.250000  0.751710  0.375897  1
  Ac  Ac2  1  0.750000  0.748290  0.875897  1
  Ac  Ac3  1  0.750000  0.248290  0.624103  1
  Al  Al4  1  0.250000  0.048204  0.616891  1
  Al  Al5  1  0.250000  0.548204  0.883109  1
  Al  Al6  1  0.750000  0.951796  0.383109  1
  Al  Al7  1  0.750000  0.451796  0.116891  1
  Al  Al8  1  0.250000  0.352396  0.483615  1
  Al  Al9  1  0.250000  0.852396  0.016385  1
  Al  Al10  1  0.750000  0.647604  0.516385  1
  Al  Al11  1  0.750000  0.147604  0.983615  1
  Au  Au12  1  0.056751  0.107665  0.396708  1
  Au  Au13  1  0.443249  0.607665  0.103292  1
  Au  Au14  1  0.556751  0.892335  0.603292  1
  Au  Au15  1  0.943249  0.392335  0.896708  1
  Au  Au16  1  0.943249  0.892335  0.603292  1
  Au  Au17  1  0.556751  0.392335  0.896708  1
  Au  Au18  1  0.443249  0.107665  0.396708  1
  Au  Au19  1  0.056751  0.607665  0.103292  1
  Au  Au20  1  0.035255  0.054870  0.862816  1
  Au  Au21  1  0.464745  0.554870  0.637184  1
  Au  Au22  1  0.535255  0.945130  0.137184  1
  Au  Au23  1  0.964745  0.445130  0.362816  1
  Au  Au24  1  0.964745  0.945130  0.137184  1
  Au  Au25  1  0.535255  0.445130  0.362816  1
  Au  Au26  1  0.464745  0.054870  0.862816  1
  Au  Au27  1  0.035255  0.554870  0.637184  1
  Au  Au28  1  0.250000  0.295540  0.736269  1
  Au  Au29  1  0.250000  0.795540  0.763731  1
  Au  Au30  1  0.750000  0.704460  0.263731  1
  Au  Au31  1  0.750000  0.204460  0.236269  1
