# generated using pymatgen
data_Sr5LaCo4CuO15
_symmetry_space_group_name_H-M   'P 1'
_cell_length_a   6.86656875
_cell_length_b   6.96721075
_cell_length_c   6.96721038
_cell_angle_alpha   86.93148010
_cell_angle_beta   86.89563273
_cell_angle_gamma   86.89563341
_symmetry_Int_Tables_number   1
_chemical_formula_structural   Sr5LaCo4CuO15
_chemical_formula_sum   'Sr5 La1 Co4 Cu1 O15'
_cell_volume   331.91140805
_cell_formula_units_Z   1
loop_
 _symmetry_equiv_pos_site_id
 _symmetry_equiv_pos_as_xyz
  1  'x, y, z'
loop_
 _atom_site_type_symbol
 _atom_site_label
 _atom_site_symmetry_multiplicity
 _atom_site_fract_x
 _atom_site_fract_y
 _atom_site_fract_z
 _atom_site_occupancy
  Sr  Sr0  1  0.140743  0.502262  0.868515  1
  Sr  Sr1  1  0.859257  0.131485  0.497738  1
  Sr  Sr2  1  0.000000  0.672748  0.327252  1
  Sr  Sr3  1  0.318100  0.997688  0.676330  1
  Sr  Sr4  1  0.681900  0.323670  0.002312  1
  La  La5  1  0.500000  0.847252  0.152748  1
  Co  Co6  1  0.704736  0.716858  0.696083  1
  Co  Co7  1  0.295264  0.303917  0.283142  1
  Co  Co8  1  0.900985  0.903718  0.904571  1
  Co  Co9  1  0.099015  0.095429  0.096282  1
  Cu  Cu10  1  0.500000  0.443114  0.556886  1
  O  O11  1  0.362232  0.545454  0.194823  1
  O  O12  1  0.238347  0.390917  0.536029  1
  O  O13  1  0.540669  0.250370  0.380037  1
  O  O14  1  0.637768  0.805177  0.454546  1
  O  O15  1  0.459331  0.619963  0.749630  1
  O  O16  1  0.761653  0.463971  0.609083  1
  O  O17  1  0.209065  0.031954  0.344004  1
  O  O18  1  0.352722  0.193318  0.035354  1
  O  O19  1  0.034586  0.340815  0.203355  1
  O  O20  1  0.790935  0.655996  0.968046  1
  O  O21  1  0.965414  0.796645  0.659185  1
  O  O22  1  0.160136  0.846309  0.999391  1
  O  O23  1  0.839864  0.000609  0.153691  1
  O  O24  1  0.000000  0.155716  0.844284  1
  O  O25  1  0.647278  0.964646  0.806682  1
