# generated using pymatgen
data_Sc2Be2ZnRh5
_symmetry_space_group_name_H-M   'P 1'
_cell_length_a   9.39020400
_cell_length_b   9.39020400
_cell_length_c   3.17193900
_cell_angle_alpha   90.00000000
_cell_angle_beta   90.00000000
_cell_angle_gamma   90.00000000
_symmetry_Int_Tables_number   1
_chemical_formula_structural   Sc2Be2ZnRh5
_chemical_formula_sum   'Sc4 Be4 Zn2 Rh10'
_cell_volume   279.68867491
_cell_formula_units_Z   2
loop_
 _symmetry_equiv_pos_site_id
 _symmetry_equiv_pos_as_xyz
  1  'x, y, z'
loop_
 _atom_site_type_symbol
 _atom_site_label
 _atom_site_symmetry_multiplicity
 _atom_site_fract_x
 _atom_site_fract_y
 _atom_site_fract_z
 _atom_site_occupancy
  Sc  Sc0  1  0.824768  0.324768  0.000000  1
  Sc  Sc1  1  0.324768  0.175232  0.000000  1
  Sc  Sc2  1  0.675232  0.824768  0.000000  1
  Sc  Sc3  1  0.175232  0.675232  0.000000  1
  Be  Be4  1  0.624527  0.124527  0.000000  1
  Be  Be5  1  0.124527  0.375473  0.000000  1
  Be  Be6  1  0.875473  0.624527  0.000000  1
  Be  Be7  1  0.375473  0.875473  0.000000  1
  Zn  Zn8  1  0.000000  0.000000  0.000000  1
  Zn  Zn9  1  0.500000  0.500000  0.000000  1
  Rh  Rh10  1  0.070569  0.210158  0.500000  1
  Rh  Rh11  1  0.210158  0.929431  0.500000  1
  Rh  Rh12  1  0.789842  0.070569  0.500000  1
  Rh  Rh13  1  0.929431  0.789842  0.500000  1
  Rh  Rh14  1  0.429431  0.710158  0.500000  1
  Rh  Rh15  1  0.570569  0.289842  0.500000  1
  Rh  Rh16  1  0.710158  0.570569  0.500000  1
  Rh  Rh17  1  0.289842  0.429431  0.500000  1
  Rh  Rh18  1  0.500000  0.000000  0.500000  1
  Rh  Rh19  1  0.000000  0.500000  0.500000  1
