# generated using pymatgen
data_MnFe2P2Ru
_symmetry_space_group_name_H-M   'P 1'
_cell_length_a   3.60711600
_cell_length_b   5.85717700
_cell_length_c   6.60681200
_cell_angle_alpha   90.00000000
_cell_angle_beta   90.00000000
_cell_angle_gamma   90.00000000
_symmetry_Int_Tables_number   1
_chemical_formula_structural   MnFe2P2Ru
_chemical_formula_sum   'Mn2 Fe4 P4 Ru2'
_cell_volume   139.58553200
_cell_formula_units_Z   2
loop_
 _symmetry_equiv_pos_site_id
 _symmetry_equiv_pos_as_xyz
  1  'x, y, z'
loop_
 _atom_site_type_symbol
 _atom_site_label
 _atom_site_symmetry_multiplicity
 _atom_site_fract_x
 _atom_site_fract_y
 _atom_site_fract_z
 _atom_site_occupancy
  Mn  Mn0  1  0.250000  0.531599  0.672466  1
  Mn  Mn1  1  0.250000  0.031599  0.827534  1
  Fe  Fe2  1  0.750000  0.353696  0.935907  1
  Fe  Fe3  1  0.750000  0.853696  0.564093  1
  Fe  Fe4  1  0.250000  0.641991  0.060579  1
  Fe  Fe5  1  0.250000  0.141991  0.439421  1
  P  P6  1  0.750000  0.730186  0.877326  1
  P  P7  1  0.750000  0.230186  0.622674  1
  P  P8  1  0.250000  0.273782  0.126522  1
  P  P9  1  0.250000  0.773782  0.373478  1
  Ru  Ru10  1  0.750000  0.468746  0.335606  1
  Ru  Ru11  1  0.750000  0.968746  0.164394  1
