# generated using pymatgen
data_HfNb2B2Os5
_symmetry_space_group_name_H-M   'P 1'
_cell_length_a   9.54681098
_cell_length_b   9.54681155
_cell_length_c   3.07554800
_cell_angle_alpha   90.00000000
_cell_angle_beta   90.00000000
_cell_angle_gamma   90.00658972
_symmetry_Int_Tables_number   1
_chemical_formula_structural   HfNb2B2Os5
_chemical_formula_sum   'Hf2 Nb4 B4 Os10'
_cell_volume   280.31038020
_cell_formula_units_Z   2
loop_
 _symmetry_equiv_pos_site_id
 _symmetry_equiv_pos_as_xyz
  1  'x, y, z'
loop_
 _atom_site_type_symbol
 _atom_site_label
 _atom_site_symmetry_multiplicity
 _atom_site_fract_x
 _atom_site_fract_y
 _atom_site_fract_z
 _atom_site_occupancy
  Hf  Hf0  1  0.822771  0.677229  0.000000  1
  Hf  Hf1  1  0.177229  0.322771  0.000000  1
  Nb  Nb2  1  0.322759  0.822759  0.000000  1
  Nb  Nb3  1  0.677241  0.177241  0.000000  1
  Nb  Nb4  1  0.500000  0.500000  0.000000  1
  Nb  Nb5  1  0.000000  0.000000  0.000000  1
  B  B6  1  0.621451  0.878549  0.000000  1
  B  B7  1  0.378549  0.121451  0.000000  1
  B  B8  1  0.120846  0.620846  0.000000  1
  B  B9  1  0.879154  0.379154  0.000000  1
  Os  Os10  1  0.568055  0.719942  0.500000  1
  Os  Os11  1  0.431945  0.280058  0.500000  1
  Os  Os12  1  0.073708  0.781993  0.500000  1
  Os  Os13  1  0.926292  0.218007  0.500000  1
  Os  Os14  1  0.281993  0.573708  0.500000  1
  Os  Os15  1  0.718007  0.426292  0.500000  1
  Os  Os16  1  0.219942  0.068055  0.500000  1
  Os  Os17  1  0.780058  0.931945  0.500000  1
  Os  Os18  1  0.500000  0.000000  0.500000  1
  Os  Os19  1  0.000000  0.500000  0.500000  1
