# generated using pymatgen
data_BaNa2Sr(In2Au3)2
_symmetry_space_group_name_H-M   'P 1'
_cell_length_a   4.61496300
_cell_length_b   8.28551800
_cell_length_c   9.28134600
_cell_angle_alpha   90.00000000
_cell_angle_beta   90.00000000
_cell_angle_gamma   90.00000000
_symmetry_Int_Tables_number   1
_chemical_formula_structural   BaNa2Sr(In2Au3)2
_chemical_formula_sum   'Ba1 Na2 Sr1 In4 Au6'
_cell_volume   354.89415906
_cell_formula_units_Z   1
loop_
 _symmetry_equiv_pos_site_id
 _symmetry_equiv_pos_as_xyz
  1  'x, y, z'
loop_
 _atom_site_type_symbol
 _atom_site_label
 _atom_site_symmetry_multiplicity
 _atom_site_fract_x
 _atom_site_fract_y
 _atom_site_fract_z
 _atom_site_occupancy
  Ba  Ba0  1  0.500000  0.000000  0.716876  1
  Na  Na1  1  0.000000  0.000000  0.347750  1
  Na  Na2  1  0.500000  0.500000  0.655701  1
  Sr  Sr3  1  0.000000  0.500000  0.280783  1
  In  In4  1  0.000000  0.313804  0.886395  1
  In  In5  1  0.500000  0.188526  0.115303  1
  In  In6  1  0.000000  0.686196  0.886395  1
  In  In7  1  0.500000  0.811474  0.115303  1
  Au  Au8  1  0.000000  0.732119  0.585508  1
  Au  Au9  1  0.500000  0.746298  0.408300  1
  Au  Au10  1  0.500000  0.500000  0.991354  1
  Au  Au11  1  0.000000  0.000000  0.016524  1
  Au  Au12  1  0.500000  0.253702  0.408300  1
  Au  Au13  1  0.000000  0.267881  0.585508  1
