# generated using pymatgen
data_CaMg(NbSe2)8
_symmetry_space_group_name_H-M   'P 1'
_cell_length_a   7.00528200
_cell_length_b   7.00528272
_cell_length_c   14.36937900
_cell_angle_alpha   90.00000000
_cell_angle_beta   90.00000000
_cell_angle_gamma   119.99999662
_symmetry_Int_Tables_number   1
_chemical_formula_structural   CaMg(NbSe2)8
_chemical_formula_sum   'Ca1 Mg1 Nb8 Se16'
_cell_volume   610.68877294
_cell_formula_units_Z   1
loop_
 _symmetry_equiv_pos_site_id
 _symmetry_equiv_pos_as_xyz
  1  'x, y, z'
loop_
 _atom_site_type_symbol
 _atom_site_label
 _atom_site_symmetry_multiplicity
 _atom_site_fract_x
 _atom_site_fract_y
 _atom_site_fract_z
 _atom_site_occupancy
  Ca  Ca0  1  0.000000  0.000000  0.500000  1
  Mg  Mg1  1  0.000000  0.000000  0.000000  1
  Nb  Nb2  1  0.000000  0.000000  0.233787  1
  Nb  Nb3  1  0.000000  0.000000  0.766213  1
  Nb  Nb4  1  0.509056  0.018112  0.233777  1
  Nb  Nb5  1  0.981888  0.490944  0.233777  1
  Nb  Nb6  1  0.509056  0.490944  0.233777  1
  Nb  Nb7  1  0.490944  0.981888  0.766223  1
  Nb  Nb8  1  0.018112  0.509056  0.766223  1
  Nb  Nb9  1  0.490944  0.509056  0.766223  1
  Se  Se10  1  0.333333  0.666667  0.887624  1
  Se  Se11  1  0.666667  0.333333  0.112376  1
  Se  Se12  1  0.666667  0.333333  0.356373  1
  Se  Se13  1  0.333333  0.666667  0.643627  1
  Se  Se14  1  0.168032  0.831968  0.349032  1
  Se  Se15  1  0.168032  0.336063  0.349032  1
  Se  Se16  1  0.663937  0.831968  0.349032  1
  Se  Se17  1  0.831968  0.168032  0.650968  1
  Se  Se18  1  0.831968  0.663937  0.650968  1
  Se  Se19  1  0.336063  0.168032  0.650968  1
  Se  Se20  1  0.830289  0.169711  0.881004  1
  Se  Se21  1  0.830289  0.660578  0.881004  1
  Se  Se22  1  0.339422  0.169711  0.881004  1
  Se  Se23  1  0.169711  0.830289  0.118996  1
  Se  Se24  1  0.169711  0.339422  0.118996  1
  Se  Se25  1  0.660578  0.830289  0.118996  1
