# generated using pymatgen
data_Tb4IrPt2Au
_symmetry_space_group_name_H-M   'P 1'
_cell_length_a   4.51241700
_cell_length_b   5.66663483
_cell_length_c   7.14568323
_cell_angle_alpha   90.61291646
_cell_angle_beta   90.00000000
_cell_angle_gamma   90.00000000
_symmetry_Int_Tables_number   1
_chemical_formula_structural   Tb4IrPt2Au
_chemical_formula_sum   'Tb4 Ir1 Pt2 Au1'
_cell_volume   182.70623279
_cell_formula_units_Z   1
loop_
 _symmetry_equiv_pos_site_id
 _symmetry_equiv_pos_as_xyz
  1  'x, y, z'
loop_
 _atom_site_type_symbol
 _atom_site_label
 _atom_site_symmetry_multiplicity
 _atom_site_fract_x
 _atom_site_fract_y
 _atom_site_fract_z
 _atom_site_occupancy
  Tb  Tb0  1  0.250000  0.357099  0.688046  1
  Tb  Tb1  1  0.250000  0.142608  0.177764  1
  Tb  Tb2  1  0.750000  0.638178  0.304290  1
  Tb  Tb3  1  0.750000  0.857306  0.832688  1
  Ir  Ir4  1  0.250000  0.659727  0.043031  1
  Pt  Pt5  1  0.750000  0.154590  0.459195  1
  Pt  Pt6  1  0.750000  0.344654  0.953167  1
  Au  Au7  1  0.250000  0.845838  0.541818  1
