# generated using pymatgen
data_Cs8Li4Y3TlSb8
_symmetry_space_group_name_H-M   'P 1'
_cell_length_a   11.54560408
_cell_length_b   11.54560241
_cell_length_c   7.31369639
_cell_angle_alpha   89.95275462
_cell_angle_beta   90.04724519
_cell_angle_gamma   101.65365580
_symmetry_Int_Tables_number   1
_chemical_formula_structural   Cs8Li4Y3TlSb8
_chemical_formula_sum   'Cs8 Li4 Y3 Tl1 Sb8'
_cell_volume   954.82561438
_cell_formula_units_Z   1
loop_
 _symmetry_equiv_pos_site_id
 _symmetry_equiv_pos_as_xyz
  1  'x, y, z'
loop_
 _atom_site_type_symbol
 _atom_site_label
 _atom_site_symmetry_multiplicity
 _atom_site_fract_x
 _atom_site_fract_y
 _atom_site_fract_z
 _atom_site_occupancy
  Cs  Cs0  1  0.570244  0.929301  0.747951  1
  Cs  Cs1  1  0.929301  0.570244  0.252049  1
  Cs  Cs2  1  0.429965  0.078179  0.256728  1
  Cs  Cs3  1  0.078179  0.429965  0.743272  1
  Cs  Cs4  1  0.671101  0.321052  0.772720  1
  Cs  Cs5  1  0.823823  0.176519  0.281029  1
  Cs  Cs6  1  0.321052  0.671101  0.227280  1
  Cs  Cs7  1  0.176519  0.823823  0.718971  1
  Li  Li8  1  0.618923  0.618923  0.000000  1
  Li  Li9  1  0.878012  0.878012  0.500000  1
  Li  Li10  1  0.378463  0.378463  0.000000  1
  Li  Li11  1  0.123713  0.123713  0.500000  1
  Y  Y12  1  0.868496  0.868496  0.000000  1
  Y  Y13  1  0.626217  0.626217  0.500000  1
  Y  Y14  1  0.130920  0.130920  0.000000  1
  Tl  Tl15  1  0.374058  0.374058  0.500000  1
  Sb  Sb16  1  0.342970  0.160034  0.748837  1
  Sb  Sb17  1  0.160034  0.342970  0.251163  1
  Sb  Sb18  1  0.657257  0.838878  0.249973  1
  Sb  Sb19  1  0.838878  0.657257  0.750027  1
  Sb  Sb20  1  0.910596  0.090804  0.764036  1
  Sb  Sb21  1  0.592023  0.408452  0.259147  1
  Sb  Sb22  1  0.090804  0.910596  0.235964  1
  Sb  Sb23  1  0.408452  0.592023  0.740853  1
