# generated using pymatgen
data_Nd3P2S
_symmetry_space_group_name_H-M   'P 1'
_cell_length_a   4.13112500
_cell_length_b   4.13112508
_cell_length_c   10.19166400
_cell_angle_alpha   90.00000000
_cell_angle_beta   90.00000000
_cell_angle_gamma   120.00000737
_symmetry_Int_Tables_number   1
_chemical_formula_structural   Nd3P2S
_chemical_formula_sum   'Nd3 P2 S1'
_cell_volume   150.63031262
_cell_formula_units_Z   1
loop_
 _symmetry_equiv_pos_site_id
 _symmetry_equiv_pos_as_xyz
  1  'x, y, z'
loop_
 _atom_site_type_symbol
 _atom_site_label
 _atom_site_symmetry_multiplicity
 _atom_site_fract_x
 _atom_site_fract_y
 _atom_site_fract_z
 _atom_site_occupancy
  Nd  Nd0  1  0.000000  0.000000  0.500000  1
  Nd  Nd1  1  0.333333  0.666667  0.174357  1
  Nd  Nd2  1  0.666667  0.333333  0.825643  1
  P  P3  1  0.333333  0.666667  0.669556  1
  P  P4  1  0.666667  0.333333  0.330444  1
  S  S5  1  0.000000  0.000000  0.000000  1
