# generated using pymatgen
data_Cd2HgAsO5
_symmetry_space_group_name_H-M   'P 1'
_cell_length_a   8.93875100
_cell_length_b   6.69302709
_cell_length_c   11.50640678
_cell_angle_alpha   55.12236251
_cell_angle_beta   90.00000000
_cell_angle_gamma   90.00000000
_symmetry_Int_Tables_number   1
_chemical_formula_structural   Cd2HgAsO5
_chemical_formula_sum   'Cd8 Hg4 As4 O20'
_cell_volume   564.74400206
_cell_formula_units_Z   4
loop_
 _symmetry_equiv_pos_site_id
 _symmetry_equiv_pos_as_xyz
  1  'x, y, z'
loop_
 _atom_site_type_symbol
 _atom_site_label
 _atom_site_symmetry_multiplicity
 _atom_site_fract_x
 _atom_site_fract_y
 _atom_site_fract_z
 _atom_site_occupancy
  Cd  Cd0  1  0.136167  0.658466  0.349294  1
  Cd  Cd1  1  0.363833  0.658466  0.849294  1
  Cd  Cd2  1  0.863833  0.341534  0.650706  1
  Cd  Cd3  1  0.636167  0.341534  0.150706  1
  Cd  Cd4  1  0.997538  0.764694  0.998775  1
  Cd  Cd5  1  0.502462  0.764694  0.498775  1
  Cd  Cd6  1  0.002462  0.235306  0.001225  1
  Cd  Cd7  1  0.497538  0.235306  0.501225  1
  Hg  Hg8  1  0.364630  0.946049  0.053080  1
  Hg  Hg9  1  0.135370  0.946049  0.553080  1
  Hg  Hg10  1  0.635370  0.053951  0.946920  1
  Hg  Hg11  1  0.864630  0.053951  0.446920  1
  As  As12  1  0.244971  0.284623  0.724375  1
  As  As13  1  0.255029  0.284623  0.224375  1
  As  As14  1  0.755029  0.715377  0.275625  1
  As  As15  1  0.744971  0.715377  0.775625  1
  O  O16  1  0.132451  0.881439  0.116983  1
  O  O17  1  0.367549  0.881439  0.616983  1
  O  O18  1  0.867549  0.118561  0.883017  1
  O  O19  1  0.632451  0.118561  0.383017  1
  O  O20  1  0.223610  0.376375  0.837239  1
  O  O21  1  0.276390  0.376375  0.337239  1
  O  O22  1  0.776390  0.623625  0.162761  1
  O  O23  1  0.723610  0.623625  0.662761  1
  O  O24  1  0.213171  0.973388  0.822224  1
  O  O25  1  0.286829  0.973388  0.322224  1
  O  O26  1  0.786829  0.026612  0.177776  1
  O  O27  1  0.713171  0.026612  0.677776  1
  O  O28  1  0.112172  0.435322  0.591181  1
  O  O29  1  0.387828  0.435322  0.091181  1
  O  O30  1  0.887828  0.564678  0.408819  1
  O  O31  1  0.612172  0.564678  0.908819  1
  O  O32  1  0.417530  0.363441  0.640645  1
  O  O33  1  0.082470  0.363441  0.140645  1
  O  O34  1  0.582470  0.636559  0.359355  1
  O  O35  1  0.917530  0.636559  0.859355  1
