# generated using pymatgen
data_Eu3YCo(Si2Pt)5
_symmetry_space_group_name_H-M   'P 1'
_cell_length_a   8.28303100
_cell_length_b   8.27224257
_cell_length_c   8.27137940
_cell_angle_alpha   137.50276108
_cell_angle_beta   104.80826138
_cell_angle_gamma   90.38700539
_symmetry_Int_Tables_number   1
_chemical_formula_structural   Eu3YCo(Si2Pt)5
_chemical_formula_sum   'Eu3 Y1 Co1 Si10 Pt5'
_cell_volume   353.23448812
_cell_formula_units_Z   1
loop_
 _symmetry_equiv_pos_site_id
 _symmetry_equiv_pos_as_xyz
  1  'x, y, z'
loop_
 _atom_site_type_symbol
 _atom_site_label
 _atom_site_symmetry_multiplicity
 _atom_site_fract_x
 _atom_site_fract_y
 _atom_site_fract_z
 _atom_site_occupancy
  Eu  Eu0  1  0.896974  0.133221  0.770134  1
  Eu  Eu1  1  0.636640  0.366394  0.263760  1
  Eu  Eu2  1  0.363661  0.627377  0.729667  1
  Y  Y3  1  0.102232  0.872787  0.235046  1
  Co  Co4  1  0.497991  0.750577  0.249728  1
  Si  Si5  1  0.999483  0.748075  0.748148  1
  Si  Si6  1  0.999427  0.251184  0.251205  1
  Si  Si7  1  0.274459  0.023622  0.750266  1
  Si  Si8  1  0.727116  0.476112  0.749912  1
  Si  Si9  1  0.724640  0.975239  0.251032  1
  Si  Si10  1  0.276485  0.526267  0.250616  1
  Si  Si11  1  0.751927  0.620773  0.161574  1
  Si  Si12  1  0.248864  0.411951  0.870094  1
  Si  Si13  1  0.456123  0.087810  0.336482  1
  Si  Si14  1  0.542536  0.879410  0.631898  1
  Pt  Pt15  1  0.497870  0.248618  0.747822  1
  Pt  Pt16  1  0.025051  0.639860  0.386730  1
  Pt  Pt17  1  0.978538  0.363718  0.615793  1
  Pt  Pt18  1  0.247975  0.134315  0.112324  1
  Pt  Pt19  1  0.752008  0.862691  0.887770  1
