# generated using pymatgen
data_Er8V9Si16Mo3
_symmetry_space_group_name_H-M   'P 1'
_cell_length_a   6.80749318
_cell_length_b   6.80749370
_cell_length_c   12.62088021
_cell_angle_alpha   89.97423863
_cell_angle_beta   90.02576094
_cell_angle_gamma   90.09006817
_symmetry_Int_Tables_number   1
_chemical_formula_structural   Er8V9Si16Mo3
_chemical_formula_sum   'Er8 V9 Si16 Mo3'
_cell_volume   584.87557245
_cell_formula_units_Z   1
loop_
 _symmetry_equiv_pos_site_id
 _symmetry_equiv_pos_as_xyz
  1  'x, y, z'
loop_
 _atom_site_type_symbol
 _atom_site_label
 _atom_site_symmetry_multiplicity
 _atom_site_fract_x
 _atom_site_fract_y
 _atom_site_fract_z
 _atom_site_occupancy
  Er  Er0  1  0.000390  0.662864  0.030085  1
  Er  Er1  1  0.837279  0.499672  0.280162  1
  Er  Er2  1  0.162401  0.499676  0.779370  1
  Er  Er3  1  0.499672  0.837279  0.719838  1
  Er  Er4  1  0.499676  0.162401  0.220630  1
  Er  Er5  1  0.999977  0.337257  0.530337  1
  Er  Er6  1  0.662864  0.000390  0.969915  1
  Er  Er7  1  0.337257  0.999977  0.469663  1
  V  V8  1  0.668951  0.668951  0.500000  1
  V  V9  1  0.005400  0.159919  0.125554  1
  V  V10  1  0.341444  0.506895  0.375490  1
  V  V11  1  0.659788  0.492709  0.874553  1
  V  V12  1  0.506895  0.341444  0.624510  1
  V  V13  1  0.492709  0.659788  0.125447  1
  V  V14  1  0.992494  0.838362  0.624551  1
  V  V15  1  0.159919  0.005400  0.874446  1
  V  V16  1  0.838362  0.992494  0.375449  1
  Si  Si17  1  0.289013  0.960153  0.063965  1
  Si  Si18  1  0.542078  0.788243  0.316035  1
  Si  Si19  1  0.458986  0.210974  0.813821  1
  Si  Si20  1  0.788243  0.542078  0.683965  1
  Si  Si21  1  0.210974  0.458986  0.186179  1
  Si  Si22  1  0.710792  0.038942  0.563812  1
  Si  Si23  1  0.960153  0.289013  0.936035  1
  Si  Si24  1  0.038942  0.710792  0.436188  1
  Si  Si25  1  0.702093  0.377277  0.066767  1
  Si  Si26  1  0.122896  0.201535  0.316893  1
  Si  Si27  1  0.876576  0.797423  0.816126  1
  Si  Si28  1  0.201535  0.122896  0.683107  1
  Si  Si29  1  0.797423  0.876576  0.183874  1
  Si  Si30  1  0.300192  0.623746  0.565224  1
  Si  Si31  1  0.377277  0.702093  0.933233  1
  Si  Si32  1  0.623746  0.300192  0.434776  1
  Mo  Mo33  1  0.332012  0.332012  0.000000  1
  Mo  Mo34  1  0.169601  0.831991  0.249572  1
  Mo  Mo35  1  0.831991  0.169601  0.750428  1
