# generated using pymatgen
data_Zr4Cd2Cu3Pt
_symmetry_space_group_name_H-M   'P 1'
_cell_length_a   7.31805811
_cell_length_b   7.31805699
_cell_length_c   3.48448000
_cell_angle_alpha   90.00000000
_cell_angle_beta   90.00000000
_cell_angle_gamma   90.01729516
_symmetry_Int_Tables_number   1
_chemical_formula_structural   Zr4Cd2Cu3Pt
_chemical_formula_sum   'Zr4 Cd2 Cu3 Pt1'
_cell_volume   186.60771609
_cell_formula_units_Z   1
loop_
 _symmetry_equiv_pos_site_id
 _symmetry_equiv_pos_as_xyz
  1  'x, y, z'
loop_
 _atom_site_type_symbol
 _atom_site_label
 _atom_site_symmetry_multiplicity
 _atom_site_fract_x
 _atom_site_fract_y
 _atom_site_fract_z
 _atom_site_occupancy
  Zr  Zr0  1  0.666189  0.166189  0.500000  1
  Zr  Zr1  1  0.330054  0.830054  0.500000  1
  Zr  Zr2  1  0.173134  0.331930  0.500000  1
  Zr  Zr3  1  0.831930  0.673134  0.500000  1
  Cd  Cd4  1  0.997573  0.007986  0.000000  1
  Cd  Cd5  1  0.507986  0.497573  0.000000  1
  Cu  Cu6  1  0.869267  0.369267  0.000000  1
  Cu  Cu7  1  0.623589  0.876718  0.000000  1
  Cu  Cu8  1  0.376718  0.123589  0.000000  1
  Pt  Pt9  1  0.123563  0.623563  0.000000  1
