# generated using pymatgen
data_Li8Lu8Sn7Sb
_symmetry_space_group_name_H-M   'P 1'
_cell_length_a   9.31185300
_cell_length_b   9.31138344
_cell_length_c   7.04089700
_cell_angle_alpha   90.07045174
_cell_angle_beta   90.00000000
_cell_angle_gamma   120.00167174
_symmetry_Int_Tables_number   1
_chemical_formula_structural   Li8Lu8Sn7Sb
_chemical_formula_sum   'Li8 Lu8 Sn7 Sb1'
_cell_volume   528.69011654
_cell_formula_units_Z   1
loop_
 _symmetry_equiv_pos_site_id
 _symmetry_equiv_pos_as_xyz
  1  'x, y, z'
loop_
 _atom_site_type_symbol
 _atom_site_label
 _atom_site_symmetry_multiplicity
 _atom_site_fract_x
 _atom_site_fract_y
 _atom_site_fract_z
 _atom_site_occupancy
  Li  Li0  1  0.166785  0.333571  0.285299  1
  Li  Li1  1  0.166636  0.833092  0.284479  1
  Li  Li2  1  0.666456  0.833092  0.284479  1
  Li  Li3  1  0.833380  0.666761  0.784891  1
  Li  Li4  1  0.832220  0.166732  0.785911  1
  Li  Li5  1  0.334511  0.166732  0.785911  1
  Li  Li6  1  0.333712  0.667425  0.681712  1
  Li  Li7  1  0.666437  0.332872  0.183096  1
  Lu  Lu8  1  0.510407  0.020812  0.493920  1
  Lu  Lu9  1  0.512907  0.491424  0.491569  1
  Lu  Lu10  1  0.978519  0.491424  0.491569  1
  Lu  Lu11  1  0.489286  0.978575  0.994094  1
  Lu  Lu12  1  0.491761  0.510737  0.995032  1
  Lu  Lu13  1  0.018975  0.510737  0.995032  1
  Lu  Lu14  1  0.998884  0.997767  0.497592  1
  Lu  Lu15  1  0.999153  0.998304  0.000805  1
  Sn  Sn16  1  0.166605  0.833248  0.731229  1
  Sn  Sn17  1  0.666643  0.833248  0.731229  1
  Sn  Sn18  1  0.833246  0.666494  0.232530  1
  Sn  Sn19  1  0.834198  0.167428  0.231994  1
  Sn  Sn20  1  0.333229  0.167428  0.231994  1
  Sn  Sn21  1  0.332665  0.665333  0.256603  1
  Sn  Sn22  1  0.666855  0.333709  0.757505  1
  Sb  Sb23  1  0.166528  0.333055  0.733521  1
