# generated using pymatgen
data_TbDy9(IrPb3)2
_symmetry_space_group_name_H-M   'P 1'
_cell_length_a   9.22819600
_cell_length_b   9.22819536
_cell_length_c   6.87898800
_cell_angle_alpha   90.00000000
_cell_angle_beta   90.00000000
_cell_angle_gamma   119.99999514
_symmetry_Int_Tables_number   1
_chemical_formula_structural   TbDy9(IrPb3)2
_chemical_formula_sum   'Tb1 Dy9 Ir2 Pb6'
_cell_volume   507.32795603
_cell_formula_units_Z   1
loop_
 _symmetry_equiv_pos_site_id
 _symmetry_equiv_pos_as_xyz
  1  'x, y, z'
loop_
 _atom_site_type_symbol
 _atom_site_label
 _atom_site_symmetry_multiplicity
 _atom_site_fract_x
 _atom_site_fract_y
 _atom_site_fract_z
 _atom_site_occupancy
  Tb  Tb0  1  0.333333  0.666667  0.500000  1
  Dy  Dy1  1  0.235487  0.000019  0.249986  1
  Dy  Dy2  1  0.999981  0.764513  0.750014  1
  Dy  Dy3  1  0.999981  0.235468  0.249986  1
  Dy  Dy4  1  0.764532  0.000019  0.750014  1
  Dy  Dy5  1  0.666667  0.333333  0.500000  1
  Dy  Dy6  1  0.235487  0.235468  0.750014  1
  Dy  Dy7  1  0.333333  0.666667  0.000000  1
  Dy  Dy8  1  0.666667  0.333333  0.000000  1
  Dy  Dy9  1  0.764532  0.764513  0.249986  1
  Ir  Ir10  1  0.000000  0.000000  0.000000  1
  Ir  Ir11  1  0.000000  0.000000  0.500000  1
  Pb  Pb12  1  0.593986  0.000065  0.249956  1
  Pb  Pb13  1  0.406079  0.000065  0.750044  1
  Pb  Pb14  1  0.999935  0.593921  0.249956  1
  Pb  Pb15  1  0.593986  0.593921  0.750044  1
  Pb  Pb16  1  0.406079  0.406014  0.249956  1
  Pb  Pb17  1  0.999935  0.406014  0.750044  1
