# generated using pymatgen
data_Er3Lu3Co17P12Os
_symmetry_space_group_name_H-M   'P 1'
_cell_length_a   3.67898700
_cell_length_b   10.46567500
_cell_length_c   12.15602801
_cell_angle_alpha   90.00341432
_cell_angle_beta   90.00000000
_cell_angle_gamma   90.00000000
_symmetry_Int_Tables_number   1
_chemical_formula_structural   Er3Lu3Co17P12Os
_chemical_formula_sum   'Er3 Lu3 Co17 P12 Os1'
_cell_volume   468.04454576
_cell_formula_units_Z   1
loop_
 _symmetry_equiv_pos_site_id
 _symmetry_equiv_pos_as_xyz
  1  'x, y, z'
loop_
 _atom_site_type_symbol
 _atom_site_label
 _atom_site_symmetry_multiplicity
 _atom_site_fract_x
 _atom_site_fract_y
 _atom_site_fract_z
 _atom_site_occupancy
  Er  Er0  1  0.750000  0.249953  0.474839  1
  Er  Er1  1  0.250000  0.750028  0.522177  1
  Er  Er2  1  0.750000  0.432408  0.206258  1
  Lu  Lu3  1  0.250000  0.931948  0.792504  1
  Lu  Lu4  1  0.250000  0.568054  0.792549  1
  Lu  Lu5  1  0.750000  0.067392  0.206329  1
  Co  Co6  1  0.750000  0.750031  0.160320  1
  Co  Co7  1  0.250000  0.249370  0.296388  1
  Co  Co8  1  0.750000  0.750043  0.704812  1
  Co  Co9  1  0.750000  0.249780  0.011895  1
  Co  Co10  1  0.250000  0.750191  0.985130  1
  Co  Co11  1  0.250000  0.417511  0.008870  1
  Co  Co12  1  0.250000  0.082297  0.009276  1
  Co  Co13  1  0.750000  0.583233  0.993659  1
  Co  Co14  1  0.750000  0.917001  0.993928  1
  Co  Co15  1  0.250000  0.452647  0.569841  1
  Co  Co16  1  0.250000  0.047319  0.569707  1
  Co  Co17  1  0.750000  0.547299  0.431576  1
  Co  Co18  1  0.750000  0.952783  0.431258  1
  Co  Co19  1  0.250000  0.871962  0.290734  1
  Co  Co20  1  0.250000  0.628721  0.291072  1
  Co  Co21  1  0.750000  0.128562  0.708958  1
  Co  Co22  1  0.750000  0.371434  0.709011  1
  P  P23  1  0.250000  0.249381  0.119749  1
  P  P24  1  0.750000  0.750078  0.881864  1
  P  P25  1  0.250000  0.250018  0.648046  1
  P  P26  1  0.750000  0.749942  0.345373  1
  P  P27  1  0.250000  0.437984  0.383469  1
  P  P28  1  0.250000  0.061964  0.382746  1
  P  P29  1  0.750000  0.562920  0.616907  1
  P  P30  1  0.750000  0.937154  0.616801  1
  P  P31  1  0.250000  0.901523  0.109034  1
  P  P32  1  0.250000  0.599133  0.108597  1
  P  P33  1  0.750000  0.093213  0.892701  1
  P  P34  1  0.750000  0.406748  0.892834  1
  Os  Os35  1  0.250000  0.249975  0.840784  1
