# generated using pymatgen
data_Dy5Ho4Er11(CoBi2)4
_symmetry_space_group_name_H-M   'P 1'
_cell_length_a   7.95440640
_cell_length_b   8.87758000
_cell_length_c   12.37103874
_cell_angle_alpha   90.00000000
_cell_angle_beta   90.05381418
_cell_angle_gamma   90.00000000
_symmetry_Int_Tables_number   1
_chemical_formula_structural   Dy5Ho4Er11(CoBi2)4
_chemical_formula_sum   'Dy5 Ho4 Er11 Co4 Bi8'
_cell_volume   873.59139134
_cell_formula_units_Z   1
loop_
 _symmetry_equiv_pos_site_id
 _symmetry_equiv_pos_as_xyz
  1  'x, y, z'
loop_
 _atom_site_type_symbol
 _atom_site_label
 _atom_site_symmetry_multiplicity
 _atom_site_fract_x
 _atom_site_fract_y
 _atom_site_fract_z
 _atom_site_occupancy
  Dy  Dy0  1  0.152792  0.750000  0.200132  1
  Dy  Dy1  1  0.884718  0.750000  0.811060  1
  Dy  Dy2  1  0.115407  0.250000  0.188968  1
  Dy  Dy3  1  0.384533  0.250000  0.688981  1
  Dy  Dy4  1  0.615930  0.750000  0.311016  1
  Ho  Ho5  1  0.053501  0.750000  0.498075  1
  Ho  Ho6  1  0.946238  0.250000  0.502345  1
  Ho  Ho7  1  0.553744  0.250000  0.002050  1
  Ho  Ho8  1  0.447007  0.750000  0.997597  1
  Er  Er9  1  0.347530  0.750000  0.699312  1
  Er  Er10  1  0.652335  0.250000  0.300629  1
  Er  Er11  1  0.847401  0.250000  0.800386  1
  Er  Er12  1  0.674756  0.538091  0.563317  1
  Er  Er13  1  0.325232  0.461932  0.436793  1
  Er  Er14  1  0.174706  0.461695  0.936567  1
  Er  Er15  1  0.325232  0.038068  0.436793  1
  Er  Er16  1  0.824986  0.537684  0.062976  1
  Er  Er17  1  0.674756  0.961909  0.563317  1
  Er  Er18  1  0.824986  0.962316  0.062976  1
  Er  Er19  1  0.174706  0.038305  0.936567  1
  Co  Co20  1  0.065425  0.750000  0.992202  1
  Co  Co21  1  0.934364  0.250000  0.007356  1
  Co  Co22  1  0.565342  0.250000  0.507581  1
  Co  Co23  1  0.434276  0.750000  0.492440  1
  Bi  Bi24  1  0.571278  0.509414  0.826727  1
  Bi  Bi25  1  0.429401  0.490120  0.173075  1
  Bi  Bi26  1  0.071422  0.490546  0.673303  1
  Bi  Bi27  1  0.429401  0.009880  0.173075  1
  Bi  Bi28  1  0.927948  0.508871  0.327177  1
  Bi  Bi29  1  0.571278  0.990586  0.826727  1
  Bi  Bi30  1  0.927948  0.991129  0.327177  1
  Bi  Bi31  1  0.071422  0.009454  0.673303  1
