# generated using pymatgen
data_RbBa4Nb5O15
_symmetry_space_group_name_H-M   'P 1'
_cell_length_a   9.27859402
_cell_length_b   9.27859313
_cell_length_c   7.17799066
_cell_angle_alpha   74.89836369
_cell_angle_beta   74.89836435
_cell_angle_gamma   36.76202492
_symmetry_Int_Tables_number   1
_chemical_formula_structural   RbBa4Nb5O15
_chemical_formula_sum   'Rb1 Ba4 Nb5 O15'
_cell_volume   355.63926176
_cell_formula_units_Z   1
loop_
 _symmetry_equiv_pos_site_id
 _symmetry_equiv_pos_as_xyz
  1  'x, y, z'
loop_
 _atom_site_type_symbol
 _atom_site_label
 _atom_site_symmetry_multiplicity
 _atom_site_fract_x
 _atom_site_fract_y
 _atom_site_fract_z
 _atom_site_occupancy
  Rb  Rb0  1  0.000000  0.000000  0.000000  1
  Ba  Ba1  1  0.599149  0.599149  0.602954  1
  Ba  Ba2  1  0.199082  0.199082  0.199457  1
  Ba  Ba3  1  0.800918  0.800918  0.800543  1
  Ba  Ba4  1  0.400851  0.400851  0.397046  1
  Nb  Nb5  1  0.199139  0.199140  0.701632  1
  Nb  Nb6  1  0.800861  0.800860  0.298368  1
  Nb  Nb7  1  0.401120  0.401120  0.900207  1
  Nb  Nb8  1  0.000000  0.000000  0.500000  1
  Nb  Nb9  1  0.598880  0.598880  0.099793  1
  O  O10  1  0.404525  0.898961  0.898598  1
  O  O11  1  0.000000  0.500000  0.500000  1
  O  O12  1  0.595475  0.101039  0.101402  1
  O  O13  1  0.202553  0.696484  0.696508  1
  O  O14  1  0.797447  0.303516  0.303492  1
  O  O15  1  0.299913  0.299913  0.799730  1
  O  O16  1  0.898689  0.898689  0.404386  1
  O  O17  1  0.500000  0.500000  0.000000  1
  O  O18  1  0.101311  0.101311  0.595614  1
  O  O19  1  0.700087  0.700087  0.200270  1
  O  O20  1  0.500000  0.000000  0.500000  1
  O  O21  1  0.101039  0.595475  0.101402  1
  O  O22  1  0.696484  0.202553  0.696508  1
  O  O23  1  0.303516  0.797447  0.303492  1
  O  O24  1  0.898961  0.404525  0.898598  1
