# generated using pymatgen
data_GaP6IrO18
_symmetry_space_group_name_H-M   'P 1'
_cell_length_a   5.08163899
_cell_length_b   7.10334484
_cell_length_c   10.50616500
_cell_angle_alpha   96.86023533
_cell_angle_beta   91.00966614
_cell_angle_gamma   91.05180711
_symmetry_Int_Tables_number   1
_chemical_formula_structural   GaP6IrO18
_chemical_formula_sum   'Ga1 P6 Ir1 O18'
_cell_volume   376.38359795
_cell_formula_units_Z   1
loop_
 _symmetry_equiv_pos_site_id
 _symmetry_equiv_pos_as_xyz
  1  'x, y, z'
loop_
 _atom_site_type_symbol
 _atom_site_label
 _atom_site_symmetry_multiplicity
 _atom_site_fract_x
 _atom_site_fract_y
 _atom_site_fract_z
 _atom_site_occupancy
  Ga  Ga0  1  0.000000  0.500000  0.500000  1
  P  P1  1  0.511835  0.348337  0.646779  1
  P  P2  1  0.488165  0.651663  0.353221  1
  P  P3  1  0.482413  0.052198  0.822810  1
  P  P4  1  0.517587  0.947802  0.177190  1
  P  P5  1  0.228799  0.304711  0.230989  1
  P  P6  1  0.771201  0.695289  0.769011  1
  Ir  Ir7  1  0.000000  0.000000  0.000000  1
  O  O8  1  0.331549  0.878770  0.067081  1
  O  O9  1  0.668451  0.121230  0.932919  1
  O  O10  1  0.443477  0.850659  0.301798  1
  O  O11  1  0.556523  0.149341  0.698202  1
  O  O12  1  0.617399  0.494926  0.768038  1
  O  O13  1  0.382601  0.505074  0.231962  1
  O  O14  1  0.916281  0.697241  0.645443  1
  O  O15  1  0.083719  0.302759  0.354557  1
  O  O16  1  0.692380  0.349379  0.534852  1
  O  O17  1  0.307620  0.650621  0.465148  1
  O  O18  1  0.474393  0.164237  0.231897  1
  O  O19  1  0.525607  0.835763  0.768103  1
  O  O20  1  0.918557  0.735169  0.895856  1
  O  O21  1  0.081443  0.264831  0.104144  1
  O  O22  1  0.807139  0.915152  0.155105  1
  O  O23  1  0.192861  0.084848  0.844895  1
  O  O24  1  0.777044  0.627617  0.376525  1
  O  O25  1  0.222956  0.372383  0.623475  1
