# generated using pymatgen
data_ZnCoSi4(Pb2O7)2
_symmetry_space_group_name_H-M   'P 1'
_cell_length_a   8.15494100
_cell_length_b   13.44604611
_cell_length_c   13.44608813
_cell_angle_alpha   105.32050681
_cell_angle_beta   89.99973749
_cell_angle_gamma   89.99965906
_symmetry_Int_Tables_number   1
_chemical_formula_structural   ZnCoSi4(Pb2O7)2
_chemical_formula_sum   'Zn4 Co4 Si16 Pb16 O56'
_cell_volume   1421.99118857
_cell_formula_units_Z   4
loop_
 _symmetry_equiv_pos_site_id
 _symmetry_equiv_pos_as_xyz
  1  'x, y, z'
loop_
 _atom_site_type_symbol
 _atom_site_label
 _atom_site_symmetry_multiplicity
 _atom_site_fract_x
 _atom_site_fract_y
 _atom_site_fract_z
 _atom_site_occupancy
  Zn  Zn0  1  0.500002  0.999967  0.500031  1
  Zn  Zn1  1  0.500001  0.249970  0.250030  1
  Zn  Zn2  1  0.500003  0.749970  0.750031  1
  Zn  Zn3  1  0.500001  0.499970  0.000030  1
  Co  Co4  1  0.999999  0.500025  0.499979  1
  Co  Co5  1  0.999999  0.250024  0.749979  1
  Co  Co6  1  0.999998  0.750024  0.249978  1
  Co  Co7  1  0.999995  0.000025  0.999980  1
  Si  Si8  1  0.140156  0.692178  0.667708  1
  Si  Si9  1  0.140156  0.942176  0.417709  1
  Si  Si10  1  0.140156  0.442178  0.917706  1
  Si  Si11  1  0.140158  0.192180  0.167708  1
  Si  Si12  1  0.359852  0.167705  0.692176  1
  Si  Si13  1  0.359848  0.417706  0.442177  1
  Si  Si14  1  0.359848  0.917705  0.942178  1
  Si  Si15  1  0.359853  0.667706  0.192178  1
  Si  Si16  1  0.859845  0.832297  0.807823  1
  Si  Si17  1  0.859845  0.082293  0.557823  1
  Si  Si18  1  0.859845  0.582295  0.057821  1
  Si  Si19  1  0.859847  0.332298  0.307822  1
  Si  Si20  1  0.640152  0.807819  0.332295  1
  Si  Si21  1  0.640148  0.057821  0.082295  1
  Si  Si22  1  0.640147  0.557820  0.582292  1
  Si  Si23  1  0.640147  0.307823  0.832293  1
  Pb  Pb24  1  0.322500  0.712443  0.464748  1
  Pb  Pb25  1  0.322499  0.962446  0.214747  1
  Pb  Pb26  1  0.322500  0.462445  0.714747  1
  Pb  Pb27  1  0.322500  0.212444  0.964749  1
  Pb  Pb28  1  0.176960  0.965036  0.712706  1
  Pb  Pb29  1  0.176963  0.215038  0.462708  1
  Pb  Pb30  1  0.176962  0.715036  0.962707  1
  Pb  Pb31  1  0.176964  0.465044  0.212706  1
  Pb  Pb32  1  0.677503  0.035255  0.787555  1
  Pb  Pb33  1  0.677496  0.285247  0.537550  1
  Pb  Pb34  1  0.677502  0.785254  0.037555  1
  Pb  Pb35  1  0.677505  0.535254  0.287556  1
  Pb  Pb36  1  0.823034  0.787293  0.534964  1
  Pb  Pb37  1  0.823034  0.037291  0.284963  1
  Pb  Pb38  1  0.823032  0.537292  0.784957  1
  Pb  Pb39  1  0.823041  0.287296  0.034965  1
  O  O40  1  0.499998  0.718767  0.281236  1
  O  O41  1  0.499994  0.968768  0.031236  1
  O  O42  1  0.499998  0.468764  0.531232  1
  O  O43  1  0.499996  0.218766  0.781237  1
  O  O44  1  0.000000  0.781235  0.718767  1
  O  O45  1  0.000003  0.031234  0.468768  1
  O  O46  1  0.999998  0.531232  0.968765  1
  O  O47  1  0.000000  0.281236  0.218765  1
  O  O48  1  0.309727  0.757749  0.660231  1
  O  O49  1  0.309729  0.007749  0.410231  1
  O  O50  1  0.309723  0.507751  0.910231  1
  O  O51  1  0.309726  0.257750  0.160229  1
  O  O52  1  0.690275  0.839770  0.742249  1
  O  O53  1  0.690276  0.089767  0.492245  1
  O  O54  1  0.690275  0.589770  0.992249  1
  O  O55  1  0.690277  0.339771  0.242252  1
  O  O56  1  0.582024  0.856030  0.453619  1
  O  O57  1  0.582020  0.106030  0.203620  1
  O  O58  1  0.582019  0.606029  0.703618  1
  O  O59  1  0.582021  0.356031  0.953624  1
  O  O60  1  0.417986  0.046377  0.643968  1
  O  O61  1  0.417979  0.296380  0.393967  1
  O  O62  1  0.417984  0.796382  0.893969  1
  O  O63  1  0.417986  0.546383  0.143969  1
  O  O64  1  0.190516  0.159951  0.757953  1
  O  O65  1  0.190517  0.409953  0.507956  1
  O  O66  1  0.190515  0.909954  0.007952  1
  O  O67  1  0.190521  0.659956  0.257951  1
  O  O68  1  0.809481  0.742039  0.340040  1
  O  O69  1  0.809476  0.992039  0.090041  1
  O  O70  1  0.809479  0.492042  0.590040  1
  O  O71  1  0.809481  0.242040  0.840044  1
  O  O72  1  0.917892  0.953746  0.855691  1
  O  O73  1  0.917887  0.203743  0.605692  1
  O  O74  1  0.917894  0.703743  0.105691  1
  O  O75  1  0.917893  0.453744  0.355691  1
  O  O76  1  0.082107  0.644307  0.546261  1
  O  O77  1  0.082105  0.894308  0.296259  1
  O  O78  1  0.082109  0.394306  0.796259  1
  O  O79  1  0.082110  0.144306  0.046262  1
  O  O80  1  0.152664  0.859505  0.486012  1
  O  O81  1  0.152666  0.109505  0.236022  1
  O  O82  1  0.152665  0.609503  0.736015  1
  O  O83  1  0.152668  0.359502  0.986017  1
  O  O84  1  0.345415  0.986975  0.860459  1
  O  O85  1  0.345420  0.236969  0.610464  1
  O  O86  1  0.345421  0.736978  0.110459  1
  O  O87  1  0.345412  0.486975  0.360463  1
  O  O88  1  0.847330  0.013987  0.640493  1
  O  O89  1  0.847341  0.263987  0.390498  1
  O  O90  1  0.847337  0.763988  0.890497  1
  O  O91  1  0.847337  0.513987  0.140495  1
  O  O92  1  0.654582  0.639538  0.513027  1
  O  O93  1  0.654585  0.889537  0.263024  1
  O  O94  1  0.654582  0.389535  0.763031  1
  O  O95  1  0.654582  0.139542  0.013027  1
