# generated using pymatgen
data_CeEr2In3NiIr2
_symmetry_space_group_name_H-M   'P 1'
_cell_length_a   7.56612388
_cell_length_b   7.71506314
_cell_length_c   3.74569700
_cell_angle_alpha   90.00000000
_cell_angle_beta   90.00000000
_cell_angle_gamma   120.65332646
_symmetry_Int_Tables_number   1
_chemical_formula_structural   CeEr2In3NiIr2
_chemical_formula_sum   'Ce1 Er2 In3 Ni1 Ir2'
_cell_volume   188.09587979
_cell_formula_units_Z   1
loop_
 _symmetry_equiv_pos_site_id
 _symmetry_equiv_pos_as_xyz
  1  'x, y, z'
loop_
 _atom_site_type_symbol
 _atom_site_label
 _atom_site_symmetry_multiplicity
 _atom_site_fract_x
 _atom_site_fract_y
 _atom_site_fract_z
 _atom_site_occupancy
  Ce  Ce0  1  0.000000  0.578190  0.000000  1
  Er  Er1  1  0.410258  0.413107  0.000000  1
  Er  Er2  1  0.589742  0.002849  0.000000  1
  In  In3  1  0.000000  0.239530  0.500000  1
  In  In4  1  0.741195  0.749550  0.500000  1
  In  In5  1  0.258805  0.008354  0.500000  1
  Ni  Ni6  1  0.000000  0.995587  0.000000  1
  Ir  Ir7  1  0.317310  0.665072  0.500000  1
  Ir  Ir8  1  0.682690  0.347761  0.500000  1
