# generated using pymatgen
data_Y4Hf4IrRh3
_symmetry_space_group_name_H-M   'P 1'
_cell_length_a   4.56264400
_cell_length_b   7.05927027
_cell_length_c   8.33637403
_cell_angle_alpha   90.08733693
_cell_angle_beta   90.00000000
_cell_angle_gamma   90.00000000
_symmetry_Int_Tables_number   1
_chemical_formula_structural   Y4Hf4IrRh3
_chemical_formula_sum   'Y4 Hf4 Ir1 Rh3'
_cell_volume   268.50543512
_cell_formula_units_Z   1
loop_
 _symmetry_equiv_pos_site_id
 _symmetry_equiv_pos_as_xyz
  1  'x, y, z'
loop_
 _atom_site_type_symbol
 _atom_site_label
 _atom_site_symmetry_multiplicity
 _atom_site_fract_x
 _atom_site_fract_y
 _atom_site_fract_z
 _atom_site_occupancy
  Y  Y0  1  0.250000  0.983756  0.321760  1
  Y  Y1  1  0.250000  0.483367  0.178789  1
  Y  Y2  1  0.750000  0.017941  0.678490  1
  Y  Y3  1  0.750000  0.513913  0.823097  1
  Hf  Hf4  1  0.250000  0.360707  0.574172  1
  Hf  Hf5  1  0.250000  0.858908  0.926881  1
  Hf  Hf6  1  0.750000  0.640160  0.428933  1
  Hf  Hf7  1  0.750000  0.140153  0.069961  1
  Ir  Ir8  1  0.250000  0.229392  0.907662  1
  Rh  Rh9  1  0.250000  0.729764  0.589366  1
  Rh  Rh10  1  0.750000  0.770470  0.090791  1
  Rh  Rh11  1  0.750000  0.271469  0.410100  1
