# generated using pymatgen
data_TiMo2O5
_symmetry_space_group_name_H-M   'P 1'
_cell_length_a   3.49797800
_cell_length_b   7.30543900
_cell_length_c   15.07331900
_cell_angle_alpha   90.00000000
_cell_angle_beta   90.00000000
_cell_angle_gamma   90.00000000
_symmetry_Int_Tables_number   1
_chemical_formula_structural   TiMo2O5
_chemical_formula_sum   'Ti4 Mo8 O20'
_cell_volume   385.18758668
_cell_formula_units_Z   4
loop_
 _symmetry_equiv_pos_site_id
 _symmetry_equiv_pos_as_xyz
  1  'x, y, z'
loop_
 _atom_site_type_symbol
 _atom_site_label
 _atom_site_symmetry_multiplicity
 _atom_site_fract_x
 _atom_site_fract_y
 _atom_site_fract_z
 _atom_site_occupancy
  Ti  Ti0  1  0.750000  0.391417  0.080245  1
  Ti  Ti1  1  0.250000  0.608583  0.919755  1
  Ti  Ti2  1  0.750000  0.891417  0.419755  1
  Ti  Ti3  1  0.250000  0.108583  0.580245  1
  Mo  Mo4  1  0.750000  0.396065  0.417793  1
  Mo  Mo5  1  0.250000  0.603935  0.582207  1
  Mo  Mo6  1  0.750000  0.896065  0.082207  1
  Mo  Mo7  1  0.250000  0.103935  0.917793  1
  Mo  Mo8  1  0.250000  0.179026  0.258836  1
  Mo  Mo9  1  0.750000  0.820974  0.741164  1
  Mo  Mo10  1  0.250000  0.679026  0.241164  1
  Mo  Mo11  1  0.750000  0.320974  0.758836  1
  O  O12  1  0.750000  0.257862  0.182522  1
  O  O13  1  0.250000  0.742138  0.817478  1
  O  O14  1  0.750000  0.757862  0.317478  1
  O  O15  1  0.250000  0.242138  0.682522  1
  O  O16  1  0.750000  0.152449  0.005468  1
  O  O17  1  0.250000  0.847551  0.994532  1
  O  O18  1  0.750000  0.652449  0.494532  1
  O  O19  1  0.250000  0.347551  0.505468  1
  O  O20  1  0.750000  0.130832  0.347397  1
  O  O21  1  0.250000  0.869168  0.652603  1
  O  O22  1  0.750000  0.630832  0.152603  1
  O  O23  1  0.250000  0.369168  0.847397  1
  O  O24  1  0.250000  0.437435  0.327954  1
  O  O25  1  0.750000  0.562565  0.672046  1
  O  O26  1  0.250000  0.937435  0.172046  1
  O  O27  1  0.750000  0.062565  0.827954  1
  O  O28  1  0.250000  0.429213  0.046347  1
  O  O29  1  0.750000  0.570787  0.953653  1
  O  O30  1  0.250000  0.929213  0.453653  1
  O  O31  1  0.750000  0.070787  0.546347  1
