# generated using pymatgen
data_Pm2VRh3
_symmetry_space_group_name_H-M   'P 1'
_cell_length_a   5.68860743
_cell_length_b   5.68863470
_cell_length_c   5.17413084
_cell_angle_alpha   56.64157024
_cell_angle_beta   56.64767849
_cell_angle_gamma   60.00098088
_symmetry_Int_Tables_number   1
_chemical_formula_structural   Pm2VRh3
_chemical_formula_sum   'Pm2 V1 Rh3'
_cell_volume   112.03179507
_cell_formula_units_Z   1
loop_
 _symmetry_equiv_pos_site_id
 _symmetry_equiv_pos_as_xyz
  1  'x, y, z'
loop_
 _atom_site_type_symbol
 _atom_site_label
 _atom_site_symmetry_multiplicity
 _atom_site_fract_x
 _atom_site_fract_y
 _atom_site_fract_z
 _atom_site_occupancy
  Pm  Pm0  1  0.747576  0.747599  0.757276  1
  Pm  Pm1  1  0.002424  0.002401  0.992724  1
  V  V2  1  0.375000  0.375000  0.875000  1
  Rh  Rh3  1  0.875000  0.375000  0.375000  1
  Rh  Rh4  1  0.375000  0.875000  0.375000  1
  Rh  Rh5  1  0.375000  0.375000  0.375000  1
