# generated using pymatgen
data_YbEr(ThPd6)2
_symmetry_space_group_name_H-M   'P 1'
_cell_length_a   5.88106900
_cell_length_b   5.88106862
_cell_length_c   9.62746000
_cell_angle_alpha   90.00000000
_cell_angle_beta   90.00000000
_cell_angle_gamma   119.99999654
_symmetry_Int_Tables_number   1
_chemical_formula_structural   YbEr(ThPd6)2
_chemical_formula_sum   'Yb1 Er1 Th2 Pd12'
_cell_volume   288.37319620
_cell_formula_units_Z   1
loop_
 _symmetry_equiv_pos_site_id
 _symmetry_equiv_pos_as_xyz
  1  'x, y, z'
loop_
 _atom_site_type_symbol
 _atom_site_label
 _atom_site_symmetry_multiplicity
 _atom_site_fract_x
 _atom_site_fract_y
 _atom_site_fract_z
 _atom_site_occupancy
  Yb  Yb0  1  0.333333  0.666667  0.250000  1
  Er  Er1  1  0.666667  0.333333  0.750000  1
  Th  Th2  1  0.000000  0.000000  0.497866  1
  Th  Th3  1  0.000000  0.000000  0.002134  1
  Pd  Pd4  1  0.500094  0.499906  0.500192  1
  Pd  Pd5  1  0.500094  0.000188  0.500192  1
  Pd  Pd6  1  0.999812  0.499906  0.500192  1
  Pd  Pd7  1  0.500094  0.499906  0.999808  1
  Pd  Pd8  1  0.500094  0.000188  0.999808  1
  Pd  Pd9  1  0.999812  0.499906  0.999808  1
  Pd  Pd10  1  0.826664  0.653328  0.250000  1
  Pd  Pd11  1  0.346672  0.173336  0.250000  1
  Pd  Pd12  1  0.826664  0.173336  0.250000  1
  Pd  Pd13  1  0.173525  0.347051  0.750000  1
  Pd  Pd14  1  0.652949  0.826475  0.750000  1
  Pd  Pd15  1  0.173525  0.826475  0.750000  1
