# generated using pymatgen
data_TbCe2Sm(Zn4Ru)2
_symmetry_space_group_name_H-M   'P 1'
_cell_length_a   7.16473700
_cell_length_b   7.16473700
_cell_length_c   5.14346900
_cell_angle_alpha   90.00000000
_cell_angle_beta   90.00000000
_cell_angle_gamma   90.00000000
_symmetry_Int_Tables_number   1
_chemical_formula_structural   TbCe2Sm(Zn4Ru)2
_chemical_formula_sum   'Tb1 Ce2 Sm1 Zn8 Ru2'
_cell_volume   264.03204103
_cell_formula_units_Z   1
loop_
 _symmetry_equiv_pos_site_id
 _symmetry_equiv_pos_as_xyz
  1  'x, y, z'
loop_
 _atom_site_type_symbol
 _atom_site_label
 _atom_site_symmetry_multiplicity
 _atom_site_fract_x
 _atom_site_fract_y
 _atom_site_fract_z
 _atom_site_occupancy
  Tb  Tb0  1  0.500000  0.000000  0.224505  1
  Ce  Ce1  1  0.000000  0.000000  0.000318  1
  Ce  Ce2  1  0.500000  0.500000  0.000318  1
  Sm  Sm3  1  0.000000  0.500000  0.774522  1
  Zn  Zn4  1  0.185632  0.685632  0.289285  1
  Zn  Zn5  1  0.814368  0.685632  0.289285  1
  Zn  Zn6  1  0.814368  0.314368  0.289285  1
  Zn  Zn7  1  0.315716  0.184284  0.710300  1
  Zn  Zn8  1  0.185632  0.314368  0.289285  1
  Zn  Zn9  1  0.684284  0.184284  0.710300  1
  Zn  Zn10  1  0.684284  0.815716  0.710300  1
  Zn  Zn11  1  0.315716  0.815716  0.710300  1
  Ru  Ru12  1  0.500000  0.500000  0.500999  1
  Ru  Ru13  1  0.000000  0.000000  0.500999  1
