# generated using pymatgen
data_Ho4Er4Ga3Os
_symmetry_space_group_name_H-M   'P 1'
_cell_length_a   9.95888300
_cell_length_b   9.95888303
_cell_length_c   7.02638300
_cell_angle_alpha   90.00000000
_cell_angle_beta   90.00000000
_cell_angle_gamma   119.99999656
_symmetry_Int_Tables_number   1
_chemical_formula_structural   Ho4Er4Ga3Os
_chemical_formula_sum   'Ho8 Er8 Ga6 Os2'
_cell_volume   603.50896744
_cell_formula_units_Z   2
loop_
 _symmetry_equiv_pos_site_id
 _symmetry_equiv_pos_as_xyz
  1  'x, y, z'
loop_
 _atom_site_type_symbol
 _atom_site_label
 _atom_site_symmetry_multiplicity
 _atom_site_fract_x
 _atom_site_fract_y
 _atom_site_fract_z
 _atom_site_occupancy
  Ho  Ho0  1  0.465824  0.534176  0.205201  1
  Ho  Ho1  1  0.068352  0.534176  0.205201  1
  Ho  Ho2  1  0.465824  0.931648  0.205201  1
  Ho  Ho3  1  0.534176  0.465824  0.705201  1
  Ho  Ho4  1  0.931648  0.465824  0.705201  1
  Ho  Ho5  1  0.534176  0.068352  0.705201  1
  Ho  Ho6  1  0.000000  0.000000  0.234167  1
  Ho  Ho7  1  0.000000  0.000000  0.734167  1
  Er  Er8  1  0.171579  0.828421  0.510370  1
  Er  Er9  1  0.656843  0.828421  0.510370  1
  Er  Er10  1  0.171579  0.343157  0.510370  1
  Er  Er11  1  0.828421  0.171579  0.010370  1
  Er  Er12  1  0.343157  0.171579  0.010370  1
  Er  Er13  1  0.828421  0.656843  0.010370  1
  Er  Er14  1  0.333333  0.666667  0.839178  1
  Er  Er15  1  0.666667  0.333333  0.339178  1
  Ga  Ga16  1  0.163875  0.836125  0.957142  1
  Ga  Ga17  1  0.672251  0.836125  0.957142  1
  Ga  Ga18  1  0.163875  0.327749  0.957142  1
  Ga  Ga19  1  0.836125  0.163875  0.457142  1
  Ga  Ga20  1  0.327749  0.163875  0.457142  1
  Ga  Ga21  1  0.836125  0.672251  0.457142  1
  Os  Os22  1  0.333333  0.666667  0.445536  1
  Os  Os23  1  0.666667  0.333333  0.945536  1
