# generated using pymatgen
data_CaPr2Nd7Ru4
_symmetry_space_group_name_H-M   'P 1'
_cell_length_a   8.87707540
_cell_length_b   8.82150452
_cell_length_c   7.44299930
_cell_angle_alpha   83.33165214
_cell_angle_beta   83.81800285
_cell_angle_gamma   43.93116062
_symmetry_Int_Tables_number   1
_chemical_formula_structural   CaPr2Nd7Ru4
_chemical_formula_sum   'Ca1 Pr2 Nd7 Ru4'
_cell_volume   401.40056363
_cell_formula_units_Z   1
loop_
 _symmetry_equiv_pos_site_id
 _symmetry_equiv_pos_as_xyz
  1  'x, y, z'
loop_
 _atom_site_type_symbol
 _atom_site_label
 _atom_site_symmetry_multiplicity
 _atom_site_fract_x
 _atom_site_fract_y
 _atom_site_fract_z
 _atom_site_occupancy
  Ca  Ca0  1  0.016383  0.795274  0.918158  1
  Pr  Pr1  1  0.202811  0.980725  0.585127  1
  Pr  Pr2  1  0.982111  0.203724  0.084702  1
  Nd  Nd3  1  0.795586  0.016578  0.413282  1
  Nd  Nd4  1  0.361293  0.208418  0.814456  1
  Nd  Nd5  1  0.795872  0.637319  0.686827  1
  Nd  Nd6  1  0.638849  0.794105  0.187190  1
  Nd  Nd7  1  0.208236  0.359903  0.314927  1
  Nd  Nd8  1  0.571122  0.426762  0.752467  1
  Nd  Nd9  1  0.424576  0.575447  0.249468  1
  Ru  Ru10  1  0.183541  0.593855  0.564712  1
  Ru  Ru11  1  0.405194  0.827067  0.923051  1
  Ru  Ru12  1  0.822785  0.395795  0.425687  1
  Ru  Ru13  1  0.591643  0.185029  0.079947  1
