# generated using pymatgen
data_Pr2GaRuI
_symmetry_space_group_name_H-M   'P 1'
_cell_length_a   4.35559400
_cell_length_b   4.35559345
_cell_length_c   17.46541900
_cell_angle_alpha   90.00000000
_cell_angle_beta   90.00000000
_cell_angle_gamma   119.99998895
_symmetry_Int_Tables_number   1
_chemical_formula_structural   Pr2GaRuI
_chemical_formula_sum   'Pr4 Ga2 Ru2 I2'
_cell_volume   286.94880227
_cell_formula_units_Z   2
loop_
 _symmetry_equiv_pos_site_id
 _symmetry_equiv_pos_as_xyz
  1  'x, y, z'
loop_
 _atom_site_type_symbol
 _atom_site_label
 _atom_site_symmetry_multiplicity
 _atom_site_fract_x
 _atom_site_fract_y
 _atom_site_fract_z
 _atom_site_occupancy
  Pr  Pr0  1  0.000000  0.000000  0.605890  1
  Pr  Pr1  1  0.000000  0.000000  0.394810  1
  Pr  Pr2  1  0.000000  0.000000  0.105890  1
  Pr  Pr3  1  0.000000  0.000000  0.894810  1
  Ga  Ga4  1  0.666667  0.333333  0.000153  1
  Ga  Ga5  1  0.333333  0.666667  0.500153  1
  Ru  Ru6  1  0.666667  0.333333  0.499933  1
  Ru  Ru7  1  0.333333  0.666667  0.999933  1
  I  I8  1  0.666667  0.333333  0.249213  1
  I  I9  1  0.333333  0.666667  0.749213  1
