# generated using pymatgen
data_DyY7(Sc3Ga4)4
_symmetry_space_group_name_H-M   'P 1'
_cell_length_a   7.30013100
_cell_length_b   7.54518601
_cell_length_c   14.53738405
_cell_angle_alpha   89.99646591
_cell_angle_beta   90.00317755
_cell_angle_gamma   90.00045876
_symmetry_Int_Tables_number   1
_chemical_formula_structural   DyY7(Sc3Ga4)4
_chemical_formula_sum   'Dy1 Y7 Sc12 Ga16'
_cell_volume   800.73141350
_cell_formula_units_Z   1
loop_
 _symmetry_equiv_pos_site_id
 _symmetry_equiv_pos_as_xyz
  1  'x, y, z'
loop_
 _atom_site_type_symbol
 _atom_site_label
 _atom_site_symmetry_multiplicity
 _atom_site_fract_x
 _atom_site_fract_y
 _atom_site_fract_z
 _atom_site_occupancy
  Dy  Dy0  1  0.488143  0.677992  0.595952  1
  Y  Y1  1  0.011717  0.177663  0.095829  1
  Y  Y2  1  0.988265  0.822329  0.904204  1
  Y  Y3  1  0.488335  0.677622  0.904241  1
  Y  Y4  1  0.988226  0.822301  0.595787  1
  Y  Y5  1  0.511747  0.322374  0.095816  1
  Y  Y6  1  0.011807  0.177723  0.404216  1
  Y  Y7  1  0.511719  0.322408  0.404236  1
  Sc  Sc8  1  0.162297  0.502502  0.749925  1
  Sc  Sc9  1  0.837851  0.497504  0.249966  1
  Sc  Sc10  1  0.337852  0.002554  0.249994  1
  Sc  Sc11  1  0.662142  0.997464  0.749960  1
  Sc  Sc12  1  0.330293  0.175382  0.624106  1
  Sc  Sc13  1  0.669619  0.824531  0.375931  1
  Sc  Sc14  1  0.169727  0.675337  0.375881  1
  Sc  Sc15  1  0.669662  0.824573  0.124099  1
  Sc  Sc16  1  0.830304  0.324671  0.624080  1
  Sc  Sc17  1  0.330410  0.175354  0.875919  1
  Sc  Sc18  1  0.830282  0.324669  0.875878  1
  Sc  Sc19  1  0.169695  0.675382  0.124107  1
  Ga  Ga20  1  0.032378  0.118296  0.750035  1
  Ga  Ga21  1  0.967432  0.881715  0.250034  1
  Ga  Ga22  1  0.467485  0.618264  0.250014  1
  Ga  Ga23  1  0.532163  0.381760  0.749933  1
  Ga  Ga24  1  0.284549  0.873135  0.749835  1
  Ga  Ga25  1  0.715554  0.126610  0.250019  1
  Ga  Ga26  1  0.215556  0.373328  0.249974  1
  Ga  Ga27  1  0.784278  0.626842  0.749940  1
  Ga  Ga28  1  0.159823  0.464788  0.540254  1
  Ga  Ga29  1  0.840657  0.535380  0.459904  1
  Ga  Ga30  1  0.340600  0.964384  0.459960  1
  Ga  Ga31  1  0.840636  0.535377  0.040090  1
  Ga  Ga32  1  0.659341  0.035232  0.540219  1
  Ga  Ga33  1  0.159466  0.464466  0.959771  1
  Ga  Ga34  1  0.659434  0.035445  0.959809  1
  Ga  Ga35  1  0.340553  0.964641  0.040086  1
