# generated using pymatgen
data_Li6Ta5GeRh12
_symmetry_space_group_name_H-M   'P 1'
_cell_length_a   4.34673400
_cell_length_b   6.08532000
_cell_length_c   12.93631500
_cell_angle_alpha   90.00000443
_cell_angle_beta   89.99844721
_cell_angle_gamma   90.00000000
_symmetry_Int_Tables_number   1
_chemical_formula_structural   Li6Ta5GeRh12
_chemical_formula_sum   'Li6 Ta5 Ge1 Rh12'
_cell_volume   342.18192646
_cell_formula_units_Z   1
loop_
 _symmetry_equiv_pos_site_id
 _symmetry_equiv_pos_as_xyz
  1  'x, y, z'
loop_
 _atom_site_type_symbol
 _atom_site_label
 _atom_site_symmetry_multiplicity
 _atom_site_fract_x
 _atom_site_fract_y
 _atom_site_fract_z
 _atom_site_occupancy
  Li  Li0  1  0.999937  0.000000  0.999779  1
  Li  Li1  1  0.499600  0.500000  0.163501  1
  Li  Li2  1  0.999617  0.000000  0.333337  1
  Li  Li3  1  0.500005  0.500000  0.503146  1
  Li  Li4  1  0.000442  0.000000  0.666901  1
  Li  Li5  1  0.500344  0.500000  0.833338  1
  Ta  Ta6  1  0.000042  0.500000  0.995500  1
  Ta  Ta7  1  0.499566  0.000000  0.164740  1
  Ta  Ta8  1  0.999554  0.500000  0.333330  1
  Ta  Ta9  1  0.500008  0.000000  0.501925  1
  Ta  Ta10  1  0.000424  0.500000  0.671174  1
  Ge  Ge11  1  0.500514  0.000000  0.833301  1
  Rh  Rh12  1  0.500025  0.245711  0.995458  1
  Rh  Rh13  1  0.500025  0.754289  0.995458  1
  Rh  Rh14  1  0.999585  0.250661  0.165188  1
  Rh  Rh15  1  0.999584  0.749339  0.165188  1
  Rh  Rh16  1  0.499572  0.250030  0.333329  1
  Rh  Rh17  1  0.499572  0.749969  0.333329  1
  Rh  Rh18  1  0.999995  0.250671  0.501479  1
  Rh  Rh19  1  0.999994  0.749328  0.501479  1
  Rh  Rh20  1  0.500420  0.245712  0.671218  1
  Rh  Rh21  1  0.500420  0.754288  0.671218  1
  Rh  Rh22  1  0.000376  0.242172  0.833341  1
  Rh  Rh23  1  0.000376  0.757829  0.833341  1
