# generated using pymatgen
data_Zr6Ti4AlSb5C2
_symmetry_space_group_name_H-M   'P 1'
_cell_length_a   8.27589786
_cell_length_b   8.27589867
_cell_length_c   5.62620500
_cell_angle_alpha   90.00029326
_cell_angle_beta   90.00028771
_cell_angle_gamma   120.35824770
_symmetry_Int_Tables_number   1
_chemical_formula_structural   Zr6Ti4AlSb5C2
_chemical_formula_sum   'Zr6 Ti4 Al1 Sb5 C2'
_cell_volume   332.50436178
_cell_formula_units_Z   1
loop_
 _symmetry_equiv_pos_site_id
 _symmetry_equiv_pos_as_xyz
  1  'x, y, z'
loop_
 _atom_site_type_symbol
 _atom_site_label
 _atom_site_symmetry_multiplicity
 _atom_site_fract_x
 _atom_site_fract_y
 _atom_site_fract_z
 _atom_site_occupancy
  Zr  Zr0  1  0.770786  0.770786  0.250005  1
  Zr  Zr1  1  0.228538  0.006438  0.250001  1
  Zr  Zr2  1  0.006438  0.228538  0.250001  1
  Zr  Zr3  1  0.225115  0.225115  0.749994  1
  Zr  Zr4  1  0.774162  0.998348  0.749997  1
  Zr  Zr5  1  0.998348  0.774162  0.749997  1
  Ti  Ti6  1  0.665226  0.334338  0.496362  1
  Ti  Ti7  1  0.334338  0.665226  0.496362  1
  Ti  Ti8  1  0.334341  0.665227  0.003641  1
  Ti  Ti9  1  0.665227  0.334341  0.003641  1
  Al  Al10  1  0.411945  0.411945  0.249987  1
  Sb  Sb11  1  0.593760  0.000945  0.249990  1
  Sb  Sb12  1  0.000945  0.593760  0.249990  1
  Sb  Sb13  1  0.582905  0.582905  0.750010  1
  Sb  Sb14  1  0.408420  0.000405  0.750009  1
  Sb  Sb15  1  0.000405  0.408420  0.750009  1
  C  C16  1  0.999551  0.999551  0.499876  1
  C  C17  1  0.999549  0.999549  0.000126  1
