# generated using pymatgen
data_DyMn3NbFeP3
_symmetry_space_group_name_H-M   'P 1'
_cell_length_a   3.64184300
_cell_length_b   10.79571300
_cell_length_c   12.46658800
_cell_angle_alpha   90.00000000
_cell_angle_beta   90.00000000
_cell_angle_gamma   90.00000000
_symmetry_Int_Tables_number   1
_chemical_formula_structural   DyMn3NbFeP3
_chemical_formula_sum   'Dy4 Mn12 Nb4 Fe4 P12'
_cell_volume   490.14001180
_cell_formula_units_Z   4
loop_
 _symmetry_equiv_pos_site_id
 _symmetry_equiv_pos_as_xyz
  1  'x, y, z'
loop_
 _atom_site_type_symbol
 _atom_site_label
 _atom_site_symmetry_multiplicity
 _atom_site_fract_x
 _atom_site_fract_y
 _atom_site_fract_z
 _atom_site_occupancy
  Dy  Dy0  1  0.250000  0.585510  0.710944  1
  Dy  Dy1  1  0.250000  0.914490  0.210944  1
  Dy  Dy2  1  0.750000  0.414490  0.289056  1
  Dy  Dy3  1  0.750000  0.085510  0.789056  1
  Mn  Mn4  1  0.250000  0.409594  0.492390  1
  Mn  Mn5  1  0.250000  0.090406  0.992390  1
  Mn  Mn6  1  0.750000  0.590406  0.507610  1
  Mn  Mn7  1  0.750000  0.909594  0.007610  1
  Mn  Mn8  1  0.250000  0.215610  0.175223  1
  Mn  Mn9  1  0.250000  0.284390  0.675223  1
  Mn  Mn10  1  0.750000  0.784390  0.824777  1
  Mn  Mn11  1  0.750000  0.715610  0.324777  1
  Mn  Mn12  1  0.250000  0.879855  0.700695  1
  Mn  Mn13  1  0.250000  0.620145  0.200695  1
  Mn  Mn14  1  0.750000  0.120145  0.299305  1
  Mn  Mn15  1  0.750000  0.379855  0.799305  1
  Nb  Nb16  1  0.250000  0.705442  0.987460  1
  Nb  Nb17  1  0.250000  0.794558  0.487460  1
  Nb  Nb18  1  0.750000  0.294558  0.012540  1
  Nb  Nb19  1  0.750000  0.205442  0.512540  1
  Fe  Fe20  1  0.250000  0.463042  0.932341  1
  Fe  Fe21  1  0.250000  0.036958  0.432341  1
  Fe  Fe22  1  0.750000  0.536958  0.067659  1
  Fe  Fe23  1  0.750000  0.963042  0.567659  1
  P  P24  1  0.250000  0.427564  0.112138  1
  P  P25  1  0.250000  0.072436  0.612138  1
  P  P26  1  0.750000  0.572436  0.887862  1
  P  P27  1  0.750000  0.927564  0.387862  1
  P  P28  1  0.250000  0.266993  0.864073  1
  P  P29  1  0.250000  0.233007  0.364073  1
  P  P30  1  0.750000  0.733007  0.135927  1
  P  P31  1  0.750000  0.766993  0.635927  1
  P  P32  1  0.250000  0.586657  0.384419  1
  P  P33  1  0.250000  0.913343  0.884419  1
  P  P34  1  0.750000  0.413343  0.615581  1
  P  P35  1  0.750000  0.086657  0.115581  1
