# generated using pymatgen
data_Pr5SnBi2Br
_symmetry_space_group_name_H-M   'P 1'
_cell_length_a   9.74322900
_cell_length_b   9.67489784
_cell_length_c   6.78440300
_cell_angle_alpha   90.00000000
_cell_angle_beta   90.00000000
_cell_angle_gamma   120.23390600
_symmetry_Int_Tables_number   1
_chemical_formula_structural   Pr5SnBi2Br
_chemical_formula_sum   'Pr10 Sn2 Bi4 Br2'
_cell_volume   552.53921429
_cell_formula_units_Z   2
loop_
 _symmetry_equiv_pos_site_id
 _symmetry_equiv_pos_as_xyz
  1  'x, y, z'
loop_
 _atom_site_type_symbol
 _atom_site_label
 _atom_site_symmetry_multiplicity
 _atom_site_fract_x
 _atom_site_fract_y
 _atom_site_fract_z
 _atom_site_occupancy
  Pr  Pr0  1  0.275672  0.000000  0.750000  1
  Pr  Pr1  1  0.724328  0.000000  0.250000  1
  Pr  Pr2  1  0.995126  0.266571  0.750000  1
  Pr  Pr3  1  0.004874  0.733429  0.250000  1
  Pr  Pr4  1  0.728555  0.733429  0.750000  1
  Pr  Pr5  1  0.271445  0.266571  0.250000  1
  Pr  Pr6  1  0.335757  0.671515  0.500000  1
  Pr  Pr7  1  0.664243  0.328485  0.500000  1
  Pr  Pr8  1  0.664243  0.328485  0.000000  1
  Pr  Pr9  1  0.335757  0.671515  0.000000  1
  Sn  Sn10  1  0.614509  0.000000  0.750000  1
  Sn  Sn11  1  0.385491  0.000000  0.250000  1
  Bi  Bi12  1  0.999184  0.616015  0.750000  1
  Bi  Bi13  1  0.000816  0.383985  0.250000  1
  Bi  Bi14  1  0.383169  0.383985  0.750000  1
  Bi  Bi15  1  0.616831  0.616015  0.250000  1
  Br  Br16  1  0.000000  0.000000  0.500000  1
  Br  Br17  1  0.000000  0.000000  0.000000  1
