# generated using pymatgen
data_YFe2NiP2
_symmetry_space_group_name_H-M   'P 1'
_cell_length_a   3.74811600
_cell_length_b   10.59303700
_cell_length_c   12.11353600
_cell_angle_alpha   90.00000000
_cell_angle_beta   90.00000000
_cell_angle_gamma   90.00000000
_symmetry_Int_Tables_number   1
_chemical_formula_structural   YFe2NiP2
_chemical_formula_sum   'Y6 Fe12 Ni6 P12'
_cell_volume   480.95500318
_cell_formula_units_Z   6
loop_
 _symmetry_equiv_pos_site_id
 _symmetry_equiv_pos_as_xyz
  1  'x, y, z'
loop_
 _atom_site_type_symbol
 _atom_site_label
 _atom_site_symmetry_multiplicity
 _atom_site_fract_x
 _atom_site_fract_y
 _atom_site_fract_z
 _atom_site_occupancy
  Y  Y0  1  0.000000  0.500000  0.521741  1
  Y  Y1  1  0.500000  0.000000  0.478259  1
  Y  Y2  1  0.500000  0.819260  0.204196  1
  Y  Y3  1  0.500000  0.180740  0.204196  1
  Y  Y4  1  0.000000  0.680740  0.795804  1
  Y  Y5  1  0.000000  0.319260  0.795804  1
  Fe  Fe6  1  0.500000  0.500000  0.155113  1
  Fe  Fe7  1  0.000000  0.000000  0.844887  1
  Fe  Fe8  1  0.000000  0.500000  0.989096  1
  Fe  Fe9  1  0.500000  0.000000  0.010904  1
  Fe  Fe10  1  0.500000  0.333383  0.997152  1
  Fe  Fe11  1  0.500000  0.666617  0.997152  1
  Fe  Fe12  1  0.000000  0.166617  0.002848  1
  Fe  Fe13  1  0.000000  0.833383  0.002848  1
  Fe  Fe14  1  0.500000  0.297411  0.427346  1
  Fe  Fe15  1  0.500000  0.702589  0.427346  1
  Fe  Fe16  1  0.000000  0.202589  0.572654  1
  Fe  Fe17  1  0.000000  0.797411  0.572654  1
  Ni  Ni18  1  0.500000  0.500000  0.703153  1
  Ni  Ni19  1  0.000000  0.000000  0.296847  1
  Ni  Ni20  1  0.500000  0.879257  0.711800  1
  Ni  Ni21  1  0.500000  0.120743  0.711800  1
  Ni  Ni22  1  0.000000  0.620743  0.288200  1
  Ni  Ni23  1  0.000000  0.379257  0.288200  1
  P  P24  1  0.500000  0.500000  0.888457  1
  P  P25  1  0.000000  0.000000  0.111543  1
  P  P26  1  0.500000  0.500000  0.345770  1
  P  P27  1  0.000000  0.000000  0.654230  1
  P  P28  1  0.500000  0.308825  0.611537  1
  P  P29  1  0.500000  0.691175  0.611537  1
  P  P30  1  0.000000  0.191175  0.388463  1
  P  P31  1  0.000000  0.808825  0.388463  1
  P  P32  1  0.500000  0.842999  0.898017  1
  P  P33  1  0.500000  0.157001  0.898017  1
  P  P34  1  0.000000  0.657001  0.101983  1
  P  P35  1  0.000000  0.342999  0.101983  1
