# generated using pymatgen
data_YZr(Ga2Pd)2
_symmetry_space_group_name_H-M   'P 1'
_cell_length_a   5.50590383
_cell_length_b   5.50590353
_cell_length_c   6.47495000
_cell_angle_alpha   90.00000000
_cell_angle_beta   90.00000000
_cell_angle_gamma   133.10477370
_symmetry_Int_Tables_number   1
_chemical_formula_structural   YZr(Ga2Pd)2
_chemical_formula_sum   'Y1 Zr1 Ga4 Pd2'
_cell_volume   143.31088141
_cell_formula_units_Z   1
loop_
 _symmetry_equiv_pos_site_id
 _symmetry_equiv_pos_as_xyz
  1  'x, y, z'
loop_
 _atom_site_type_symbol
 _atom_site_label
 _atom_site_symmetry_multiplicity
 _atom_site_fract_x
 _atom_site_fract_y
 _atom_site_fract_z
 _atom_site_occupancy
  Y  Y0  1  0.416542  0.583458  0.750000  1
  Zr  Zr1  1  0.587624  0.412376  0.250000  1
  Ga  Ga2  1  0.872178  0.127822  0.446024  1
  Ga  Ga3  1  0.123893  0.876107  0.542438  1
  Ga  Ga4  1  0.872178  0.127822  0.053976  1
  Ga  Ga5  1  0.123893  0.876107  0.957562  1
  Pd  Pd6  1  0.300366  0.699634  0.250000  1
  Pd  Pd7  1  0.703326  0.296674  0.750000  1
