# generated using pymatgen
data_Tb3Fe2Co7P6
_symmetry_space_group_name_H-M   'P 1'
_cell_length_a   3.70850200
_cell_length_b   10.56942500
_cell_length_c   12.14054000
_cell_angle_alpha   90.00000000
_cell_angle_beta   90.00000000
_cell_angle_gamma   90.00000000
_symmetry_Int_Tables_number   1
_chemical_formula_structural   Tb3Fe2Co7P6
_chemical_formula_sum   'Tb6 Fe4 Co14 P12'
_cell_volume   475.86951398
_cell_formula_units_Z   2
loop_
 _symmetry_equiv_pos_site_id
 _symmetry_equiv_pos_as_xyz
  1  'x, y, z'
loop_
 _atom_site_type_symbol
 _atom_site_label
 _atom_site_symmetry_multiplicity
 _atom_site_fract_x
 _atom_site_fract_y
 _atom_site_fract_z
 _atom_site_occupancy
  Tb  Tb0  1  0.000000  0.500000  0.522490  1
  Tb  Tb1  1  0.500000  0.000000  0.477510  1
  Tb  Tb2  1  0.500000  0.819092  0.204094  1
  Tb  Tb3  1  0.500000  0.180908  0.204094  1
  Tb  Tb4  1  0.000000  0.680908  0.795906  1
  Tb  Tb5  1  0.000000  0.319092  0.795906  1
  Fe  Fe6  1  0.500000  0.500000  0.155417  1
  Fe  Fe7  1  0.000000  0.000000  0.844583  1
  Fe  Fe8  1  0.000000  0.500000  0.988764  1
  Fe  Fe9  1  0.500000  0.000000  0.011236  1
  Co  Co10  1  0.500000  0.500000  0.701132  1
  Co  Co11  1  0.000000  0.000000  0.298868  1
  Co  Co12  1  0.500000  0.331876  0.994680  1
  Co  Co13  1  0.500000  0.668124  0.994680  1
  Co  Co14  1  0.000000  0.168124  0.005320  1
  Co  Co15  1  0.000000  0.831876  0.005320  1
  Co  Co16  1  0.500000  0.296551  0.430345  1
  Co  Co17  1  0.500000  0.703449  0.430345  1
  Co  Co18  1  0.000000  0.203449  0.569655  1
  Co  Co19  1  0.000000  0.796551  0.569655  1
  Co  Co20  1  0.500000  0.879342  0.709350  1
  Co  Co21  1  0.500000  0.120658  0.709350  1
  Co  Co22  1  0.000000  0.620658  0.290650  1
  Co  Co23  1  0.000000  0.379342  0.290650  1
  P  P24  1  0.500000  0.500000  0.885012  1
  P  P25  1  0.000000  0.000000  0.114988  1
  P  P26  1  0.500000  0.500000  0.341182  1
  P  P27  1  0.000000  0.000000  0.658818  1
  P  P28  1  0.500000  0.309390  0.616283  1
  P  P29  1  0.500000  0.690610  0.616283  1
  P  P30  1  0.000000  0.190610  0.383717  1
  P  P31  1  0.000000  0.809390  0.383717  1
  P  P32  1  0.500000  0.847632  0.893728  1
  P  P33  1  0.500000  0.152368  0.893728  1
  P  P34  1  0.000000  0.652368  0.106272  1
  P  P35  1  0.000000  0.347632  0.106272  1
