# generated using pymatgen
data_Tm3Lu5Tc2(B12Ir)2
_symmetry_space_group_name_H-M   'P 1'
_cell_length_a   3.61308300
_cell_length_b   9.04859015
_cell_length_c   11.42825539
_cell_angle_alpha   90.23505292
_cell_angle_beta   90.00000000
_cell_angle_gamma   90.00000000
_symmetry_Int_Tables_number   1
_chemical_formula_structural   Tm3Lu5Tc2(B12Ir)2
_chemical_formula_sum   'Tm3 Lu5 Tc2 B24 Ir2'
_cell_volume   373.62432038
_cell_formula_units_Z   1
loop_
 _symmetry_equiv_pos_site_id
 _symmetry_equiv_pos_as_xyz
  1  'x, y, z'
loop_
 _atom_site_type_symbol
 _atom_site_label
 _atom_site_symmetry_multiplicity
 _atom_site_fract_x
 _atom_site_fract_y
 _atom_site_fract_z
 _atom_site_occupancy
  Tm  Tm0  1  0.500000  0.316374  0.410321  1
  Tm  Tm1  1  0.500000  0.683578  0.589652  1
  Tm  Tm2  1  0.500000  0.173997  0.917863  1
  Lu  Lu3  1  0.500000  0.826230  0.081793  1
  Lu  Lu4  1  0.500000  0.441374  0.125889  1
  Lu  Lu5  1  0.500000  0.558810  0.874268  1
  Lu  Lu6  1  0.500000  0.052848  0.627954  1
  Lu  Lu7  1  0.500000  0.947019  0.372017  1
  Tc  Tc8  1  0.500000  0.138662  0.180560  1
  Tc  Tc9  1  0.500000  0.860974  0.819522  1
  B  B10  1  0.000000  0.105215  0.471731  1
  B  B11  1  0.000000  0.894707  0.528235  1
  B  B12  1  0.000000  0.395226  0.970851  1
  B  B13  1  0.000000  0.605314  0.029335  1
  B  B14  1  0.000000  0.131471  0.315792  1
  B  B15  1  0.000000  0.868363  0.684191  1
  B  B16  1  0.000000  0.368554  0.817155  1
  B  B17  1  0.000000  0.631849  0.182695  1
  B  B18  1  0.000000  0.053219  0.066855  1
  B  B19  1  0.000000  0.946312  0.933413  1
  B  B20  1  0.000000  0.445574  0.565519  1
  B  B21  1  0.000000  0.554496  0.434419  1
  B  B22  1  0.000000  0.481993  0.286849  1
  B  B23  1  0.000000  0.518150  0.713127  1
  B  B24  1  0.000000  0.017831  0.786717  1
  B  B25  1  0.000000  0.981712  0.213204  1
  B  B26  1  0.000000  0.249068  0.080528  1
  B  B27  1  0.000000  0.750927  0.919896  1
  B  B28  1  0.000000  0.248971  0.578745  1
  B  B29  1  0.000000  0.751003  0.421160  1
  B  B30  1  0.000000  0.293576  0.235020  1
  B  B31  1  0.000000  0.706383  0.765105  1
  B  B32  1  0.000000  0.207577  0.734873  1
  B  B33  1  0.000000  0.792526  0.264862  1
  Ir  Ir34  1  0.500000  0.362548  0.678456  1
  Ir  Ir35  1  0.500000  0.637571  0.321430  1
