# generated using pymatgen
data_Ta8FeRhS16
_symmetry_space_group_name_H-M   'P 1'
_cell_length_a   6.63575000
_cell_length_b   6.63574857
_cell_length_c   11.94680300
_cell_angle_alpha   90.00000000
_cell_angle_beta   90.00000000
_cell_angle_gamma   119.99999716
_symmetry_Int_Tables_number   1
_chemical_formula_structural   Ta8FeRhS16
_chemical_formula_sum   'Ta8 Fe1 Rh1 S16'
_cell_volume   455.57751820
_cell_formula_units_Z   1
loop_
 _symmetry_equiv_pos_site_id
 _symmetry_equiv_pos_as_xyz
  1  'x, y, z'
loop_
 _atom_site_type_symbol
 _atom_site_label
 _atom_site_symmetry_multiplicity
 _atom_site_fract_x
 _atom_site_fract_y
 _atom_site_fract_z
 _atom_site_occupancy
  Ta  Ta0  1  0.493029  0.986058  0.754262  1
  Ta  Ta1  1  0.506971  0.013942  0.245738  1
  Ta  Ta2  1  0.986058  0.493029  0.245738  1
  Ta  Ta3  1  0.493029  0.506971  0.754262  1
  Ta  Ta4  1  0.506971  0.493029  0.245738  1
  Ta  Ta5  1  0.013942  0.506971  0.754262  1
  Ta  Ta6  1  0.000000  0.000000  0.246574  1
  Ta  Ta7  1  0.000000  0.000000  0.753426  1
  Fe  Fe8  1  0.000000  0.000000  0.000000  1
  Rh  Rh9  1  0.000000  0.000000  0.500000  1
  S  S10  1  0.164353  0.835647  0.114930  1
  S  S11  1  0.663179  0.831589  0.377003  1
  S  S12  1  0.666667  0.333333  0.382038  1
  S  S13  1  0.835647  0.164353  0.885070  1
  S  S14  1  0.671295  0.835647  0.114930  1
  S  S15  1  0.328705  0.164353  0.885070  1
  S  S16  1  0.666667  0.333333  0.109949  1
  S  S17  1  0.831589  0.663179  0.622997  1
  S  S18  1  0.336821  0.168411  0.622997  1
  S  S19  1  0.168411  0.336821  0.377003  1
  S  S20  1  0.164353  0.328705  0.114930  1
  S  S21  1  0.835647  0.671295  0.885070  1
  S  S22  1  0.831589  0.168411  0.622997  1
  S  S23  1  0.168411  0.831589  0.377003  1
  S  S24  1  0.333333  0.666667  0.890051  1
  S  S25  1  0.333333  0.666667  0.617962  1
