# generated using pymatgen
data_KTmSnI6
_symmetry_space_group_name_H-M   'P 1'
_cell_length_a   8.80320827
_cell_length_b   8.80335130
_cell_length_c   8.80331567
_cell_angle_alpha   54.95128494
_cell_angle_beta   54.95054925
_cell_angle_gamma   54.95021017
_symmetry_Int_Tables_number   1
_chemical_formula_structural   KTmSnI6
_chemical_formula_sum   'K1 Tm1 Sn1 I6'
_cell_volume   425.72778598
_cell_formula_units_Z   1
loop_
 _symmetry_equiv_pos_site_id
 _symmetry_equiv_pos_as_xyz
  1  'x, y, z'
loop_
 _atom_site_type_symbol
 _atom_site_label
 _atom_site_symmetry_multiplicity
 _atom_site_fract_x
 _atom_site_fract_y
 _atom_site_fract_z
 _atom_site_occupancy
  K  K0  1  0.670186  0.670161  0.670161  1
  Tm  Tm1  1  0.999517  0.999517  0.999503  1
  Sn  Sn2  1  0.331409  0.331402  0.331402  1
  I  I3  1  0.210430  0.609694  0.941640  1
  I  I4  1  0.609692  0.941649  0.210441  1
  I  I5  1  0.941638  0.210445  0.609687  1
  I  I6  1  0.761530  0.360949  0.114661  1
  I  I7  1  0.360960  0.114653  0.761535  1
  I  I8  1  0.114640  0.761529  0.360969  1
