# generated using pymatgen
data_Nd16HoLu3Sn16
_symmetry_space_group_name_H-M   'P 1'
_cell_length_a   8.19634801
_cell_length_b   8.38896001
_cell_length_c   15.87981300
_cell_angle_alpha   90.00000000
_cell_angle_beta   90.00000000
_cell_angle_gamma   90.00412496
_symmetry_Int_Tables_number   1
_chemical_formula_structural   Nd16HoLu3Sn16
_chemical_formula_sum   'Nd16 Ho1 Lu3 Sn16'
_cell_volume   1091.87744871
_cell_formula_units_Z   1
loop_
 _symmetry_equiv_pos_site_id
 _symmetry_equiv_pos_as_xyz
  1  'x, y, z'
loop_
 _atom_site_type_symbol
 _atom_site_label
 _atom_site_symmetry_multiplicity
 _atom_site_fract_x
 _atom_site_fract_y
 _atom_site_fract_z
 _atom_site_occupancy
  Nd  Nd0  1  0.018014  0.180549  0.402014  1
  Nd  Nd1  1  0.365865  0.838530  0.121164  1
  Nd  Nd2  1  0.134389  0.338309  0.621340  1
  Nd  Nd3  1  0.481762  0.680702  0.901909  1
  Nd  Nd4  1  0.865166  0.662048  0.121143  1
  Nd  Nd5  1  0.134389  0.338309  0.878660  1
  Nd  Nd6  1  0.481762  0.680702  0.598091  1
  Nd  Nd7  1  0.634384  0.161770  0.621247  1
  Nd  Nd8  1  0.865166  0.662048  0.378857  1
  Nd  Nd9  1  0.018014  0.180549  0.097986  1
  Nd  Nd10  1  0.981829  0.819255  0.901978  1
  Nd  Nd11  1  0.634384  0.161770  0.878753  1
  Nd  Nd12  1  0.518398  0.319152  0.097969  1
  Nd  Nd13  1  0.365865  0.838530  0.378836  1
  Nd  Nd14  1  0.981829  0.819255  0.598022  1
  Nd  Nd15  1  0.518398  0.319152  0.402031  1
  Ho  Ho16  1  0.197700  0.501978  0.250000  1
  Lu  Lu17  1  0.698376  0.997756  0.250000  1
  Lu  Lu18  1  0.301775  0.002056  0.750000  1
  Lu  Lu19  1  0.801759  0.497859  0.750000  1
  Sn  Sn20  1  0.793388  0.465369  0.544908  1
  Sn  Sn21  1  0.706664  0.965254  0.455206  1
  Sn  Sn22  1  0.675545  0.851298  0.750000  1
  Sn  Sn23  1  0.206614  0.534803  0.455584  1
  Sn  Sn24  1  0.293332  0.034716  0.955081  1
  Sn  Sn25  1  0.824269  0.351075  0.250000  1
  Sn  Sn26  1  0.793388  0.465369  0.955092  1
  Sn  Sn27  1  0.562636  0.615872  0.250000  1
  Sn  Sn28  1  0.206614  0.534803  0.044416  1
  Sn  Sn29  1  0.438440  0.384307  0.750000  1
  Sn  Sn30  1  0.175454  0.648902  0.750000  1
  Sn  Sn31  1  0.938331  0.115575  0.750000  1
  Sn  Sn32  1  0.293332  0.034716  0.544919  1
  Sn  Sn33  1  0.706664  0.965254  0.044794  1
  Sn  Sn34  1  0.324554  0.147811  0.250000  1
  Sn  Sn35  1  0.061551  0.884596  0.250000  1
