# generated using pymatgen
data_Lu12MgFe3Au
_symmetry_space_group_name_H-M   'P 1'
_cell_length_a   8.12165729
_cell_length_b   8.12109890
_cell_length_c   8.12165708
_cell_angle_alpha   109.49347169
_cell_angle_beta   107.30086132
_cell_angle_gamma   111.65145612
_symmetry_Int_Tables_number   1
_chemical_formula_structural   Lu12MgFe3Au
_chemical_formula_sum   'Lu12 Mg1 Fe3 Au1'
_cell_volume   411.75628579
_cell_formula_units_Z   1
loop_
 _symmetry_equiv_pos_site_id
 _symmetry_equiv_pos_as_xyz
  1  'x, y, z'
loop_
 _atom_site_type_symbol
 _atom_site_label
 _atom_site_symmetry_multiplicity
 _atom_site_fract_x
 _atom_site_fract_y
 _atom_site_fract_z
 _atom_site_occupancy
  Lu  Lu0  1  0.306916  0.311718  0.618630  1
  Lu  Lu1  1  0.693084  0.688282  0.381370  1
  Lu  Lu2  1  0.693089  0.311718  0.004802  1
  Lu  Lu3  1  0.306911  0.688282  0.995198  1
  Lu  Lu4  1  0.192325  0.446225  0.253901  1
  Lu  Lu5  1  0.807675  0.553775  0.746099  1
  Lu  Lu6  1  0.192312  0.938419  0.746106  1
  Lu  Lu7  1  0.962706  0.187658  0.775016  1
  Lu  Lu8  1  0.807688  0.061581  0.253894  1
  Lu  Lu9  1  0.037294  0.812342  0.224984  1
  Lu  Lu10  1  0.412642  0.187658  0.224950  1
  Lu  Lu11  1  0.587358  0.812342  0.775050  1
  Mg  Mg12  1  0.500000  0.000000  0.500000  1
  Fe  Fe13  1  0.380534  0.380543  0.000009  1
  Fe  Fe14  1  0.619466  0.619457  0.999991  1
  Fe  Fe15  1  0.000000  0.000000  0.000000  1
  Au  Au16  1  0.000000  0.500000  0.500000  1
