# generated using pymatgen
data_Tb3HoTm4(ReB6)4
_symmetry_space_group_name_H-M   'P 1'
_cell_length_a   3.66400200
_cell_length_b   9.13902700
_cell_length_c   11.53175900
_cell_angle_alpha   90.00094848
_cell_angle_beta   90.00000000
_cell_angle_gamma   90.00000000
_symmetry_Int_Tables_number   1
_chemical_formula_structural   Tb3HoTm4(ReB6)4
_chemical_formula_sum   'Tb3 Ho1 Tm4 Re4 B24'
_cell_volume   386.14571508
_cell_formula_units_Z   1
loop_
 _symmetry_equiv_pos_site_id
 _symmetry_equiv_pos_as_xyz
  1  'x, y, z'
loop_
 _atom_site_type_symbol
 _atom_site_label
 _atom_site_symmetry_multiplicity
 _atom_site_fract_x
 _atom_site_fract_y
 _atom_site_fract_z
 _atom_site_occupancy
  Tb  Tb0  1  0.000000  0.323230  0.413884  1
  Tb  Tb1  1  0.000000  0.676744  0.586130  1
  Tb  Tb2  1  0.000000  0.823254  0.086086  1
  Ho  Ho3  1  0.000000  0.176632  0.913902  1
  Tm  Tm4  1  0.000000  0.943334  0.370122  1
  Tm  Tm5  1  0.000000  0.056721  0.629936  1
  Tm  Tm6  1  0.000000  0.443256  0.129724  1
  Tm  Tm7  1  0.000000  0.556586  0.870218  1
  Re  Re8  1  0.000000  0.639179  0.320189  1
  Re  Re9  1  0.000000  0.360657  0.680021  1
  Re  Re10  1  0.000000  0.139170  0.179523  1
  Re  Re11  1  0.000000  0.861121  0.820272  1
  B  B12  1  0.500000  0.553684  0.432494  1
  B  B13  1  0.500000  0.446276  0.567536  1
  B  B14  1  0.500000  0.053767  0.067214  1
  B  B15  1  0.500000  0.946649  0.932547  1
  B  B16  1  0.500000  0.750188  0.418289  1
  B  B17  1  0.500000  0.249826  0.581769  1
  B  B18  1  0.500000  0.250145  0.081327  1
  B  B19  1  0.500000  0.749885  0.918271  1
  B  B20  1  0.500000  0.792622  0.265673  1
  B  B21  1  0.500000  0.207229  0.734588  1
  B  B22  1  0.500000  0.292622  0.234259  1
  B  B23  1  0.500000  0.707376  0.765709  1
  B  B24  1  0.500000  0.630377  0.185371  1
  B  B25  1  0.500000  0.369361  0.814845  1
  B  B26  1  0.500000  0.130407  0.314599  1
  B  B27  1  0.500000  0.869666  0.685437  1
  B  B28  1  0.500000  0.982277  0.212484  1
  B  B29  1  0.500000  0.018143  0.787660  1
  B  B30  1  0.500000  0.482222  0.287441  1
  B  B31  1  0.500000  0.517731  0.712572  1
  B  B32  1  0.500000  0.598744  0.027511  1
  B  B33  1  0.500000  0.400889  0.972377  1
  B  B34  1  0.500000  0.098726  0.472495  1
  B  B35  1  0.500000  0.901304  0.527525  1
