# generated using pymatgen
data_Tb15HoCdIn3Rh4
_symmetry_space_group_name_H-M   'P 1'
_cell_length_a   9.70341789
_cell_length_b   9.69015615
_cell_length_c   9.69620500
_cell_angle_alpha   59.97934520
_cell_angle_beta   60.02458288
_cell_angle_gamma   59.99447400
_symmetry_Int_Tables_number   1
_chemical_formula_structural   Tb15HoCdIn3Rh4
_chemical_formula_sum   'Tb15 Ho1 Cd1 In3 Rh4'
_cell_volume   644.66919281
_cell_formula_units_Z   1
loop_
 _symmetry_equiv_pos_site_id
 _symmetry_equiv_pos_as_xyz
  1  'x, y, z'
loop_
 _atom_site_type_symbol
 _atom_site_label
 _atom_site_symmetry_multiplicity
 _atom_site_fract_x
 _atom_site_fract_y
 _atom_site_fract_z
 _atom_site_occupancy
  Tb  Tb0  1  0.937007  0.934712  0.564140  1
  Tb  Tb1  1  0.563109  0.560388  0.938251  1
  Tb  Tb2  1  0.690295  0.690475  0.309616  1
  Tb  Tb3  1  0.148699  0.549822  0.150739  1
  Tb  Tb4  1  0.688639  0.312460  0.688151  1
  Tb  Tb5  1  0.150854  0.150152  0.152298  1
  Tb  Tb6  1  0.549212  0.148781  0.151003  1
  Tb  Tb7  1  0.688639  0.312460  0.310749  1
  Tb  Tb8  1  0.150854  0.150152  0.546694  1
  Tb  Tb9  1  0.310966  0.690131  0.309232  1
  Tb  Tb10  1  0.310966  0.690131  0.689672  1
  Tb  Tb11  1  0.937402  0.560471  0.565286  1
  Tb  Tb12  1  0.937402  0.560471  0.936840  1
  Tb  Tb13  1  0.562656  0.936416  0.563516  1
  Tb  Tb14  1  0.562656  0.936416  0.937412  1
  Ho  Ho15  1  0.311779  0.310831  0.688694  1
  Cd  Cd16  1  0.919138  0.245499  0.917681  1
  In  In17  1  0.917753  0.919683  0.245787  1
  In  In18  1  0.245658  0.920522  0.916910  1
  In  In19  1  0.917753  0.919683  0.916779  1
  Rh  Rh20  1  0.357090  0.358028  0.926810  1
  Rh  Rh21  1  0.358256  0.925845  0.357949  1
  Rh  Rh22  1  0.926125  0.358434  0.357720  1
  Rh  Rh23  1  0.357090  0.358028  0.358072  1
