# generated using pymatgen
data_Hf12Zr6Re8NiIr
_symmetry_space_group_name_H-M   'P 1'
_cell_length_a   8.67062500
_cell_length_b   8.67106085
_cell_length_c   8.48364600
_cell_angle_alpha   90.00000000
_cell_angle_beta   90.00000000
_cell_angle_gamma   119.99962959
_symmetry_Int_Tables_number   1
_chemical_formula_structural   Hf12Zr6Re8NiIr
_chemical_formula_sum   'Hf12 Zr6 Re8 Ni1 Ir1'
_cell_volume   552.37934193
_cell_formula_units_Z   1
loop_
 _symmetry_equiv_pos_site_id
 _symmetry_equiv_pos_as_xyz
  1  'x, y, z'
loop_
 _atom_site_type_symbol
 _atom_site_label
 _atom_site_symmetry_multiplicity
 _atom_site_fract_x
 _atom_site_fract_y
 _atom_site_fract_z
 _atom_site_occupancy
  Hf  Hf0  1  0.194761  0.805245  0.445125  1
  Hf  Hf1  1  0.194757  0.389514  0.445123  1
  Hf  Hf2  1  0.610488  0.805242  0.445126  1
  Hf  Hf3  1  0.802951  0.197039  0.558183  1
  Hf  Hf4  1  0.802959  0.605916  0.558182  1
  Hf  Hf5  1  0.394081  0.197039  0.558181  1
  Hf  Hf6  1  0.802951  0.197039  0.941817  1
  Hf  Hf7  1  0.802959  0.605916  0.941818  1
  Hf  Hf8  1  0.394081  0.197039  0.941819  1
  Hf  Hf9  1  0.194761  0.805245  0.054875  1
  Hf  Hf10  1  0.194757  0.389514  0.054877  1
  Hf  Hf11  1  0.610488  0.805242  0.054874  1
  Zr  Zr12  1  0.542069  0.457934  0.250000  1
  Zr  Zr13  1  0.542066  0.084131  0.250000  1
  Zr  Zr14  1  0.915865  0.457936  0.250000  1
  Zr  Zr15  1  0.458718  0.541294  0.750000  1
  Zr  Zr16  1  0.458717  0.917421  0.750000  1
  Zr  Zr17  1  0.082583  0.541295  0.750000  1
  Re  Re18  1  0.890527  0.109476  0.250000  1
  Re  Re19  1  0.890509  0.781036  0.250000  1
  Re  Re20  1  0.218955  0.109474  0.250000  1
  Re  Re21  1  0.108955  0.891037  0.750000  1
  Re  Re22  1  0.108962  0.217928  0.750000  1
  Re  Re23  1  0.782081  0.891046  0.750000  1
  Re  Re24  1  0.000001  0.000002  0.499719  1
  Re  Re25  1  0.000001  0.000002  0.000281  1
  Ni  Ni26  1  0.666673  0.333330  0.750000  1
  Ir  Ir27  1  0.333326  0.666668  0.250000  1
