# generated using pymatgen
data_Y17Mg3(IrPt2)4
_symmetry_space_group_name_H-M   'P 1'
_cell_length_a   10.89995700
_cell_length_b   10.89995700
_cell_length_c   6.28855000
_cell_angle_alpha   90.00000000
_cell_angle_beta   90.00000000
_cell_angle_gamma   90.00000000
_symmetry_Int_Tables_number   1
_chemical_formula_structural   Y17Mg3(IrPt2)4
_chemical_formula_sum   'Y17 Mg3 Ir4 Pt8'
_cell_volume   747.13673062
_cell_formula_units_Z   1
loop_
 _symmetry_equiv_pos_site_id
 _symmetry_equiv_pos_as_xyz
  1  'x, y, z'
loop_
 _atom_site_type_symbol
 _atom_site_label
 _atom_site_symmetry_multiplicity
 _atom_site_fract_x
 _atom_site_fract_y
 _atom_site_fract_z
 _atom_site_occupancy
  Y  Y0  1  0.286996  0.087227  0.379197  1
  Y  Y1  1  0.287605  0.916508  0.875840  1
  Y  Y2  1  0.712395  0.083492  0.875840  1
  Y  Y3  1  0.713004  0.912773  0.379197  1
  Y  Y4  1  0.584950  0.786977  0.875335  1
  Y  Y5  1  0.589031  0.205878  0.376473  1
  Y  Y6  1  0.410969  0.794122  0.376473  1
  Y  Y7  1  0.415050  0.213023  0.875335  1
  Y  Y8  1  0.205878  0.410969  0.623527  1
  Y  Y9  1  0.213023  0.584950  0.124665  1
  Y  Y10  1  0.786977  0.415050  0.124665  1
  Y  Y11  1  0.794122  0.589031  0.623527  1
  Y  Y12  1  0.916508  0.712395  0.124160  1
  Y  Y13  1  0.912773  0.286996  0.620803  1
  Y  Y14  1  0.087227  0.713004  0.620803  1
  Y  Y15  1  0.083492  0.287605  0.124160  1
  Y  Y16  1  0.500000  0.500000  0.500000  1
  Mg  Mg17  1  0.000000  0.000000  0.500000  1
  Mg  Mg18  1  0.000000  0.000000  0.000000  1
  Mg  Mg19  1  0.500000  0.500000  0.000000  1
  Ir  Ir20  1  0.500000  0.000000  0.121540  1
  Ir  Ir21  1  0.500000  0.000000  0.624422  1
  Ir  Ir22  1  0.000000  0.500000  0.878460  1
  Ir  Ir23  1  0.000000  0.500000  0.375578  1
  Pt  Pt24  1  0.849975  0.150532  0.247208  1
  Pt  Pt25  1  0.849468  0.849975  0.752792  1
  Pt  Pt26  1  0.150532  0.150025  0.752792  1
  Pt  Pt27  1  0.150025  0.849468  0.247208  1
  Pt  Pt28  1  0.655515  0.347754  0.749011  1
  Pt  Pt29  1  0.652246  0.655515  0.250989  1
  Pt  Pt30  1  0.347754  0.344485  0.250989  1
  Pt  Pt31  1  0.344485  0.652246  0.749011  1
