# generated using pymatgen
data_Ta12Al7Cr(ReC)4
_symmetry_space_group_name_H-M   'P 1'
_cell_length_a   8.34182314
_cell_length_b   8.34182292
_cell_length_c   8.34182261
_cell_angle_alpha   59.78209760
_cell_angle_beta   59.78209653
_cell_angle_gamma   59.78210069
_symmetry_Int_Tables_number   1
_chemical_formula_structural   Ta12Al7Cr(ReC)4
_chemical_formula_sum   'Ta12 Al7 Cr1 Re4 C4'
_cell_volume   408.42664288
_cell_formula_units_Z   1
loop_
 _symmetry_equiv_pos_site_id
 _symmetry_equiv_pos_as_xyz
  1  'x, y, z'
loop_
 _atom_site_type_symbol
 _atom_site_label
 _atom_site_symmetry_multiplicity
 _atom_site_fract_x
 _atom_site_fract_y
 _atom_site_fract_z
 _atom_site_occupancy
  Ta  Ta0  1  0.557711  0.941471  0.557711  1
  Ta  Ta1  1  0.310598  0.689229  0.689229  1
  Ta  Ta2  1  0.695951  0.306500  0.306500  1
  Ta  Ta3  1  0.306500  0.695951  0.306500  1
  Ta  Ta4  1  0.689229  0.689229  0.310598  1
  Ta  Ta5  1  0.306500  0.306500  0.695951  1
  Ta  Ta6  1  0.557711  0.557711  0.941471  1
  Ta  Ta7  1  0.941471  0.557711  0.557711  1
  Ta  Ta8  1  0.562693  0.940314  0.940314  1
  Ta  Ta9  1  0.940314  0.940314  0.562693  1
  Ta  Ta10  1  0.689229  0.310598  0.689229  1
  Ta  Ta11  1  0.940314  0.562693  0.940314  1
  Al  Al12  1  0.996110  0.334275  0.334275  1
  Al  Al13  1  0.334275  0.996110  0.334275  1
  Al  Al14  1  0.334275  0.334275  0.996110  1
  Al  Al15  1  0.915900  0.256494  0.915900  1
  Al  Al16  1  0.915900  0.915900  0.256494  1
  Al  Al17  1  0.256494  0.915900  0.915900  1
  Al  Al18  1  0.334806  0.334806  0.334806  1
  Cr  Cr19  1  0.923968  0.923968  0.923968  1
  Re  Re20  1  0.125396  0.125396  0.125396  1
  Re  Re21  1  0.632376  0.116864  0.116864  1
  Re  Re22  1  0.116864  0.632376  0.116864  1
  Re  Re23  1  0.116864  0.116864  0.632376  1
  C  C24  1  0.624606  0.624606  0.624606  1
  C  C25  1  0.124812  0.624565  0.624565  1
  C  C26  1  0.624565  0.124812  0.624565  1
  C  C27  1  0.624565  0.624565  0.124812  1
