# generated using pymatgen
data_Ho10IrRu3Rh2
_symmetry_space_group_name_H-M   'P 1'
_cell_length_a   10.78225790
_cell_length_b   10.77880300
_cell_length_c   6.36652600
_cell_angle_alpha   90.00000000
_cell_angle_beta   89.93943461
_cell_angle_gamma   90.00000000
_symmetry_Int_Tables_number   1
_chemical_formula_structural   Ho10IrRu3Rh2
_chemical_formula_sum   'Ho20 Ir2 Ru6 Rh4'
_cell_volume   739.91618021
_cell_formula_units_Z   2
loop_
 _symmetry_equiv_pos_site_id
 _symmetry_equiv_pos_as_xyz
  1  'x, y, z'
loop_
 _atom_site_type_symbol
 _atom_site_label
 _atom_site_symmetry_multiplicity
 _atom_site_fract_x
 _atom_site_fract_y
 _atom_site_fract_z
 _atom_site_occupancy
  Ho  Ho0  1  0.294234  0.086949  0.377775  1
  Ho  Ho1  1  0.294234  0.913051  0.877775  1
  Ho  Ho2  1  0.708229  0.085542  0.877233  1
  Ho  Ho3  1  0.708229  0.914458  0.377233  1
  Ho  Ho4  1  0.586930  0.793905  0.877501  1
  Ho  Ho5  1  0.586930  0.206095  0.377501  1
  Ho  Ho6  1  0.413362  0.793824  0.377847  1
  Ho  Ho7  1  0.413362  0.206176  0.877847  1
  Ho  Ho8  1  0.206636  0.414643  0.621744  1
  Ho  Ho9  1  0.206636  0.585357  0.121744  1
  Ho  Ho10  1  0.794466  0.411927  0.122777  1
  Ho  Ho11  1  0.794466  0.588073  0.622777  1
  Ho  Ho12  1  0.913204  0.706805  0.121380  1
  Ho  Ho13  1  0.913204  0.293195  0.621380  1
  Ho  Ho14  1  0.085639  0.707299  0.623658  1
  Ho  Ho15  1  0.085639  0.292701  0.123658  1
  Ho  Ho16  1  0.998009  0.000595  0.499810  1
  Ho  Ho17  1  0.998009  0.999405  0.999810  1
  Ho  Ho18  1  0.499325  0.500292  0.000160  1
  Ho  Ho19  1  0.499325  0.499708  0.500160  1
  Ir  Ir20  1  0.347585  0.346593  0.250395  1
  Ir  Ir21  1  0.347585  0.653407  0.750395  1
  Ru  Ru22  1  0.847318  0.153117  0.249683  1
  Ru  Ru23  1  0.847318  0.846883  0.749683  1
  Ru  Ru24  1  0.499886  0.000208  0.123552  1
  Ru  Ru25  1  0.499886  0.999792  0.623552  1
  Ru  Ru26  1  0.999133  0.500285  0.876587  1
  Ru  Ru27  1  0.999133  0.499715  0.376587  1
  Rh  Rh28  1  0.153721  0.153084  0.750234  1
  Rh  Rh29  1  0.153721  0.846916  0.250234  1
  Rh  Rh30  1  0.652322  0.348472  0.749664  1
  Rh  Rh31  1  0.652322  0.651528  0.249664  1
