# generated using pymatgen
data_Cs16HfSnBi8
_symmetry_space_group_name_H-M   'P 1'
_cell_length_a   12.82213060
_cell_length_b   12.82212972
_cell_length_c   12.82213100
_cell_angle_alpha   59.99999928
_cell_angle_beta   60.00000154
_cell_angle_gamma   60.00000026
_symmetry_Int_Tables_number   1
_chemical_formula_structural   Cs16HfSnBi8
_chemical_formula_sum   'Cs16 Hf1 Sn1 Bi8'
_cell_volume   1490.61531034
_cell_formula_units_Z   1
loop_
 _symmetry_equiv_pos_site_id
 _symmetry_equiv_pos_as_xyz
  1  'x, y, z'
loop_
 _atom_site_type_symbol
 _atom_site_label
 _atom_site_symmetry_multiplicity
 _atom_site_fract_x
 _atom_site_fract_y
 _atom_site_fract_z
 _atom_site_occupancy
  Cs  Cs0  1  0.623867  0.128398  0.623867  1
  Cs  Cs1  1  0.623867  0.623867  0.128398  1
  Cs  Cs2  1  0.128398  0.623867  0.623867  1
  Cs  Cs3  1  0.623867  0.623867  0.623867  1
  Cs  Cs4  1  0.023798  0.023798  0.476202  1
  Cs  Cs5  1  0.774339  0.225661  0.225661  1
  Cs  Cs6  1  0.225661  0.774339  0.774339  1
  Cs  Cs7  1  0.774339  0.774339  0.225661  1
  Cs  Cs8  1  0.774339  0.225661  0.774339  1
  Cs  Cs9  1  0.225661  0.774339  0.225661  1
  Cs  Cs10  1  0.476202  0.023798  0.476202  1
  Cs  Cs11  1  0.476202  0.023798  0.023798  1
  Cs  Cs12  1  0.023798  0.476202  0.476202  1
  Cs  Cs13  1  0.023798  0.476202  0.023798  1
  Cs  Cs14  1  0.225661  0.225661  0.774339  1
  Cs  Cs15  1  0.476202  0.476202  0.023798  1
  Hf  Hf16  1  0.750000  0.750000  0.750000  1
  Sn  Sn17  1  0.500000  0.500000  0.500000  1
  Bi  Bi18  1  0.401190  0.796430  0.401190  1
  Bi  Bi19  1  0.844431  0.844431  0.466707  1
  Bi  Bi20  1  0.466707  0.844431  0.844431  1
  Bi  Bi21  1  0.844431  0.844431  0.844431  1
  Bi  Bi22  1  0.796430  0.401190  0.401190  1
  Bi  Bi23  1  0.401190  0.401190  0.401190  1
  Bi  Bi24  1  0.401190  0.401190  0.796430  1
  Bi  Bi25  1  0.844431  0.466707  0.844431  1
