# generated using pymatgen
data_Ho3TmAl18NiIr5
_symmetry_space_group_name_H-M   'P 1'
_cell_length_a   7.53615623
_cell_length_b   7.53755962
_cell_length_c   9.39971818
_cell_angle_alpha   90.17643279
_cell_angle_beta   90.17192480
_cell_angle_gamma   119.87125765
_symmetry_Int_Tables_number   1
_chemical_formula_structural   Ho3TmAl18NiIr5
_chemical_formula_sum   'Ho3 Tm1 Al18 Ni1 Ir5'
_cell_volume   462.99901628
_cell_formula_units_Z   1
loop_
 _symmetry_equiv_pos_site_id
 _symmetry_equiv_pos_as_xyz
  1  'x, y, z'
loop_
 _atom_site_type_symbol
 _atom_site_label
 _atom_site_symmetry_multiplicity
 _atom_site_fract_x
 _atom_site_fract_y
 _atom_site_fract_z
 _atom_site_occupancy
  Ho  Ho0  1  0.995160  0.667936  0.250354  1
  Ho  Ho1  1  0.004989  0.332060  0.749849  1
  Ho  Ho2  1  0.667634  0.994998  0.250420  1
  Tm  Tm3  1  0.331963  0.004912  0.749781  1
  Al  Al4  1  0.122910  0.122747  0.246302  1
  Al  Al5  1  0.877530  0.877234  0.753530  1
  Al  Al6  1  0.999869  0.331897  0.074889  1
  Al  Al7  1  0.000484  0.668373  0.924615  1
  Al  Al8  1  0.999956  0.666919  0.575729  1
  Al  Al9  1  0.333275  0.000326  0.425446  1
  Al  Al10  1  0.000297  0.333332  0.424956  1
  Al  Al11  1  0.666271  0.999711  0.575738  1
  Al  Al12  1  0.667661  0.000164  0.924566  1
  Al  Al13  1  0.331890  0.999879  0.074358  1
  Al  Al14  1  0.333392  0.333198  0.552796  1
  Al  Al15  1  0.666577  0.666577  0.448268  1
  Al  Al16  1  0.669598  0.669558  0.051035  1
  Al  Al17  1  0.330555  0.330257  0.947996  1
  Al  Al18  1  0.338821  0.546709  0.249655  1
  Al  Al19  1  0.660683  0.452803  0.750401  1
  Al  Al20  1  0.546607  0.338675  0.249630  1
  Al  Al21  1  0.453155  0.661455  0.750420  1
  Ni  Ni22  1  0.001200  0.000491  0.998725  1
  Ir  Ir23  1  0.671751  0.327748  0.999687  1
  Ir  Ir24  1  0.327903  0.672081  0.999756  1
  Ir  Ir25  1  0.327837  0.672146  0.500333  1
  Ir  Ir26  1  0.671871  0.327753  0.500328  1
  Ir  Ir27  1  0.000159  0.000060  0.500438  1
