# generated using pymatgen
data_Ti5Mn4NbGa12
_symmetry_space_group_name_H-M   'P 1'
_cell_length_a   5.27176400
_cell_length_b   7.50287577
_cell_length_c   8.51426320
_cell_angle_alpha   90.12479511
_cell_angle_beta   90.00000000
_cell_angle_gamma   90.00000000
_symmetry_Int_Tables_number   1
_chemical_formula_structural   Ti5Mn4NbGa12
_chemical_formula_sum   'Ti5 Mn4 Nb1 Ga12'
_cell_volume   336.76717726
_cell_formula_units_Z   1
loop_
 _symmetry_equiv_pos_site_id
 _symmetry_equiv_pos_as_xyz
  1  'x, y, z'
loop_
 _atom_site_type_symbol
 _atom_site_label
 _atom_site_symmetry_multiplicity
 _atom_site_fract_x
 _atom_site_fract_y
 _atom_site_fract_z
 _atom_site_occupancy
  Ti  Ti0  1  0.000000  0.842609  0.724299  1
  Ti  Ti1  1  0.500000  0.161864  0.221284  1
  Ti  Ti2  1  0.000000  0.291661  0.997121  1
  Ti  Ti3  1  0.000000  0.840249  0.276625  1
  Ti  Ti4  1  0.500000  0.706477  0.502737  1
  Mn  Mn5  1  0.749822  0.499992  0.250379  1
  Mn  Mn6  1  0.750109  0.502282  0.749302  1
  Mn  Mn7  1  0.249891  0.502282  0.749302  1
  Mn  Mn8  1  0.250178  0.499992  0.250379  1
  Nb  Nb9  1  0.500000  0.154234  0.776741  1
  Ga  Ga10  1  0.000000  0.572888  0.500032  1
  Ga  Ga11  1  0.000000  0.635902  0.999475  1
  Ga  Ga12  1  0.760660  0.973659  0.003641  1
  Ga  Ga13  1  0.000000  0.224395  0.301445  1
  Ga  Ga14  1  0.500000  0.430374  0.000056  1
  Ga  Ga15  1  0.500000  0.776384  0.199363  1
  Ga  Ga16  1  0.258686  0.023631  0.497570  1
  Ga  Ga17  1  0.500000  0.362314  0.499510  1
  Ga  Ga18  1  0.000000  0.226648  0.693207  1
  Ga  Ga19  1  0.500000  0.774878  0.806322  1
  Ga  Ga20  1  0.741314  0.023631  0.497570  1
  Ga  Ga21  1  0.239340  0.973659  0.003641  1
