# generated using pymatgen
data_Hf3Zr7Be2Sn5Sb
_symmetry_space_group_name_H-M   'P 1'
_cell_length_a   8.60606706
_cell_length_b   8.61340601
_cell_length_c   5.79793104
_cell_angle_alpha   90.01768870
_cell_angle_beta   89.99972804
_cell_angle_gamma   119.95406869
_symmetry_Int_Tables_number   1
_chemical_formula_structural   Hf3Zr7Be2Sn5Sb
_chemical_formula_sum   'Hf3 Zr7 Be2 Sn5 Sb1'
_cell_volume   372.37808641
_cell_formula_units_Z   1
loop_
 _symmetry_equiv_pos_site_id
 _symmetry_equiv_pos_as_xyz
  1  'x, y, z'
loop_
 _atom_site_type_symbol
 _atom_site_label
 _atom_site_symmetry_multiplicity
 _atom_site_fract_x
 _atom_site_fract_y
 _atom_site_fract_z
 _atom_site_occupancy
  Hf  Hf0  1  0.333379  0.667251  0.000552  1
  Hf  Hf1  1  0.665992  0.332655  0.499560  1
  Hf  Hf2  1  0.665905  0.332564  0.000357  1
  Zr  Zr3  1  0.254202  0.000099  0.250248  1
  Zr  Zr4  1  0.253168  0.252054  0.749729  1
  Zr  Zr5  1  0.000786  0.747780  0.749680  1
  Zr  Zr6  1  0.999865  0.253229  0.250238  1
  Zr  Zr7  1  0.746781  0.746647  0.250302  1
  Zr  Zr8  1  0.746273  0.000138  0.749647  1
  Zr  Zr9  1  0.333352  0.667657  0.499835  1
  Be  Be10  1  0.999178  0.999960  0.000861  1
  Be  Be11  1  0.999209  0.999930  0.499129  1
  Sn  Sn12  1  0.612181  0.000528  0.249424  1
  Sn  Sn13  1  0.610724  0.609956  0.750475  1
  Sn  Sn14  1  0.999786  0.389581  0.750484  1
  Sn  Sn15  1  0.998904  0.609660  0.249491  1
  Sn  Sn16  1  0.389779  0.389858  0.249526  1
  Sb  Sb17  1  0.390538  0.000453  0.750463  1
