# generated using pymatgen
data_Y8HoErIr6
_symmetry_space_group_name_H-M   'P 1'
_cell_length_a   10.91195200
_cell_length_b   10.91195200
_cell_length_c   6.37656900
_cell_angle_alpha   90.00000000
_cell_angle_beta   90.00000000
_cell_angle_gamma   90.00000000
_symmetry_Int_Tables_number   1
_chemical_formula_structural   Y8HoErIr6
_chemical_formula_sum   'Y16 Ho2 Er2 Ir12'
_cell_volume   759.26251179
_cell_formula_units_Z   2
loop_
 _symmetry_equiv_pos_site_id
 _symmetry_equiv_pos_as_xyz
  1  'x, y, z'
loop_
 _atom_site_type_symbol
 _atom_site_label
 _atom_site_symmetry_multiplicity
 _atom_site_fract_x
 _atom_site_fract_y
 _atom_site_fract_z
 _atom_site_occupancy
  Y  Y0  1  0.290918  0.087801  0.377751  1
  Y  Y1  1  0.290918  0.912199  0.877751  1
  Y  Y2  1  0.709082  0.087801  0.877751  1
  Y  Y3  1  0.709082  0.912199  0.377751  1
  Y  Y4  1  0.587769  0.790770  0.877762  1
  Y  Y5  1  0.587769  0.209230  0.377762  1
  Y  Y6  1  0.412231  0.790770  0.377762  1
  Y  Y7  1  0.412231  0.209230  0.877762  1
  Y  Y8  1  0.209230  0.412231  0.622238  1
  Y  Y9  1  0.209230  0.587769  0.122238  1
  Y  Y10  1  0.790770  0.412231  0.122238  1
  Y  Y11  1  0.790770  0.587769  0.622238  1
  Y  Y12  1  0.912199  0.709082  0.122249  1
  Y  Y13  1  0.912199  0.290918  0.622249  1
  Y  Y14  1  0.087801  0.709082  0.622249  1
  Y  Y15  1  0.087801  0.290918  0.122249  1
  Ho  Ho16  1  0.000000  0.000000  0.500000  1
  Ho  Ho17  1  0.000000  0.000000  0.000000  1
  Er  Er18  1  0.500000  0.500000  0.000000  1
  Er  Er19  1  0.500000  0.500000  0.500000  1
  Ir  Ir20  1  0.847564  0.152436  0.250000  1
  Ir  Ir21  1  0.847564  0.847564  0.750000  1
  Ir  Ir22  1  0.152436  0.152436  0.750000  1
  Ir  Ir23  1  0.152436  0.847564  0.250000  1
  Ir  Ir24  1  0.652101  0.347899  0.750000  1
  Ir  Ir25  1  0.652101  0.652101  0.250000  1
  Ir  Ir26  1  0.347899  0.347899  0.250000  1
  Ir  Ir27  1  0.347899  0.652101  0.750000  1
  Ir  Ir28  1  0.500000  0.000000  0.121762  1
  Ir  Ir29  1  0.500000  0.000000  0.621762  1
  Ir  Ir30  1  0.000000  0.500000  0.878238  1
  Ir  Ir31  1  0.000000  0.500000  0.378238  1
