# generated using pymatgen
data_Nd12Ga3PdI12
_symmetry_space_group_name_H-M   'P 1'
_cell_length_a   10.91654538
_cell_length_b   10.81013019
_cell_length_c   10.81013000
_cell_angle_alpha   109.27094862
_cell_angle_beta   109.67075336
_cell_angle_gamma   109.67076027
_symmetry_Int_Tables_number   1
_chemical_formula_structural   Nd12Ga3PdI12
_chemical_formula_sum   'Nd12 Ga3 Pd1 I12'
_cell_volume   979.60226263
_cell_formula_units_Z   1
loop_
 _symmetry_equiv_pos_site_id
 _symmetry_equiv_pos_as_xyz
  1  'x, y, z'
loop_
 _atom_site_type_symbol
 _atom_site_label
 _atom_site_symmetry_multiplicity
 _atom_site_fract_x
 _atom_site_fract_y
 _atom_site_fract_z
 _atom_site_occupancy
  Nd  Nd0  1  0.469277  0.485657  0.234423  1
  Nd  Nd1  1  0.750000  0.235947  0.264053  1
  Nd  Nd2  1  0.750000  0.013945  0.486055  1
  Nd  Nd3  1  0.236055  0.472110  0.486055  1
  Nd  Nd4  1  0.265146  0.748766  0.234423  1
  Nd  Nd5  1  0.030723  0.265577  0.014343  1
  Nd  Nd6  1  0.014053  0.028104  0.264053  1
  Nd  Nd7  1  0.483620  0.748766  0.014343  1
  Nd  Nd8  1  0.485947  0.235947  0.471896  1
  Nd  Nd9  1  0.016380  0.485657  0.751234  1
  Nd  Nd10  1  0.263945  0.013945  0.027890  1
  Nd  Nd11  1  0.234854  0.265577  0.751234  1
  Ga  Ga12  1  0.250000  0.250379  0.249621  1
  Ga  Ga13  1  0.499621  0.999241  0.249621  1
  Ga  Ga14  1  0.000379  0.250379  0.500759  1
  Pd  Pd15  1  0.250000  0.500000  0.000000  1
  I  I16  1  0.250000  0.758510  0.741490  1
  I  I17  1  0.516414  0.507232  0.757387  1
  I  I18  1  0.983586  0.742613  0.992768  1
  I  I19  1  0.740973  0.250153  0.757387  1
  I  I20  1  0.991490  0.982980  0.741490  1
  I  I21  1  0.250000  0.992636  0.507364  1
  I  I22  1  0.757364  0.514726  0.507364  1
  I  I23  1  0.509182  0.250153  0.992768  1
  I  I24  1  0.759027  0.742613  0.249847  1
  I  I25  1  0.742636  0.992636  0.985274  1
  I  I26  1  0.990818  0.507232  0.249847  1
  I  I27  1  0.508510  0.758510  0.517020  1
