# generated using pymatgen
data_PrEu3MgRu
_symmetry_space_group_name_H-M   'P 1'
_cell_length_a   10.24567317
_cell_length_b   10.24567297
_cell_length_c   10.24567300
_cell_angle_alpha   59.99999669
_cell_angle_beta   59.99999731
_cell_angle_gamma   60.00000318
_symmetry_Int_Tables_number   1
_chemical_formula_structural   PrEu3MgRu
_chemical_formula_sum   'Pr4 Eu12 Mg4 Ru4'
_cell_volume   760.51270090
_cell_formula_units_Z   4
loop_
 _symmetry_equiv_pos_site_id
 _symmetry_equiv_pos_as_xyz
  1  'x, y, z'
loop_
 _atom_site_type_symbol
 _atom_site_label
 _atom_site_symmetry_multiplicity
 _atom_site_fract_x
 _atom_site_fract_y
 _atom_site_fract_z
 _atom_site_occupancy
  Pr  Pr0  1  0.340471  0.340471  0.340471  1
  Pr  Pr1  1  0.340471  0.340471  0.978586  1
  Pr  Pr2  1  0.340471  0.978586  0.340471  1
  Pr  Pr3  1  0.978586  0.340471  0.340471  1
  Eu  Eu4  1  0.946704  0.553296  0.553296  1
  Eu  Eu5  1  0.553296  0.946704  0.946704  1
  Eu  Eu6  1  0.553296  0.946704  0.553296  1
  Eu  Eu7  1  0.946704  0.553296  0.946704  1
  Eu  Eu8  1  0.553296  0.553296  0.946704  1
  Eu  Eu9  1  0.946704  0.946704  0.553296  1
  Eu  Eu10  1  0.809719  0.190281  0.190281  1
  Eu  Eu11  1  0.190281  0.809719  0.809719  1
  Eu  Eu12  1  0.190281  0.809719  0.190281  1
  Eu  Eu13  1  0.809719  0.190281  0.809719  1
  Eu  Eu14  1  0.190281  0.190281  0.809719  1
  Eu  Eu15  1  0.809719  0.809719  0.190281  1
  Mg  Mg16  1  0.576967  0.576967  0.576967  1
  Mg  Mg17  1  0.576967  0.576967  0.269101  1
  Mg  Mg18  1  0.576967  0.269101  0.576967  1
  Mg  Mg19  1  0.269101  0.576967  0.576967  1
  Ru  Ru20  1  0.138820  0.138820  0.138820  1
  Ru  Ru21  1  0.138820  0.138820  0.583539  1
  Ru  Ru22  1  0.138820  0.583539  0.138820  1
  Ru  Ru23  1  0.583539  0.138820  0.138820  1
