# generated using pymatgen
data_PmSm(GaSi)2
_symmetry_space_group_name_H-M   'P 1'
_cell_length_a   4.17850400
_cell_length_b   4.17850483
_cell_length_c   8.17391600
_cell_angle_alpha   90.00000000
_cell_angle_beta   90.00000000
_cell_angle_gamma   120.00000923
_symmetry_Int_Tables_number   1
_chemical_formula_structural   PmSm(GaSi)2
_chemical_formula_sum   'Pm1 Sm1 Ga2 Si2'
_cell_volume   123.59545278
_cell_formula_units_Z   1
loop_
 _symmetry_equiv_pos_site_id
 _symmetry_equiv_pos_as_xyz
  1  'x, y, z'
loop_
 _atom_site_type_symbol
 _atom_site_label
 _atom_site_symmetry_multiplicity
 _atom_site_fract_x
 _atom_site_fract_y
 _atom_site_fract_z
 _atom_site_occupancy
  Pm  Pm0  1  0.000000  0.000000  0.012624  1
  Sm  Sm1  1  0.000000  0.000000  0.487929  1
  Ga  Ga2  1  0.666667  0.333332  0.747969  1
  Ga  Ga3  1  0.333334  0.666668  0.747969  1
  Si  Si4  1  0.666667  0.333332  0.251755  1
  Si  Si5  1  0.333334  0.666668  0.251755  1
