# generated using pymatgen
data_Re7Tc
_symmetry_space_group_name_H-M   'P 1'
_cell_length_a   2.78579029
_cell_length_b   5.28452903
_cell_length_c   8.57756512
_cell_angle_alpha   91.19518784
_cell_angle_beta   99.14860016
_cell_angle_gamma   105.15132204
_symmetry_Int_Tables_number   1
_chemical_formula_structural   Re7Tc
_chemical_formula_sum   'Re7 Tc1'
_cell_volume   120.07706801
_cell_formula_units_Z   1
loop_
 _symmetry_equiv_pos_site_id
 _symmetry_equiv_pos_as_xyz
  1  'x, y, z'
loop_
 _atom_site_type_symbol
 _atom_site_label
 _atom_site_symmetry_multiplicity
 _atom_site_fract_x
 _atom_site_fract_y
 _atom_site_fract_z
 _atom_site_occupancy
  Re  Re0  1  0.406083  0.471601  0.680788  1
  Re  Re1  1  0.905612  0.972407  0.179172  1
  Re  Re2  1  0.609643  0.431999  0.136021  1
  Re  Re3  1  0.156099  0.722236  0.930258  1
  Re  Re4  1  0.109647  0.931583  0.636072  1
  Re  Re5  1  0.655920  0.222891  0.430363  1
  Re  Re6  1  0.359550  0.680681  0.385717  1
  Tc  Tc7  1  0.859028  0.180961  0.884842  1
