# generated using pymatgen
data_Tb6Y2GaPd24
_symmetry_space_group_name_H-M   'P 1'
_cell_length_a   8.36640700
_cell_length_b   8.36643400
_cell_length_c   8.36643400
_cell_angle_alpha   89.99765788
_cell_angle_beta   90.00000000
_cell_angle_gamma   90.00000000
_symmetry_Int_Tables_number   1
_chemical_formula_structural   Tb6Y2GaPd24
_chemical_formula_sum   'Tb6 Y2 Ga1 Pd24'
_cell_volume   585.62521338
_cell_formula_units_Z   1
loop_
 _symmetry_equiv_pos_site_id
 _symmetry_equiv_pos_as_xyz
  1  'x, y, z'
loop_
 _atom_site_type_symbol
 _atom_site_label
 _atom_site_symmetry_multiplicity
 _atom_site_fract_x
 _atom_site_fract_y
 _atom_site_fract_z
 _atom_site_occupancy
  Tb  Tb0  1  0.748164  0.251835  0.251835  1
  Tb  Tb1  1  0.748164  0.748165  0.748165  1
  Tb  Tb2  1  0.748159  0.748163  0.251837  1
  Tb  Tb3  1  0.748159  0.251837  0.748163  1
  Tb  Tb4  1  0.251838  0.748161  0.748161  1
  Tb  Tb5  1  0.251838  0.251839  0.251839  1
  Y  Y6  1  0.251826  0.251824  0.748176  1
  Y  Y7  1  0.251826  0.748176  0.251824  1
  Ga  Ga8  1  0.000011  0.000000  0.000000  1
  Pd  Pd9  1  0.500002  0.500005  0.746855  1
  Pd  Pd10  1  0.500002  0.253145  0.499995  1
  Pd  Pd11  1  0.253140  0.500000  0.500000  1
  Pd  Pd12  1  0.500002  0.499995  0.253145  1
  Pd  Pd13  1  0.500002  0.746855  0.500005  1
  Pd  Pd14  1  0.746850  0.500000  0.500000  1
  Pd  Pd15  1  0.000005  0.000003  0.708058  1
  Pd  Pd16  1  0.000005  0.291942  0.999997  1
  Pd  Pd17  1  0.291936  0.000000  0.000000  1
  Pd  Pd18  1  0.000005  0.999997  0.291942  1
  Pd  Pd19  1  0.000005  0.708058  0.000003  1
  Pd  Pd20  1  0.708049  0.000000  0.000000  1
  Pd  Pd21  1  0.000002  0.500014  0.739630  1
  Pd  Pd22  1  0.500003  0.260370  0.000003  1
  Pd  Pd23  1  0.260368  0.000000  0.500000  1
  Pd  Pd24  1  0.000002  0.260370  0.499986  1
  Pd  Pd25  1  0.500003  0.999997  0.739630  1
  Pd  Pd26  1  0.260368  0.500000  0.000000  1
  Pd  Pd27  1  0.000002  0.499986  0.260370  1
  Pd  Pd28  1  0.500003  0.739630  0.999997  1
  Pd  Pd29  1  0.000002  0.739630  0.500014  1
  Pd  Pd30  1  0.500003  0.000003  0.260370  1
  Pd  Pd31  1  0.739627  0.000000  0.500000  1
  Pd  Pd32  1  0.739627  0.500000  0.000000  1
