# generated using pymatgen
data_Hf2Zr4Ga5Pb
_symmetry_space_group_name_H-M   'P 1'
_cell_length_a   5.75883400
_cell_length_b   8.75277292
_cell_length_c   9.34782900
_cell_angle_alpha   89.95318290
_cell_angle_beta   90.00000000
_cell_angle_gamma   90.00000000
_symmetry_Int_Tables_number   1
_chemical_formula_structural   Hf2Zr4Ga5Pb
_chemical_formula_sum   'Hf4 Zr8 Ga10 Pb2'
_cell_volume   471.18432666
_cell_formula_units_Z   2
loop_
 _symmetry_equiv_pos_site_id
 _symmetry_equiv_pos_as_xyz
  1  'x, y, z'
loop_
 _atom_site_type_symbol
 _atom_site_label
 _atom_site_symmetry_multiplicity
 _atom_site_fract_x
 _atom_site_fract_y
 _atom_site_fract_z
 _atom_site_occupancy
  Hf  Hf0  1  0.999079  0.729711  0.113728  1
  Hf  Hf1  1  0.499079  0.270289  0.886272  1
  Hf  Hf2  1  0.000921  0.270289  0.886272  1
  Hf  Hf3  1  0.500921  0.729711  0.113728  1
  Zr  Zr4  1  0.750000  0.473326  0.616235  1
  Zr  Zr5  1  0.250000  0.526674  0.383765  1
  Zr  Zr6  1  0.750000  0.970147  0.396329  1
  Zr  Zr7  1  0.250000  0.029853  0.603671  1
  Zr  Zr8  1  0.750000  0.375607  0.194381  1
  Zr  Zr9  1  0.250000  0.624393  0.805619  1
  Zr  Zr10  1  0.750000  0.859557  0.798077  1
  Zr  Zr11  1  0.250000  0.140443  0.201923  1
  Ga  Ga12  1  0.005173  0.747538  0.566390  1
  Ga  Ga13  1  0.505173  0.252462  0.433610  1
  Ga  Ga14  1  0.994827  0.252462  0.433610  1
  Ga  Ga15  1  0.494827  0.747538  0.566390  1
  Ga  Ga16  1  0.750000  0.552614  0.911104  1
  Ga  Ga17  1  0.250000  0.447386  0.088896  1
  Ga  Ga18  1  0.750000  0.136166  0.656571  1
  Ga  Ga19  1  0.250000  0.863834  0.343429  1
  Ga  Ga20  1  0.750000  0.635907  0.353034  1
  Ga  Ga21  1  0.250000  0.364093  0.646966  1
  Pb  Pb22  1  0.750000  0.046358  0.086769  1
  Pb  Pb23  1  0.250000  0.953642  0.913231  1
