# generated using pymatgen
data_HoNb6InSe12
_symmetry_space_group_name_H-M   'P 1'
_cell_length_a   6.07786100
_cell_length_b   6.07786123
_cell_length_c   14.93740400
_cell_angle_alpha   90.00000000
_cell_angle_beta   90.00000000
_cell_angle_gamma   120.00000421
_symmetry_Int_Tables_number   1
_chemical_formula_structural   HoNb6InSe12
_chemical_formula_sum   'Ho1 Nb6 In1 Se12'
_cell_volume   477.86726772
_cell_formula_units_Z   1
loop_
 _symmetry_equiv_pos_site_id
 _symmetry_equiv_pos_as_xyz
  1  'x, y, z'
loop_
 _atom_site_type_symbol
 _atom_site_label
 _atom_site_symmetry_multiplicity
 _atom_site_fract_x
 _atom_site_fract_y
 _atom_site_fract_z
 _atom_site_occupancy
  Ho  Ho0  1  0.000000  0.000000  0.500000  1
  Nb  Nb1  1  0.333333  0.666667  0.264157  1
  Nb  Nb2  1  0.000000  0.000000  0.267529  1
  Nb  Nb3  1  0.000000  0.000000  0.732471  1
  Nb  Nb4  1  0.333333  0.666667  0.735843  1
  Nb  Nb5  1  0.666667  0.333333  0.735843  1
  Nb  Nb6  1  0.666667  0.333333  0.264157  1
  In  In7  1  0.000000  0.000000  0.000000  1
  Se  Se8  1  0.000000  0.656103  0.622726  1
  Se  Se9  1  0.000000  0.668435  0.845357  1
  Se  Se10  1  0.000000  0.331565  0.154643  1
  Se  Se11  1  0.000000  0.343897  0.377274  1
  Se  Se12  1  0.343897  0.343897  0.622726  1
  Se  Se13  1  0.331565  0.331565  0.845357  1
  Se  Se14  1  0.668435  0.668435  0.154643  1
  Se  Se15  1  0.656103  0.656103  0.377274  1
  Se  Se16  1  0.331565  0.000000  0.154643  1
  Se  Se17  1  0.343897  0.000000  0.377274  1
  Se  Se18  1  0.656103  0.000000  0.622726  1
  Se  Se19  1  0.668435  0.000000  0.845357  1
