# generated using pymatgen
data_Y5HoCo16(P6W)2
_symmetry_space_group_name_H-M   'P 1'
_cell_length_a   3.73200900
_cell_length_b   10.58685402
_cell_length_c   12.27646202
_cell_angle_alpha   90.00715233
_cell_angle_beta   90.00000000
_cell_angle_gamma   90.00000000
_symmetry_Int_Tables_number   1
_chemical_formula_structural   Y5HoCo16(P6W)2
_chemical_formula_sum   'Y5 Ho1 Co16 P12 W2'
_cell_volume   485.04588945
_cell_formula_units_Z   1
loop_
 _symmetry_equiv_pos_site_id
 _symmetry_equiv_pos_as_xyz
  1  'x, y, z'
loop_
 _atom_site_type_symbol
 _atom_site_label
 _atom_site_symmetry_multiplicity
 _atom_site_fract_x
 _atom_site_fract_y
 _atom_site_fract_z
 _atom_site_occupancy
  Y  Y0  1  0.000000  0.500047  0.524087  1
  Y  Y1  1  0.500000  0.999925  0.475967  1
  Y  Y2  1  0.500000  0.180692  0.204754  1
  Y  Y3  1  0.000000  0.680789  0.795180  1
  Y  Y4  1  0.000000  0.319219  0.795208  1
  Ho  Ho5  1  0.500000  0.819269  0.204758  1
  Co  Co6  1  0.500000  0.500025  0.701120  1
  Co  Co7  1  0.000000  0.999471  0.298647  1
  Co  Co8  1  0.000000  0.500181  0.987468  1
  Co  Co9  1  0.500000  0.999790  0.012811  1
  Co  Co10  1  0.500000  0.332860  0.990545  1
  Co  Co11  1  0.500000  0.667336  0.990682  1
  Co  Co12  1  0.000000  0.167036  0.009616  1
  Co  Co13  1  0.000000  0.832798  0.009857  1
  Co  Co14  1  0.500000  0.295768  0.431361  1
  Co  Co15  1  0.500000  0.704348  0.431123  1
  Co  Co16  1  0.000000  0.204197  0.568614  1
  Co  Co17  1  0.000000  0.795769  0.568493  1
  Co  Co18  1  0.500000  0.878522  0.707602  1
  Co  Co19  1  0.500000  0.121447  0.707641  1
  Co  Co20  1  0.000000  0.621910  0.292125  1
  Co  Co21  1  0.000000  0.378545  0.292336  1
  P  P22  1  0.500000  0.500060  0.880941  1
  P  P23  1  0.000000  0.999514  0.119283  1
  P  P24  1  0.500000  0.499971  0.349536  1
  P  P25  1  0.000000  0.999991  0.650491  1
  P  P26  1  0.500000  0.310905  0.615784  1
  P  P27  1  0.500000  0.689134  0.615700  1
  P  P28  1  0.000000  0.189041  0.384195  1
  P  P29  1  0.000000  0.810832  0.383698  1
  P  P30  1  0.500000  0.844446  0.893131  1
  P  P31  1  0.500000  0.155492  0.893205  1
  P  P32  1  0.000000  0.656007  0.107196  1
  P  P33  1  0.000000  0.344527  0.106850  1
  W  W34  1  0.500000  0.500203  0.156001  1
  W  W35  1  0.000000  0.999930  0.843995  1
