# generated using pymatgen
data_Y4ErLu7Co5Bi
_symmetry_space_group_name_H-M   'P 1'
_cell_length_a   8.19117789
_cell_length_b   8.18840417
_cell_length_c   8.19117844
_cell_angle_alpha   111.11468058
_cell_angle_beta   110.54788422
_cell_angle_gamma   106.79772848
_symmetry_Int_Tables_number   1
_chemical_formula_structural   Y4ErLu7Co5Bi
_chemical_formula_sum   'Y4 Er1 Lu7 Co5 Bi1'
_cell_volume   422.16215641
_cell_formula_units_Z   1
loop_
 _symmetry_equiv_pos_site_id
 _symmetry_equiv_pos_as_xyz
  1  'x, y, z'
loop_
 _atom_site_type_symbol
 _atom_site_label
 _atom_site_symmetry_multiplicity
 _atom_site_fract_x
 _atom_site_fract_y
 _atom_site_fract_z
 _atom_site_occupancy
  Y  Y0  1  0.287917  0.187657  0.474257  1
  Y  Y1  1  0.714020  0.813742  0.528533  1
  Y  Y2  1  0.285209  0.813742  0.099722  1
  Y  Y3  1  0.713400  0.187657  0.899740  1
  Er  Er4  1  0.790799  0.983712  0.192912  1
  Lu  Lu5  1  0.623046  0.311971  0.311654  1
  Lu  Lu6  1  0.375655  0.687507  0.687430  1
  Lu  Lu7  1  0.000317  0.311971  0.688925  1
  Lu  Lu8  1  0.000077  0.687507  0.311852  1
  Lu  Lu9  1  0.209480  0.403565  0.194084  1
  Lu  Lu10  1  0.790451  0.595611  0.805161  1
  Lu  Lu11  1  0.209576  0.015127  0.805551  1
  Co  Co12  1  0.000196  0.375076  0.374880  1
  Co  Co13  1  0.999464  0.626109  0.626645  1
  Co  Co14  1  0.386915  0.887491  0.500576  1
  Co  Co15  1  0.612605  0.112603  0.499998  1
  Co  Co16  1  0.001414  0.999798  0.998384  1
  Bi  Bi17  1  0.499457  0.499153  0.999696  1
