# generated using pymatgen
data_Tb3Sm2Sn3Sb
_symmetry_space_group_name_H-M   'P 1'
_cell_length_a   8.21349700
_cell_length_b   8.23664900
_cell_length_c   15.54375300
_cell_angle_alpha   90.00000000
_cell_angle_beta   90.00000000
_cell_angle_gamma   90.00000000
_symmetry_Int_Tables_number   1
_chemical_formula_structural   Tb3Sm2Sn3Sb
_chemical_formula_sum   'Tb12 Sm8 Sn12 Sb4'
_cell_volume   1051.56118817
_cell_formula_units_Z   4
loop_
 _symmetry_equiv_pos_site_id
 _symmetry_equiv_pos_as_xyz
  1  'x, y, z'
loop_
 _atom_site_type_symbol
 _atom_site_label
 _atom_site_symmetry_multiplicity
 _atom_site_fract_x
 _atom_site_fract_y
 _atom_site_fract_z
 _atom_site_occupancy
  Tb  Tb0  1  0.371255  0.839007  0.878239  1
  Tb  Tb1  1  0.871255  0.660993  0.621761  1
  Tb  Tb2  1  0.628745  0.160993  0.378239  1
  Tb  Tb3  1  0.128745  0.339007  0.121761  1
  Tb  Tb4  1  0.631359  0.162230  0.121964  1
  Tb  Tb5  1  0.131359  0.337770  0.378036  1
  Tb  Tb6  1  0.368641  0.837770  0.621964  1
  Tb  Tb7  1  0.868641  0.662230  0.878036  1
  Tb  Tb8  1  0.198788  0.500684  0.748138  1
  Tb  Tb9  1  0.698788  0.999316  0.751862  1
  Tb  Tb10  1  0.801212  0.499316  0.248138  1
  Tb  Tb11  1  0.301212  0.000684  0.251862  1
  Sm  Sm12  1  0.530796  0.325140  0.898278  1
  Sm  Sm13  1  0.030796  0.174860  0.601722  1
  Sm  Sm14  1  0.469204  0.674860  0.398278  1
  Sm  Sm15  1  0.969204  0.825140  0.101722  1
  Sm  Sm16  1  0.476368  0.678673  0.100000  1
  Sm  Sm17  1  0.976368  0.821327  0.400000  1
  Sm  Sm18  1  0.523632  0.321327  0.600000  1
  Sm  Sm19  1  0.023632  0.178673  0.900000  1
  Sn  Sn20  1  0.711757  0.965106  0.957028  1
  Sn  Sn21  1  0.211757  0.534894  0.542972  1
  Sn  Sn22  1  0.288243  0.034894  0.457028  1
  Sn  Sn23  1  0.788243  0.465106  0.042972  1
  Sn  Sn24  1  0.566027  0.622604  0.749229  1
  Sn  Sn25  1  0.066027  0.877396  0.750771  1
  Sn  Sn26  1  0.433973  0.377396  0.249229  1
  Sn  Sn27  1  0.933973  0.122604  0.250771  1
  Sn  Sn28  1  0.332401  0.144657  0.750822  1
  Sn  Sn29  1  0.832401  0.355343  0.749178  1
  Sn  Sn30  1  0.667599  0.855343  0.250822  1
  Sn  Sn31  1  0.167599  0.644657  0.249178  1
  Sb  Sb32  1  0.286483  0.034328  0.043884  1
  Sb  Sb33  1  0.786483  0.465672  0.456116  1
  Sb  Sb34  1  0.713517  0.965672  0.543884  1
  Sb  Sb35  1  0.213517  0.534328  0.956116  1
