# generated using pymatgen
data_Lu6Sc4Si5Sb
_symmetry_space_group_name_H-M   'P 1'
_cell_length_a   8.22141700
_cell_length_b   8.23517581
_cell_length_c   5.95659000
_cell_angle_alpha   90.00000000
_cell_angle_beta   90.00000000
_cell_angle_gamma   119.94475988
_symmetry_Int_Tables_number   1
_chemical_formula_structural   Lu6Sc4Si5Sb
_chemical_formula_sum   'Lu6 Sc4 Si5 Sb1'
_cell_volume   349.45347761
_cell_formula_units_Z   1
loop_
 _symmetry_equiv_pos_site_id
 _symmetry_equiv_pos_as_xyz
  1  'x, y, z'
loop_
 _atom_site_type_symbol
 _atom_site_label
 _atom_site_symmetry_multiplicity
 _atom_site_fract_x
 _atom_site_fract_y
 _atom_site_fract_z
 _atom_site_occupancy
  Lu  Lu0  1  0.765269  0.000000  0.750000  1
  Lu  Lu1  1  0.754686  0.755501  0.250000  1
  Lu  Lu2  1  0.999185  0.244499  0.250000  1
  Lu  Lu3  1  0.987460  0.746635  0.750000  1
  Lu  Lu4  1  0.240824  0.253365  0.750000  1
  Lu  Lu5  1  0.241213  0.000000  0.250000  1
  Sc  Sc6  1  0.674540  0.343282  0.004084  1
  Sc  Sc7  1  0.331257  0.656718  0.495916  1
  Sc  Sc8  1  0.331257  0.656718  0.004084  1
  Sc  Sc9  1  0.674540  0.343282  0.495916  1
  Si  Si10  1  0.396560  0.394440  0.250000  1
  Si  Si11  1  0.002121  0.605560  0.250000  1
  Si  Si12  1  0.998598  0.397387  0.750000  1
  Si  Si13  1  0.601212  0.602613  0.750000  1
  Si  Si14  1  0.604565  0.000000  0.250000  1
  Sb  Sb15  1  0.396715  0.000000  0.750000  1
