# generated using pymatgen
data_CeNi2AsPt
_symmetry_space_group_name_H-M   'P 1'
_cell_length_a   3.98052600
_cell_length_b   3.98083300
_cell_length_c   10.39421700
_cell_angle_alpha   90.00000000
_cell_angle_beta   90.00000000
_cell_angle_gamma   90.00000000
_symmetry_Int_Tables_number   1
_chemical_formula_structural   CeNi2AsPt
_chemical_formula_sum   'Ce2 Ni4 As2 Pt2'
_cell_volume   164.70477997
_cell_formula_units_Z   2
loop_
 _symmetry_equiv_pos_site_id
 _symmetry_equiv_pos_as_xyz
  1  'x, y, z'
loop_
 _atom_site_type_symbol
 _atom_site_label
 _atom_site_symmetry_multiplicity
 _atom_site_fract_x
 _atom_site_fract_y
 _atom_site_fract_z
 _atom_site_occupancy
  Ce  Ce0  1  0.500000  0.000000  0.242484  1
  Ce  Ce1  1  0.000000  0.500000  0.757516  1
  Ni  Ni2  1  0.500000  0.000000  0.842756  1
  Ni  Ni3  1  0.500000  0.500000  0.500002  1
  Ni  Ni4  1  0.000000  0.500000  0.157244  1
  Ni  Ni5  1  0.000000  0.000000  0.499998  1
  As  As6  1  0.000000  0.500000  0.377323  1
  As  As7  1  0.500000  0.000000  0.622677  1
  Pt  Pt8  1  0.500000  0.500000  0.000001  1
  Pt  Pt9  1  0.000000  0.000000  0.999999  1
