# generated using pymatgen
data_Ho3PaGa12Os
_symmetry_space_group_name_H-M   'P 1'
_cell_length_a   7.38060638
_cell_length_b   7.47653495
_cell_length_c   7.47653499
_cell_angle_alpha   109.72967287
_cell_angle_beta   109.21150598
_cell_angle_gamma   109.21151153
_symmetry_Int_Tables_number   1
_chemical_formula_structural   Ho3PaGa12Os
_chemical_formula_sum   'Ho3 Pa1 Ga12 Os1'
_cell_volume   318.60522573
_cell_formula_units_Z   1
loop_
 _symmetry_equiv_pos_site_id
 _symmetry_equiv_pos_as_xyz
  1  'x, y, z'
loop_
 _atom_site_type_symbol
 _atom_site_label
 _atom_site_symmetry_multiplicity
 _atom_site_fract_x
 _atom_site_fract_y
 _atom_site_fract_z
 _atom_site_occupancy
  Ho  Ho0  1  0.000000  0.000000  0.500000  1
  Ho  Ho1  1  0.000000  0.500000  0.000000  1
  Ho  Ho2  1  0.500000  0.500000  0.500000  1
  Pa  Pa3  1  0.500000  0.000000  0.000000  1
  Ga  Ga4  1  0.749701  0.249701  0.499403  1
  Ga  Ga5  1  0.749701  0.499403  0.249701  1
  Ga  Ga6  1  0.500000  0.249701  0.750299  1
  Ga  Ga7  1  0.250299  0.500597  0.750299  1
  Ga  Ga8  1  0.250299  0.750299  0.500597  1
  Ga  Ga9  1  0.500000  0.750299  0.249701  1
  Ga  Ga10  1  0.707460  0.709148  0.000000  1
  Ga  Ga11  1  0.292540  0.000000  0.290852  1
  Ga  Ga12  1  0.998313  0.290852  0.290852  1
  Ga  Ga13  1  0.292540  0.290852  0.000000  1
  Ga  Ga14  1  0.707460  0.000000  0.709148  1
  Ga  Ga15  1  0.001687  0.709148  0.709148  1
  Os  Os16  1  0.000000  0.000000  0.000000  1
