# generated using pymatgen
data_Ti3MnBe2(Co5B2)2
_symmetry_space_group_name_H-M   'P 1'
_cell_length_a   8.35734610
_cell_length_b   8.35734610
_cell_length_c   2.85956800
_cell_angle_alpha   90.00000000
_cell_angle_beta   90.00000000
_cell_angle_gamma   90.72028234
_symmetry_Int_Tables_number   1
_chemical_formula_structural   Ti3MnBe2(Co5B2)2
_chemical_formula_sum   'Ti3 Mn1 Be2 Co10 B4'
_cell_volume   199.71141346
_cell_formula_units_Z   1
loop_
 _symmetry_equiv_pos_site_id
 _symmetry_equiv_pos_as_xyz
  1  'x, y, z'
loop_
 _atom_site_type_symbol
 _atom_site_label
 _atom_site_symmetry_multiplicity
 _atom_site_fract_x
 _atom_site_fract_y
 _atom_site_fract_z
 _atom_site_occupancy
  Ti  Ti0  1  0.325194  0.176960  0.000000  1
  Ti  Ti1  1  0.676960  0.825194  0.000000  1
  Ti  Ti2  1  0.173608  0.673608  0.000000  1
  Mn  Mn3  1  0.823521  0.323521  0.000000  1
  Be  Be4  1  0.001736  0.996813  0.000000  1
  Be  Be5  1  0.496813  0.501736  0.000000  1
  Co  Co6  1  0.501595  0.001595  0.500000  1
  Co  Co7  1  0.998503  0.498503  0.500000  1
  Co  Co8  1  0.068411  0.209296  0.500000  1
  Co  Co9  1  0.212398  0.930517  0.500000  1
  Co  Co10  1  0.791832  0.067378  0.500000  1
  Co  Co11  1  0.932057  0.787297  0.500000  1
  Co  Co12  1  0.430517  0.712398  0.500000  1
  Co  Co13  1  0.567378  0.291832  0.500000  1
  Co  Co14  1  0.709296  0.568411  0.500000  1
  Co  Co15  1  0.287297  0.432057  0.500000  1
  B  B16  1  0.629895  0.129895  0.000000  1
  B  B17  1  0.122029  0.374318  0.000000  1
  B  B18  1  0.874318  0.622029  0.000000  1
  B  B19  1  0.376644  0.876644  0.000000  1
