# generated using pymatgen
data_Hf5Zr5Sn6P
_symmetry_space_group_name_H-M   'P 1'
_cell_length_a   5.85308916
_cell_length_b   8.53956042
_cell_length_c   8.54200628
_cell_angle_alpha   119.99053916
_cell_angle_beta   89.94044436
_cell_angle_gamma   90.11913405
_symmetry_Int_Tables_number   1
_chemical_formula_structural   Hf5Zr5Sn6P
_chemical_formula_sum   'Hf5 Zr5 Sn6 P1'
_cell_volume   369.78699140
_cell_formula_units_Z   1
loop_
 _symmetry_equiv_pos_site_id
 _symmetry_equiv_pos_as_xyz
  1  'x, y, z'
loop_
 _atom_site_type_symbol
 _atom_site_label
 _atom_site_symmetry_multiplicity
 _atom_site_fract_x
 _atom_site_fract_y
 _atom_site_fract_z
 _atom_site_occupancy
  Hf  Hf0  1  0.500085  0.333282  0.666771  1
  Hf  Hf1  1  0.500085  0.666511  0.333229  1
  Hf  Hf2  1  0.999804  0.666346  0.333097  1
  Hf  Hf3  1  0.999804  0.333250  0.666903  1
  Hf  Hf4  1  0.754931  0.250569  0.000000  1
  Zr  Zr5  1  0.756085  0.749181  0.749201  1
  Zr  Zr6  1  0.756085  0.999979  0.250799  1
  Zr  Zr7  1  0.244773  0.749250  0.000000  1
  Zr  Zr8  1  0.243758  0.250859  0.250300  1
  Zr  Zr9  1  0.243758  0.000559  0.749700  1
  Sn  Sn10  1  0.750329  0.604398  0.000000  1
  Sn  Sn11  1  0.750020  0.394192  0.393780  1
  Sn  Sn12  1  0.750020  0.000412  0.606220  1
  Sn  Sn13  1  0.249601  0.394683  0.000000  1
  Sn  Sn14  1  0.249807  0.605461  0.605465  1
  Sn  Sn15  1  0.249807  0.999996  0.394535  1
  P  P16  1  0.501246  0.001076  0.000000  1
