# generated using pymatgen
data_Tb11Ho5Al4Co3Pd
_symmetry_space_group_name_H-M   'P 1'
_cell_length_a   9.48388193
_cell_length_b   9.48951145
_cell_length_c   9.48296875
_cell_angle_alpha   59.93148852
_cell_angle_beta   59.85489943
_cell_angle_gamma   59.88686995
_symmetry_Int_Tables_number   1
_chemical_formula_structural   Tb11Ho5Al4Co3Pd
_chemical_formula_sum   'Tb11 Ho5 Al4 Co3 Pd1'
_cell_volume   601.98328808
_cell_formula_units_Z   1
loop_
 _symmetry_equiv_pos_site_id
 _symmetry_equiv_pos_as_xyz
  1  'x, y, z'
loop_
 _atom_site_type_symbol
 _atom_site_label
 _atom_site_symmetry_multiplicity
 _atom_site_fract_x
 _atom_site_fract_y
 _atom_site_fract_z
 _atom_site_occupancy
  Tb  Tb0  1  0.814510  0.186585  0.814722  1
  Tb  Tb1  1  0.441040  0.048023  0.441362  1
  Tb  Tb2  1  0.605606  0.199130  0.606151  1
  Tb  Tb3  1  0.814125  0.814236  0.187251  1
  Tb  Tb4  1  0.199045  0.605674  0.605442  1
  Tb  Tb5  1  0.812182  0.188807  0.188695  1
  Tb  Tb6  1  0.047598  0.441447  0.441680  1
  Tb  Tb7  1  0.188514  0.813310  0.187145  1
  Tb  Tb8  1  0.605365  0.606191  0.198533  1
  Tb  Tb9  1  0.188735  0.187383  0.812837  1
  Tb  Tb10  1  0.059649  0.440269  0.058419  1
  Ho  Ho11  1  0.442075  0.442117  0.047175  1
  Ho  Ho12  1  0.597132  0.596618  0.598664  1
  Ho  Ho13  1  0.188301  0.813359  0.813359  1
  Ho  Ho14  1  0.058041  0.057855  0.441471  1
  Ho  Ho15  1  0.441021  0.059128  0.058084  1
  Al  Al16  1  0.825251  0.825497  0.520319  1
  Al  Al17  1  0.828048  0.827901  0.827289  1
  Al  Al18  1  0.519345  0.825292  0.825709  1
  Al  Al19  1  0.824822  0.520249  0.825552  1
  Co  Co20  1  0.826701  0.390240  0.390959  1
  Co  Co21  1  0.389809  0.826983  0.391230  1
  Co  Co22  1  0.390505  0.391286  0.826916  1
  Pd  Pd23  1  0.392579  0.392420  0.391034  1
