# generated using pymatgen
data_Pr3Nd3PtI10
_symmetry_space_group_name_H-M   'P 1'
_cell_length_a   7.99935610
_cell_length_b   10.04870522
_cell_length_c   10.08456962
_cell_angle_alpha   107.49165538
_cell_angle_beta   97.05964011
_cell_angle_gamma   105.07601801
_symmetry_Int_Tables_number   1
_chemical_formula_structural   Pr3Nd3PtI10
_chemical_formula_sum   'Pr3 Nd3 Pt1 I10'
_cell_volume   728.52382079
_cell_formula_units_Z   1
loop_
 _symmetry_equiv_pos_site_id
 _symmetry_equiv_pos_as_xyz
  1  'x, y, z'
loop_
 _atom_site_type_symbol
 _atom_site_label
 _atom_site_symmetry_multiplicity
 _atom_site_fract_x
 _atom_site_fract_y
 _atom_site_fract_z
 _atom_site_occupancy
  Pr  Pr0  1  0.881458  0.958289  0.245440  1
  Pr  Pr1  1  0.117818  0.041427  0.754313  1
  Pr  Pr2  1  0.355482  0.128574  0.169972  1
  Nd  Nd3  1  0.645648  0.871607  0.830466  1
  Nd  Nd4  1  0.969892  0.291021  0.088174  1
  Nd  Nd5  1  0.029628  0.708867  0.911581  1
  Pt  Pt6  1  0.999143  0.999704  0.999665  1
  I  I7  1  0.356046  0.455653  0.272908  1
  I  I8  1  0.643599  0.545586  0.727331  1
  I  I9  1  0.914397  0.629147  0.179716  1
  I  I10  1  0.085629  0.370871  0.820293  1
  I  I11  1  0.452579  0.815978  0.090303  1
  I  I12  1  0.547889  0.183112  0.908561  1
  I  I13  1  0.262143  0.088162  0.462092  1
  I  I14  1  0.737333  0.911622  0.538636  1
  I  I15  1  0.784746  0.261280  0.349333  1
  I  I16  1  0.216569  0.739101  0.651219  1
