# generated using pymatgen
data_Zr6Nb4Al12Fe7
_symmetry_space_group_name_H-M   'P 1'
_cell_length_a   8.64757507
_cell_length_b   8.64757363
_cell_length_c   8.64757400
_cell_angle_alpha   59.99999857
_cell_angle_beta   60.00000409
_cell_angle_gamma   59.99999720
_symmetry_Int_Tables_number   1
_chemical_formula_structural   Zr6Nb4Al12Fe7
_chemical_formula_sum   'Zr6 Nb4 Al12 Fe7'
_cell_volume   457.26493370
_cell_formula_units_Z   1
loop_
 _symmetry_equiv_pos_site_id
 _symmetry_equiv_pos_as_xyz
  1  'x, y, z'
loop_
 _atom_site_type_symbol
 _atom_site_label
 _atom_site_symmetry_multiplicity
 _atom_site_fract_x
 _atom_site_fract_y
 _atom_site_fract_z
 _atom_site_occupancy
  Zr  Zr0  1  0.697983  0.302017  0.302017  1
  Zr  Zr1  1  0.697983  0.302017  0.697983  1
  Zr  Zr2  1  0.697983  0.697983  0.302017  1
  Zr  Zr3  1  0.302017  0.697983  0.697983  1
  Zr  Zr4  1  0.302017  0.697983  0.302017  1
  Zr  Zr5  1  0.302017  0.302017  0.697983  1
  Nb  Nb6  1  0.643279  0.118907  0.118907  1
  Nb  Nb7  1  0.118907  0.643279  0.118907  1
  Nb  Nb8  1  0.118907  0.118907  0.643279  1
  Nb  Nb9  1  0.118907  0.118907  0.118907  1
  Al  Al10  1  0.361152  0.879616  0.879616  1
  Al  Al11  1  0.879616  0.361152  0.879616  1
  Al  Al12  1  0.879616  0.879616  0.361152  1
  Al  Al13  1  0.879616  0.879616  0.879616  1
  Al  Al14  1  0.991993  0.336002  0.336002  1
  Al  Al15  1  0.336002  0.991993  0.336002  1
  Al  Al16  1  0.336002  0.336002  0.991993  1
  Al  Al17  1  0.336002  0.336002  0.336002  1
  Al  Al18  1  0.001217  0.666260  0.666260  1
  Al  Al19  1  0.666260  0.001217  0.666260  1
  Al  Al20  1  0.666260  0.666260  0.001217  1
  Al  Al21  1  0.666260  0.666260  0.666260  1
  Fe  Fe22  1  0.000000  0.000000  0.000000  1
  Fe  Fe23  1  0.496619  0.003381  0.003381  1
  Fe  Fe24  1  0.496619  0.003381  0.496619  1
  Fe  Fe25  1  0.496619  0.496619  0.003381  1
  Fe  Fe26  1  0.003381  0.496619  0.496619  1
  Fe  Fe27  1  0.003381  0.496619  0.003381  1
  Fe  Fe28  1  0.003381  0.003381  0.496619  1
