# generated using pymatgen
data_Tb2Pa(GaNi4)3
_symmetry_space_group_name_H-M   'P 1'
_cell_length_a   8.45198900
_cell_length_b   8.45198909
_cell_length_c   4.06822600
_cell_angle_alpha   90.00000000
_cell_angle_beta   90.00000000
_cell_angle_gamma   120.00000357
_symmetry_Int_Tables_number   1
_chemical_formula_structural   Tb2Pa(GaNi4)3
_chemical_formula_sum   'Tb2 Pa1 Ga3 Ni12'
_cell_volume   251.68280065
_cell_formula_units_Z   1
loop_
 _symmetry_equiv_pos_site_id
 _symmetry_equiv_pos_as_xyz
  1  'x, y, z'
loop_
 _atom_site_type_symbol
 _atom_site_label
 _atom_site_symmetry_multiplicity
 _atom_site_fract_x
 _atom_site_fract_y
 _atom_site_fract_z
 _atom_site_occupancy
  Tb  Tb0  1  0.333333  0.666667  0.000000  1
  Tb  Tb1  1  0.666667  0.333333  0.000000  1
  Pa  Pa2  1  0.000000  0.000000  0.000000  1
  Ga  Ga3  1  0.500000  0.000000  0.500000  1
  Ga  Ga4  1  0.000000  0.500000  0.500000  1
  Ga  Ga5  1  0.500000  0.500000  0.500000  1
  Ni  Ni6  1  0.321797  0.000000  0.000000  1
  Ni  Ni7  1  0.678203  0.000000  0.000000  1
  Ni  Ni8  1  0.000000  0.321797  0.000000  1
  Ni  Ni9  1  0.000000  0.678203  0.000000  1
  Ni  Ni10  1  0.678203  0.678203  0.000000  1
  Ni  Ni11  1  0.321797  0.321797  0.000000  1
  Ni  Ni12  1  0.166056  0.332112  0.500000  1
  Ni  Ni13  1  0.833944  0.667888  0.500000  1
  Ni  Ni14  1  0.667888  0.833944  0.500000  1
  Ni  Ni15  1  0.332112  0.166056  0.500000  1
  Ni  Ni16  1  0.166056  0.833944  0.500000  1
  Ni  Ni17  1  0.833944  0.166056  0.500000  1
