# generated using pymatgen
data_NaY6PtBr12
_symmetry_space_group_name_H-M   'P 1'
_cell_length_a   9.30597761
_cell_length_b   9.30367361
_cell_length_c   9.30729871
_cell_angle_alpha   107.16353776
_cell_angle_beta   107.11345027
_cell_angle_gamma   107.15079651
_symmetry_Int_Tables_number   1
_chemical_formula_structural   NaY6PtBr12
_chemical_formula_sum   'Na1 Y6 Pt1 Br12'
_cell_volume   668.47008225
_cell_formula_units_Z   1
loop_
 _symmetry_equiv_pos_site_id
 _symmetry_equiv_pos_as_xyz
  1  'x, y, z'
loop_
 _atom_site_type_symbol
 _atom_site_label
 _atom_site_symmetry_multiplicity
 _atom_site_fract_x
 _atom_site_fract_y
 _atom_site_fract_z
 _atom_site_occupancy
  Na  Na0  1  0.500000  0.500000  0.500000  1
  Y  Y1  1  0.107426  0.319593  0.027449  1
  Y  Y2  1  0.320038  0.027528  0.107734  1
  Y  Y3  1  0.027666  0.107555  0.320021  1
  Y  Y4  1  0.972335  0.892445  0.679980  1
  Y  Y5  1  0.679962  0.972473  0.892266  1
  Y  Y6  1  0.892574  0.680407  0.972551  1
  Pt  Pt7  1  0.000000  0.000000  0.000000  1
  Br  Br8  1  0.217186  0.678473  0.073385  1
  Br  Br9  1  0.447994  0.368011  0.146688  1
  Br  Br10  1  0.678534  0.073398  0.217285  1
  Br  Br11  1  0.926630  0.782675  0.321483  1
  Br  Br12  1  0.146699  0.448014  0.367949  1
  Br  Br13  1  0.367967  0.146666  0.447971  1
  Br  Br14  1  0.632033  0.853334  0.552030  1
  Br  Br15  1  0.853302  0.551986  0.632051  1
  Br  Br16  1  0.073371  0.217325  0.678518  1
  Br  Br17  1  0.321467  0.926603  0.782715  1
  Br  Br18  1  0.552006  0.631989  0.853313  1
  Br  Br19  1  0.782814  0.321527  0.926615  1
