# generated using pymatgen
data_MnCdPb2(SO4)4
_symmetry_space_group_name_H-M   'P 1'
_cell_length_a   6.92060745
_cell_length_b   6.92060745
_cell_length_c   14.12223800
_cell_angle_alpha   90.00000000
_cell_angle_beta   90.00000000
_cell_angle_gamma   89.64373706
_symmetry_Int_Tables_number   1
_chemical_formula_structural   MnCdPb2(SO4)4
_chemical_formula_sum   'Mn2 Cd2 Pb4 S8 O32'
_cell_volume   676.36879401
_cell_formula_units_Z   2
loop_
 _symmetry_equiv_pos_site_id
 _symmetry_equiv_pos_as_xyz
  1  'x, y, z'
loop_
 _atom_site_type_symbol
 _atom_site_label
 _atom_site_symmetry_multiplicity
 _atom_site_fract_x
 _atom_site_fract_y
 _atom_site_fract_z
 _atom_site_occupancy
  Mn  Mn0  1  0.335170  0.664830  0.250000  1
  Mn  Mn1  1  0.664830  0.335170  0.750000  1
  Cd  Cd2  1  0.170071  0.170071  0.000000  1
  Cd  Cd3  1  0.829929  0.829929  0.500000  1
  Pb  Pb4  1  0.752672  0.752672  0.000000  1
  Pb  Pb5  1  0.247328  0.247328  0.500000  1
  Pb  Pb6  1  0.748530  0.251470  0.250000  1
  Pb  Pb7  1  0.251470  0.748530  0.750000  1
  S  S8  1  0.245588  0.174166  0.245756  1
  S  S9  1  0.754412  0.825834  0.745756  1
  S  S10  1  0.323239  0.747628  0.491498  1
  S  S11  1  0.252372  0.676761  0.008502  1
  S  S12  1  0.676761  0.252372  0.991498  1
  S  S13  1  0.747628  0.323239  0.508502  1
  S  S14  1  0.174166  0.245588  0.754244  1
  S  S15  1  0.825834  0.754412  0.254244  1
  O  O16  1  0.120495  0.209451  0.330032  1
  O  O17  1  0.879505  0.790549  0.830032  1
  O  O18  1  0.289239  0.617416  0.573807  1
  O  O19  1  0.382584  0.710761  0.926193  1
  O  O20  1  0.710761  0.382584  0.073807  1
  O  O21  1  0.617416  0.289239  0.426193  1
  O  O22  1  0.209451  0.120495  0.669968  1
  O  O23  1  0.790549  0.879505  0.169968  1
  O  O24  1  0.115760  0.174449  0.161724  1
  O  O25  1  0.884240  0.825551  0.661724  1
  O  O26  1  0.328336  0.627240  0.404180  1
  O  O27  1  0.372760  0.671664  0.095820  1
  O  O28  1  0.671664  0.372760  0.904180  1
  O  O29  1  0.627240  0.328336  0.595820  1
  O  O30  1  0.174449  0.115760  0.838276  1
  O  O31  1  0.825551  0.884240  0.338276  1
  O  O32  1  0.498259  0.136810  0.004221  1
  O  O33  1  0.501741  0.863190  0.504221  1
  O  O34  1  0.357887  0.991057  0.254438  1
  O  O35  1  0.008943  0.642113  0.245562  1
  O  O36  1  0.642113  0.008943  0.754438  1
  O  O37  1  0.991057  0.357887  0.745562  1
  O  O38  1  0.136810  0.498259  0.995779  1
  O  O39  1  0.863190  0.501741  0.495779  1
  O  O40  1  0.388676  0.337125  0.237458  1
  O  O41  1  0.611324  0.662875  0.737458  1
  O  O42  1  0.160941  0.892094  0.485032  1
  O  O43  1  0.107906  0.839059  0.014968  1
  O  O44  1  0.839059  0.107906  0.985032  1
  O  O45  1  0.892094  0.160941  0.514968  1
  O  O46  1  0.337125  0.388676  0.762542  1
  O  O47  1  0.662875  0.611324  0.262542  1
