# generated using pymatgen
data_Dy11Er(BBr3)4
_symmetry_space_group_name_H-M   'P 1'
_cell_length_a   9.73200675
_cell_length_b   9.73200595
_cell_length_c   9.73069013
_cell_angle_alpha   109.47634878
_cell_angle_beta   109.47634799
_cell_angle_gamma   109.46211358
_symmetry_Int_Tables_number   1
_chemical_formula_structural   Dy11Er(BBr3)4
_chemical_formula_sum   'Dy11 Er1 B4 Br12'
_cell_volume   709.44765431
_cell_formula_units_Z   1
loop_
 _symmetry_equiv_pos_site_id
 _symmetry_equiv_pos_as_xyz
  1  'x, y, z'
loop_
 _atom_site_type_symbol
 _atom_site_label
 _atom_site_symmetry_multiplicity
 _atom_site_fract_x
 _atom_site_fract_y
 _atom_site_fract_z
 _atom_site_occupancy
  Dy  Dy0  1  0.460306  0.479964  0.229991  1
  Dy  Dy1  1  0.750164  0.230115  0.270132  1
  Dy  Dy2  1  0.750075  0.019854  0.480180  1
  Dy  Dy3  1  0.230213  0.460240  0.480289  1
  Dy  Dy4  1  0.269885  0.749836  0.229868  1
  Dy  Dy5  1  0.039760  0.269787  0.019711  1
  Dy  Dy6  1  0.020036  0.039694  0.270009  1
  Dy  Dy7  1  0.480146  0.749925  0.019820  1
  Dy  Dy8  1  0.480208  0.230155  0.460378  1
  Dy  Dy9  1  0.020042  0.479958  0.750000  1
  Dy  Dy10  1  0.269845  0.019792  0.039622  1
  Er  Er11  1  0.228958  0.271042  0.750000  1
  B  B12  1  0.250022  0.249978  0.250000  1
  B  B13  1  0.500028  0.999972  0.250000  1
  B  B14  1  0.000788  0.250021  0.500842  1
  B  B15  1  0.249979  0.499212  0.999158  1
  Br  Br16  1  0.249974  0.758166  0.741768  1
  Br  Br17  1  0.515606  0.507250  0.758275  1
  Br  Br18  1  0.983548  0.741787  0.991756  1
  Br  Br19  1  0.741834  0.250026  0.758232  1
  Br  Br20  1  0.992750  0.984394  0.741725  1
  Br  Br21  1  0.250124  0.992559  0.509083  1
  Br  Br22  1  0.758213  0.516452  0.508244  1
  Br  Br23  1  0.507441  0.249876  0.990917  1
  Br  Br24  1  0.758214  0.741786  0.250000  1
  Br  Br25  1  0.741840  0.991819  0.983629  1
  Br  Br26  1  0.991825  0.508175  0.250000  1
  Br  Br27  1  0.508181  0.758160  0.516371  1
