# generated using pymatgen
data_Ba4Pr7DyS16
_symmetry_space_group_name_H-M   'P 1'
_cell_length_a   4.14121600
_cell_length_b   12.42753614
_cell_length_c   14.85998900
_cell_angle_alpha   89.83088145
_cell_angle_beta   90.00000000
_cell_angle_gamma   90.00000000
_symmetry_Int_Tables_number   1
_chemical_formula_structural   Ba4Pr7DyS16
_chemical_formula_sum   'Ba4 Pr7 Dy1 S16'
_cell_volume   764.76765914
_cell_formula_units_Z   1
loop_
 _symmetry_equiv_pos_site_id
 _symmetry_equiv_pos_as_xyz
  1  'x, y, z'
loop_
 _atom_site_type_symbol
 _atom_site_label
 _atom_site_symmetry_multiplicity
 _atom_site_fract_x
 _atom_site_fract_y
 _atom_site_fract_z
 _atom_site_occupancy
  Ba  Ba0  1  0.250000  0.753516  0.342313  1
  Ba  Ba1  1  0.250000  0.254106  0.161507  1
  Ba  Ba2  1  0.750000  0.243421  0.655495  1
  Ba  Ba3  1  0.750000  0.746633  0.840515  1
  Pr  Pr4  1  0.250000  0.417701  0.395191  1
  Pr  Pr5  1  0.250000  0.924435  0.109884  1
  Pr  Pr6  1  0.750000  0.577690  0.607168  1
  Pr  Pr7  1  0.750000  0.078645  0.893644  1
  Pr  Pr8  1  0.250000  0.421876  0.895291  1
  Pr  Pr9  1  0.250000  0.926267  0.601563  1
  Pr  Pr10  1  0.750000  0.576593  0.105098  1
  Dy  Dy11  1  0.750000  0.076156  0.393845  1
  S  S12  1  0.250000  0.210623  0.820597  1
  S  S13  1  0.250000  0.713290  0.674749  1
  S  S14  1  0.750000  0.789043  0.178786  1
  S  S15  1  0.750000  0.282473  0.326642  1
  S  S16  1  0.250000  0.133021  0.514421  1
  S  S17  1  0.250000  0.632187  0.977012  1
  S  S18  1  0.750000  0.873934  0.473016  1
  S  S19  1  0.750000  0.366380  0.023286  1
  S  S20  1  0.250000  0.515144  0.219673  1
  S  S21  1  0.250000  0.021695  0.286058  1
  S  S22  1  0.750000  0.482972  0.781596  1
  S  S23  1  0.750000  0.983359  0.717499  1
  S  S24  1  0.250000  0.420131  0.583138  1
  S  S25  1  0.250000  0.921335  0.920478  1
  S  S26  1  0.750000  0.576986  0.418971  1
  S  S27  1  0.750000  0.080387  0.082567  1
