# generated using pymatgen
data_Li7ScTc11Ge16Mo
_symmetry_space_group_name_H-M   'P 1'
_cell_length_a   6.55776702
_cell_length_b   6.78176884
_cell_length_c   12.55748286
_cell_angle_alpha   89.97184129
_cell_angle_beta   90.05779455
_cell_angle_gamma   90.18585394
_symmetry_Int_Tables_number   1
_chemical_formula_structural   Li7ScTc11Ge16Mo
_chemical_formula_sum   'Li7 Sc1 Tc11 Ge16 Mo1'
_cell_volume   558.46891205
_cell_formula_units_Z   1
loop_
 _symmetry_equiv_pos_site_id
 _symmetry_equiv_pos_as_xyz
  1  'x, y, z'
loop_
 _atom_site_type_symbol
 _atom_site_label
 _atom_site_symmetry_multiplicity
 _atom_site_fract_x
 _atom_site_fract_y
 _atom_site_fract_z
 _atom_site_occupancy
  Li  Li0  1  0.471622  0.678960  0.583587  1
  Li  Li1  1  0.967229  0.825267  0.918349  1
  Li  Li2  1  0.529619  0.324834  0.082595  1
  Li  Li3  1  0.033161  0.176264  0.412153  1
  Li  Li4  1  0.525899  0.330232  0.412637  1
  Li  Li5  1  0.027895  0.170892  0.083466  1
  Li  Li6  1  0.475192  0.668560  0.922227  1
  Sc  Sc7  1  0.988740  0.824889  0.587324  1
  Tc  Tc8  1  0.675331  0.152103  0.628051  1
  Tc  Tc9  1  0.171183  0.342205  0.873917  1
  Tc  Tc10  1  0.326131  0.841812  0.128694  1
  Tc  Tc11  1  0.830719  0.659829  0.370562  1
  Tc  Tc12  1  0.324452  0.842121  0.370159  1
  Tc  Tc13  1  0.828894  0.659038  0.128404  1
  Tc  Tc14  1  0.667850  0.159399  0.871936  1
  Tc  Tc15  1  0.838835  0.496128  0.748157  1
  Tc  Tc16  1  0.336380  0.006018  0.749054  1
  Tc  Tc17  1  0.158801  0.506392  0.250168  1
  Tc  Tc18  1  0.659339  0.994949  0.248694  1
  Ge  Ge19  1  0.677804  0.968260  0.450112  1
  Ge  Ge20  1  0.179520  0.532966  0.046719  1
  Ge  Ge21  1  0.318494  0.033550  0.954967  1
  Ge  Ge22  1  0.813949  0.455898  0.541217  1
  Ge  Ge23  1  0.328518  0.044564  0.541422  1
  Ge  Ge24  1  0.821500  0.465059  0.955050  1
  Ge  Ge25  1  0.676888  0.964202  0.044710  1
  Ge  Ge26  1  0.182076  0.530938  0.452642  1
  Ge  Ge27  1  0.474796  0.389216  0.748813  1
  Ge  Ge28  1  0.970666  0.111112  0.756386  1
  Ge  Ge29  1  0.526002  0.610069  0.249335  1
  Ge  Ge30  1  0.025376  0.895947  0.247918  1
  Ge  Ge31  1  0.674019  0.829993  0.755123  1
  Ge  Ge32  1  0.190588  0.662870  0.759881  1
  Ge  Ge33  1  0.319307  0.169990  0.248062  1
  Ge  Ge34  1  0.817804  0.332448  0.248224  1
  Mo  Mo35  1  0.165421  0.343023  0.629288  1
