# generated using pymatgen
data_YLu19Cd6ReOs
_symmetry_space_group_name_H-M   'P 1'
_cell_length_a   9.36929800
_cell_length_b   9.34345847
_cell_length_c   9.79485400
_cell_angle_alpha   90.00000000
_cell_angle_beta   90.00000000
_cell_angle_gamma   119.90880350
_symmetry_Int_Tables_number   1
_chemical_formula_structural   YLu19Cd6ReOs
_chemical_formula_sum   'Y1 Lu19 Cd6 Re1 Os1'
_cell_volume   743.26156459
_cell_formula_units_Z   1
loop_
 _symmetry_equiv_pos_site_id
 _symmetry_equiv_pos_as_xyz
  1  'x, y, z'
loop_
 _atom_site_type_symbol
 _atom_site_label
 _atom_site_symmetry_multiplicity
 _atom_site_fract_x
 _atom_site_fract_y
 _atom_site_fract_z
 _atom_site_occupancy
  Y  Y0  1  0.918539  0.459269  0.250000  1
  Lu  Lu1  1  0.001171  0.000585  0.499634  1
  Lu  Lu2  1  0.001171  0.000585  0.000366  1
  Lu  Lu3  1  0.537043  0.461798  0.250000  1
  Lu  Lu4  1  0.537043  0.075244  0.250000  1
  Lu  Lu5  1  0.460329  0.538666  0.750000  1
  Lu  Lu6  1  0.460329  0.921663  0.750000  1
  Lu  Lu7  1  0.074783  0.537392  0.750000  1
  Lu  Lu8  1  0.211365  0.790934  0.443301  1
  Lu  Lu9  1  0.211365  0.420433  0.443301  1
  Lu  Lu10  1  0.580658  0.790329  0.443587  1
  Lu  Lu11  1  0.789334  0.207643  0.557363  1
  Lu  Lu12  1  0.789334  0.581691  0.557363  1
  Lu  Lu13  1  0.420426  0.210214  0.557097  1
  Lu  Lu14  1  0.789334  0.207643  0.942637  1
  Lu  Lu15  1  0.789334  0.581691  0.942637  1
  Lu  Lu16  1  0.420426  0.210214  0.942903  1
  Lu  Lu17  1  0.211365  0.790934  0.056699  1
  Lu  Lu18  1  0.211365  0.420433  0.056699  1
  Lu  Lu19  1  0.580658  0.790329  0.056413  1
  Cd  Cd20  1  0.885434  0.111217  0.250000  1
  Cd  Cd21  1  0.885434  0.774217  0.250000  1
  Cd  Cd22  1  0.227119  0.113560  0.250000  1
  Cd  Cd23  1  0.114783  0.886578  0.750000  1
  Cd  Cd24  1  0.114783  0.228205  0.750000  1
  Cd  Cd25  1  0.772123  0.886061  0.750000  1
  Re  Re26  1  0.669204  0.334602  0.750000  1
  Os  Os27  1  0.335742  0.667871  0.250000  1
