# generated using pymatgen
data_Y8AlGaPd23
_symmetry_space_group_name_H-M   'P 1'
_cell_length_a   8.32903200
_cell_length_b   8.41979000
_cell_length_c   8.41979000
_cell_angle_alpha   90.00000000
_cell_angle_beta   90.00000000
_cell_angle_gamma   90.00000000
_symmetry_Int_Tables_number   1
_chemical_formula_structural   Y8AlGaPd23
_chemical_formula_sum   'Y8 Al1 Ga1 Pd23'
_cell_volume   590.46892986
_cell_formula_units_Z   1
loop_
 _symmetry_equiv_pos_site_id
 _symmetry_equiv_pos_as_xyz
  1  'x, y, z'
loop_
 _atom_site_type_symbol
 _atom_site_label
 _atom_site_symmetry_multiplicity
 _atom_site_fract_x
 _atom_site_fract_y
 _atom_site_fract_z
 _atom_site_occupancy
  Y  Y0  1  0.251202  0.242744  0.242744  1
  Y  Y1  1  0.747528  0.746411  0.746411  1
  Y  Y2  1  0.747528  0.746411  0.253589  1
  Y  Y3  1  0.747528  0.253589  0.746411  1
  Y  Y4  1  0.251202  0.242744  0.757256  1
  Y  Y5  1  0.251202  0.757256  0.242744  1
  Y  Y6  1  0.251202  0.757256  0.757256  1
  Y  Y7  1  0.747528  0.253589  0.253589  1
  Al  Al8  1  0.999545  0.000000  0.000000  1
  Ga  Ga9  1  0.258865  0.500000  0.500000  1
  Pd  Pd10  1  0.258153  0.500000  0.000000  1
  Pd  Pd11  1  0.739331  0.500000  0.000000  1
  Pd  Pd12  1  0.009940  0.260493  0.500000  1
  Pd  Pd13  1  0.501468  0.261771  0.000000  1
  Pd  Pd14  1  0.009940  0.739507  0.500000  1
  Pd  Pd15  1  0.501468  0.738229  0.000000  1
  Pd  Pd16  1  0.501468  0.000000  0.261771  1
  Pd  Pd17  1  0.258153  0.000000  0.500000  1
  Pd  Pd18  1  0.501468  0.000000  0.738229  1
  Pd  Pd19  1  0.739331  0.000000  0.500000  1
  Pd  Pd20  1  0.009940  0.500000  0.260493  1
  Pd  Pd21  1  0.009940  0.500000  0.739507  1
  Pd  Pd22  1  0.748133  0.500000  0.500000  1
  Pd  Pd23  1  0.490981  0.254917  0.500000  1
  Pd  Pd24  1  0.490981  0.745083  0.500000  1
  Pd  Pd25  1  0.490981  0.500000  0.254917  1
  Pd  Pd26  1  0.490981  0.500000  0.745083  1
  Pd  Pd27  1  0.292593  0.000000  0.000000  1
  Pd  Pd28  1  0.710006  0.000000  0.000000  1
  Pd  Pd29  1  0.997853  0.289128  0.000000  1
  Pd  Pd30  1  0.997853  0.710872  0.000000  1
  Pd  Pd31  1  0.997853  0.000000  0.289128  1
  Pd  Pd32  1  0.997853  0.000000  0.710872  1
