# generated using pymatgen
data_Ba4ErRhO8
_symmetry_space_group_name_H-M   'P 1'
_cell_length_a   7.41822300
_cell_length_b   7.41822164
_cell_length_c   5.93647700
_cell_angle_alpha   90.00000000
_cell_angle_beta   90.00000000
_cell_angle_gamma   133.04801755
_symmetry_Int_Tables_number   1
_chemical_formula_structural   Ba4ErRhO8
_chemical_formula_sum   'Ba4 Er1 Rh1 O8'
_cell_volume   238.73508739
_cell_formula_units_Z   1
loop_
 _symmetry_equiv_pos_site_id
 _symmetry_equiv_pos_as_xyz
  1  'x, y, z'
loop_
 _atom_site_type_symbol
 _atom_site_label
 _atom_site_symmetry_multiplicity
 _atom_site_fract_x
 _atom_site_fract_y
 _atom_site_fract_z
 _atom_site_occupancy
  Ba  Ba0  1  0.355240  0.644760  0.000000  1
  Ba  Ba1  1  0.854361  0.145639  0.500000  1
  Ba  Ba2  1  0.145639  0.854361  0.500000  1
  Ba  Ba3  1  0.644760  0.355240  0.000000  1
  Er  Er4  1  0.000000  0.000000  0.000000  1
  Rh  Rh5  1  0.500000  0.500000  0.500000  1
  O  O6  1  0.260719  0.260719  0.735304  1
  O  O7  1  0.739281  0.739281  0.264696  1
  O  O8  1  0.739281  0.739281  0.735304  1
  O  O9  1  0.260719  0.260719  0.264696  1
  O  O10  1  0.164796  0.835204  0.000000  1
  O  O11  1  0.650275  0.349725  0.500000  1
  O  O12  1  0.349725  0.650275  0.500000  1
  O  O13  1  0.835204  0.164796  0.000000  1
