# generated using pymatgen
data_TbEr2Cd3AgSn2
_symmetry_space_group_name_H-M   'P 1'
_cell_length_a   7.48638206
_cell_length_b   7.48638268
_cell_length_c   4.52883500
_cell_angle_alpha   90.00000000
_cell_angle_beta   90.00000000
_cell_angle_gamma   120.28532296
_symmetry_Int_Tables_number   1
_chemical_formula_structural   TbEr2Cd3AgSn2
_chemical_formula_sum   'Tb1 Er2 Cd3 Ag1 Sn2'
_cell_volume   219.18221164
_cell_formula_units_Z   1
loop_
 _symmetry_equiv_pos_site_id
 _symmetry_equiv_pos_as_xyz
  1  'x, y, z'
loop_
 _atom_site_type_symbol
 _atom_site_label
 _atom_site_symmetry_multiplicity
 _atom_site_fract_x
 _atom_site_fract_y
 _atom_site_fract_z
 _atom_site_occupancy
  Tb  Tb0  1  0.416909  0.416909  0.500000  1
  Er  Er1  1  0.584360  0.000633  0.500000  1
  Er  Er2  1  0.000633  0.584360  0.500000  1
  Cd  Cd3  1  0.760675  0.760675  0.000000  1
  Cd  Cd4  1  0.238854  0.000188  0.000000  1
  Cd  Cd5  1  0.000188  0.238854  0.000000  1
  Ag  Ag6  1  0.997518  0.997518  0.500000  1
  Sn  Sn7  1  0.668166  0.332696  0.000000  1
  Sn  Sn8  1  0.332696  0.668166  0.000000  1
