# generated using pymatgen
data_Dy9Y(SiSn3)2
_symmetry_space_group_name_H-M   'P 1'
_cell_length_a   9.22472000
_cell_length_b   9.22472012
_cell_length_c   6.45544800
_cell_angle_alpha   90.00000000
_cell_angle_beta   90.00000000
_cell_angle_gamma   119.99999957
_symmetry_Int_Tables_number   1
_chemical_formula_structural   Dy9Y(SiSn3)2
_chemical_formula_sum   'Dy9 Y1 Si2 Sn6'
_cell_volume   475.73314664
_cell_formula_units_Z   1
loop_
 _symmetry_equiv_pos_site_id
 _symmetry_equiv_pos_as_xyz
  1  'x, y, z'
loop_
 _atom_site_type_symbol
 _atom_site_label
 _atom_site_symmetry_multiplicity
 _atom_site_fract_x
 _atom_site_fract_y
 _atom_site_fract_z
 _atom_site_occupancy
  Dy  Dy0  1  0.333333  0.666667  0.000000  1
  Dy  Dy1  1  0.333333  0.666667  0.500000  1
  Dy  Dy2  1  0.666667  0.333333  0.500000  1
  Dy  Dy3  1  0.747320  0.747320  0.749973  1
  Dy  Dy4  1  0.252680  0.000000  0.749973  1
  Dy  Dy5  1  0.000000  0.252680  0.749973  1
  Dy  Dy6  1  0.252680  0.252680  0.250027  1
  Dy  Dy7  1  0.747320  0.000000  0.250027  1
  Dy  Dy8  1  0.000000  0.747320  0.250027  1
  Y  Y9  1  0.666667  0.333333  0.000000  1
  Si  Si10  1  0.000000  0.000000  0.000000  1
  Si  Si11  1  0.000000  0.000000  0.500000  1
  Sn  Sn12  1  0.391102  0.391129  0.749958  1
  Sn  Sn13  1  0.608871  0.999973  0.749958  1
  Sn  Sn14  1  0.000027  0.608898  0.749958  1
  Sn  Sn15  1  0.608871  0.608898  0.250042  1
  Sn  Sn16  1  0.391102  0.999973  0.250042  1
  Sn  Sn17  1  0.000027  0.391129  0.250042  1
