# generated using pymatgen
data_Tb7HoSe12
_symmetry_space_group_name_H-M   'P 1'
_cell_length_a   7.13567210
_cell_length_b   7.12592215
_cell_length_c   12.99295875
_cell_angle_alpha   100.67588619
_cell_angle_beta   100.70671414
_cell_angle_gamma   108.89575387
_symmetry_Int_Tables_number   1
_chemical_formula_structural   Tb7HoSe12
_chemical_formula_sum   'Tb7 Ho1 Se12'
_cell_volume   592.39512355
_cell_formula_units_Z   1
loop_
 _symmetry_equiv_pos_site_id
 _symmetry_equiv_pos_as_xyz
  1  'x, y, z'
loop_
 _atom_site_type_symbol
 _atom_site_label
 _atom_site_symmetry_multiplicity
 _atom_site_fract_x
 _atom_site_fract_y
 _atom_site_fract_z
 _atom_site_occupancy
  Tb  Tb0  1  0.040943  0.790938  0.081874  1
  Tb  Tb1  1  0.622127  0.872114  0.244231  1
  Tb  Tb2  1  0.127491  0.377477  0.254990  1
  Tb  Tb3  1  0.208944  0.958930  0.417878  1
  Tb  Tb4  1  0.791108  0.041105  0.582208  1
  Tb  Tb5  1  0.872444  0.622441  0.744862  1
  Tb  Tb6  1  0.377793  0.127786  0.755585  1
  Ho  Ho7  1  0.958783  0.208796  0.917575  1
  Se  Se8  1  0.805058  0.049678  0.086952  1
  Se  Se9  1  0.281965  0.537275  0.087032  1
  Se  Se10  1  0.367180  0.117099  0.249988  1
  Se  Se11  1  0.882803  0.632935  0.250017  1
  Se  Se12  1  0.950871  0.195353  0.412041  1
  Se  Se13  1  0.461134  0.716638  0.412012  1
  Se  Se14  1  0.538978  0.283470  0.587962  1
  Se  Se15  1  0.049020  0.804497  0.587937  1
  Se  Se16  1  0.116482  0.366541  0.751126  1
  Se  Se17  1  0.634650  0.884576  0.751166  1
  Se  Se18  1  0.718216  0.459311  0.912234  1
  Se  Se19  1  0.194009  0.953038  0.912331  1
