# generated using pymatgen
data_CaYb2Eu2Sn3H
_symmetry_space_group_name_H-M   'P 1'
_cell_length_a   9.54026586
_cell_length_b   9.54026547
_cell_length_c   9.54026505
_cell_angle_alpha   128.51451627
_cell_angle_beta   128.51451273
_cell_angle_gamma   75.79299835
_symmetry_Int_Tables_number   1
_chemical_formula_structural   CaYb2Eu2Sn3H
_chemical_formula_sum   'Ca2 Yb4 Eu4 Sn6 H2'
_cell_volume   517.04376188
_cell_formula_units_Z   2
loop_
 _symmetry_equiv_pos_site_id
 _symmetry_equiv_pos_as_xyz
  1  'x, y, z'
loop_
 _atom_site_type_symbol
 _atom_site_label
 _atom_site_symmetry_multiplicity
 _atom_site_fract_x
 _atom_site_fract_y
 _atom_site_fract_z
 _atom_site_occupancy
  Ca  Ca0  1  0.496612  0.496612  0.000000  1
  Ca  Ca1  1  0.996612  0.996612  0.000000  1
  Yb  Yb2  1  0.510242  0.010242  0.821892  1
  Yb  Yb3  1  0.188349  0.688349  0.178108  1
  Yb  Yb4  1  0.010242  0.188349  0.500000  1
  Yb  Yb5  1  0.688349  0.510242  0.500000  1
  Eu  Eu6  1  0.488961  0.988961  0.172558  1
  Eu  Eu7  1  0.816403  0.316403  0.827442  1
  Eu  Eu8  1  0.988961  0.816403  0.500000  1
  Eu  Eu9  1  0.316403  0.488961  0.500000  1
  Sn  Sn10  1  0.250277  0.250277  0.000000  1
  Sn  Sn11  1  0.750277  0.750277  0.000000  1
  Sn  Sn12  1  0.871668  0.371668  0.246772  1
  Sn  Sn13  1  0.124897  0.624897  0.753228  1
  Sn  Sn14  1  0.371668  0.124897  0.500000  1
  Sn  Sn15  1  0.624897  0.871668  0.500000  1
  H  H16  1  0.252591  0.752591  0.500000  1
  H  H17  1  0.752591  0.252591  0.500000  1
