# generated using pymatgen
data_Tm5Lu5(Sn3Se)2
_symmetry_space_group_name_H-M   'P 1'
_cell_length_a   8.97396013
_cell_length_b   8.97128723
_cell_length_c   6.58850000
_cell_angle_alpha   90.00000000
_cell_angle_beta   90.00000000
_cell_angle_gamma   119.99013754
_symmetry_Int_Tables_number   1
_chemical_formula_structural   Tm5Lu5(Sn3Se)2
_chemical_formula_sum   'Tm5 Lu5 Sn6 Se2'
_cell_volume   459.40871679
_cell_formula_units_Z   1
loop_
 _symmetry_equiv_pos_site_id
 _symmetry_equiv_pos_as_xyz
  1  'x, y, z'
loop_
 _atom_site_type_symbol
 _atom_site_label
 _atom_site_symmetry_multiplicity
 _atom_site_fract_x
 _atom_site_fract_y
 _atom_site_fract_z
 _atom_site_occupancy
  Tm  Tm0  1  0.746213  0.746181  0.750000  1
  Tm  Tm1  1  0.253787  0.999968  0.750000  1
  Tm  Tm2  1  0.000000  0.253833  0.750000  1
  Tm  Tm3  1  0.253867  0.253819  0.250000  1
  Tm  Tm4  1  0.746133  0.999952  0.250000  1
  Lu  Lu5  1  0.666710  0.333391  0.000031  1
  Lu  Lu6  1  0.333290  0.666683  0.000031  1
  Lu  Lu7  1  0.333290  0.666683  0.499969  1
  Lu  Lu8  1  0.666710  0.333391  0.499969  1
  Lu  Lu9  1  0.000000  0.746344  0.250000  1
  Sn  Sn10  1  0.396724  0.396740  0.750000  1
  Sn  Sn11  1  0.603276  0.000016  0.750000  1
  Sn  Sn12  1  0.000000  0.603319  0.750000  1
  Sn  Sn13  1  0.603781  0.603471  0.250000  1
  Sn  Sn14  1  0.396219  0.999690  0.250000  1
  Sn  Sn15  1  0.000000  0.397260  0.250000  1
  Se  Se16  1  0.000000  0.999629  0.000340  1
  Se  Se17  1  0.000000  0.999629  0.499660  1
