# generated using pymatgen
data_Hf13Ga3(Ir2N)4
_symmetry_space_group_name_H-M   'P 1'
_cell_length_a   8.53452864
_cell_length_b   8.57491676
_cell_length_c   8.57491500
_cell_angle_alpha   59.99993732
_cell_angle_beta   59.84335495
_cell_angle_gamma   59.84336702
_symmetry_Int_Tables_number   1
_chemical_formula_structural   Hf13Ga3(Ir2N)4
_chemical_formula_sum   'Hf13 Ga3 Ir8 N4'
_cell_volume   442.68190672
_cell_formula_units_Z   1
loop_
 _symmetry_equiv_pos_site_id
 _symmetry_equiv_pos_as_xyz
  1  'x, y, z'
loop_
 _atom_site_type_symbol
 _atom_site_label
 _atom_site_symmetry_multiplicity
 _atom_site_fract_x
 _atom_site_fract_y
 _atom_site_fract_z
 _atom_site_occupancy
  Hf  Hf0  1  0.125003  0.624999  0.624999  1
  Hf  Hf1  1  0.811448  0.809558  0.189497  1
  Hf  Hf2  1  0.192951  0.184724  0.811162  1
  Hf  Hf3  1  0.811450  0.189496  0.809558  1
  Hf  Hf4  1  0.192953  0.811162  0.184723  1
  Hf  Hf5  1  0.192952  0.811163  0.811161  1
  Hf  Hf6  1  0.811448  0.189496  0.189496  1
  Hf  Hf7  1  0.438552  0.440446  0.060502  1
  Hf  Hf8  1  0.057044  0.065274  0.438840  1
  Hf  Hf9  1  0.438553  0.060501  0.440444  1
  Hf  Hf10  1  0.057045  0.438841  0.065273  1
  Hf  Hf11  1  0.057044  0.438842  0.438840  1
  Hf  Hf12  1  0.438553  0.060501  0.060502  1
  Ga  Ga13  1  0.624994  0.125007  0.625005  1
  Ga  Ga14  1  0.625000  0.624995  0.125005  1
  Ga  Ga15  1  0.624996  0.624990  0.625007  1
  Ir  Ir16  1  0.755670  0.414777  0.414776  1
  Ir  Ir17  1  0.415172  0.762844  0.410991  1
  Ir  Ir18  1  0.415170  0.410993  0.762842  1
  Ir  Ir19  1  0.415173  0.410993  0.410993  1
  Ir  Ir20  1  0.494345  0.835219  0.835217  1
  Ir  Ir21  1  0.834831  0.487169  0.839000  1
  Ir  Ir22  1  0.834827  0.839003  0.487170  1
  Ir  Ir23  1  0.834828  0.839001  0.838999  1
  N  N24  1  0.625003  0.124999  0.124999  1
  N  N25  1  0.124999  0.625003  0.124999  1
  N  N26  1  0.124999  0.125000  0.625000  1
  N  N27  1  0.124999  0.124999  0.124999  1
