# generated using pymatgen
data_CaGd(ErB8)2
_symmetry_space_group_name_H-M   'P 1'
_cell_length_a   7.09840045
_cell_length_b   7.10053164
_cell_length_c   4.02164900
_cell_angle_alpha   90.00000000
_cell_angle_beta   90.00000000
_cell_angle_gamma   89.90485209
_symmetry_Int_Tables_number   1
_chemical_formula_structural   CaGd(ErB8)2
_chemical_formula_sum   'Ca1 Gd1 Er2 B16'
_cell_volume   202.70055062
_cell_formula_units_Z   1
loop_
 _symmetry_equiv_pos_site_id
 _symmetry_equiv_pos_as_xyz
  1  'x, y, z'
loop_
 _atom_site_type_symbol
 _atom_site_label
 _atom_site_symmetry_multiplicity
 _atom_site_fract_x
 _atom_site_fract_y
 _atom_site_fract_z
 _atom_site_occupancy
  Ca  Ca0  1  0.180523  0.680384  0.000000  1
  Gd  Gd1  1  0.682390  0.817363  0.000000  1
  Er  Er2  1  0.318035  0.182153  0.000000  1
  Er  Er3  1  0.818879  0.318797  0.000000  1
  B  B4  1  0.323757  0.459889  0.500000  1
  B  B5  1  0.676536  0.536149  0.500000  1
  B  B6  1  0.538603  0.323473  0.500000  1
  B  B7  1  0.461898  0.675102  0.500000  1
  B  B8  1  0.000965  0.000546  0.202744  1
  B  B9  1  0.498720  0.498797  0.797336  1
  B  B10  1  0.000965  0.000546  0.797256  1
  B  B11  1  0.498720  0.498797  0.202664  1
  B  B12  1  0.586638  0.087510  0.500000  1
  B  B13  1  0.086267  0.412469  0.500000  1
  B  B14  1  0.912277  0.586479  0.500000  1
  B  B15  1  0.413570  0.914388  0.500000  1
  B  B16  1  0.037982  0.177666  0.500000  1
  B  B17  1  0.176533  0.963786  0.500000  1
  B  B18  1  0.824798  0.040664  0.500000  1
  B  B19  1  0.961942  0.825040  0.500000  1
