# generated using pymatgen
data_La8Hg3Ru
_symmetry_space_group_name_H-M   'P 1'
_cell_length_a   10.77231700
_cell_length_b   10.77231709
_cell_length_c   7.53017500
_cell_angle_alpha   90.00000000
_cell_angle_beta   90.00000000
_cell_angle_gamma   120.00000278
_symmetry_Int_Tables_number   1
_chemical_formula_structural   La8Hg3Ru
_chemical_formula_sum   'La16 Hg6 Ru2'
_cell_volume   756.75263641
_cell_formula_units_Z   2
loop_
 _symmetry_equiv_pos_site_id
 _symmetry_equiv_pos_as_xyz
  1  'x, y, z'
loop_
 _atom_site_type_symbol
 _atom_site_label
 _atom_site_symmetry_multiplicity
 _atom_site_fract_x
 _atom_site_fract_y
 _atom_site_fract_z
 _atom_site_occupancy
  La  La0  1  0.000000  0.000000  0.288106  1
  La  La1  1  0.000000  0.000000  0.788106  1
  La  La2  1  0.170077  0.829923  0.977467  1
  La  La3  1  0.829923  0.170077  0.477467  1
  La  La4  1  0.170077  0.340154  0.977467  1
  La  La5  1  0.659846  0.829923  0.977467  1
  La  La6  1  0.340154  0.170077  0.477467  1
  La  La7  1  0.829923  0.659846  0.477467  1
  La  La8  1  0.333333  0.666667  0.691437  1
  La  La9  1  0.666667  0.333333  0.191437  1
  La  La10  1  0.457996  0.542004  0.293608  1
  La  La11  1  0.542004  0.457996  0.793608  1
  La  La12  1  0.457996  0.915993  0.293608  1
  La  La13  1  0.084007  0.542004  0.293608  1
  La  La14  1  0.915993  0.457996  0.793608  1
  La  La15  1  0.542004  0.084007  0.793608  1
  Hg  Hg16  1  0.167535  0.832465  0.542038  1
  Hg  Hg17  1  0.832465  0.167535  0.042038  1
  Hg  Hg18  1  0.167535  0.335069  0.542038  1
  Hg  Hg19  1  0.664931  0.832465  0.542038  1
  Hg  Hg20  1  0.335069  0.167535  0.042038  1
  Hg  Hg21  1  0.832465  0.664931  0.042038  1
  Ru  Ru22  1  0.333333  0.666667  0.054182  1
  Ru  Ru23  1  0.666667  0.333333  0.554182  1
