# generated using pymatgen
data_V(CrSe2)3
_symmetry_space_group_name_H-M   'P 1'
_cell_length_a   6.85830427
_cell_length_b   6.85830477
_cell_length_c   6.85830507
_cell_angle_alpha   55.47287425
_cell_angle_beta   55.47288377
_cell_angle_gamma   55.47287753
_symmetry_Int_Tables_number   1
_chemical_formula_structural   V(CrSe2)3
_chemical_formula_sum   'V1 Cr3 Se6'
_cell_volume   204.12596421
_cell_formula_units_Z   1
loop_
 _symmetry_equiv_pos_site_id
 _symmetry_equiv_pos_as_xyz
  1  'x, y, z'
loop_
 _atom_site_type_symbol
 _atom_site_label
 _atom_site_symmetry_multiplicity
 _atom_site_fract_x
 _atom_site_fract_y
 _atom_site_fract_z
 _atom_site_occupancy
  V  V0  1  0.500000  0.500000  0.500000  1
  Cr  Cr1  1  0.000000  0.000000  0.000000  1
  Cr  Cr2  1  0.327367  0.327367  0.327367  1
  Cr  Cr3  1  0.672633  0.672633  0.672633  1
  Se  Se4  1  0.908745  0.592074  0.258872  1
  Se  Se5  1  0.592074  0.258872  0.908745  1
  Se  Se6  1  0.258872  0.908745  0.592074  1
  Se  Se7  1  0.741128  0.091255  0.407926  1
  Se  Se8  1  0.407926  0.741128  0.091255  1
  Se  Se9  1  0.091255  0.407926  0.741128  1
