# generated using pymatgen
data_DyFeAs3Rh4
_symmetry_space_group_name_H-M   'P 1'
_cell_length_a   3.92101900
_cell_length_b   11.23685500
_cell_length_c   12.87101000
_cell_angle_alpha   90.00000000
_cell_angle_beta   90.00000000
_cell_angle_gamma   90.00000000
_symmetry_Int_Tables_number   1
_chemical_formula_structural   DyFeAs3Rh4
_chemical_formula_sum   'Dy4 Fe4 As12 Rh16'
_cell_volume   567.09569609
_cell_formula_units_Z   4
loop_
 _symmetry_equiv_pos_site_id
 _symmetry_equiv_pos_as_xyz
  1  'x, y, z'
loop_
 _atom_site_type_symbol
 _atom_site_label
 _atom_site_symmetry_multiplicity
 _atom_site_fract_x
 _atom_site_fract_y
 _atom_site_fract_z
 _atom_site_occupancy
  Dy  Dy0  1  0.250000  0.582565  0.707653  1
  Dy  Dy1  1  0.250000  0.917435  0.207653  1
  Dy  Dy2  1  0.750000  0.417435  0.292347  1
  Dy  Dy3  1  0.750000  0.082565  0.792347  1
  Fe  Fe4  1  0.250000  0.464793  0.935576  1
  Fe  Fe5  1  0.250000  0.035207  0.435576  1
  Fe  Fe6  1  0.750000  0.535207  0.064424  1
  Fe  Fe7  1  0.750000  0.964793  0.564424  1
  As  As8  1  0.250000  0.420463  0.109985  1
  As  As9  1  0.250000  0.079537  0.609985  1
  As  As10  1  0.750000  0.579537  0.890015  1
  As  As11  1  0.750000  0.920463  0.390015  1
  As  As12  1  0.250000  0.270074  0.870807  1
  As  As13  1  0.250000  0.229926  0.370807  1
  As  As14  1  0.750000  0.729926  0.129193  1
  As  As15  1  0.750000  0.770074  0.629193  1
  As  As16  1  0.250000  0.600276  0.389508  1
  As  As17  1  0.250000  0.899724  0.889508  1
  As  As18  1  0.750000  0.399724  0.610492  1
  As  As19  1  0.750000  0.100276  0.110492  1
  Rh  Rh20  1  0.250000  0.708221  0.988492  1
  Rh  Rh21  1  0.250000  0.791779  0.488492  1
  Rh  Rh22  1  0.750000  0.291779  0.011508  1
  Rh  Rh23  1  0.750000  0.208221  0.511508  1
  Rh  Rh24  1  0.250000  0.407777  0.479204  1
  Rh  Rh25  1  0.250000  0.092223  0.979204  1
  Rh  Rh26  1  0.750000  0.592223  0.520796  1
  Rh  Rh27  1  0.750000  0.907777  0.020796  1
  Rh  Rh28  1  0.250000  0.222708  0.177098  1
  Rh  Rh29  1  0.250000  0.277292  0.677098  1
  Rh  Rh30  1  0.750000  0.777292  0.822902  1
  Rh  Rh31  1  0.750000  0.722708  0.322902  1
  Rh  Rh32  1  0.250000  0.888212  0.698639  1
  Rh  Rh33  1  0.250000  0.611788  0.198639  1
  Rh  Rh34  1  0.750000  0.111788  0.301361  1
  Rh  Rh35  1  0.750000  0.388212  0.801361  1
