# generated using pymatgen
data_La3(SnRu)2
_symmetry_space_group_name_H-M   'P 1'
_cell_length_a   6.03306700
_cell_length_b   8.68126700
_cell_length_c   13.93964600
_cell_angle_alpha   90.00000000
_cell_angle_beta   90.00000000
_cell_angle_gamma   90.00000000
_symmetry_Int_Tables_number   1
_chemical_formula_structural   La3(SnRu)2
_chemical_formula_sum   'La12 Sn8 Ru8'
_cell_volume   730.08429582
_cell_formula_units_Z   4
loop_
 _symmetry_equiv_pos_site_id
 _symmetry_equiv_pos_as_xyz
  1  'x, y, z'
loop_
 _atom_site_type_symbol
 _atom_site_label
 _atom_site_symmetry_multiplicity
 _atom_site_fract_x
 _atom_site_fract_y
 _atom_site_fract_z
 _atom_site_occupancy
  La  La0  1  0.163359  0.406920  0.589727  1
  La  La1  1  0.836641  0.593080  0.089727  1
  La  La2  1  0.163359  0.093080  0.410273  1
  La  La3  1  0.836641  0.906920  0.910273  1
  La  La4  1  0.836641  0.593080  0.410273  1
  La  La5  1  0.163359  0.406920  0.910273  1
  La  La6  1  0.836641  0.906920  0.589727  1
  La  La7  1  0.163359  0.093080  0.089727  1
  La  La8  1  0.624756  0.281791  0.750000  1
  La  La9  1  0.375244  0.718209  0.250000  1
  La  La10  1  0.624756  0.218209  0.250000  1
  La  La11  1  0.375244  0.781791  0.750000  1
  Sn  Sn12  1  0.122747  0.119711  0.750000  1
  Sn  Sn13  1  0.877253  0.880289  0.250000  1
  Sn  Sn14  1  0.122747  0.380289  0.250000  1
  Sn  Sn15  1  0.877253  0.619711  0.750000  1
  Sn  Sn16  1  0.632622  0.250000  0.500000  1
  Sn  Sn17  1  0.367378  0.750000  0.000000  1
  Sn  Sn18  1  0.367378  0.750000  0.500000  1
  Sn  Sn19  1  0.632622  0.250000  0.000000  1
  Ru  Ru20  1  0.347114  0.032172  0.585956  1
  Ru  Ru21  1  0.652886  0.967828  0.085956  1
  Ru  Ru22  1  0.347114  0.467828  0.414044  1
  Ru  Ru23  1  0.652886  0.532172  0.914044  1
  Ru  Ru24  1  0.652886  0.967828  0.414044  1
  Ru  Ru25  1  0.347114  0.032172  0.914044  1
  Ru  Ru26  1  0.652886  0.532172  0.585956  1
  Ru  Ru27  1  0.347114  0.467828  0.085956  1
