# generated using pymatgen
data_Pr10Pb6I
_symmetry_space_group_name_H-M   'P 1'
_cell_length_a   7.00255700
_cell_length_b   9.71024045
_cell_length_c   9.71061600
_cell_angle_alpha   119.99872437
_cell_angle_beta   89.99955817
_cell_angle_gamma   90.00088177
_symmetry_Int_Tables_number   1
_chemical_formula_structural   Pr10Pb6I
_chemical_formula_sum   'Pr10 Pb6 I1'
_cell_volume   571.83354909
_cell_formula_units_Z   1
loop_
 _symmetry_equiv_pos_site_id
 _symmetry_equiv_pos_as_xyz
  1  'x, y, z'
loop_
 _atom_site_type_symbol
 _atom_site_label
 _atom_site_symmetry_multiplicity
 _atom_site_fract_x
 _atom_site_fract_y
 _atom_site_fract_z
 _atom_site_occupancy
  Pr  Pr0  1  0.499764  0.333520  0.666889  1
  Pr  Pr1  1  0.499764  0.666630  0.333111  1
  Pr  Pr2  1  0.000266  0.666801  0.333349  1
  Pr  Pr3  1  0.000266  0.333451  0.666651  1
  Pr  Pr4  1  0.768778  0.259653  0.000000  1
  Pr  Pr5  1  0.767453  0.739944  0.740079  1
  Pr  Pr6  1  0.767453  0.999864  0.259921  1
  Pr  Pr7  1  0.231899  0.740785  0.000000  1
  Pr  Pr8  1  0.232171  0.259408  0.259502  1
  Pr  Pr9  1  0.232171  0.999907  0.740498  1
  Pb  Pb10  1  0.751825  0.611239  0.000000  1
  Pb  Pb11  1  0.752477  0.388550  0.388627  1
  Pb  Pb12  1  0.752477  0.999923  0.611373  1
  Pb  Pb13  1  0.247044  0.388718  0.000000  1
  Pb  Pb14  1  0.247792  0.611222  0.611060  1
  Pb  Pb15  1  0.247792  0.000161  0.388940  1
  I  I16  1  0.500612  0.000224  0.000000  1
