# generated using pymatgen
data_Hf16Tc3Ni4Pd
_symmetry_space_group_name_H-M   'P 1'
_cell_length_a   8.63307925
_cell_length_b   8.63307933
_cell_length_c   8.63308039
_cell_angle_alpha   60.12723207
_cell_angle_beta   60.12723037
_cell_angle_gamma   60.12722841
_symmetry_Int_Tables_number   1
_chemical_formula_structural   Hf16Tc3Ni4Pd
_chemical_formula_sum   'Hf16 Tc3 Ni4 Pd1'
_cell_volume   456.28082284
_cell_formula_units_Z   1
loop_
 _symmetry_equiv_pos_site_id
 _symmetry_equiv_pos_as_xyz
  1  'x, y, z'
loop_
 _atom_site_type_symbol
 _atom_site_label
 _atom_site_symmetry_multiplicity
 _atom_site_fract_x
 _atom_site_fract_y
 _atom_site_fract_z
 _atom_site_occupancy
  Hf  Hf0  1  0.681808  0.105686  0.105686  1
  Hf  Hf1  1  0.105686  0.681808  0.105686  1
  Hf  Hf2  1  0.105686  0.105686  0.681808  1
  Hf  Hf3  1  0.104339  0.104339  0.104339  1
  Hf  Hf4  1  0.315866  0.315866  0.692419  1
  Hf  Hf5  1  0.685574  0.685574  0.315099  1
  Hf  Hf6  1  0.315866  0.692419  0.315866  1
  Hf  Hf7  1  0.685574  0.315099  0.685574  1
  Hf  Hf8  1  0.692419  0.315866  0.315866  1
  Hf  Hf9  1  0.315099  0.685574  0.685574  1
  Hf  Hf10  1  0.950618  0.950618  0.549309  1
  Hf  Hf11  1  0.552345  0.552345  0.944762  1
  Hf  Hf12  1  0.950618  0.549309  0.950618  1
  Hf  Hf13  1  0.552345  0.944762  0.552345  1
  Hf  Hf14  1  0.549309  0.950618  0.950618  1
  Hf  Hf15  1  0.944762  0.552345  0.552345  1
  Tc  Tc16  1  0.994229  0.333482  0.333482  1
  Tc  Tc17  1  0.333482  0.994229  0.333482  1
  Tc  Tc18  1  0.333482  0.333482  0.994229  1
  Ni  Ni19  1  0.320814  0.891690  0.891690  1
  Ni  Ni20  1  0.891690  0.320814  0.891690  1
  Ni  Ni21  1  0.891690  0.891690  0.320814  1
  Ni  Ni22  1  0.893898  0.893898  0.893898  1
  Pd  Pd23  1  0.332799  0.332799  0.332799  1
