# generated using pymatgen
data_Yb10TlHgPt4
_symmetry_space_group_name_H-M   'P 1'
_cell_length_a   8.99846156
_cell_length_b   8.99846291
_cell_length_c   8.99846200
_cell_angle_alpha   128.37954272
_cell_angle_beta   128.37954956
_cell_angle_gamma   76.01098047
_symmetry_Int_Tables_number   1
_chemical_formula_structural   Yb10TlHgPt4
_chemical_formula_sum   'Yb10 Tl1 Hg1 Pt4'
_cell_volume   435.33639904
_cell_formula_units_Z   1
loop_
 _symmetry_equiv_pos_site_id
 _symmetry_equiv_pos_as_xyz
  1  'x, y, z'
loop_
 _atom_site_type_symbol
 _atom_site_label
 _atom_site_symmetry_multiplicity
 _atom_site_fract_x
 _atom_site_fract_y
 _atom_site_fract_z
 _atom_site_occupancy
  Yb  Yb0  1  0.999453  0.999453  0.000000  1
  Yb  Yb1  1  0.500547  0.500547  0.000000  1
  Yb  Yb2  1  0.797327  0.294286  0.830642  1
  Yb  Yb3  1  0.205714  0.702673  0.169358  1
  Yb  Yb4  1  0.463644  0.966685  0.169358  1
  Yb  Yb5  1  0.294286  0.463644  0.496959  1
  Yb  Yb6  1  0.036356  0.205714  0.503041  1
  Yb  Yb7  1  0.533315  0.036356  0.830642  1
  Yb  Yb8  1  0.702673  0.533315  0.496959  1
  Yb  Yb9  1  0.966685  0.797327  0.503041  1
  Tl  Tl10  1  0.750000  0.750000  0.000000  1
  Hg  Hg11  1  0.250000  0.250000  0.000000  1
  Pt  Pt12  1  0.132704  0.632704  0.765409  1
  Pt  Pt13  1  0.867296  0.367296  0.234591  1
  Pt  Pt14  1  0.632704  0.867296  0.500000  1
  Pt  Pt15  1  0.367296  0.132704  0.500000  1
