# generated using pymatgen
data_LaPr9Al4OsRu5
_symmetry_space_group_name_H-M   'P 1'
_cell_length_a   8.65831478
_cell_length_b   8.60179432
_cell_length_c   8.60179349
_cell_angle_alpha   109.00878512
_cell_angle_beta   109.92201057
_cell_angle_gamma   109.21685615
_symmetry_Int_Tables_number   1
_chemical_formula_structural   LaPr9Al4OsRu5
_chemical_formula_sum   'La1 Pr9 Al4 Os1 Ru5'
_cell_volume   494.74835071
_cell_formula_units_Z   1
loop_
 _symmetry_equiv_pos_site_id
 _symmetry_equiv_pos_as_xyz
  1  'x, y, z'
loop_
 _atom_site_type_symbol
 _atom_site_label
 _atom_site_symmetry_multiplicity
 _atom_site_fract_x
 _atom_site_fract_y
 _atom_site_fract_z
 _atom_site_occupancy
  La  La0  1  0.250000  0.691505  0.441505  1
  Pr  Pr1  1  0.750000  0.814488  0.064488  1
  Pr  Pr2  1  0.436935  0.254278  0.686236  1
  Pr  Pr3  1  0.680322  0.433110  0.246773  1
  Pr  Pr4  1  0.063065  0.749302  0.817343  1
  Pr  Pr5  1  0.819678  0.066451  0.752789  1
  Pr  Pr6  1  0.215289  0.214990  0.216959  1
  Pr  Pr7  1  0.503525  0.999960  0.288653  1
  Pr  Pr8  1  0.284711  0.501669  0.999701  1
  Pr  Pr9  1  0.996475  0.285127  0.496435  1
  Al  Al10  1  0.591186  0.591301  0.587720  1
  Al  Al11  1  0.497474  0.001140  0.912049  1
  Al  Al12  1  0.908814  0.496534  0.000115  1
  Al  Al13  1  0.002526  0.914575  0.503667  1
  Os  Os14  1  0.250000  0.119352  0.869352  1
  Ru  Ru15  1  0.750000  0.381432  0.631432  1
  Ru  Ru16  1  0.862530  0.242718  0.113924  1
  Ru  Ru17  1  0.123389  0.858283  0.255774  1
  Ru  Ru18  1  0.637469  0.751393  0.380187  1
  Ru  Ru19  1  0.376611  0.632385  0.734895  1
