# generated using pymatgen
data_RbNd2GdB24
_symmetry_space_group_name_H-M   'P 1'
_cell_length_a   7.17545116
_cell_length_b   7.17545228
_cell_length_c   5.88962100
_cell_angle_alpha   90.00000000
_cell_angle_beta   90.00000000
_cell_angle_gamma   109.31301105
_symmetry_Int_Tables_number   1
_chemical_formula_structural   RbNd2GdB24
_chemical_formula_sum   'Rb1 Nd2 Gd1 B24'
_cell_volume   286.17500760
_cell_formula_units_Z   1
loop_
 _symmetry_equiv_pos_site_id
 _symmetry_equiv_pos_as_xyz
  1  'x, y, z'
loop_
 _atom_site_type_symbol
 _atom_site_label
 _atom_site_symmetry_multiplicity
 _atom_site_fract_x
 _atom_site_fract_y
 _atom_site_fract_z
 _atom_site_occupancy
  Rb  Rb0  1  0.000000  0.000000  0.000000  1
  Nd  Nd1  1  0.752080  0.247920  0.500000  1
  Nd  Nd2  1  0.247920  0.752080  0.500000  1
  Gd  Gd3  1  0.500000  0.500000  0.000000  1
  B  B4  1  0.177309  0.326959  0.649705  1
  B  B5  1  0.923456  0.573809  0.148699  1
  B  B6  1  0.673041  0.822691  0.649705  1
  B  B7  1  0.426191  0.076544  0.148699  1
  B  B8  1  0.177309  0.326959  0.350295  1
  B  B9  1  0.923456  0.573809  0.851301  1
  B  B10  1  0.673041  0.822691  0.350295  1
  B  B11  1  0.426191  0.076544  0.851301  1
  B  B12  1  0.400796  0.400796  0.500000  1
  B  B13  1  0.148405  0.650862  0.000000  1
  B  B14  1  0.898269  0.898269  0.500000  1
  B  B15  1  0.650862  0.148404  0.000000  1
  B  B16  1  0.326959  0.177309  0.649705  1
  B  B17  1  0.076544  0.426191  0.148699  1
  B  B18  1  0.822691  0.673041  0.649705  1
  B  B19  1  0.573809  0.923456  0.148699  1
  B  B20  1  0.101731  0.101731  0.500000  1
  B  B21  1  0.851595  0.349138  0.000000  1
  B  B22  1  0.599204  0.599204  0.500000  1
  B  B23  1  0.349138  0.851596  0.000000  1
  B  B24  1  0.326959  0.177309  0.350295  1
  B  B25  1  0.076544  0.426191  0.851301  1
  B  B26  1  0.822691  0.673041  0.350295  1
  B  B27  1  0.573809  0.923456  0.851301  1
