# generated using pymatgen
data_Sm2Dy2AlOs7
_symmetry_space_group_name_H-M   'P 1'
_cell_length_a   5.39047200
_cell_length_b   5.39047363
_cell_length_c   8.78622000
_cell_angle_alpha   90.00000000
_cell_angle_beta   90.00000000
_cell_angle_gamma   120.00000225
_symmetry_Int_Tables_number   1
_chemical_formula_structural   Sm2Dy2AlOs7
_chemical_formula_sum   'Sm2 Dy2 Al1 Os7'
_cell_volume   221.09881554
_cell_formula_units_Z   1
loop_
 _symmetry_equiv_pos_site_id
 _symmetry_equiv_pos_as_xyz
  1  'x, y, z'
loop_
 _atom_site_type_symbol
 _atom_site_label
 _atom_site_symmetry_multiplicity
 _atom_site_fract_x
 _atom_site_fract_y
 _atom_site_fract_z
 _atom_site_occupancy
  Sm  Sm0  1  0.333333  0.666667  0.428137  1
  Sm  Sm1  1  0.666667  0.333333  0.571863  1
  Dy  Dy2  1  0.666667  0.333333  0.935311  1
  Dy  Dy3  1  0.333333  0.666667  0.064689  1
  Al  Al4  1  0.000000  0.000000  0.500000  1
  Os  Os5  1  0.000000  0.000000  0.000000  1
  Os  Os6  1  0.828851  0.171149  0.247667  1
  Os  Os7  1  0.828851  0.657701  0.247667  1
  Os  Os8  1  0.342299  0.171149  0.247667  1
  Os  Os9  1  0.171149  0.828851  0.752333  1
  Os  Os10  1  0.171149  0.342299  0.752333  1
  Os  Os11  1  0.657701  0.828851  0.752333  1
