# generated using pymatgen
data_Nd3In3Ir2Pt
_symmetry_space_group_name_H-M   'P 1'
_cell_length_a   7.72393500
_cell_length_b   7.72393345
_cell_length_c   4.04228400
_cell_angle_alpha   90.00000000
_cell_angle_beta   90.00000000
_cell_angle_gamma   119.99999380
_symmetry_Int_Tables_number   1
_chemical_formula_structural   Nd3In3Ir2Pt
_chemical_formula_sum   'Nd3 In3 Ir2 Pt1'
_cell_volume   208.85006503
_cell_formula_units_Z   1
loop_
 _symmetry_equiv_pos_site_id
 _symmetry_equiv_pos_as_xyz
  1  'x, y, z'
loop_
 _atom_site_type_symbol
 _atom_site_label
 _atom_site_symmetry_multiplicity
 _atom_site_fract_x
 _atom_site_fract_y
 _atom_site_fract_z
 _atom_site_occupancy
  Nd  Nd0  1  0.992315  0.586198  0.500000  1
  Nd  Nd1  1  0.593883  0.007685  0.500000  1
  Nd  Nd2  1  0.413802  0.406117  0.500000  1
  In  In3  1  0.996449  0.248505  0.000000  1
  In  In4  1  0.252056  0.003551  0.000000  1
  In  In5  1  0.751495  0.747944  0.000000  1
  Ir  Ir6  1  0.000000  0.000000  0.500000  1
  Ir  Ir7  1  0.666667  0.333333  0.000000  1
  Pt  Pt8  1  0.333333  0.666667  0.000000  1
