# generated using pymatgen
data_LaTh2(GeIr)3
_symmetry_space_group_name_H-M   'P 1'
_cell_length_a   7.34985079
_cell_length_b   7.34985278
_cell_length_c   4.01453300
_cell_angle_alpha   90.00000000
_cell_angle_beta   90.00000000
_cell_angle_gamma   119.87142487
_symmetry_Int_Tables_number   1
_chemical_formula_structural   LaTh2(GeIr)3
_chemical_formula_sum   'La1 Th2 Ge3 Ir3'
_cell_volume   188.05463663
_cell_formula_units_Z   1
loop_
 _symmetry_equiv_pos_site_id
 _symmetry_equiv_pos_as_xyz
  1  'x, y, z'
loop_
 _atom_site_type_symbol
 _atom_site_label
 _atom_site_symmetry_multiplicity
 _atom_site_fract_x
 _atom_site_fract_y
 _atom_site_fract_z
 _atom_site_occupancy
  La  La0  1  0.411792  0.411792  0.000000  1
  Th  Th1  1  0.587583  0.000737  0.000000  1
  Th  Th2  1  0.000737  0.587583  0.000000  1
  Ge  Ge3  1  0.244280  0.002729  0.500000  1
  Ge  Ge4  1  0.002729  0.244280  0.500000  1
  Ge  Ge5  1  0.750675  0.750675  0.500000  1
  Ir  Ir6  1  0.331663  0.680585  0.500000  1
  Ir  Ir7  1  0.680585  0.331663  0.500000  1
  Ir  Ir8  1  0.989956  0.989956  0.000000  1
