# generated using pymatgen
data_Er3PaV3ReB16
_symmetry_space_group_name_H-M   'P 1'
_cell_length_a   3.53271900
_cell_length_b   5.96650662
_cell_length_c   11.53633800
_cell_angle_alpha   89.86801768
_cell_angle_beta   90.00000000
_cell_angle_gamma   90.00000000
_symmetry_Int_Tables_number   1
_chemical_formula_structural   Er3PaV3ReB16
_chemical_formula_sum   'Er3 Pa1 V3 Re1 B16'
_cell_volume   243.16218702
_cell_formula_units_Z   1
loop_
 _symmetry_equiv_pos_site_id
 _symmetry_equiv_pos_as_xyz
  1  'x, y, z'
loop_
 _atom_site_type_symbol
 _atom_site_label
 _atom_site_symmetry_multiplicity
 _atom_site_fract_x
 _atom_site_fract_y
 _atom_site_fract_z
 _atom_site_occupancy
  Er  Er0  1  0.500000  0.874411  0.151254  1
  Er  Er1  1  0.500000  0.625338  0.650218  1
  Er  Er2  1  0.500000  0.374913  0.347673  1
  Pa  Pa3  1  0.500000  0.125743  0.851514  1
  V  V4  1  0.500000  0.870175  0.417734  1
  V  V5  1  0.500000  0.627073  0.915887  1
  V  V6  1  0.500000  0.373265  0.081363  1
  Re  Re7  1  0.500000  0.126863  0.584371  1
  B  B8  1  0.000000  0.284792  0.685271  1
  B  B9  1  0.000000  0.714454  0.314092  1
  B  B10  1  0.000000  0.784822  0.814900  1
  B  B11  1  0.000000  0.215927  0.186433  1
  B  B12  1  0.000000  0.365649  0.531277  1
  B  B13  1  0.000000  0.634162  0.467163  1
  B  B14  1  0.000000  0.864563  0.967159  1
  B  B15  1  0.000000  0.137117  0.033438  1
  B  B16  1  0.000000  0.023411  0.306990  1
  B  B17  1  0.000000  0.975304  0.691699  1
  B  B18  1  0.000000  0.523460  0.193234  1
  B  B19  1  0.000000  0.475038  0.808095  1
  B  B20  1  0.000000  0.114515  0.451971  1
  B  B21  1  0.000000  0.885012  0.546536  1
  B  B22  1  0.000000  0.615140  0.047779  1
  B  B23  1  0.000000  0.388852  0.953950  1
