# generated using pymatgen
data_NdTm9In8(PtAu)2
_symmetry_space_group_name_H-M   'P 1'
_cell_length_a   3.60523000
_cell_length_b   8.15805040
_cell_length_c   18.32345499
_cell_angle_alpha   89.77292389
_cell_angle_beta   90.00000000
_cell_angle_gamma   90.00000000
_symmetry_Int_Tables_number   1
_chemical_formula_structural   NdTm9In8(PtAu)2
_chemical_formula_sum   'Nd1 Tm9 In8 Pt2 Au2'
_cell_volume   538.91877685
_cell_formula_units_Z   1
loop_
 _symmetry_equiv_pos_site_id
 _symmetry_equiv_pos_as_xyz
  1  'x, y, z'
loop_
 _atom_site_type_symbol
 _atom_site_label
 _atom_site_symmetry_multiplicity
 _atom_site_fract_x
 _atom_site_fract_y
 _atom_site_fract_z
 _atom_site_occupancy
  Nd  Nd0  1  0.000000  0.500000  0.500000  1
  Tm  Tm1  1  0.000000  0.122124  0.418822  1
  Tm  Tm2  1  0.000000  0.877876  0.581178  1
  Tm  Tm3  1  0.000000  0.383606  0.916426  1
  Tm  Tm4  1  0.000000  0.616394  0.083574  1
  Tm  Tm5  1  0.000000  0.254518  0.218171  1
  Tm  Tm6  1  0.000000  0.745482  0.781829  1
  Tm  Tm7  1  0.000000  0.271172  0.721935  1
  Tm  Tm8  1  0.000000  0.728828  0.278065  1
  Tm  Tm9  1  0.000000  0.000000  0.000000  1
  In  In10  1  0.500000  0.423245  0.350524  1
  In  In11  1  0.500000  0.576755  0.649476  1
  In  In12  1  0.500000  0.075947  0.852700  1
  In  In13  1  0.500000  0.924053  0.147300  1
  In  In14  1  0.500000  0.291416  0.066519  1
  In  In15  1  0.500000  0.708584  0.933481  1
  In  In16  1  0.500000  0.204377  0.569866  1
  In  In17  1  0.500000  0.795623  0.430134  1
  Pt  Pt18  1  0.500000  0.473039  0.804442  1
  Pt  Pt19  1  0.500000  0.526961  0.195558  1
  Au  Au20  1  0.500000  0.026630  0.301357  1
  Au  Au21  1  0.500000  0.973370  0.698643  1
