# generated using pymatgen
data_Ca2SnBiPt2
_symmetry_space_group_name_H-M   'P 1'
_cell_length_a   4.66239600
_cell_length_b   7.41784900
_cell_length_c   8.26615500
_cell_angle_alpha   90.00000000
_cell_angle_beta   90.00000000
_cell_angle_gamma   90.00000000
_symmetry_Int_Tables_number   1
_chemical_formula_structural   Ca2SnBiPt2
_chemical_formula_sum   'Ca4 Sn2 Bi2 Pt4'
_cell_volume   285.88455329
_cell_formula_units_Z   2
loop_
 _symmetry_equiv_pos_site_id
 _symmetry_equiv_pos_as_xyz
  1  'x, y, z'
loop_
 _atom_site_type_symbol
 _atom_site_label
 _atom_site_symmetry_multiplicity
 _atom_site_fract_x
 _atom_site_fract_y
 _atom_site_fract_z
 _atom_site_occupancy
  Ca  Ca0  1  0.250000  0.986019  0.304523  1
  Ca  Ca1  1  0.250000  0.486019  0.195477  1
  Ca  Ca2  1  0.750000  0.012652  0.691742  1
  Ca  Ca3  1  0.750000  0.512652  0.808258  1
  Sn  Sn4  1  0.750000  0.677840  0.419270  1
  Sn  Sn5  1  0.750000  0.177840  0.080730  1
  Bi  Bi6  1  0.250000  0.319164  0.584284  1
  Bi  Bi7  1  0.250000  0.819164  0.915716  1
  Pt  Pt8  1  0.250000  0.212721  0.916238  1
  Pt  Pt9  1  0.250000  0.712721  0.583762  1
  Pt  Pt10  1  0.750000  0.791604  0.109632  1
  Pt  Pt11  1  0.750000  0.291604  0.390368  1
