# generated using pymatgen
data_Dy4NbAl5Tc2
_symmetry_space_group_name_H-M   'P 1'
_cell_length_a   5.58681410
_cell_length_b   5.65293493
_cell_length_c   8.81880300
_cell_angle_alpha   90.00000000
_cell_angle_beta   90.00000000
_cell_angle_gamma   120.39224420
_symmetry_Int_Tables_number   1
_chemical_formula_structural   Dy4NbAl5Tc2
_chemical_formula_sum   'Dy4 Nb1 Al5 Tc2'
_cell_volume   240.24165978
_cell_formula_units_Z   1
loop_
 _symmetry_equiv_pos_site_id
 _symmetry_equiv_pos_as_xyz
  1  'x, y, z'
loop_
 _atom_site_type_symbol
 _atom_site_label
 _atom_site_symmetry_multiplicity
 _atom_site_fract_x
 _atom_site_fract_y
 _atom_site_fract_z
 _atom_site_occupancy
  Dy  Dy0  1  0.333329  0.666665  0.441553  1
  Dy  Dy1  1  0.665742  0.332871  0.550460  1
  Dy  Dy2  1  0.665742  0.332871  0.949540  1
  Dy  Dy3  1  0.333329  0.666665  0.058447  1
  Nb  Nb4  1  0.686719  0.843359  0.750000  1
  Al  Al5  1  0.832797  0.159869  0.250000  1
  Al  Al6  1  0.832797  0.672928  0.250000  1
  Al  Al7  1  0.319479  0.159740  0.250000  1
  Al  Al8  1  0.184377  0.848332  0.750000  1
  Al  Al9  1  0.184377  0.336046  0.750000  1
  Tc  Tc10  1  0.980657  0.990328  0.504566  1
  Tc  Tc11  1  0.980657  0.990328  0.995434  1
