# generated using pymatgen
data_La3MgCd2AgPb2
_symmetry_space_group_name_H-M   'P 1'
_cell_length_a   7.83317456
_cell_length_b   7.77466835
_cell_length_c   4.79847600
_cell_angle_alpha   90.00000000
_cell_angle_beta   90.00000000
_cell_angle_gamma   119.75322436
_symmetry_Int_Tables_number   1
_chemical_formula_structural   La3MgCd2AgPb2
_chemical_formula_sum   'La3 Mg1 Cd2 Ag1 Pb2'
_cell_volume   253.70453053
_cell_formula_units_Z   1
loop_
 _symmetry_equiv_pos_site_id
 _symmetry_equiv_pos_as_xyz
  1  'x, y, z'
loop_
 _atom_site_type_symbol
 _atom_site_label
 _atom_site_symmetry_multiplicity
 _atom_site_fract_x
 _atom_site_fract_y
 _atom_site_fract_z
 _atom_site_occupancy
  La  La0  1  0.415231  0.411929  0.500000  1
  La  La1  1  0.584769  0.996698  0.500000  1
  La  La2  1  0.000000  0.593623  0.500000  1
  Mg  Mg3  1  0.000000  0.223007  0.000000  1
  Cd  Cd4  1  0.768692  0.770205  0.000000  1
  Cd  Cd5  1  0.231308  0.001512  0.000000  1
  Ag  Ag6  1  0.000000  0.010115  0.500000  1
  Pb  Pb7  1  0.672231  0.332570  0.000000  1
  Pb  Pb8  1  0.327769  0.660340  0.000000  1
