# generated using pymatgen
data_Zr6AlSnC4
_symmetry_space_group_name_H-M   'P 1'
_cell_length_a   3.37079800
_cell_length_b   3.37079739
_cell_length_c   20.03284200
_cell_angle_alpha   90.00000000
_cell_angle_beta   90.00000000
_cell_angle_gamma   120.00000594
_symmetry_Int_Tables_number   1
_chemical_formula_structural   Zr6AlSnC4
_chemical_formula_sum   'Zr6 Al1 Sn1 C4'
_cell_volume   197.12356671
_cell_formula_units_Z   1
loop_
 _symmetry_equiv_pos_site_id
 _symmetry_equiv_pos_as_xyz
  1  'x, y, z'
loop_
 _atom_site_type_symbol
 _atom_site_label
 _atom_site_symmetry_multiplicity
 _atom_site_fract_x
 _atom_site_fract_y
 _atom_site_fract_z
 _atom_site_occupancy
  Zr  Zr0  1  0.000000  0.000000  0.001295  1
  Zr  Zr1  1  0.333333  0.666666  0.130929  1
  Zr  Zr2  1  0.333333  0.666666  0.369071  1
  Zr  Zr3  1  0.000000  0.000000  0.498705  1
  Zr  Zr4  1  0.666668  0.333334  0.627487  1
  Zr  Zr5  1  0.666668  0.333334  0.872513  1
  Al  Al6  1  0.000000  0.000000  0.250000  1
  Sn  Sn7  1  0.000000  0.000000  0.750000  1
  C  C8  1  0.666668  0.333334  0.071925  1
  C  C9  1  0.666668  0.333334  0.428075  1
  C  C10  1  0.333333  0.666666  0.569023  1
  C  C11  1  0.333333  0.666666  0.930977  1
