# generated using pymatgen
data_Nd6ThP12Pd17
_symmetry_space_group_name_H-M   'P 1'
_cell_length_a   12.40839450
_cell_length_b   12.40839482
_cell_length_c   13.65952489
_cell_angle_alpha   68.36524470
_cell_angle_beta   68.36524342
_cell_angle_gamma   18.98626468
_symmetry_Int_Tables_number   1
_chemical_formula_structural   Nd6ThP12Pd17
_chemical_formula_sum   'Nd6 Th1 P12 Pd17'
_cell_volume   634.63361456
_cell_formula_units_Z   1
loop_
 _symmetry_equiv_pos_site_id
 _symmetry_equiv_pos_as_xyz
  1  'x, y, z'
loop_
 _atom_site_type_symbol
 _atom_site_label
 _atom_site_symmetry_multiplicity
 _atom_site_fract_x
 _atom_site_fract_y
 _atom_site_fract_z
 _atom_site_occupancy
  Nd  Nd0  1  0.364966  0.364966  0.000671  1
  Nd  Nd1  1  0.635034  0.635034  0.999329  1
  Nd  Nd2  1  0.233462  0.233462  0.313632  1
  Nd  Nd3  1  0.766538  0.766538  0.686368  1
  Nd  Nd4  1  0.418229  0.418229  0.261615  1
  Nd  Nd5  1  0.581771  0.581771  0.738385  1
  Th  Th6  1  0.500000  0.500000  0.500000  1
  P  P7  1  0.061285  0.061285  0.924812  1
  P  P8  1  0.938715  0.938715  0.075188  1
  P  P9  1  0.886278  0.886278  0.828882  1
  P  P10  1  0.113722  0.113722  0.171118  1
  P  P11  1  0.188355  0.188355  0.620008  1
  P  P12  1  0.811645  0.811645  0.379992  1
  P  P13  1  0.365249  0.365249  0.579141  1
  P  P14  1  0.634751  0.634751  0.420859  1
  P  P15  1  0.011155  0.011155  0.667635  1
  P  P16  1  0.988845  0.988845  0.332365  1
  P  P17  1  0.232705  0.232705  0.882434  1
  P  P18  1  0.767295  0.767295  0.117566  1
  Pd  Pd19  1  0.838797  0.838797  0.194172  1
  Pd  Pd20  1  0.161203  0.161203  0.805828  1
  Pd  Pd21  1  0.026205  0.026205  0.124407  1
  Pd  Pd22  1  0.973795  0.973795  0.875593  1
  Pd  Pd23  1  0.889847  0.889847  0.458374  1
  Pd  Pd24  1  0.110153  0.110153  0.541626  1
  Pd  Pd25  1  0.500000  0.500000  0.000000  1
  Pd  Pd26  1  0.546558  0.546558  0.253758  1
  Pd  Pd27  1  0.453442  0.453442  0.746242  1
  Pd  Pd28  1  0.296401  0.296401  0.487289  1
  Pd  Pd29  1  0.703599  0.703599  0.512711  1
  Pd  Pd30  1  0.666294  0.666294  0.223313  1
  Pd  Pd31  1  0.333706  0.333706  0.776687  1
  Pd  Pd32  1  0.907684  0.907684  0.643997  1
  Pd  Pd33  1  0.092316  0.092316  0.356003  1
  Pd  Pd34  1  0.217531  0.217531  0.070034  1
  Pd  Pd35  1  0.782469  0.782469  0.929966  1
