# generated using pymatgen
data_La3TbB4I5
_symmetry_space_group_name_H-M   'P 1'
_cell_length_a   9.93738341
_cell_length_b   9.93738336
_cell_length_c   10.11076418
_cell_angle_alpha   73.73543146
_cell_angle_beta   73.73543102
_cell_angle_gamma   25.28873981
_symmetry_Int_Tables_number   1
_chemical_formula_structural   La3TbB4I5
_chemical_formula_sum   'La3 Tb1 B4 I5'
_cell_volume   408.57193227
_cell_formula_units_Z   1
loop_
 _symmetry_equiv_pos_site_id
 _symmetry_equiv_pos_as_xyz
  1  'x, y, z'
loop_
 _atom_site_type_symbol
 _atom_site_label
 _atom_site_symmetry_multiplicity
 _atom_site_fract_x
 _atom_site_fract_y
 _atom_site_fract_z
 _atom_site_occupancy
  La  La0  1  0.493578  0.493578  0.255950  1
  La  La1  1  0.135087  0.135087  0.929237  1
  La  La2  1  0.865717  0.865717  0.063236  1
  Tb  Tb3  1  0.506715  0.506715  0.758650  1
  B  B4  1  0.315427  0.685379  0.999654  1
  B  B5  1  0.685379  0.315427  0.999654  1
  B  B6  1  0.998597  0.998597  0.093461  1
  B  B7  1  0.002215  0.002215  0.904348  1
  I  I8  1  0.674545  0.674545  0.671715  1
  I  I9  1  0.319159  0.319159  0.321520  1
  I  I10  1  0.335415  0.335415  0.833331  1
  I  I11  1  0.672900  0.672900  0.149197  1
  I  I12  1  0.009567  0.009567  0.510246  1
