# generated using pymatgen
data_DyHoTh6(ReC2)4
_symmetry_space_group_name_H-M   'P 1'
_cell_length_a   5.32360900
_cell_length_b   6.68495904
_cell_length_c   10.00927206
_cell_angle_alpha   89.98700625
_cell_angle_beta   90.00000000
_cell_angle_gamma   90.00000000
_symmetry_Int_Tables_number   1
_chemical_formula_structural   DyHoTh6(ReC2)4
_chemical_formula_sum   'Dy1 Ho1 Th6 Re4 C8'
_cell_volume   356.21104733
_cell_formula_units_Z   1
loop_
 _symmetry_equiv_pos_site_id
 _symmetry_equiv_pos_as_xyz
  1  'x, y, z'
loop_
 _atom_site_type_symbol
 _atom_site_label
 _atom_site_symmetry_multiplicity
 _atom_site_fract_x
 _atom_site_fract_y
 _atom_site_fract_z
 _atom_site_occupancy
  Dy  Dy0  1  0.250000  0.319124  0.446189  1
  Ho  Ho1  1  0.750000  0.180051  0.945849  1
  Th  Th2  1  0.250000  0.468687  0.781213  1
  Th  Th3  1  0.750000  0.031264  0.280923  1
  Th  Th4  1  0.250000  0.975385  0.719001  1
  Th  Th5  1  0.750000  0.524767  0.218846  1
  Th  Th6  1  0.250000  0.815741  0.047851  1
  Th  Th7  1  0.750000  0.684379  0.547947  1
  Re  Re8  1  0.250000  0.272176  0.137342  1
  Re  Re9  1  0.750000  0.227845  0.637737  1
  Re  Re10  1  0.250000  0.770932  0.363114  1
  Re  Re11  1  0.750000  0.729239  0.863188  1
  C  C12  1  0.250000  0.170073  0.948161  1
  C  C13  1  0.750000  0.833478  0.052424  1
  C  C14  1  0.250000  0.667069  0.552520  1
  C  C15  1  0.750000  0.329763  0.448323  1
  C  C16  1  0.250000  0.038135  0.261070  1
  C  C17  1  0.750000  0.461619  0.761271  1
  C  C18  1  0.250000  0.533139  0.243451  1
  C  C19  1  0.750000  0.967134  0.743580  1
