# generated using pymatgen
data_La3Ce3PrO12
_symmetry_space_group_name_H-M   'P 1'
_cell_length_a   6.88565825
_cell_length_b   6.86113071
_cell_length_c   6.81703074
_cell_angle_alpha   99.62463421
_cell_angle_beta   98.95222244
_cell_angle_gamma   99.62329571
_symmetry_Int_Tables_number   1
_chemical_formula_structural   La3Ce3PrO12
_chemical_formula_sum   'La3 Ce3 Pr1 O12'
_cell_volume   307.42581744
_cell_formula_units_Z   1
loop_
 _symmetry_equiv_pos_site_id
 _symmetry_equiv_pos_as_xyz
  1  'x, y, z'
loop_
 _atom_site_type_symbol
 _atom_site_label
 _atom_site_symmetry_multiplicity
 _atom_site_fract_x
 _atom_site_fract_y
 _atom_site_fract_z
 _atom_site_occupancy
  La  La0  1  0.861512  0.699142  0.394768  1
  La  La1  1  0.397077  0.863325  0.698737  1
  La  La2  1  0.699824  0.395635  0.860015  1
  Ce  Ce3  1  0.602308  0.138779  0.302931  1
  Ce  Ce4  1  0.301866  0.603701  0.138493  1
  Ce  Ce5  1  0.002180  0.003459  0.006063  1
  Pr  Pr6  1  0.137768  0.297298  0.605733  1
  O  O7  1  0.065751  0.937255  0.689515  1
  O  O8  1  0.688406  0.065420  0.937645  1
  O  O9  1  0.940814  0.687322  0.062250  1
  O  O10  1  0.923627  0.066136  0.313771  1
  O  O11  1  0.319742  0.938523  0.080130  1
  O  O12  1  0.077406  0.322363  0.948460  1
  O  O13  1  0.560363  0.828169  0.395048  1
  O  O14  1  0.188274  0.581255  0.419808  1
  O  O15  1  0.566139  0.422009  0.184090  1
  O  O16  1  0.439857  0.178823  0.569073  1
  O  O17  1  0.819465  0.403219  0.553943  1
  O  O18  1  0.407618  0.568166  0.839528  1
