# generated using pymatgen
data_HoLu2Co7(P3Ru)2
_symmetry_space_group_name_H-M   'P 1'
_cell_length_a   3.70864500
_cell_length_b   10.49631100
_cell_length_c   12.23410000
_cell_angle_alpha   90.00000000
_cell_angle_beta   90.00000000
_cell_angle_gamma   90.00000000
_symmetry_Int_Tables_number   1
_chemical_formula_structural   HoLu2Co7(P3Ru)2
_chemical_formula_sum   'Ho2 Lu4 Co14 P12 Ru4'
_cell_volume   476.23792778
_cell_formula_units_Z   2
loop_
 _symmetry_equiv_pos_site_id
 _symmetry_equiv_pos_as_xyz
  1  'x, y, z'
loop_
 _atom_site_type_symbol
 _atom_site_label
 _atom_site_symmetry_multiplicity
 _atom_site_fract_x
 _atom_site_fract_y
 _atom_site_fract_z
 _atom_site_occupancy
  Ho  Ho0  1  0.000000  0.500000  0.529811  1
  Ho  Ho1  1  0.500000  0.000000  0.477761  1
  Lu  Lu2  1  0.500000  0.818713  0.202410  1
  Lu  Lu3  1  0.500000  0.181287  0.202410  1
  Lu  Lu4  1  0.000000  0.682383  0.795873  1
  Lu  Lu5  1  0.000000  0.317617  0.795873  1
  Co  Co6  1  0.000000  0.500000  0.985349  1
  Co  Co7  1  0.500000  0.000000  0.013644  1
  Co  Co8  1  0.000000  0.200350  0.574299  1
  Co  Co9  1  0.000000  0.799650  0.574299  1
  Co  Co10  1  0.500000  0.878608  0.711269  1
  Co  Co11  1  0.500000  0.121392  0.711269  1
  Co  Co12  1  0.000000  0.622394  0.286277  1
  Co  Co13  1  0.000000  0.377606  0.286277  1
  Co  Co14  1  0.500000  0.332243  0.989222  1
  Co  Co15  1  0.500000  0.667757  0.989222  1
  Co  Co16  1  0.000000  0.167362  0.009433  1
  Co  Co17  1  0.000000  0.832638  0.009433  1
  Co  Co18  1  0.500000  0.500000  0.705747  1
  Co  Co19  1  0.000000  0.000000  0.293508  1
  P  P20  1  0.500000  0.310338  0.622581  1
  P  P21  1  0.500000  0.689662  0.622581  1
  P  P22  1  0.000000  0.183074  0.380199  1
  P  P23  1  0.000000  0.816926  0.380199  1
  P  P24  1  0.500000  0.500000  0.881150  1
  P  P25  1  0.000000  0.000000  0.117684  1
  P  P26  1  0.500000  0.845571  0.892988  1
  P  P27  1  0.500000  0.154429  0.892988  1
  P  P28  1  0.000000  0.654602  0.105527  1
  P  P29  1  0.000000  0.345398  0.105527  1
  P  P30  1  0.500000  0.500000  0.345819  1
  P  P31  1  0.000000  0.000000  0.650896  1
  Ru  Ru32  1  0.500000  0.295405  0.430426  1
  Ru  Ru33  1  0.500000  0.704595  0.430426  1
  Ru  Ru34  1  0.500000  0.500000  0.156392  1
  Ru  Ru35  1  0.000000  0.000000  0.841231  1
