# generated using pymatgen
data_La4Tb8Tc3Ru
_symmetry_space_group_name_H-M   'P 1'
_cell_length_a   6.50929928
_cell_length_b   7.39648916
_cell_length_c   9.44735900
_cell_angle_alpha   90.00000000
_cell_angle_beta   90.00000000
_cell_angle_gamma   89.88126506
_symmetry_Int_Tables_number   1
_chemical_formula_structural   La4Tb8Tc3Ru
_chemical_formula_sum   'La4 Tb8 Tc3 Ru1'
_cell_volume   454.85120717
_cell_formula_units_Z   1
loop_
 _symmetry_equiv_pos_site_id
 _symmetry_equiv_pos_as_xyz
  1  'x, y, z'
loop_
 _atom_site_type_symbol
 _atom_site_label
 _atom_site_symmetry_multiplicity
 _atom_site_fract_x
 _atom_site_fract_y
 _atom_site_fract_z
 _atom_site_occupancy
  La  La0  1  0.869360  0.555411  0.250000  1
  La  La1  1  0.629180  0.055183  0.250000  1
  La  La2  1  0.132711  0.443175  0.750000  1
  La  La3  1  0.365825  0.943479  0.750000  1
  Tb  Tb4  1  0.332067  0.673750  0.067743  1
  Tb  Tb5  1  0.164730  0.172957  0.433036  1
  Tb  Tb6  1  0.664800  0.327402  0.566413  1
  Tb  Tb7  1  0.833629  0.827418  0.933895  1
  Tb  Tb8  1  0.664800  0.327402  0.933587  1
  Tb  Tb9  1  0.833629  0.827418  0.566105  1
  Tb  Tb10  1  0.332067  0.673750  0.432257  1
  Tb  Tb11  1  0.164730  0.172957  0.066964  1
  Tc  Tc12  1  0.025329  0.872047  0.250000  1
  Tc  Tc13  1  0.470954  0.374596  0.250000  1
  Tc  Tc14  1  0.975842  0.128293  0.750000  1
  Ru  Ru15  1  0.540348  0.624762  0.750000  1
