# generated using pymatgen
data_CaAc(MgRh)2
_symmetry_space_group_name_H-M   'P 1'
_cell_length_a   4.27485400
_cell_length_b   7.26917232
_cell_length_c   8.51917200
_cell_angle_alpha   89.44966873
_cell_angle_beta   90.00000000
_cell_angle_gamma   90.00000000
_symmetry_Int_Tables_number   1
_chemical_formula_structural   CaAc(MgRh)2
_chemical_formula_sum   'Ca2 Ac2 Mg4 Rh4'
_cell_volume   264.71807958
_cell_formula_units_Z   2
loop_
 _symmetry_equiv_pos_site_id
 _symmetry_equiv_pos_as_xyz
  1  'x, y, z'
loop_
 _atom_site_type_symbol
 _atom_site_label
 _atom_site_symmetry_multiplicity
 _atom_site_fract_x
 _atom_site_fract_y
 _atom_site_fract_z
 _atom_site_occupancy
  Ca  Ca0  1  0.750000  0.472464  0.824886  1
  Ca  Ca1  1  0.250000  0.527536  0.175114  1
  Ac  Ac2  1  0.750000  0.972968  0.684136  1
  Ac  Ac3  1  0.250000  0.027032  0.315864  1
  Mg  Mg4  1  0.750000  0.845734  0.058019  1
  Mg  Mg5  1  0.250000  0.154266  0.941981  1
  Mg  Mg6  1  0.750000  0.372637  0.438588  1
  Mg  Mg7  1  0.250000  0.627363  0.561412  1
  Rh  Rh8  1  0.750000  0.739700  0.377273  1
  Rh  Rh9  1  0.250000  0.260300  0.622727  1
  Rh  Rh10  1  0.750000  0.227101  0.130187  1
  Rh  Rh11  1  0.250000  0.772899  0.869813  1
