# generated using pymatgen
data_Na2Hg(SeO3)2
_symmetry_space_group_name_H-M   'P 1'
_cell_length_a   6.88066900
_cell_length_b   11.12514000
_cell_length_c   16.82856600
_cell_angle_alpha   90.00000000
_cell_angle_beta   90.00000000
_cell_angle_gamma   90.00000000
_symmetry_Int_Tables_number   1
_chemical_formula_structural   Na2Hg(SeO3)2
_chemical_formula_sum   'Na16 Hg8 Se16 O48'
_cell_volume   1288.19990120
_cell_formula_units_Z   8
loop_
 _symmetry_equiv_pos_site_id
 _symmetry_equiv_pos_as_xyz
  1  'x, y, z'
loop_
 _atom_site_type_symbol
 _atom_site_label
 _atom_site_symmetry_multiplicity
 _atom_site_fract_x
 _atom_site_fract_y
 _atom_site_fract_z
 _atom_site_occupancy
  Na  Na0  1  0.878570  0.913284  0.235360  1
  Na  Na1  1  0.355784  0.121788  0.956018  1
  Na  Na2  1  0.621430  0.086716  0.735360  1
  Na  Na3  1  0.855784  0.121788  0.543982  1
  Na  Na4  1  0.378570  0.586716  0.764640  1
  Na  Na5  1  0.855784  0.378212  0.043982  1
  Na  Na6  1  0.878570  0.586716  0.735360  1
  Na  Na7  1  0.144216  0.621788  0.956018  1
  Na  Na8  1  0.121430  0.413284  0.264640  1
  Na  Na9  1  0.378570  0.913284  0.264640  1
  Na  Na10  1  0.121430  0.086716  0.764640  1
  Na  Na11  1  0.621430  0.413284  0.235360  1
  Na  Na12  1  0.144216  0.878212  0.456018  1
  Na  Na13  1  0.355784  0.378212  0.456018  1
  Na  Na14  1  0.644216  0.621788  0.543982  1
  Na  Na15  1  0.644216  0.878212  0.043982  1
  Hg  Hg16  1  0.134017  0.156225  0.147707  1
  Hg  Hg17  1  0.865983  0.843775  0.852293  1
  Hg  Hg18  1  0.865983  0.656225  0.352293  1
  Hg  Hg19  1  0.134017  0.343775  0.647707  1
  Hg  Hg20  1  0.634017  0.156225  0.352293  1
  Hg  Hg21  1  0.634017  0.343775  0.852293  1
  Hg  Hg22  1  0.365983  0.656225  0.147707  1
  Hg  Hg23  1  0.365983  0.843775  0.647707  1
  Se  Se24  1  0.162429  0.363625  0.857056  1
  Se  Se25  1  0.828916  0.382552  0.435104  1
  Se  Se26  1  0.662429  0.363625  0.642944  1
  Se  Se27  1  0.662429  0.136375  0.142944  1
  Se  Se28  1  0.171084  0.617448  0.564896  1
  Se  Se29  1  0.337571  0.636375  0.357056  1
  Se  Se30  1  0.337571  0.863625  0.857056  1
  Se  Se31  1  0.328916  0.382552  0.064896  1
  Se  Se32  1  0.828916  0.117448  0.935104  1
  Se  Se33  1  0.671084  0.617448  0.935104  1
  Se  Se34  1  0.837571  0.636375  0.142944  1
  Se  Se35  1  0.328916  0.117448  0.564896  1
  Se  Se36  1  0.837571  0.863625  0.642944  1
  Se  Se37  1  0.671084  0.882552  0.435104  1
  Se  Se38  1  0.162429  0.136375  0.357056  1
  Se  Se39  1  0.171084  0.882552  0.064896  1
  O  O40  1  0.827342  0.772382  0.472409  1
  O  O41  1  0.165550  0.537805  0.394624  1
  O  O42  1  0.123687  0.062915  0.265670  1
  O  O43  1  0.307097  0.241606  0.835255  1
  O  O44  1  0.123687  0.437085  0.765670  1
  O  O45  1  0.376313  0.937085  0.765670  1
  O  O46  1  0.329303  0.002933  0.074955  1
  O  O47  1  0.672658  0.227618  0.972409  1
  O  O48  1  0.327342  0.727618  0.527591  1
  O  O49  1  0.159275  0.670384  0.661982  1
  O  O50  1  0.329303  0.497067  0.574955  1
  O  O51  1  0.307097  0.258394  0.335255  1
  O  O52  1  0.840725  0.170384  0.838018  1
  O  O53  1  0.840725  0.329616  0.338018  1
  O  O54  1  0.340725  0.329616  0.161982  1
  O  O55  1  0.876313  0.562915  0.234330  1
  O  O56  1  0.692903  0.758394  0.164745  1
  O  O57  1  0.172658  0.227618  0.527591  1
  O  O58  1  0.659275  0.670384  0.838018  1
  O  O59  1  0.170697  0.997067  0.574955  1
  O  O60  1  0.159275  0.829616  0.161982  1
  O  O61  1  0.829303  0.497067  0.925045  1
  O  O62  1  0.672658  0.272382  0.472409  1
  O  O63  1  0.172658  0.272382  0.027591  1
  O  O64  1  0.876313  0.937085  0.734330  1
  O  O65  1  0.192903  0.758394  0.335255  1
  O  O66  1  0.807097  0.241606  0.664745  1
  O  O67  1  0.376313  0.562915  0.265670  1
  O  O68  1  0.665550  0.962195  0.605376  1
  O  O69  1  0.670697  0.502933  0.425045  1
  O  O70  1  0.165550  0.962195  0.894624  1
  O  O71  1  0.192903  0.741606  0.835255  1
  O  O72  1  0.807097  0.258394  0.164745  1
  O  O73  1  0.834450  0.462195  0.605376  1
  O  O74  1  0.327342  0.772382  0.027591  1
  O  O75  1  0.834450  0.037805  0.105376  1
  O  O76  1  0.692903  0.741606  0.664745  1
  O  O77  1  0.334450  0.037805  0.394624  1
  O  O78  1  0.827342  0.727618  0.972409  1
  O  O79  1  0.829303  0.002933  0.425045  1
  O  O80  1  0.670697  0.997067  0.925045  1
  O  O81  1  0.623687  0.437085  0.734330  1
  O  O82  1  0.623687  0.062915  0.234330  1
  O  O83  1  0.340725  0.170384  0.661982  1
  O  O84  1  0.170697  0.502933  0.074955  1
  O  O85  1  0.659275  0.829616  0.338018  1
  O  O86  1  0.334450  0.462195  0.894624  1
  O  O87  1  0.665550  0.537805  0.105376  1
