# generated using pymatgen
data_LiMg(Sn4Ru)2
_symmetry_space_group_name_H-M   'P 1'
_cell_length_a   7.42075641
_cell_length_b   7.42075647
_cell_length_c   7.42075619
_cell_angle_alpha   125.77603835
_cell_angle_beta   125.77603481
_cell_angle_gamma   80.25654709
_symmetry_Int_Tables_number   1
_chemical_formula_structural   LiMg(Sn4Ru)2
_chemical_formula_sum   'Li1 Mg1 Sn8 Ru2'
_cell_volume   259.57210570
_cell_formula_units_Z   1
loop_
 _symmetry_equiv_pos_site_id
 _symmetry_equiv_pos_as_xyz
  1  'x, y, z'
loop_
 _atom_site_type_symbol
 _atom_site_label
 _atom_site_symmetry_multiplicity
 _atom_site_fract_x
 _atom_site_fract_y
 _atom_site_fract_z
 _atom_site_occupancy
  Li  Li0  1  0.000000  0.000000  0.000000  1
  Mg  Mg1  1  0.500000  0.500000  0.000000  1
  Sn  Sn2  1  0.710721  0.525533  0.511883  1
  Sn  Sn3  1  0.525533  0.013650  0.814812  1
  Sn  Sn4  1  0.198838  0.710721  0.185188  1
  Sn  Sn5  1  0.801162  0.289279  0.814812  1
  Sn  Sn6  1  0.474467  0.986350  0.185188  1
  Sn  Sn7  1  0.289279  0.474467  0.488117  1
  Sn  Sn8  1  0.986350  0.801162  0.511883  1
  Sn  Sn9  1  0.013650  0.198838  0.488117  1
  Ru  Ru10  1  0.255713  0.255713  0.000000  1
  Ru  Ru11  1  0.744287  0.744287  0.000000  1
