# generated using pymatgen
data_Zr2Be8TcIr
_symmetry_space_group_name_H-M   'P 1'
_cell_length_a   4.54033200
_cell_length_b   4.54033213
_cell_length_c   7.44428100
_cell_angle_alpha   90.00000000
_cell_angle_beta   90.00000000
_cell_angle_gamma   119.99999908
_symmetry_Int_Tables_number   1
_chemical_formula_structural   Zr2Be8TcIr
_chemical_formula_sum   'Zr2 Be8 Tc1 Ir1'
_cell_volume   132.90111585
_cell_formula_units_Z   1
loop_
 _symmetry_equiv_pos_site_id
 _symmetry_equiv_pos_as_xyz
  1  'x, y, z'
loop_
 _atom_site_type_symbol
 _atom_site_label
 _atom_site_symmetry_multiplicity
 _atom_site_fract_x
 _atom_site_fract_y
 _atom_site_fract_z
 _atom_site_occupancy
  Zr  Zr0  1  0.666667  0.333333  0.936285  1
  Zr  Zr1  1  0.333333  0.666667  0.436855  1
  Be  Be2  1  0.000000  0.000000  0.003827  1
  Be  Be3  1  0.000000  0.000000  0.499018  1
  Be  Be4  1  0.833067  0.666135  0.250227  1
  Be  Be5  1  0.165814  0.834186  0.745534  1
  Be  Be6  1  0.668374  0.834186  0.745534  1
  Be  Be7  1  0.333865  0.166933  0.250227  1
  Be  Be8  1  0.833067  0.166933  0.250227  1
  Be  Be9  1  0.165814  0.331626  0.745534  1
  Tc  Tc10  1  0.666667  0.333333  0.568307  1
  Ir  Ir11  1  0.333333  0.666667  0.068427  1
