# generated using pymatgen
data_Tb11Dy2Y3(In3Co)2
_symmetry_space_group_name_H-M   'P 1'
_cell_length_a   10.40853800
_cell_length_b   10.40857296
_cell_length_c   7.05213600
_cell_angle_alpha   90.00305407
_cell_angle_beta   89.99996697
_cell_angle_gamma   119.99986346
_symmetry_Int_Tables_number   1
_chemical_formula_structural   Tb11Dy2Y3(In3Co)2
_chemical_formula_sum   'Tb11 Dy2 Y3 In6 Co2'
_cell_volume   661.65687682
_cell_formula_units_Z   1
loop_
 _symmetry_equiv_pos_site_id
 _symmetry_equiv_pos_as_xyz
  1  'x, y, z'
loop_
 _atom_site_type_symbol
 _atom_site_label
 _atom_site_symmetry_multiplicity
 _atom_site_fract_x
 _atom_site_fract_y
 _atom_site_fract_z
 _atom_site_occupancy
  Tb  Tb0  1  0.463963  0.536000  0.482911  1
  Tb  Tb1  1  0.072037  0.536000  0.482911  1
  Tb  Tb2  1  0.463988  0.927977  0.482884  1
  Tb  Tb3  1  0.535687  0.464273  0.983431  1
  Tb  Tb4  1  0.928586  0.464273  0.983431  1
  Tb  Tb5  1  0.535719  0.071437  0.983451  1
  Tb  Tb6  1  0.821846  0.178152  0.276004  1
  Tb  Tb7  1  0.356306  0.178152  0.276004  1
  Tb  Tb8  1  0.821847  0.643696  0.275996  1
  Tb  Tb9  1  0.178189  0.821812  0.775855  1
  Tb  Tb10  1  0.643623  0.821812  0.775855  1
  Dy  Dy11  1  0.178201  0.356403  0.775871  1
  Dy  Dy12  1  0.333317  0.666634  0.091194  1
  Y  Y13  1  0.666667  0.333332  0.592794  1
  Y  Y14  1  0.000013  0.000025  0.495105  1
  Y  Y15  1  0.000004  0.000009  0.995393  1
  In  In16  1  0.163047  0.836954  0.234103  1
  In  In17  1  0.673907  0.836954  0.234103  1
  In  In18  1  0.163047  0.326094  0.234048  1
  In  In19  1  0.837071  0.163031  0.734025  1
  In  In20  1  0.325959  0.163031  0.734025  1
  In  In21  1  0.837006  0.674013  0.734018  1
  Co  Co22  1  0.333302  0.666605  0.707078  1
  Co  Co23  1  0.666667  0.333333  0.204060  1
