# generated using pymatgen
data_Hf8Ga6Tc2C
_symmetry_space_group_name_H-M   'P 1'
_cell_length_a   7.79974100
_cell_length_b   7.79974175
_cell_length_c   5.43593600
_cell_angle_alpha   90.00000000
_cell_angle_beta   90.00000000
_cell_angle_gamma   119.99999259
_symmetry_Int_Tables_number   1
_chemical_formula_structural   Hf8Ga6Tc2C
_chemical_formula_sum   'Hf8 Ga6 Tc2 C1'
_cell_volume   286.39498174
_cell_formula_units_Z   1
loop_
 _symmetry_equiv_pos_site_id
 _symmetry_equiv_pos_as_xyz
  1  'x, y, z'
loop_
 _atom_site_type_symbol
 _atom_site_label
 _atom_site_symmetry_multiplicity
 _atom_site_fract_x
 _atom_site_fract_y
 _atom_site_fract_z
 _atom_site_occupancy
  Hf  Hf0  1  0.000000  0.761448  0.257294  1
  Hf  Hf1  1  0.238552  0.238552  0.257294  1
  Hf  Hf2  1  0.761448  0.000000  0.257294  1
  Hf  Hf3  1  0.000000  0.238552  0.742706  1
  Hf  Hf4  1  0.761448  0.761448  0.742706  1
  Hf  Hf5  1  0.238552  0.000000  0.742706  1
  Hf  Hf6  1  0.333333  0.666667  0.000000  1
  Hf  Hf7  1  0.666667  0.333333  0.000000  1
  Ga  Ga8  1  0.000000  0.404789  0.267371  1
  Ga  Ga9  1  0.595211  0.595211  0.267371  1
  Ga  Ga10  1  0.404789  0.000000  0.267371  1
  Ga  Ga11  1  0.000000  0.595211  0.732629  1
  Ga  Ga12  1  0.404789  0.404789  0.732629  1
  Ga  Ga13  1  0.595211  0.000000  0.732629  1
  Tc  Tc14  1  0.666667  0.333333  0.500000  1
  Tc  Tc15  1  0.333333  0.666667  0.500000  1
  C  C16  1  0.000000  0.000000  0.500000  1
