# generated using pymatgen
data_CsAgH4
_symmetry_space_group_name_H-M   'P 1'
_cell_length_a   4.96321000
_cell_length_b   10.15709500
_cell_length_c   9.94358300
_cell_angle_alpha   90.00000000
_cell_angle_beta   90.00000000
_cell_angle_gamma   90.00000000
_symmetry_Int_Tables_number   1
_chemical_formula_structural   CsAgH4
_chemical_formula_sum   'Cs4 Ag4 H16'
_cell_volume   501.27387248
_cell_formula_units_Z   4
loop_
 _symmetry_equiv_pos_site_id
 _symmetry_equiv_pos_as_xyz
  1  'x, y, z'
loop_
 _atom_site_type_symbol
 _atom_site_label
 _atom_site_symmetry_multiplicity
 _atom_site_fract_x
 _atom_site_fract_y
 _atom_site_fract_z
 _atom_site_occupancy
  Cs  Cs0  1  0.250000  0.279584  0.697790  1
  Cs  Cs1  1  0.250000  0.220415  0.197790  1
  Cs  Cs2  1  0.750000  0.720416  0.302210  1
  Cs  Cs3  1  0.750000  0.779584  0.802210  1
  Ag  Ag4  1  0.250000  0.563320  0.074064  1
  Ag  Ag5  1  0.250000  0.936680  0.574064  1
  Ag  Ag6  1  0.750000  0.436680  0.925936  1
  Ag  Ag7  1  0.750000  0.063320  0.425936  1
  H  H8  1  0.250000  0.620964  0.915050  1
  H  H9  1  0.250000  0.879036  0.415050  1
  H  H10  1  0.750000  0.379036  0.084950  1
  H  H11  1  0.750000  0.120964  0.584950  1
  H  H12  1  0.250000  0.528445  0.244707  1
  H  H13  1  0.250000  0.971555  0.744707  1
  H  H14  1  0.750000  0.471555  0.755293  1
  H  H15  1  0.750000  0.028445  0.255293  1
  H  H16  1  0.825673  0.080647  0.914835  1
  H  H17  1  0.674327  0.419353  0.414835  1
  H  H18  1  0.325673  0.919353  0.085165  1
  H  H19  1  0.174327  0.580647  0.585165  1
  H  H20  1  0.174327  0.919353  0.085165  1
  H  H21  1  0.325673  0.580647  0.585165  1
  H  H22  1  0.674327  0.080647  0.914835  1
  H  H23  1  0.825673  0.419353  0.414835  1
