# generated using pymatgen
data_AgSb(SeO4)3
_symmetry_space_group_name_H-M   'P 1'
_cell_length_a   9.23299158
_cell_length_b   9.47092863
_cell_length_c   9.33223800
_cell_angle_alpha   109.80467022
_cell_angle_beta   107.24307432
_cell_angle_gamma   108.60775054
_symmetry_Int_Tables_number   1
_chemical_formula_structural   AgSb(SeO4)3
_chemical_formula_sum   'Ag2 Sb2 Se6 O24'
_cell_volume   648.45787476
_cell_formula_units_Z   2
loop_
 _symmetry_equiv_pos_site_id
 _symmetry_equiv_pos_as_xyz
  1  'x, y, z'
loop_
 _atom_site_type_symbol
 _atom_site_label
 _atom_site_symmetry_multiplicity
 _atom_site_fract_x
 _atom_site_fract_y
 _atom_site_fract_z
 _atom_site_occupancy
  Ag  Ag0  1  0.823036  0.413094  0.213692  1
  Ag  Ag1  1  0.773428  0.153408  0.605561  1
  Sb  Sb2  1  0.023533  0.982415  0.997901  1
  Sb  Sb3  1  0.480362  0.511613  0.509226  1
  Se  Se4  1  0.591581  0.919975  0.785131  1
  Se  Se5  1  0.204535  0.412613  0.099022  1
  Se  Se6  1  0.091617  0.206833  0.426361  1
  Se  Se7  1  0.889950  0.770793  0.564877  1
  Se  Se8  1  0.761469  0.555286  0.883731  1
  Se  Se9  1  0.462969  0.133277  0.251270  1
  O  O10  1  0.035424  0.854356  0.780152  1
  O  O11  1  0.245493  0.983923  0.122302  1
  O  O12  1  0.980541  0.687980  0.458652  1
  O  O13  1  0.548038  0.029158  0.322588  1
  O  O14  1  0.064902  0.442425  0.164190  1
  O  O15  1  0.526146  0.889179  0.919586  1
  O  O16  1  0.482015  0.738219  0.582444  1
  O  O17  1  0.250587  0.488198  0.978027  1
  O  O18  1  0.243549  0.415764  0.493109  1
  O  O19  1  0.146573  0.194421  0.987032  1
  O  O20  1  0.403456  0.487653  0.272793  1
  O  O21  1  0.827626  0.901323  0.522433  1
  O  O22  1  0.173843  0.100396  0.492839  1
  O  O23  1  0.577848  0.555364  0.754660  1
  O  O24  1  0.909972  0.772381  0.016807  1
  O  O25  1  0.719849  0.589870  0.529722  1
  O  O26  1  0.708268  0.498375  0.014982  1
  O  O27  1  0.459258  0.275347  0.427881  1
  O  O28  1  0.545829  0.231876  0.158462  1
  O  O29  1  0.835117  0.451625  0.771162  1
  O  O30  1  0.590332  0.072151  0.738530  1
  O  O31  1  0.942805  0.241043  0.471212  1
  O  O32  1  0.801356  0.949511  0.835703  1
  O  O33  1  0.997985  0.118644  0.200184  1
