# generated using pymatgen
data_Tm3Lu9Ni4SnAu
_symmetry_space_group_name_H-M   'P 1'
_cell_length_a   8.18308773
_cell_length_b   8.17789770
_cell_length_c   8.18213686
_cell_angle_alpha   106.92689687
_cell_angle_beta   109.28987037
_cell_angle_gamma   112.24817078
_symmetry_Int_Tables_number   1
_chemical_formula_structural   Tm3Lu9Ni4SnAu
_chemical_formula_sum   'Tm3 Lu9 Ni4 Sn1 Au1'
_cell_volume   420.55333088
_cell_formula_units_Z   1
loop_
 _symmetry_equiv_pos_site_id
 _symmetry_equiv_pos_as_xyz
  1  'x, y, z'
loop_
 _atom_site_type_symbol
 _atom_site_label
 _atom_site_symmetry_multiplicity
 _atom_site_fract_x
 _atom_site_fract_y
 _atom_site_fract_z
 _atom_site_occupancy
  Tm  Tm0  1  0.973800  0.791990  0.181986  1
  Tm  Tm1  1  0.025223  0.207483  0.817621  1
  Tm  Tm2  1  0.389579  0.207704  0.181988  1
  Lu  Lu3  1  0.701884  0.276929  0.979577  1
  Lu  Lu4  1  0.299088  0.721855  0.020241  1
  Lu  Lu5  1  0.701501  0.722287  0.424613  1
  Lu  Lu6  1  0.299194  0.278822  0.577286  1
  Lu  Lu7  1  0.805274  0.129627  0.324286  1
  Lu  Lu8  1  0.805081  0.480821  0.675758  1
  Lu  Lu9  1  0.195429  0.870724  0.676080  1
  Lu  Lu10  1  0.195279  0.519449  0.324833  1
  Lu  Lu11  1  0.609838  0.791934  0.817847  1
  Ni  Ni12  1  0.863735  0.501395  0.363389  1
  Ni  Ni13  1  0.138013  0.500271  0.637438  1
  Ni  Ni14  1  0.996955  0.125324  0.123444  1
  Ni  Ni15  1  0.998849  0.873464  0.872905  1
  Sn  Sn16  1  0.500260  0.999810  0.500136  1
  Au  Au17  1  0.501015  0.500111  0.000572  1
