# generated using pymatgen
data_Pr5NdIrPtBr6
_symmetry_space_group_name_H-M   'P 1'
_cell_length_a   10.62764134
_cell_length_b   10.62974759
_cell_length_c   10.54470758
_cell_angle_alpha   109.52545011
_cell_angle_beta   109.37622895
_cell_angle_gamma   109.84385671
_symmetry_Int_Tables_number   1
_chemical_formula_structural   Pr5NdIrPtBr6
_chemical_formula_sum   'Pr10 Nd2 Ir2 Pt2 Br12'
_cell_volume   913.21961450
_cell_formula_units_Z   2
loop_
 _symmetry_equiv_pos_site_id
 _symmetry_equiv_pos_as_xyz
  1  'x, y, z'
loop_
 _atom_site_type_symbol
 _atom_site_label
 _atom_site_symmetry_multiplicity
 _atom_site_fract_x
 _atom_site_fract_y
 _atom_site_fract_z
 _atom_site_occupancy
  Pr  Pr0  1  0.755680  0.017987  0.488426  1
  Pr  Pr1  1  0.232724  0.470522  0.488378  1
  Pr  Pr2  1  0.263074  0.744433  0.233263  1
  Pr  Pr3  1  0.029492  0.267224  0.011544  1
  Pr  Pr4  1  0.011121  0.029840  0.266753  1
  Pr  Pr5  1  0.482229  0.744418  0.011683  1
  Pr  Pr6  1  0.485635  0.235562  0.470512  1
  Pr  Pr7  1  0.014313  0.485106  0.749331  1
  Pr  Pr8  1  0.265054  0.015059  0.029498  1
  Pr  Pr9  1  0.235795  0.264981  0.750613  1
  Nd  Nd10  1  0.469144  0.487912  0.232605  1
  Nd  Nd11  1  0.755299  0.236508  0.267426  1
  Ir  Ir12  1  0.999583  0.250197  0.499783  1
  Ir  Ir13  1  0.250424  0.499808  0.000222  1
  Pt  Pt14  1  0.250647  0.250969  0.250062  1
  Pt  Pt15  1  0.500919  0.000582  0.249943  1
  Br  Br16  1  0.250254  0.755483  0.746328  1
  Br  Br17  1  0.509146  0.503925  0.753657  1
  Br  Br18  1  0.993747  0.747324  0.997389  1
  Br  Br19  1  0.744549  0.249786  0.753604  1
  Br  Br20  1  0.996231  0.990968  0.746403  1
  Br  Br21  1  0.249908  0.996358  0.502580  1
  Br  Br22  1  0.752023  0.505496  0.500838  1
  Br  Br23  1  0.504593  0.251136  0.999157  1
  Br  Br24  1  0.753114  0.745172  0.250015  1
  Br  Br25  1  0.746069  0.997211  0.993136  1
  Br  Br26  1  0.995206  0.503118  0.250037  1
  Br  Br27  1  0.504032  0.752915  0.506813  1
