# generated using pymatgen
data_Ce2TmMg(InRu)2
_symmetry_space_group_name_H-M   'P 1'
_cell_length_a   8.16017267
_cell_length_b   8.16017181
_cell_length_c   4.95884996
_cell_angle_alpha   83.27585384
_cell_angle_beta   83.27585312
_cell_angle_gamma   35.21797733
_symmetry_Int_Tables_number   1
_chemical_formula_structural   Ce2TmMg(InRu)2
_chemical_formula_sum   'Ce2 Tm1 Mg1 In2 Ru2'
_cell_volume   188.98141575
_cell_formula_units_Z   1
loop_
 _symmetry_equiv_pos_site_id
 _symmetry_equiv_pos_as_xyz
  1  'x, y, z'
loop_
 _atom_site_type_symbol
 _atom_site_label
 _atom_site_symmetry_multiplicity
 _atom_site_fract_x
 _atom_site_fract_y
 _atom_site_fract_z
 _atom_site_occupancy
  Ce  Ce0  1  0.832135  0.832135  0.568042  1
  Ce  Ce1  1  0.171200  0.171200  0.427781  1
  Tm  Tm2  1  0.000597  0.000597  0.000486  1
  Mg  Mg3  1  0.370169  0.370169  0.041866  1
  In  In4  1  0.497077  0.497077  0.500417  1
  In  In5  1  0.626362  0.626362  0.959617  1
  Ru  Ru6  1  0.796795  0.796795  0.120837  1
  Ru  Ru7  1  0.205667  0.205667  0.880955  1
