# generated using pymatgen
data_Nd4Cu3Pt
_symmetry_space_group_name_H-M   'P 1'
_cell_length_a   4.53664500
_cell_length_b   5.71719539
_cell_length_c   7.33677997
_cell_angle_alpha   89.73303923
_cell_angle_beta   90.00000000
_cell_angle_gamma   90.00000000
_symmetry_Int_Tables_number   1
_chemical_formula_structural   Nd4Cu3Pt
_chemical_formula_sum   'Nd4 Cu3 Pt1'
_cell_volume   190.29115934
_cell_formula_units_Z   1
loop_
 _symmetry_equiv_pos_site_id
 _symmetry_equiv_pos_as_xyz
  1  'x, y, z'
loop_
 _atom_site_type_symbol
 _atom_site_label
 _atom_site_symmetry_multiplicity
 _atom_site_fract_x
 _atom_site_fract_y
 _atom_site_fract_z
 _atom_site_occupancy
  Nd  Nd0  1  0.000000  0.632120  0.321825  1
  Nd  Nd1  1  0.000000  0.869900  0.818895  1
  Nd  Nd2  1  0.500000  0.364078  0.676266  1
  Nd  Nd3  1  0.500000  0.131798  0.183919  1
  Cu  Cu4  1  0.000000  0.384405  0.965879  1
  Cu  Cu5  1  0.500000  0.868050  0.538794  1
  Cu  Cu6  1  0.500000  0.618563  0.032843  1
  Pt  Pt7  1  0.000000  0.131086  0.461579  1
