# generated using pymatgen
data_YTh2(MgAu)3
_symmetry_space_group_name_H-M   'P 1'
_cell_length_a   7.72004518
_cell_length_b   7.72004557
_cell_length_c   4.19523400
_cell_angle_alpha   90.00000000
_cell_angle_beta   90.00000000
_cell_angle_gamma   120.34098976
_symmetry_Int_Tables_number   1
_chemical_formula_structural   YTh2(MgAu)3
_chemical_formula_sum   'Y1 Th2 Mg3 Au3'
_cell_volume   215.78636343
_cell_formula_units_Z   1
loop_
 _symmetry_equiv_pos_site_id
 _symmetry_equiv_pos_as_xyz
  1  'x, y, z'
loop_
 _atom_site_type_symbol
 _atom_site_label
 _atom_site_symmetry_multiplicity
 _atom_site_fract_x
 _atom_site_fract_y
 _atom_site_fract_z
 _atom_site_occupancy
  Y  Y0  1  0.411890  0.411890  0.000000  1
  Th  Th1  1  0.586276  0.999992  0.000000  1
  Th  Th2  1  0.999992  0.586276  0.000000  1
  Mg  Mg3  1  0.243907  0.007560  0.500000  1
  Mg  Mg4  1  0.007560  0.243907  0.500000  1
  Mg  Mg5  1  0.751803  0.751803  0.500000  1
  Au  Au6  1  0.334075  0.666325  0.500000  1
  Au  Au7  1  0.666325  0.334075  0.500000  1
  Au  Au8  1  0.998172  0.998172  0.000000  1
