# generated using pymatgen
data_Sm3NCl6
_symmetry_space_group_name_H-M   'P 1'
_cell_length_a   7.23298325
_cell_length_b   8.30366589
_cell_length_c   9.96689360
_cell_angle_alpha   75.50840371
_cell_angle_beta   71.05263097
_cell_angle_gamma   65.32943899
_symmetry_Int_Tables_number   1
_chemical_formula_structural   Sm3NCl6
_chemical_formula_sum   'Sm6 N2 Cl12'
_cell_volume   509.89774188
_cell_formula_units_Z   2
loop_
 _symmetry_equiv_pos_site_id
 _symmetry_equiv_pos_as_xyz
  1  'x, y, z'
loop_
 _atom_site_type_symbol
 _atom_site_label
 _atom_site_symmetry_multiplicity
 _atom_site_fract_x
 _atom_site_fract_y
 _atom_site_fract_z
 _atom_site_occupancy
  Sm  Sm0  1  0.589602  0.087869  0.684348  1
  Sm  Sm1  1  0.719084  0.430470  0.776668  1
  Sm  Sm2  1  0.260358  0.582447  0.625063  1
  Sm  Sm3  1  0.280916  0.569530  0.223332  1
  Sm  Sm4  1  0.410398  0.912131  0.315652  1
  Sm  Sm5  1  0.739642  0.417553  0.374937  1
  N  N6  1  0.406945  0.631025  0.379240  1
  N  N7  1  0.593055  0.368975  0.620760  1
  Cl  Cl8  1  0.305623  0.583238  0.907395  1
  Cl  Cl9  1  0.285062  0.894947  0.093028  1
  Cl  Cl10  1  0.000000  0.000000  0.500000  1
  Cl  Cl11  1  0.824666  0.719594  0.793000  1
  Cl  Cl12  1  0.166451  0.262056  0.786377  1
  Cl  Cl13  1  0.714938  0.105053  0.906972  1
  Cl  Cl14  1  0.533187  0.177361  0.397554  1
  Cl  Cl15  1  0.175334  0.280406  0.207000  1
  Cl  Cl16  1  0.466813  0.822639  0.602446  1
  Cl  Cl17  1  0.694377  0.416762  0.092605  1
  Cl  Cl18  1  0.833549  0.737944  0.213623  1
  Cl  Cl19  1  0.000000  0.500000  0.500000  1
