# generated using pymatgen
data_Tm2SnB2Ru5
_symmetry_space_group_name_H-M   'P 1'
_cell_length_a   9.71564200
_cell_length_b   9.71564200
_cell_length_c   3.11750400
_cell_angle_alpha   90.00000000
_cell_angle_beta   90.00000000
_cell_angle_gamma   90.00000000
_symmetry_Int_Tables_number   1
_chemical_formula_structural   Tm2SnB2Ru5
_chemical_formula_sum   'Tm4 Sn2 B4 Ru10'
_cell_volume   294.27273568
_cell_formula_units_Z   2
loop_
 _symmetry_equiv_pos_site_id
 _symmetry_equiv_pos_as_xyz
  1  'x, y, z'
loop_
 _atom_site_type_symbol
 _atom_site_label
 _atom_site_symmetry_multiplicity
 _atom_site_fract_x
 _atom_site_fract_y
 _atom_site_fract_z
 _atom_site_occupancy
  Tm  Tm0  1  0.825082  0.674918  0.000000  1
  Tm  Tm1  1  0.174918  0.325082  0.000000  1
  Tm  Tm2  1  0.325082  0.825082  0.000000  1
  Tm  Tm3  1  0.674918  0.174918  0.000000  1
  Sn  Sn4  1  0.500000  0.500000  0.000000  1
  Sn  Sn5  1  0.000000  0.000000  0.000000  1
  B  B6  1  0.619985  0.880015  0.000000  1
  B  B7  1  0.380015  0.119985  0.000000  1
  B  B8  1  0.119985  0.619985  0.000000  1
  B  B9  1  0.880015  0.380015  0.000000  1
  Ru  Ru10  1  0.570484  0.722772  0.500000  1
  Ru  Ru11  1  0.429516  0.277228  0.500000  1
  Ru  Ru12  1  0.070484  0.777228  0.500000  1
  Ru  Ru13  1  0.929516  0.222772  0.500000  1
  Ru  Ru14  1  0.277228  0.570484  0.500000  1
  Ru  Ru15  1  0.722772  0.429516  0.500000  1
  Ru  Ru16  1  0.222772  0.070484  0.500000  1
  Ru  Ru17  1  0.777228  0.929516  0.500000  1
  Ru  Ru18  1  0.500000  0.000000  0.500000  1
  Ru  Ru19  1  0.000000  0.500000  0.500000  1
