# generated using pymatgen
data_Sc2P7Ru11Rh
_symmetry_space_group_name_H-M   'P 1'
_cell_length_a   9.33179439
_cell_length_b   9.36562708
_cell_length_c   3.91084500
_cell_angle_alpha   90.00000000
_cell_angle_beta   90.00000000
_cell_angle_gamma   119.71839607
_symmetry_Int_Tables_number   1
_chemical_formula_structural   Sc2P7Ru11Rh
_chemical_formula_sum   'Sc2 P7 Ru11 Rh1'
_cell_volume   296.84425154
_cell_formula_units_Z   1
loop_
 _symmetry_equiv_pos_site_id
 _symmetry_equiv_pos_as_xyz
  1  'x, y, z'
loop_
 _atom_site_type_symbol
 _atom_site_label
 _atom_site_symmetry_multiplicity
 _atom_site_fract_x
 _atom_site_fract_y
 _atom_site_fract_z
 _atom_site_occupancy
  Sc  Sc0  1  0.668116  0.335349  0.500000  1
  Sc  Sc1  1  0.330053  0.661079  0.000000  1
  P  P2  1  0.597739  0.714850  0.500000  1
  P  P3  1  0.998017  0.999918  0.000000  1
  P  P4  1  0.279181  0.878780  0.500000  1
  P  P5  1  0.120787  0.402831  0.500000  1
  P  P6  1  0.883101  0.574126  0.000000  1
  P  P7  1  0.428225  0.309012  0.000000  1
  P  P8  1  0.695271  0.122473  0.000000  1
  Ru  Ru9  1  0.392216  0.445638  0.500000  1
  Ru  Ru10  1  0.914116  0.125041  0.500000  1
  Ru  Ru11  1  0.210570  0.086788  0.500000  1
  Ru  Ru12  1  0.876617  0.791892  0.500000  1
  Ru  Ru13  1  0.722992  0.890654  0.000000  1
  Ru  Ru14  1  0.109752  0.836380  0.000000  1
  Ru  Ru15  1  0.165307  0.272642  0.000000  1
  Ru  Ru16  1  0.429914  0.068398  0.000000  1
  Ru  Ru17  1  0.933334  0.361010  0.000000  1
  Ru  Ru18  1  0.640666  0.572419  0.000000  1
  Ru  Ru19  1  0.054488  0.607946  0.500000  1
  Rh  Rh20  1  0.549539  0.942773  0.500000  1
