# generated using pymatgen
data_La7(Pt3Rh5)2
_symmetry_space_group_name_H-M   'P 1'
_cell_length_a   9.50024123
_cell_length_b   9.53642473
_cell_length_c   9.53038097
_cell_angle_alpha   131.95129264
_cell_angle_beta   131.83960263
_cell_angle_gamma   70.51404906
_symmetry_Int_Tables_number   1
_chemical_formula_structural   La7(Pt3Rh5)2
_chemical_formula_sum   'La7 Pt6 Rh10'
_cell_volume   468.47369839
_cell_formula_units_Z   1
loop_
 _symmetry_equiv_pos_site_id
 _symmetry_equiv_pos_as_xyz
  1  'x, y, z'
loop_
 _atom_site_type_symbol
 _atom_site_label
 _atom_site_symmetry_multiplicity
 _atom_site_fract_x
 _atom_site_fract_y
 _atom_site_fract_z
 _atom_site_occupancy
  La  La0  1  0.099006  0.094606  0.412676  1
  La  La1  1  0.690953  0.685811  0.586748  1
  La  La2  1  0.895944  0.314244  0.992832  1
  La  La3  1  0.753982  0.247208  0.500687  1
  La  La4  1  0.499138  0.505038  0.006980  1
  La  La5  1  0.310366  0.891979  0.992336  1
  La  La6  1  0.246839  0.751508  0.498100  1
  Pt  Pt7  1  0.567987  0.569159  0.761706  1
  Pt  Pt8  1  0.805233  0.316955  0.251944  1
  Pt  Pt9  1  0.553268  0.063348  0.748196  1
  Pt  Pt10  1  0.192417  0.445965  0.510335  1
  Pt  Pt11  1  0.324903  0.324997  0.260520  1
  Pt  Pt12  1  0.445792  0.192558  0.508923  1
  Rh  Rh13  1  0.432811  0.190850  0.998366  1
  Rh  Rh14  1  0.685583  0.933849  0.490541  1
  Rh  Rh15  1  0.935076  0.687456  0.492041  1
  Rh  Rh16  1  0.191309  0.434329  0.998425  1
  Rh  Rh17  1  0.315491  0.804337  0.249190  1
  Rh  Rh18  1  0.940861  0.674723  0.002545  1
  Rh  Rh19  1  0.811230  0.812376  0.247137  1
  Rh  Rh20  1  0.064534  0.555662  0.751522  1
  Rh  Rh21  1  0.061812  0.062677  0.735509  1
  Rh  Rh22  1  0.675461  0.940366  0.002739  1
