# generated using pymatgen
data_AgRh4Pb3O14
_symmetry_space_group_name_H-M   'P 1'
_cell_length_a   7.30972018
_cell_length_b   7.21229068
_cell_length_c   7.30972100
_cell_angle_alpha   59.55212682
_cell_angle_beta   60.00000987
_cell_angle_gamma   59.55212081
_symmetry_Int_Tables_number   1
_chemical_formula_structural   AgRh4Pb3O14
_chemical_formula_sum   'Ag1 Rh4 Pb3 O14'
_cell_volume   270.63650461
_cell_formula_units_Z   1
loop_
 _symmetry_equiv_pos_site_id
 _symmetry_equiv_pos_as_xyz
  1  'x, y, z'
loop_
 _atom_site_type_symbol
 _atom_site_label
 _atom_site_symmetry_multiplicity
 _atom_site_fract_x
 _atom_site_fract_y
 _atom_site_fract_z
 _atom_site_occupancy
  Ag  Ag0  1  0.125000  0.625000  0.125000  1
  Rh  Rh1  1  0.125000  0.625000  0.625000  1
  Rh  Rh2  1  0.625000  0.125000  0.625000  1
  Rh  Rh3  1  0.625000  0.625000  0.125000  1
  Rh  Rh4  1  0.625000  0.625000  0.625000  1
  Pb  Pb5  1  0.625000  0.125000  0.125000  1
  Pb  Pb6  1  0.125000  0.125000  0.625000  1
  Pb  Pb7  1  0.125000  0.125000  0.125000  1
  O  O8  1  0.692726  0.709097  0.299088  1
  O  O9  1  0.292733  0.289004  0.709132  1
  O  O10  1  0.709132  0.289004  0.709132  1
  O  O11  1  0.299088  0.709097  0.299088  1
  O  O12  1  0.299088  0.709097  0.692726  1
  O  O13  1  0.709132  0.289004  0.292733  1
  O  O14  1  0.557274  0.540903  0.950912  1
  O  O15  1  0.957267  0.960996  0.540868  1
  O  O16  1  0.540868  0.960996  0.540868  1
  O  O17  1  0.950912  0.540903  0.950912  1
  O  O18  1  0.950912  0.540903  0.557274  1
  O  O19  1  0.540868  0.960996  0.957267  1
  O  O20  1  0.242461  0.272616  0.242461  1
  O  O21  1  0.007539  0.977384  0.007539  1
