# generated using pymatgen
data_CaPr3(SnRh2)2
_symmetry_space_group_name_H-M   'P 1'
_cell_length_a   5.88423419
_cell_length_b   5.85363063
_cell_length_c   8.19903852
_cell_angle_alpha   102.54481550
_cell_angle_beta   102.61751796
_cell_angle_gamma   58.38571889
_symmetry_Int_Tables_number   1
_chemical_formula_structural   CaPr3(SnRh2)2
_chemical_formula_sum   'Ca1 Pr3 Sn2 Rh4'
_cell_volume   232.89132893
_cell_formula_units_Z   1
loop_
 _symmetry_equiv_pos_site_id
 _symmetry_equiv_pos_as_xyz
  1  'x, y, z'
loop_
 _atom_site_type_symbol
 _atom_site_label
 _atom_site_symmetry_multiplicity
 _atom_site_fract_x
 _atom_site_fract_y
 _atom_site_fract_z
 _atom_site_occupancy
  Ca  Ca0  1  0.503796  0.201975  0.849891  1
  Pr  Pr1  1  0.494132  0.798757  0.142724  1
  Pr  Pr2  1  0.200710  0.508461  0.354320  1
  Pr  Pr3  1  0.802035  0.494303  0.654629  1
  Sn  Sn4  1  0.847511  0.153349  0.248405  1
  Sn  Sn5  1  0.143685  0.853304  0.750857  1
  Rh  Rh6  1  0.003979  0.274094  0.004318  1
  Rh  Rh7  1  0.724167  0.995449  0.494222  1
  Rh  Rh8  1  0.272152  0.996233  0.498172  1
  Rh  Rh9  1  0.007837  0.724075  0.002459  1
