# generated using pymatgen
data_La2Ga7Ni
_symmetry_space_group_name_H-M   'P 1'
_cell_length_a   6.15322897
_cell_length_b   6.15468030
_cell_length_c   11.33391429
_cell_angle_alpha   74.24549507
_cell_angle_beta   74.24930469
_cell_angle_gamma   90.00000017
_symmetry_Int_Tables_number   1
_chemical_formula_structural   La2Ga7Ni
_chemical_formula_sum   'La4 Ga14 Ni2'
_cell_volume   396.33215928
_cell_formula_units_Z   2
loop_
 _symmetry_equiv_pos_site_id
 _symmetry_equiv_pos_as_xyz
  1  'x, y, z'
loop_
 _atom_site_type_symbol
 _atom_site_label
 _atom_site_symmetry_multiplicity
 _atom_site_fract_x
 _atom_site_fract_y
 _atom_site_fract_z
 _atom_site_occupancy
  La  La0  1  0.995688  0.995688  0.008624  1
  La  La1  1  0.499624  0.499624  0.000751  1
  La  La2  1  0.749442  0.249442  0.501117  1
  La  La3  1  0.245957  0.745957  0.508087  1
  Ga  Ga4  1  0.202809  0.202809  0.594382  1
  Ga  Ga5  1  0.811644  0.811644  0.376712  1
  Ga  Ga6  1  0.605333  0.129287  0.254856  1
  Ga  Ga7  1  0.139810  0.615856  0.254856  1
  Ga  Ga8  1  0.605333  0.615856  0.254856  1
  Ga  Ga9  1  0.139810  0.129287  0.254856  1
  Ga  Ga10  1  0.866295  0.354255  0.754879  1
  Ga  Ga11  1  0.378826  0.890865  0.754879  1
  Ga  Ga12  1  0.866295  0.890865  0.754879  1
  Ga  Ga13  1  0.378826  0.354255  0.754879  1
  Ga  Ga14  1  0.692175  0.692175  0.615650  1
  Ga  Ga15  1  0.062122  0.562122  0.875757  1
  Ga  Ga16  1  0.452395  0.952395  0.095209  1
  Ga  Ga17  1  0.942733  0.442733  0.114535  1
  Ni  Ni18  1  0.315015  0.315015  0.369970  1
  Ni  Ni19  1  0.564701  0.064701  0.870599  1
