# generated using pymatgen
data_Lu2Co9P6Ru
_symmetry_space_group_name_H-M   'P 1'
_cell_length_a   3.65072500
_cell_length_b   10.28461600
_cell_length_c   11.70558700
_cell_angle_alpha   90.00000000
_cell_angle_beta   90.00000000
_cell_angle_gamma   90.00000000
_symmetry_Int_Tables_number   1
_chemical_formula_structural   Lu2Co9P6Ru
_chemical_formula_sum   'Lu4 Co18 P12 Ru2'
_cell_volume   439.50153674
_cell_formula_units_Z   2
loop_
 _symmetry_equiv_pos_site_id
 _symmetry_equiv_pos_as_xyz
  1  'x, y, z'
loop_
 _atom_site_type_symbol
 _atom_site_label
 _atom_site_symmetry_multiplicity
 _atom_site_fract_x
 _atom_site_fract_y
 _atom_site_fract_z
 _atom_site_occupancy
  Lu  Lu0  1  0.250000  0.582008  0.702439  1
  Lu  Lu1  1  0.250000  0.917992  0.202439  1
  Lu  Lu2  1  0.750000  0.414550  0.295372  1
  Lu  Lu3  1  0.750000  0.085450  0.795372  1
  Co  Co4  1  0.750000  0.282171  0.008756  1
  Co  Co5  1  0.750000  0.217829  0.508756  1
  Co  Co6  1  0.250000  0.407029  0.486752  1
  Co  Co7  1  0.250000  0.092971  0.986752  1
  Co  Co8  1  0.750000  0.590380  0.511836  1
  Co  Co9  1  0.750000  0.909620  0.011836  1
  Co  Co10  1  0.250000  0.221068  0.177006  1
  Co  Co11  1  0.250000  0.278932  0.677006  1
  Co  Co12  1  0.750000  0.778108  0.822514  1
  Co  Co13  1  0.750000  0.721892  0.322514  1
  Co  Co14  1  0.250000  0.887046  0.702039  1
  Co  Co15  1  0.250000  0.612954  0.202039  1
  Co  Co16  1  0.750000  0.116399  0.300432  1
  Co  Co17  1  0.750000  0.383601  0.800432  1
  Co  Co18  1  0.250000  0.463834  0.931877  1
  Co  Co19  1  0.250000  0.036166  0.431877  1
  Co  Co20  1  0.750000  0.533109  0.069465  1
  Co  Co21  1  0.750000  0.966891  0.569465  1
  P  P22  1  0.250000  0.417156  0.113026  1
  P  P23  1  0.250000  0.082844  0.613026  1
  P  P24  1  0.750000  0.578445  0.885843  1
  P  P25  1  0.750000  0.921555  0.385843  1
  P  P26  1  0.250000  0.268038  0.869073  1
  P  P27  1  0.250000  0.231962  0.369073  1
  P  P28  1  0.750000  0.730881  0.132923  1
  P  P29  1  0.750000  0.769119  0.632923  1
  P  P30  1  0.250000  0.593704  0.389391  1
  P  P31  1  0.250000  0.906296  0.889391  1
  P  P32  1  0.750000  0.398636  0.609603  1
  P  P33  1  0.750000  0.101364  0.109603  1
  Ru  Ru34  1  0.250000  0.716063  0.991654  1
  Ru  Ru35  1  0.250000  0.783937  0.491654  1
