# generated using pymatgen
data_Sm11Zr(PaRh2)8
_symmetry_space_group_name_H-M   'P 1'
_cell_length_a   7.46351100
_cell_length_b   7.52479794
_cell_length_c   14.49376500
_cell_angle_alpha   90.00000000
_cell_angle_beta   90.00000000
_cell_angle_gamma   89.71257883
_symmetry_Int_Tables_number   1
_chemical_formula_structural   Sm11Zr(PaRh2)8
_chemical_formula_sum   'Sm11 Zr1 Pa8 Rh16'
_cell_volume   813.98006833
_cell_formula_units_Z   1
loop_
 _symmetry_equiv_pos_site_id
 _symmetry_equiv_pos_as_xyz
  1  'x, y, z'
loop_
 _atom_site_type_symbol
 _atom_site_label
 _atom_site_symmetry_multiplicity
 _atom_site_fract_x
 _atom_site_fract_y
 _atom_site_fract_z
 _atom_site_occupancy
  Sm  Sm0  1  0.508674  0.674291  0.596423  1
  Sm  Sm1  1  0.002446  0.821106  0.905529  1
  Sm  Sm2  1  0.496057  0.324244  0.091367  1
  Sm  Sm3  1  0.994672  0.176862  0.408637  1
  Sm  Sm4  1  0.496057  0.324244  0.408633  1
  Sm  Sm5  1  0.994672  0.176862  0.091363  1
  Sm  Sm6  1  0.508674  0.674291  0.903577  1
  Sm  Sm7  1  0.002446  0.821106  0.594471  1
  Sm  Sm8  1  0.310436  0.973745  0.750000  1
  Sm  Sm9  1  0.190438  0.472749  0.250000  1
  Sm  Sm10  1  0.691146  0.028568  0.250000  1
  Zr  Zr11  1  0.813364  0.522991  0.750000  1
  Pa  Pa12  1  0.657709  0.159773  0.622363  1
  Pa  Pa13  1  0.157084  0.341624  0.878906  1
  Pa  Pa14  1  0.344353  0.842213  0.120084  1
  Pa  Pa15  1  0.842139  0.659010  0.379656  1
  Pa  Pa16  1  0.344353  0.842213  0.379916  1
  Pa  Pa17  1  0.842139  0.659010  0.120344  1
  Pa  Pa18  1  0.657709  0.159773  0.877637  1
  Pa  Pa19  1  0.157084  0.341624  0.621094  1
  Rh  Rh20  1  0.680234  0.948863  0.462988  1
  Rh  Rh21  1  0.177716  0.550376  0.038195  1
  Rh  Rh22  1  0.322437  0.051220  0.961699  1
  Rh  Rh23  1  0.823576  0.451110  0.542391  1
  Rh  Rh24  1  0.322437  0.051220  0.538301  1
  Rh  Rh25  1  0.823576  0.451110  0.957609  1
  Rh  Rh26  1  0.680234  0.948863  0.037012  1
  Rh  Rh27  1  0.177716  0.550376  0.461805  1
  Rh  Rh28  1  0.457651  0.358075  0.750000  1
  Rh  Rh29  1  0.947649  0.157565  0.750000  1
  Rh  Rh30  1  0.544474  0.652448  0.250000  1
  Rh  Rh31  1  0.045778  0.846609  0.250000  1
  Rh  Rh32  1  0.696660  0.876900  0.750000  1
  Rh  Rh33  1  0.168722  0.609489  0.750000  1
  Rh  Rh34  1  0.308865  0.106979  0.250000  1
  Rh  Rh35  1  0.810621  0.392502  0.250000  1
