# generated using pymatgen
data_Ce4AlB4Ir7Ru2
_symmetry_space_group_name_H-M   'P 1'
_cell_length_a   10.78243771
_cell_length_b   10.78243719
_cell_length_c   10.78594512
_cell_angle_alpha   29.79401654
_cell_angle_beta   29.79402401
_cell_angle_gamma   29.89629409
_symmetry_Int_Tables_number   1
_chemical_formula_structural   Ce4AlB4Ir7Ru2
_chemical_formula_sum   'Ce4 Al1 B4 Ir7 Ru2'
_cell_volume   274.73630421
_cell_formula_units_Z   1
loop_
 _symmetry_equiv_pos_site_id
 _symmetry_equiv_pos_as_xyz
  1  'x, y, z'
loop_
 _atom_site_type_symbol
 _atom_site_label
 _atom_site_symmetry_multiplicity
 _atom_site_fract_x
 _atom_site_fract_y
 _atom_site_fract_z
 _atom_site_occupancy
  Ce  Ce0  1  0.148555  0.148555  0.148362  1
  Ce  Ce1  1  0.949593  0.949593  0.948765  1
  Ce  Ce2  1  0.851445  0.851445  0.851638  1
  Ce  Ce3  1  0.050407  0.050407  0.051235  1
  Al  Al4  1  0.500000  0.500000  0.500000  1
  B  B5  1  0.617161  0.617161  0.614309  1
  B  B6  1  0.718397  0.718397  0.715575  1
  B  B7  1  0.382839  0.382839  0.385691  1
  B  B8  1  0.281603  0.281603  0.284425  1
  Ir  Ir9  1  0.401946  0.902031  0.402117  1
  Ir  Ir10  1  0.902031  0.401946  0.402117  1
  Ir  Ir11  1  0.500000  0.500000  0.000000  1
  Ir  Ir12  1  0.598054  0.097969  0.597883  1
  Ir  Ir13  1  0.598801  0.598801  0.097767  1
  Ir  Ir14  1  0.097969  0.598054  0.597883  1
  Ir  Ir15  1  0.401199  0.401199  0.902233  1
  Ru  Ru16  1  0.500000  0.000000  0.500000  1
  Ru  Ru17  1  0.000000  0.500000  0.500000  1
