# generated using pymatgen
data_K3TcO5
_symmetry_space_group_name_H-M   'P 1'
_cell_length_a   6.26676300
_cell_length_b   6.26676300
_cell_length_c   16.38912900
_cell_angle_alpha   90.00000000
_cell_angle_beta   90.00000000
_cell_angle_gamma   90.00000000
_symmetry_Int_Tables_number   1
_chemical_formula_structural   K3TcO5
_chemical_formula_sum   'K12 Tc4 O20'
_cell_volume   643.63909400
_cell_formula_units_Z   4
loop_
 _symmetry_equiv_pos_site_id
 _symmetry_equiv_pos_as_xyz
  1  'x, y, z'
loop_
 _atom_site_type_symbol
 _atom_site_label
 _atom_site_symmetry_multiplicity
 _atom_site_fract_x
 _atom_site_fract_y
 _atom_site_fract_z
 _atom_site_occupancy
  K  K0  1  0.500000  0.000000  0.403271  1
  K  K1  1  0.000000  0.500000  0.096729  1
  K  K2  1  0.000000  0.500000  0.596729  1
  K  K3  1  0.500000  0.000000  0.903271  1
  K  K4  1  0.500000  0.500000  0.000000  1
  K  K5  1  0.000000  0.000000  0.000000  1
  K  K6  1  0.000000  0.000000  0.500000  1
  K  K7  1  0.500000  0.500000  0.500000  1
  K  K8  1  0.500000  0.500000  0.250000  1
  K  K9  1  0.000000  0.000000  0.250000  1
  K  K10  1  0.000000  0.000000  0.750000  1
  K  K11  1  0.500000  0.500000  0.750000  1
  Tc  Tc12  1  0.500000  0.000000  0.135516  1
  Tc  Tc13  1  0.000000  0.500000  0.364484  1
  Tc  Tc14  1  0.000000  0.500000  0.864484  1
  Tc  Tc15  1  0.500000  0.000000  0.635516  1
  O  O16  1  0.500000  0.000000  0.244142  1
  O  O17  1  0.000000  0.500000  0.255858  1
  O  O18  1  0.000000  0.500000  0.755858  1
  O  O19  1  0.500000  0.000000  0.744142  1
  O  O20  1  0.698372  0.203888  0.105531  1
  O  O21  1  0.296112  0.198372  0.105531  1
  O  O22  1  0.703888  0.801628  0.105531  1
  O  O23  1  0.198372  0.296112  0.394469  1
  O  O24  1  0.801628  0.703888  0.394469  1
  O  O25  1  0.301628  0.796112  0.105531  1
  O  O26  1  0.203888  0.698372  0.394469  1
  O  O27  1  0.796112  0.301628  0.394469  1
  O  O28  1  0.801628  0.296112  0.894469  1
  O  O29  1  0.203888  0.301628  0.894469  1
  O  O30  1  0.796112  0.698372  0.894469  1
  O  O31  1  0.301628  0.203888  0.605531  1
  O  O32  1  0.698372  0.796112  0.605531  1
  O  O33  1  0.198372  0.703888  0.894469  1
  O  O34  1  0.296112  0.801628  0.605531  1
  O  O35  1  0.703888  0.198372  0.605531  1
