# generated using pymatgen
data_CaLa7AsPd24
_symmetry_space_group_name_H-M   'P 1'
_cell_length_a   8.53052201
_cell_length_b   8.53052201
_cell_length_c   8.53052201
_cell_angle_alpha   90.00393584
_cell_angle_beta   90.00393584
_cell_angle_gamma   90.00393584
_symmetry_Int_Tables_number   1
_chemical_formula_structural   CaLa7AsPd24
_chemical_formula_sum   'Ca1 La7 As1 Pd24'
_cell_volume   620.76442535
_cell_formula_units_Z   1
loop_
 _symmetry_equiv_pos_site_id
 _symmetry_equiv_pos_as_xyz
  1  'x, y, z'
loop_
 _atom_site_type_symbol
 _atom_site_label
 _atom_site_symmetry_multiplicity
 _atom_site_fract_x
 _atom_site_fract_y
 _atom_site_fract_z
 _atom_site_occupancy
  Ca  Ca0  1  0.252656  0.252656  0.252656  1
  La  La1  1  0.746157  0.746157  0.746157  1
  La  La2  1  0.745860  0.745860  0.253907  1
  La  La3  1  0.745860  0.253907  0.745860  1
  La  La4  1  0.254422  0.254422  0.745040  1
  La  La5  1  0.254422  0.745040  0.254422  1
  La  La6  1  0.253907  0.745860  0.745860  1
  La  La7  1  0.745040  0.254422  0.254422  1
  As  As8  1  0.000357  0.000357  0.000357  1
  Pd  Pd9  1  0.259207  0.499444  0.000630  1
  Pd  Pd10  1  0.741293  0.499816  0.999845  1
  Pd  Pd11  1  0.000630  0.259207  0.499444  1
  Pd  Pd12  1  0.499444  0.259207  0.000630  1
  Pd  Pd13  1  0.999845  0.741293  0.499816  1
  Pd  Pd14  1  0.499816  0.741293  0.999845  1
  Pd  Pd15  1  0.499444  0.000630  0.259207  1
  Pd  Pd16  1  0.259207  0.000630  0.499444  1
  Pd  Pd17  1  0.499816  0.999845  0.741293  1
  Pd  Pd18  1  0.741293  0.999845  0.499816  1
  Pd  Pd19  1  0.000630  0.499444  0.259207  1
  Pd  Pd20  1  0.999845  0.499816  0.741293  1
  Pd  Pd21  1  0.252666  0.498801  0.498801  1
  Pd  Pd22  1  0.747097  0.500170  0.500170  1
  Pd  Pd23  1  0.498801  0.252666  0.498801  1
  Pd  Pd24  1  0.500170  0.747097  0.500170  1
  Pd  Pd25  1  0.498801  0.498801  0.252666  1
  Pd  Pd26  1  0.500170  0.500170  0.747097  1
  Pd  Pd27  1  0.288591  0.001792  0.001792  1
  Pd  Pd28  1  0.710588  0.000191  0.000191  1
  Pd  Pd29  1  0.001792  0.288591  0.001792  1
  Pd  Pd30  1  0.000191  0.710588  0.000191  1
  Pd  Pd31  1  0.001792  0.001792  0.288591  1
  Pd  Pd32  1  0.000191  0.000191  0.710588  1
