# generated using pymatgen
data_Tb4Sc4Re3B24Ru
_symmetry_space_group_name_H-M   'P 1'
_cell_length_a   3.58699400
_cell_length_b   9.00869978
_cell_length_c   11.40816198
_cell_angle_alpha   90.04756741
_cell_angle_beta   90.00000000
_cell_angle_gamma   90.00000000
_symmetry_Int_Tables_number   1
_chemical_formula_structural   Tb4Sc4Re3B24Ru
_chemical_formula_sum   'Tb4 Sc4 Re3 B24 Ru1'
_cell_volume   368.64495382
_cell_formula_units_Z   1
loop_
 _symmetry_equiv_pos_site_id
 _symmetry_equiv_pos_as_xyz
  1  'x, y, z'
loop_
 _atom_site_type_symbol
 _atom_site_label
 _atom_site_symmetry_multiplicity
 _atom_site_fract_x
 _atom_site_fract_y
 _atom_site_fract_z
 _atom_site_occupancy
  Tb  Tb0  1  0.000000  0.321111  0.414612  1
  Tb  Tb1  1  0.000000  0.678541  0.586457  1
  Tb  Tb2  1  0.000000  0.822248  0.084803  1
  Tb  Tb3  1  0.000000  0.178044  0.913861  1
  Sc  Sc4  1  0.000000  0.944729  0.370694  1
  Sc  Sc5  1  0.000000  0.055242  0.629231  1
  Sc  Sc6  1  0.000000  0.443850  0.129026  1
  Sc  Sc7  1  0.000000  0.555767  0.870815  1
  Re  Re8  1  0.000000  0.359531  0.681378  1
  Re  Re9  1  0.000000  0.140733  0.182325  1
  Re  Re10  1  0.000000  0.859473  0.818278  1
  B  B11  1  0.500000  0.555326  0.431797  1
  B  B12  1  0.500000  0.445542  0.567661  1
  B  B13  1  0.500000  0.054364  0.067695  1
  B  B14  1  0.500000  0.945363  0.932289  1
  B  B15  1  0.500000  0.753618  0.417517  1
  B  B16  1  0.500000  0.245479  0.581947  1
  B  B17  1  0.500000  0.254436  0.081867  1
  B  B18  1  0.500000  0.745614  0.918075  1
  B  B19  1  0.500000  0.793935  0.265224  1
  B  B20  1  0.500000  0.204809  0.735026  1
  B  B21  1  0.500000  0.295123  0.235248  1
  B  B22  1  0.500000  0.704895  0.765039  1
  B  B23  1  0.500000  0.629178  0.183512  1
  B  B24  1  0.500000  0.371143  0.816828  1
  B  B25  1  0.500000  0.129175  0.317173  1
  B  B26  1  0.500000  0.870904  0.683026  1
  B  B27  1  0.500000  0.981541  0.214108  1
  B  B28  1  0.500000  0.018313  0.785766  1
  B  B29  1  0.500000  0.482731  0.286107  1
  B  B30  1  0.500000  0.518622  0.714146  1
  B  B31  1  0.500000  0.596230  0.026414  1
  B  B32  1  0.500000  0.404037  0.974216  1
  B  B33  1  0.500000  0.095909  0.473721  1
  B  B34  1  0.500000  0.903628  0.525976  1
  Ru  Ru35  1  0.000000  0.640812  0.318145  1
