# generated using pymatgen
data_La3Y13Cd4(CoPd)2
_symmetry_space_group_name_H-M   'P 1'
_cell_length_a   9.71919382
_cell_length_b   9.71376244
_cell_length_c   9.75901300
_cell_angle_alpha   59.84577804
_cell_angle_beta   59.86437733
_cell_angle_gamma   60.18409834
_symmetry_Int_Tables_number   1
_chemical_formula_structural   La3Y13Cd4(CoPd)2
_chemical_formula_sum   'La3 Y13 Cd4 Co2 Pd2'
_cell_volume   650.95613374
_cell_formula_units_Z   1
loop_
 _symmetry_equiv_pos_site_id
 _symmetry_equiv_pos_as_xyz
  1  'x, y, z'
loop_
 _atom_site_type_symbol
 _atom_site_label
 _atom_site_symmetry_multiplicity
 _atom_site_fract_x
 _atom_site_fract_y
 _atom_site_fract_z
 _atom_site_occupancy
  La  La0  1  0.344295  0.345123  0.363751  1
  La  La1  1  0.344295  0.345123  0.946831  1
  La  La2  1  0.337720  0.956654  0.352813  1
  Y  Y3  1  0.947881  0.345230  0.353444  1
  Y  Y4  1  0.823419  0.186961  0.188227  1
  Y  Y5  1  0.186914  0.821497  0.804981  1
  Y  Y6  1  0.186914  0.821497  0.186607  1
  Y  Y7  1  0.823419  0.186961  0.801392  1
  Y  Y8  1  0.185754  0.185054  0.814596  1
  Y  Y9  1  0.811171  0.811256  0.188786  1
  Y  Y10  1  0.933682  0.564063  0.566971  1
  Y  Y11  1  0.564369  0.932239  0.935076  1
  Y  Y12  1  0.564369  0.932239  0.568317  1
  Y  Y13  1  0.933682  0.564063  0.935285  1
  Y  Y14  1  0.564284  0.563402  0.936157  1
  Y  Y15  1  0.933146  0.934168  0.566343  1
  Cd  Cd16  1  0.584346  0.580053  0.578566  1
  Cd  Cd17  1  0.584346  0.580053  0.257035  1
  Cd  Cd18  1  0.589002  0.250732  0.580133  1
  Cd  Cd19  1  0.250273  0.584953  0.582387  1
  Co  Co20  1  0.143531  0.144532  0.139741  1
  Co  Co21  1  0.143531  0.144532  0.572195  1
  Pd  Pd22  1  0.141114  0.574964  0.141961  1
  Pd  Pd23  1  0.578539  0.144649  0.138406  1
