# generated using pymatgen
data_Li2GdDy(SiO4)2
_symmetry_space_group_name_H-M   'P 1'
_cell_length_a   6.26491362
_cell_length_b   5.47590598
_cell_length_c   11.00215017
_cell_angle_alpha   66.48011791
_cell_angle_beta   90.18662452
_cell_angle_gamma   90.21088572
_symmetry_Int_Tables_number   1
_chemical_formula_structural   Li2GdDy(SiO4)2
_chemical_formula_sum   'Li4 Gd2 Dy2 Si4 O16'
_cell_volume   346.08047493
_cell_formula_units_Z   2
loop_
 _symmetry_equiv_pos_site_id
 _symmetry_equiv_pos_as_xyz
  1  'x, y, z'
loop_
 _atom_site_type_symbol
 _atom_site_label
 _atom_site_symmetry_multiplicity
 _atom_site_fract_x
 _atom_site_fract_y
 _atom_site_fract_z
 _atom_site_occupancy
  Li  Li0  1  0.133908  0.919366  0.430233  1
  Li  Li1  1  0.633888  0.078318  0.070692  1
  Li  Li2  1  0.866092  0.080634  0.569767  1
  Li  Li3  1  0.366112  0.921682  0.929308  1
  Gd  Gd4  1  0.117174  0.445742  0.847136  1
  Gd  Gd5  1  0.882826  0.554258  0.152864  1
  Dy  Dy6  1  0.616331  0.554937  0.651142  1
  Dy  Dy7  1  0.383669  0.445063  0.348858  1
  Si  Si8  1  0.649489  0.904095  0.360500  1
  Si  Si9  1  0.350511  0.095905  0.639500  1
  Si  Si10  1  0.154425  0.093259  0.142510  1
  Si  Si11  1  0.845575  0.906741  0.857490  1
  O  O12  1  0.854964  0.231619  0.774594  1
  O  O13  1  0.638013  0.229182  0.278971  1
  O  O14  1  0.164618  0.184089  0.524258  1
  O  O15  1  0.834022  0.761446  0.751356  1
  O  O16  1  0.145036  0.768381  0.225406  1
  O  O17  1  0.571657  0.228655  0.553918  1
  O  O18  1  0.659115  0.760706  0.253606  1
  O  O19  1  0.428343  0.771345  0.446082  1
  O  O20  1  0.069443  0.780368  0.941888  1
  O  O21  1  0.661871  0.818213  0.973495  1
  O  O22  1  0.165978  0.238554  0.248644  1
  O  O23  1  0.930557  0.219632  0.058112  1
  O  O24  1  0.338129  0.181787  0.026505  1
  O  O25  1  0.340885  0.239294  0.746394  1
  O  O26  1  0.361987  0.770818  0.721029  1
  O  O27  1  0.835382  0.815911  0.475742  1
