# generated using pymatgen
data_RbTa5O13
_symmetry_space_group_name_H-M   'P 1'
_cell_length_a   5.69415560
_cell_length_b   5.69415596
_cell_length_c   17.38405400
_cell_angle_alpha   90.00000000
_cell_angle_beta   90.00000000
_cell_angle_gamma   106.73653837
_symmetry_Int_Tables_number   1
_chemical_formula_structural   RbTa5O13
_chemical_formula_sum   'Rb2 Ta10 O26'
_cell_volume   539.77354611
_cell_formula_units_Z   2
loop_
 _symmetry_equiv_pos_site_id
 _symmetry_equiv_pos_as_xyz
  1  'x, y, z'
loop_
 _atom_site_type_symbol
 _atom_site_label
 _atom_site_symmetry_multiplicity
 _atom_site_fract_x
 _atom_site_fract_y
 _atom_site_fract_z
 _atom_site_occupancy
  Rb  Rb0  1  0.871528  0.150031  0.750000  1
  Rb  Rb1  1  0.150031  0.871528  0.250000  1
  Ta  Ta2  1  0.999916  0.999916  0.000000  1
  Ta  Ta3  1  0.999916  0.999916  0.500000  1
  Ta  Ta4  1  0.226285  0.777163  0.638497  1
  Ta  Ta5  1  0.777163  0.226285  0.361503  1
  Ta  Ta6  1  0.226285  0.777163  0.861503  1
  Ta  Ta7  1  0.777163  0.226285  0.138497  1
  Ta  Ta8  1  0.615683  0.385052  0.926786  1
  Ta  Ta9  1  0.615683  0.385052  0.573214  1
  Ta  Ta10  1  0.385052  0.615683  0.426786  1
  Ta  Ta11  1  0.385052  0.615683  0.073214  1
  O  O12  1  0.500547  0.085785  0.871068  1
  O  O13  1  0.500547  0.085785  0.628932  1
  O  O14  1  0.085785  0.500547  0.371068  1
  O  O15  1  0.085785  0.500547  0.128932  1
  O  O16  1  0.305491  0.305491  0.000000  1
  O  O17  1  0.305491  0.305491  0.500000  1
  O  O18  1  0.435107  0.565686  0.634275  1
  O  O19  1  0.015892  0.991063  0.888581  1
  O  O20  1  0.991063  0.015892  0.388581  1
  O  O21  1  0.205619  0.795159  0.750000  1
  O  O22  1  0.779095  0.224400  0.489373  1
  O  O23  1  0.565686  0.435107  0.365725  1
  O  O24  1  0.224400  0.779095  0.989373  1
  O  O25  1  0.991063  0.015892  0.111419  1
  O  O26  1  0.435107  0.565686  0.865725  1
  O  O27  1  0.565686  0.435107  0.134275  1
  O  O28  1  0.795159  0.205619  0.250000  1
  O  O29  1  0.779095  0.224400  0.010627  1
  O  O30  1  0.015892  0.991063  0.611419  1
  O  O31  1  0.224400  0.779095  0.510627  1
  O  O32  1  0.698848  0.698848  0.000000  1
  O  O33  1  0.698848  0.698848  0.500000  1
  O  O34  1  0.916433  0.506046  0.871948  1
  O  O35  1  0.916433  0.506046  0.628052  1
  O  O36  1  0.506046  0.916433  0.371948  1
  O  O37  1  0.506046  0.916433  0.128052  1
