# generated using pymatgen
data_Y12Er4CdIn(AgIr2)2
_symmetry_space_group_name_H-M   'P 1'
_cell_length_a   9.64954794
_cell_length_b   9.66735909
_cell_length_c   9.66735900
_cell_angle_alpha   60.00000374
_cell_angle_beta   59.93892631
_cell_angle_gamma   59.93892395
_symmetry_Int_Tables_number   1
_chemical_formula_structural   Y12Er4CdIn(AgIr2)2
_chemical_formula_sum   'Y12 Er4 Cd1 In1 Ag2 Ir4'
_cell_volume   637.09785814
_cell_formula_units_Z   1
loop_
 _symmetry_equiv_pos_site_id
 _symmetry_equiv_pos_as_xyz
  1  'x, y, z'
loop_
 _atom_site_type_symbol
 _atom_site_label
 _atom_site_symmetry_multiplicity
 _atom_site_fract_x
 _atom_site_fract_y
 _atom_site_fract_z
 _atom_site_occupancy
  Y  Y0  1  0.809084  0.191212  0.190777  1
  Y  Y1  1  0.189664  0.810924  0.810389  1
  Y  Y2  1  0.189664  0.810924  0.189022  1
  Y  Y3  1  0.809084  0.191212  0.808927  1
  Y  Y4  1  0.190241  0.190342  0.809708  1
  Y  Y5  1  0.810380  0.810456  0.189583  1
  Y  Y6  1  0.936221  0.561493  0.562049  1
  Y  Y7  1  0.562373  0.934550  0.941129  1
  Y  Y8  1  0.562373  0.934550  0.561949  1
  Y  Y9  1  0.936221  0.561493  0.940238  1
  Y  Y10  1  0.562334  0.561670  0.937999  1
  Y  Y11  1  0.938960  0.935905  0.562568  1
  Er  Er12  1  0.348878  0.348640  0.349316  1
  Er  Er13  1  0.348878  0.348640  0.953168  1
  Er  Er14  1  0.348696  0.953125  0.349090  1
  Er  Er15  1  0.952744  0.348391  0.349433  1
  Cd  Cd16  1  0.260403  0.581427  0.579085  1
  In  In17  1  0.581027  0.259092  0.579942  1
  Ag  Ag18  1  0.581877  0.583217  0.582440  1
  Ag  Ag19  1  0.581877  0.583217  0.252468  1
  Ir  Ir20  1  0.142919  0.142879  0.142838  1
  Ir  Ir21  1  0.142919  0.142879  0.571365  1
  Ir  Ir22  1  0.142131  0.571408  0.143231  1
  Ir  Ir23  1  0.571059  0.142359  0.143292  1
