# generated using pymatgen
data_Ba2TbDy(AsPt)4
_symmetry_space_group_name_H-M   'P 1'
_cell_length_a   4.33914500
_cell_length_b   4.33914542
_cell_length_c   17.45265200
_cell_angle_alpha   90.00000000
_cell_angle_beta   90.00000000
_cell_angle_gamma   120.00000440
_symmetry_Int_Tables_number   1
_chemical_formula_structural   Ba2TbDy(AsPt)4
_chemical_formula_sum   'Ba2 Tb1 Dy1 As4 Pt4'
_cell_volume   284.57740181
_cell_formula_units_Z   1
loop_
 _symmetry_equiv_pos_site_id
 _symmetry_equiv_pos_as_xyz
  1  'x, y, z'
loop_
 _atom_site_type_symbol
 _atom_site_label
 _atom_site_symmetry_multiplicity
 _atom_site_fract_x
 _atom_site_fract_y
 _atom_site_fract_z
 _atom_site_occupancy
  Ba  Ba0  1  0.000000  0.000000  0.249994  1
  Ba  Ba1  1  0.000000  0.000000  0.750006  1
  Tb  Tb2  1  0.000000  0.000000  0.500000  1
  Dy  Dy3  1  0.000000  0.000000  0.000000  1
  As  As4  1  0.333333  0.666667  0.885474  1
  As  As5  1  0.666667  0.333333  0.114526  1
  As  As6  1  0.666667  0.333333  0.385404  1
  As  As7  1  0.333333  0.666667  0.614596  1
  Pt  Pt8  1  0.333333  0.666667  0.396498  1
  Pt  Pt9  1  0.666667  0.333333  0.603502  1
  Pt  Pt10  1  0.666667  0.333333  0.896753  1
  Pt  Pt11  1  0.333333  0.666667  0.103247  1
