# generated using pymatgen
data_Gd10Rh2I15
_symmetry_space_group_name_H-M   'P 1'
_cell_length_a   9.96480437
_cell_length_b   10.79155644
_cell_length_c   11.76224700
_cell_angle_alpha   92.74836454
_cell_angle_beta   113.99835680
_cell_angle_gamma   110.22804126
_symmetry_Int_Tables_number   1
_chemical_formula_structural   Gd10Rh2I15
_chemical_formula_sum   'Gd10 Rh2 I15'
_cell_volume   1057.69512842
_cell_formula_units_Z   1
loop_
 _symmetry_equiv_pos_site_id
 _symmetry_equiv_pos_as_xyz
  1  'x, y, z'
loop_
 _atom_site_type_symbol
 _atom_site_label
 _atom_site_symmetry_multiplicity
 _atom_site_fract_x
 _atom_site_fract_y
 _atom_site_fract_z
 _atom_site_occupancy
  Gd  Gd0  1  0.793975  0.399147  0.272483  1
  Gd  Gd1  1  0.206025  0.600853  0.727517  1
  Gd  Gd2  1  0.666746  0.750360  0.821172  1
  Gd  Gd3  1  0.333254  0.249640  0.178828  1
  Gd  Gd4  1  0.524396  0.707975  0.091807  1
  Gd  Gd5  1  0.475604  0.292025  0.908193  1
  Gd  Gd6  1  0.587456  0.046345  0.328369  1
  Gd  Gd7  1  0.412544  0.953655  0.671631  1
  Gd  Gd8  1  0.722492  0.076176  0.049507  1
  Gd  Gd9  1  0.277508  0.923824  0.950493  1
  Rh  Rh10  1  0.469426  0.830587  0.881719  1
  Rh  Rh11  1  0.530574  0.169413  0.118281  1
  I  I12  1  0.000000  0.000000  0.000000  1
  I  I13  1  0.640245  0.884920  0.581628  1
  I  I14  1  0.359755  0.115080  0.418372  1
  I  I15  1  0.889524  0.305669  0.531403  1
  I  I16  1  0.110476  0.694331  0.468597  1
  I  I17  1  0.291684  0.763523  0.181957  1
  I  I18  1  0.708316  0.236477  0.818043  1
  I  I19  1  0.061883  0.341707  0.226530  1
  I  I20  1  0.164984  0.057514  0.700291  1
  I  I21  1  0.835016  0.942486  0.299709  1
  I  I22  1  0.237147  0.412548  0.944777  1
  I  I23  1  0.762853  0.587452  0.055223  1
  I  I24  1  0.408599  0.458938  0.666479  1
  I  I25  1  0.591401  0.541062  0.333521  1
  I  I26  1  0.938117  0.658293  0.773470  1
