# generated using pymatgen
data_Tb2PrMn(Co5B2)2
_symmetry_space_group_name_H-M   'P 1'
_cell_length_a   5.09401904
_cell_length_b   5.09379742
_cell_length_c   9.76228700
_cell_angle_alpha   89.99900633
_cell_angle_beta   90.00112382
_cell_angle_gamma   119.99706350
_symmetry_Int_Tables_number   1
_chemical_formula_structural   Tb2PrMn(Co5B2)2
_chemical_formula_sum   'Tb2 Pr1 Mn1 Co10 B4'
_cell_volume   219.38012802
_cell_formula_units_Z   1
loop_
 _symmetry_equiv_pos_site_id
 _symmetry_equiv_pos_as_xyz
  1  'x, y, z'
loop_
 _atom_site_type_symbol
 _atom_site_label
 _atom_site_symmetry_multiplicity
 _atom_site_fract_x
 _atom_site_fract_y
 _atom_site_fract_z
 _atom_site_occupancy
  Tb  Tb0  1  0.999995  0.999998  0.343039  1
  Tb  Tb1  1  0.000009  0.000004  0.656940  1
  Pr  Pr2  1  0.999969  0.999974  0.000045  1
  Mn  Mn3  1  0.333327  0.666647  0.999997  1
  Co  Co4  1  0.666627  0.333337  0.999994  1
  Co  Co5  1  0.499682  0.999362  0.499985  1
  Co  Co6  1  0.499677  0.500320  0.499989  1
  Co  Co7  1  0.000639  0.500319  0.499990  1
  Co  Co8  1  0.501234  0.002489  0.207985  1
  Co  Co9  1  0.501230  0.498760  0.207987  1
  Co  Co10  1  0.997509  0.498760  0.207979  1
  Co  Co11  1  0.501244  0.002479  0.792028  1
  Co  Co12  1  0.501239  0.498763  0.792037  1
  Co  Co13  1  0.997531  0.498763  0.792038  1
  B  B14  1  0.333354  0.666667  0.350724  1
  B  B15  1  0.666626  0.333338  0.352272  1
  B  B16  1  0.666649  0.333333  0.647712  1
  B  B17  1  0.333362  0.666685  0.649259  1
