# generated using pymatgen
data_Zr18Re8NiIr
_symmetry_space_group_name_H-M   'P 1'
_cell_length_a   8.69047000
_cell_length_b   8.69047018
_cell_length_c   8.63620000
_cell_angle_alpha   90.00000000
_cell_angle_beta   90.00000000
_cell_angle_gamma   119.99999931
_symmetry_Int_Tables_number   1
_chemical_formula_structural   Zr18Re8NiIr
_chemical_formula_sum   'Zr18 Re8 Ni1 Ir1'
_cell_volume   564.85875501
_cell_formula_units_Z   1
loop_
 _symmetry_equiv_pos_site_id
 _symmetry_equiv_pos_as_xyz
  1  'x, y, z'
loop_
 _atom_site_type_symbol
 _atom_site_label
 _atom_site_symmetry_multiplicity
 _atom_site_fract_x
 _atom_site_fract_y
 _atom_site_fract_z
 _atom_site_occupancy
  Zr  Zr0  1  0.195391  0.804609  0.446107  1
  Zr  Zr1  1  0.195391  0.390780  0.446107  1
  Zr  Zr2  1  0.609220  0.804609  0.446107  1
  Zr  Zr3  1  0.802476  0.197524  0.557589  1
  Zr  Zr4  1  0.802476  0.604955  0.557589  1
  Zr  Zr5  1  0.395045  0.197524  0.557589  1
  Zr  Zr6  1  0.802476  0.197524  0.942411  1
  Zr  Zr7  1  0.802476  0.604955  0.942411  1
  Zr  Zr8  1  0.395045  0.197524  0.942411  1
  Zr  Zr9  1  0.195391  0.804609  0.053893  1
  Zr  Zr10  1  0.195391  0.390780  0.053893  1
  Zr  Zr11  1  0.609220  0.804609  0.053893  1
  Zr  Zr12  1  0.542826  0.457174  0.250000  1
  Zr  Zr13  1  0.542826  0.085653  0.250000  1
  Zr  Zr14  1  0.914347  0.457174  0.250000  1
  Zr  Zr15  1  0.457731  0.542269  0.750000  1
  Zr  Zr16  1  0.457731  0.915460  0.750000  1
  Zr  Zr17  1  0.084540  0.542269  0.750000  1
  Re  Re18  1  0.891897  0.108103  0.250000  1
  Re  Re19  1  0.891897  0.783793  0.250000  1
  Re  Re20  1  0.216207  0.108103  0.250000  1
  Re  Re21  1  0.107547  0.892453  0.750000  1
  Re  Re22  1  0.107547  0.215095  0.750000  1
  Re  Re23  1  0.784905  0.892453  0.750000  1
  Re  Re24  1  0.000000  0.000000  0.499604  1
  Re  Re25  1  0.000000  0.000000  0.000396  1
  Ni  Ni26  1  0.666667  0.333333  0.750000  1
  Ir  Ir27  1  0.333333  0.666667  0.250000  1
