# generated using pymatgen
data_Nd8Si12RhAu3
_symmetry_space_group_name_H-M   'P 1'
_cell_length_a   8.27980800
_cell_length_b   8.27985124
_cell_length_c   8.58848700
_cell_angle_alpha   90.00005567
_cell_angle_beta   90.00002718
_cell_angle_gamma   119.99982031
_symmetry_Int_Tables_number   1
_chemical_formula_structural   Nd8Si12RhAu3
_chemical_formula_sum   'Nd8 Si12 Rh1 Au3'
_cell_volume   509.90689085
_cell_formula_units_Z   1
loop_
 _symmetry_equiv_pos_site_id
 _symmetry_equiv_pos_as_xyz
  1  'x, y, z'
loop_
 _atom_site_type_symbol
 _atom_site_label
 _atom_site_symmetry_multiplicity
 _atom_site_fract_x
 _atom_site_fract_y
 _atom_site_fract_z
 _atom_site_occupancy
  Nd  Nd0  1  0.000002  0.000001  0.751626  1
  Nd  Nd1  1  0.000002  0.000002  0.248330  1
  Nd  Nd2  1  0.496660  0.503336  0.754200  1
  Nd  Nd3  1  0.496664  0.993325  0.754201  1
  Nd  Nd4  1  0.006679  0.503337  0.754203  1
  Nd  Nd5  1  0.499058  0.500939  0.245871  1
  Nd  Nd6  1  0.001881  0.500939  0.245871  1
  Nd  Nd7  1  0.499060  0.998120  0.245872  1
  Si  Si8  1  0.838589  0.161411  0.998903  1
  Si  Si9  1  0.838589  0.677177  0.998902  1
  Si  Si10  1  0.322823  0.161411  0.998903  1
  Si  Si11  1  0.836241  0.163759  0.501052  1
  Si  Si12  1  0.836241  0.672481  0.501051  1
  Si  Si13  1  0.327518  0.163759  0.501052  1
  Si  Si14  1  0.163419  0.836580  0.498977  1
  Si  Si15  1  0.673163  0.836581  0.498977  1
  Si  Si16  1  0.163419  0.326837  0.498977  1
  Si  Si17  1  0.169404  0.830596  0.001469  1
  Si  Si18  1  0.661195  0.830597  0.001469  1
  Si  Si19  1  0.169404  0.338806  0.001469  1
  Rh  Rh20  1  0.333323  0.666671  0.002605  1
  Au  Au21  1  0.666666  0.333333  0.996110  1
  Au  Au22  1  0.666667  0.333334  0.503738  1
  Au  Au23  1  0.333333  0.666666  0.496171  1
