# generated using pymatgen
data_Sc12Co3Ru
_symmetry_space_group_name_H-M   'P 1'
_cell_length_a   5.85821700
_cell_length_b   8.49829200
_cell_length_c   13.11375400
_cell_angle_alpha   90.00000000
_cell_angle_beta   90.00000000
_cell_angle_gamma   90.00000000
_symmetry_Int_Tables_number   1
_chemical_formula_structural   Sc12Co3Ru
_chemical_formula_sum   'Sc24 Co6 Ru2'
_cell_volume   652.86612719
_cell_formula_units_Z   2
loop_
 _symmetry_equiv_pos_site_id
 _symmetry_equiv_pos_as_xyz
  1  'x, y, z'
loop_
 _atom_site_type_symbol
 _atom_site_label
 _atom_site_symmetry_multiplicity
 _atom_site_fract_x
 _atom_site_fract_y
 _atom_site_fract_z
 _atom_site_occupancy
  Sc  Sc0  1  0.536728  0.750000  0.352895  1
  Sc  Sc1  1  0.036728  0.250000  0.147105  1
  Sc  Sc2  1  0.454169  0.250000  0.646966  1
  Sc  Sc3  1  0.954169  0.750000  0.853034  1
  Sc  Sc4  1  0.784590  0.750000  0.107524  1
  Sc  Sc5  1  0.284590  0.250000  0.392476  1
  Sc  Sc6  1  0.209959  0.250000  0.886334  1
  Sc  Sc7  1  0.709959  0.750000  0.613666  1
  Sc  Sc8  1  0.405264  0.932854  0.788639  1
  Sc  Sc9  1  0.905264  0.067146  0.711361  1
  Sc  Sc10  1  0.591700  0.433609  0.216046  1
  Sc  Sc11  1  0.091700  0.566391  0.283954  1
  Sc  Sc12  1  0.591700  0.066391  0.216046  1
  Sc  Sc13  1  0.091700  0.933609  0.283954  1
  Sc  Sc14  1  0.405264  0.567146  0.788639  1
  Sc  Sc15  1  0.905264  0.432854  0.711361  1
  Sc  Sc16  1  0.252290  0.938201  0.537996  1
  Sc  Sc17  1  0.752290  0.061799  0.962004  1
  Sc  Sc18  1  0.758691  0.436414  0.464767  1
  Sc  Sc19  1  0.258691  0.563586  0.035233  1
  Sc  Sc20  1  0.758691  0.063586  0.464767  1
  Sc  Sc21  1  0.258691  0.936414  0.035233  1
  Sc  Sc22  1  0.252290  0.561799  0.537996  1
  Sc  Sc23  1  0.752290  0.438201  0.962004  1
  Co  Co24  1  0.053975  0.250000  0.560298  1
  Co  Co25  1  0.553975  0.750000  0.939702  1
  Co  Co26  1  0.374385  0.750000  0.179187  1
  Co  Co27  1  0.874385  0.250000  0.320813  1
  Co  Co28  1  0.628483  0.250000  0.819988  1
  Co  Co29  1  0.128483  0.750000  0.680012  1
  Ru  Ru30  1  0.941821  0.750000  0.442090  1
  Ru  Ru31  1  0.441821  0.250000  0.057910  1
