# generated using pymatgen
data_YHo4(FeB3)2
_symmetry_space_group_name_H-M   'P 1'
_cell_length_a   8.31426688
_cell_length_b   8.31426659
_cell_length_c   8.31426570
_cell_angle_alpha   37.92335994
_cell_angle_beta   37.92336012
_cell_angle_gamma   37.92335168
_symmetry_Int_Tables_number   1
_chemical_formula_structural   YHo4(FeB3)2
_chemical_formula_sum   'Y1 Ho4 Fe2 B6'
_cell_volume   194.85432307
_cell_formula_units_Z   1
loop_
 _symmetry_equiv_pos_site_id
 _symmetry_equiv_pos_as_xyz
  1  'x, y, z'
loop_
 _atom_site_type_symbol
 _atom_site_label
 _atom_site_symmetry_multiplicity
 _atom_site_fract_x
 _atom_site_fract_y
 _atom_site_fract_z
 _atom_site_occupancy
  Y  Y0  1  0.000000  0.000000  0.000000  1
  Ho  Ho1  1  0.582840  0.582840  0.582840  1
  Ho  Ho2  1  0.417160  0.417160  0.417160  1
  Ho  Ho3  1  0.749344  0.749344  0.749344  1
  Ho  Ho4  1  0.250656  0.250656  0.250656  1
  Fe  Fe5  1  0.881397  0.881397  0.881397  1
  Fe  Fe6  1  0.118603  0.118603  0.118603  1
  B  B7  1  0.500000  0.832114  0.167886  1
  B  B8  1  0.167886  0.500000  0.832114  1
  B  B9  1  0.832114  0.167886  0.500000  1
  B  B10  1  0.500000  0.167886  0.832114  1
  B  B11  1  0.832114  0.500000  0.167886  1
  B  B12  1  0.167886  0.832114  0.500000  1
