# generated using pymatgen
data_Nd3Ni2PtRh6
_symmetry_space_group_name_H-M   'P 1'
_cell_length_a   9.06865132
_cell_length_b   9.06865176
_cell_length_c   9.06865201
_cell_angle_alpha   34.35801399
_cell_angle_beta   34.35801327
_cell_angle_gamma   34.35800876
_symmetry_Int_Tables_number   1
_chemical_formula_structural   Nd3Ni2PtRh6
_chemical_formula_sum   'Nd3 Ni2 Pt1 Rh6'
_cell_volume   211.86781239
_cell_formula_units_Z   1
loop_
 _symmetry_equiv_pos_site_id
 _symmetry_equiv_pos_as_xyz
  1  'x, y, z'
loop_
 _atom_site_type_symbol
 _atom_site_label
 _atom_site_symmetry_multiplicity
 _atom_site_fract_x
 _atom_site_fract_y
 _atom_site_fract_z
 _atom_site_occupancy
  Nd  Nd0  1  0.861303  0.861303  0.861303  1
  Nd  Nd1  1  0.138697  0.138697  0.138697  1
  Nd  Nd2  1  0.000000  0.000000  0.000000  1
  Ni  Ni3  1  0.666685  0.666685  0.666685  1
  Ni  Ni4  1  0.333315  0.333315  0.333315  1
  Pt  Pt5  1  0.500000  0.500000  0.500000  1
  Rh  Rh6  1  0.420119  0.923411  0.420119  1
  Rh  Rh7  1  0.420119  0.420119  0.923411  1
  Rh  Rh8  1  0.923411  0.420119  0.420119  1
  Rh  Rh9  1  0.579881  0.076589  0.579881  1
  Rh  Rh10  1  0.579881  0.579881  0.076589  1
  Rh  Rh11  1  0.076589  0.579881  0.579881  1
