# generated using pymatgen
data_KRb3Sn4(Hg3Se8)2
_symmetry_space_group_name_H-M   'P 1'
_cell_length_a   7.11004805
_cell_length_b   10.70003726
_cell_length_c   14.34854804
_cell_angle_alpha   83.38527654
_cell_angle_beta   90.05681379
_cell_angle_gamma   89.88403073
_symmetry_Int_Tables_number   1
_chemical_formula_structural   KRb3Sn4(Hg3Se8)2
_chemical_formula_sum   'K1 Rb3 Sn4 Hg6 Se16'
_cell_volume   1084.33601866
_cell_formula_units_Z   1
loop_
 _symmetry_equiv_pos_site_id
 _symmetry_equiv_pos_as_xyz
  1  'x, y, z'
loop_
 _atom_site_type_symbol
 _atom_site_label
 _atom_site_symmetry_multiplicity
 _atom_site_fract_x
 _atom_site_fract_y
 _atom_site_fract_z
 _atom_site_occupancy
  K  K0  1  0.860708  0.266218  0.314263  1
  Rb  Rb1  1  0.352328  0.725039  0.186642  1
  Rb  Rb2  1  0.648051  0.273475  0.812878  1
  Rb  Rb3  1  0.148036  0.727231  0.686087  1
  Sn  Sn4  1  0.688870  0.785121  0.921601  1
  Sn  Sn5  1  0.310903  0.216357  0.079706  1
  Sn  Sn6  1  0.186544  0.216817  0.576358  1
  Sn  Sn7  1  0.813011  0.783337  0.421622  1
  Hg  Hg8  1  0.293278  0.999017  0.377505  1
  Hg  Hg9  1  0.207163  0.999412  0.878566  1
  Hg  Hg10  1  0.706603  0.001239  0.620322  1
  Hg  Hg11  1  0.501525  0.499410  0.498892  1
  Hg  Hg12  1  0.791282  0.002360  0.122827  1
  Hg  Hg13  1  0.996447  0.499189  0.001411  1
  Se  Se14  1  0.327935  0.770188  0.920206  1
  Se  Se15  1  0.185708  0.420772  0.143692  1
  Se  Se16  1  0.194612  0.234851  0.909169  1
  Se  Se17  1  0.174462  0.769966  0.421068  1
  Se  Se18  1  0.806922  0.577861  0.859454  1
  Se  Se19  1  0.824958  0.230334  0.576519  1
  Se  Se20  1  0.698336  0.575143  0.359029  1
  Se  Se21  1  0.807191  0.767329  0.091647  1
  Se  Se22  1  0.326018  0.030553  0.677930  1
  Se  Se23  1  0.306036  0.423120  0.639007  1
  Se  Se24  1  0.301981  0.235458  0.405815  1
  Se  Se25  1  0.675790  0.972995  0.322629  1
  Se  Se26  1  0.671902  0.232700  0.085084  1
  Se  Se27  1  0.692443  0.765386  0.591181  1
  Se  Se28  1  0.173494  0.027721  0.178650  1
  Se  Se29  1  0.827461  0.971401  0.820241  1
