# generated using pymatgen
data_Tb4Ho5Lu11Sb12
_symmetry_space_group_name_H-M   'P 1'
_cell_length_a   7.97951913
_cell_length_b   9.17916613
_cell_length_c   11.65494800
_cell_angle_alpha   90.00819566
_cell_angle_beta   89.94170987
_cell_angle_gamma   89.99500231
_symmetry_Int_Tables_number   1
_chemical_formula_structural   Tb4Ho5Lu11Sb12
_chemical_formula_sum   'Tb4 Ho5 Lu11 Sb12'
_cell_volume   853.67007865
_cell_formula_units_Z   1
loop_
 _symmetry_equiv_pos_site_id
 _symmetry_equiv_pos_as_xyz
  1  'x, y, z'
loop_
 _atom_site_type_symbol
 _atom_site_label
 _atom_site_symmetry_multiplicity
 _atom_site_fract_x
 _atom_site_fract_y
 _atom_site_fract_z
 _atom_site_occupancy
  Tb  Tb0  1  0.315084  0.250015  0.219015  1
  Tb  Tb1  1  0.814812  0.250078  0.281025  1
  Tb  Tb2  1  0.685127  0.750458  0.780691  1
  Tb  Tb3  1  0.185135  0.750262  0.718795  1
  Ho  Ho4  1  0.351866  0.750771  0.215963  1
  Ho  Ho5  1  0.853150  0.750746  0.284617  1
  Ho  Ho6  1  0.647810  0.250604  0.784231  1
  Ho  Ho7  1  0.147820  0.250165  0.715552  1
  Ho  Ho8  1  0.690724  0.561137  0.059488  1
  Lu  Lu9  1  0.190917  0.936694  0.440797  1
  Lu  Lu10  1  0.308429  0.063093  0.940289  1
  Lu  Lu11  1  0.809338  0.436407  0.559413  1
  Lu  Lu12  1  0.309656  0.436306  0.940644  1
  Lu  Lu13  1  0.809084  0.063514  0.559380  1
  Lu  Lu14  1  0.690798  0.936229  0.059688  1
  Lu  Lu15  1  0.190840  0.563474  0.440673  1
  Lu  Lu16  1  0.474629  0.250347  0.489100  1
  Lu  Lu17  1  0.974877  0.250163  0.011183  1
  Lu  Lu18  1  0.525397  0.750041  0.511149  1
  Lu  Lu19  1  0.026021  0.750247  0.988742  1
  Sb  Sb20  1  0.405198  0.750520  0.958849  1
  Sb  Sb21  1  0.905400  0.749871  0.541028  1
  Sb  Sb22  1  0.593652  0.246807  0.040418  1
  Sb  Sb23  1  0.094591  0.250048  0.458973  1
  Sb  Sb24  1  0.564882  0.994850  0.328431  1
  Sb  Sb25  1  0.065507  0.505445  0.172014  1
  Sb  Sb26  1  0.434674  0.494887  0.671597  1
  Sb  Sb27  1  0.935150  0.005547  0.828145  1
  Sb  Sb28  1  0.434893  0.005630  0.671757  1
  Sb  Sb29  1  0.934839  0.495033  0.827975  1
  Sb  Sb30  1  0.564638  0.505484  0.328404  1
  Sb  Sb31  1  0.065061  0.995130  0.171974  1
