# generated using pymatgen
data_Be6Fe11Si6Rh
_symmetry_space_group_name_H-M   'P 1'
_cell_length_a   3.84584701
_cell_length_b   5.44340407
_cell_length_c   11.52102011
_cell_angle_alpha   89.98427294
_cell_angle_beta   89.99852845
_cell_angle_gamma   89.99199691
_symmetry_Int_Tables_number   1
_chemical_formula_structural   Be6Fe11Si6Rh
_chemical_formula_sum   'Be6 Fe11 Si6 Rh1'
_cell_volume   241.18677526
_cell_formula_units_Z   1
loop_
 _symmetry_equiv_pos_site_id
 _symmetry_equiv_pos_as_xyz
  1  'x, y, z'
loop_
 _atom_site_type_symbol
 _atom_site_label
 _atom_site_symmetry_multiplicity
 _atom_site_fract_x
 _atom_site_fract_y
 _atom_site_fract_z
 _atom_site_occupancy
  Be  Be0  1  0.999986  0.984781  0.000098  1
  Be  Be1  1  0.499849  0.509735  0.171031  1
  Be  Be2  1  0.999756  0.000650  0.334482  1
  Be  Be3  1  0.500010  0.493384  0.499996  1
  Be  Be4  1  0.000232  0.000058  0.665424  1
  Be  Be5  1  0.500178  0.510048  0.829015  1
  Fe  Fe6  1  0.499985  0.752655  0.000088  1
  Fe  Fe7  1  0.999883  0.249819  0.169969  1
  Fe  Fe8  1  0.999865  0.750095  0.170055  1
  Fe  Fe9  1  0.499813  0.249909  0.333060  1
  Fe  Fe10  1  0.499779  0.748503  0.337556  1
  Fe  Fe11  1  0.000005  0.249863  0.500054  1
  Fe  Fe12  1  0.999998  0.749902  0.499823  1
  Fe  Fe13  1  0.500192  0.249949  0.667020  1
  Fe  Fe14  1  0.500178  0.748555  0.662417  1
  Fe  Fe15  1  0.000134  0.249866  0.829872  1
  Fe  Fe16  1  0.000167  0.749960  0.830097  1
  Si  Si17  1  0.999979  0.518550  0.000140  1
  Si  Si18  1  0.499858  0.990434  0.171648  1
  Si  Si19  1  0.999774  0.498422  0.334269  1
  Si  Si20  1  0.500007  0.005000  0.500015  1
  Si  Si21  1  0.000200  0.498837  0.665603  1
  Si  Si22  1  0.500178  0.990110  0.828361  1
  Rh  Rh23  1  0.499991  0.250922  0.999908  1
