# generated using pymatgen
data_Dy5Y3(CoHg)2
_symmetry_space_group_name_H-M   'P 1'
_cell_length_a   9.47732593
_cell_length_b   9.47732596
_cell_length_c   9.47732500
_cell_angle_alpha   59.99999986
_cell_angle_beta   59.99999977
_cell_angle_gamma   59.99999591
_symmetry_Int_Tables_number   1
_chemical_formula_structural   Dy5Y3(CoHg)2
_chemical_formula_sum   'Dy10 Y6 Co4 Hg4'
_cell_volume   601.92502013
_cell_formula_units_Z   2
loop_
 _symmetry_equiv_pos_site_id
 _symmetry_equiv_pos_as_xyz
  1  'x, y, z'
loop_
 _atom_site_type_symbol
 _atom_site_label
 _atom_site_symmetry_multiplicity
 _atom_site_fract_x
 _atom_site_fract_y
 _atom_site_fract_z
 _atom_site_occupancy
  Dy  Dy0  1  0.597606  0.597606  0.597606  1
  Dy  Dy1  1  0.597606  0.597606  0.207183  1
  Dy  Dy2  1  0.597606  0.207183  0.597606  1
  Dy  Dy3  1  0.207183  0.597606  0.597606  1
  Dy  Dy4  1  0.061625  0.438375  0.438375  1
  Dy  Dy5  1  0.438375  0.061625  0.061625  1
  Dy  Dy6  1  0.438375  0.061625  0.438375  1
  Dy  Dy7  1  0.061625  0.438375  0.061625  1
  Dy  Dy8  1  0.438375  0.438375  0.061625  1
  Dy  Dy9  1  0.061625  0.061625  0.438375  1
  Y  Y10  1  0.188765  0.811235  0.811235  1
  Y  Y11  1  0.811235  0.188765  0.188765  1
  Y  Y12  1  0.811235  0.188765  0.811235  1
  Y  Y13  1  0.188765  0.811235  0.188765  1
  Y  Y14  1  0.811235  0.811235  0.188765  1
  Y  Y15  1  0.188765  0.188765  0.811235  1
  Co  Co16  1  0.391120  0.391120  0.391120  1
  Co  Co17  1  0.391120  0.391120  0.826641  1
  Co  Co18  1  0.391120  0.826641  0.391120  1
  Co  Co19  1  0.826641  0.391120  0.391120  1
  Hg  Hg20  1  0.833639  0.833639  0.833639  1
  Hg  Hg21  1  0.833639  0.833639  0.499082  1
  Hg  Hg22  1  0.833639  0.499082  0.833639  1
  Hg  Hg23  1  0.499082  0.833639  0.833639  1
