# generated using pymatgen
data_Tb3Hg2Pb3
_symmetry_space_group_name_H-M   'P 1'
_cell_length_a   6.58513837
_cell_length_b   6.58513823
_cell_length_c   10.24101800
_cell_angle_alpha   90.00000000
_cell_angle_beta   90.00000000
_cell_angle_gamma   100.90545237
_symmetry_Int_Tables_number   1
_chemical_formula_structural   Tb3Hg2Pb3
_chemical_formula_sum   'Tb6 Hg4 Pb6'
_cell_volume   436.07199583
_cell_formula_units_Z   2
loop_
 _symmetry_equiv_pos_site_id
 _symmetry_equiv_pos_as_xyz
  1  'x, y, z'
loop_
 _atom_site_type_symbol
 _atom_site_label
 _atom_site_symmetry_multiplicity
 _atom_site_fract_x
 _atom_site_fract_y
 _atom_site_fract_z
 _atom_site_occupancy
  Tb  Tb0  1  0.573314  0.573314  0.250000  1
  Tb  Tb1  1  0.426686  0.426686  0.750000  1
  Tb  Tb2  1  0.214783  0.785217  0.500000  1
  Tb  Tb3  1  0.214783  0.785217  0.000000  1
  Tb  Tb4  1  0.785217  0.214783  0.500000  1
  Tb  Tb5  1  0.785217  0.214783  0.000000  1
  Hg  Hg6  1  0.298953  0.298953  0.027192  1
  Hg  Hg7  1  0.701047  0.701047  0.972808  1
  Hg  Hg8  1  0.298953  0.298953  0.472808  1
  Hg  Hg9  1  0.701047  0.701047  0.527192  1
  Pb  Pb10  1  0.981218  0.981218  0.250000  1
  Pb  Pb11  1  0.018782  0.018782  0.750000  1
  Pb  Pb12  1  0.483005  0.036069  0.250000  1
  Pb  Pb13  1  0.963931  0.516995  0.750000  1
  Pb  Pb14  1  0.516995  0.963931  0.750000  1
  Pb  Pb15  1  0.036069  0.483005  0.250000  1
