# generated using pymatgen
data_HoSc2AuO7
_symmetry_space_group_name_H-M   'P 1'
_cell_length_a   6.25538295
_cell_length_b   6.25538369
_cell_length_c   7.20455300
_cell_angle_alpha   90.00000000
_cell_angle_beta   90.00000000
_cell_angle_gamma   108.73254168
_symmetry_Int_Tables_number   1
_chemical_formula_structural   HoSc2AuO7
_chemical_formula_sum   'Ho2 Sc4 Au2 O14'
_cell_volume   266.97938547
_cell_formula_units_Z   2
loop_
 _symmetry_equiv_pos_site_id
 _symmetry_equiv_pos_as_xyz
  1  'x, y, z'
loop_
 _atom_site_type_symbol
 _atom_site_label
 _atom_site_symmetry_multiplicity
 _atom_site_fract_x
 _atom_site_fract_y
 _atom_site_fract_z
 _atom_site_occupancy
  Ho  Ho0  1  0.501777  0.501777  0.500000  1
  Ho  Ho1  1  0.498223  0.498223  0.000000  1
  Sc  Sc2  1  0.999633  0.472831  0.748759  1
  Sc  Sc3  1  0.000367  0.527169  0.248759  1
  Sc  Sc4  1  0.527169  0.000367  0.751241  1
  Sc  Sc5  1  0.472831  0.999633  0.251241  1
  Au  Au6  1  0.999618  0.999618  0.500000  1
  Au  Au7  1  0.000382  0.000382  0.000000  1
  O  O8  1  0.647683  0.352317  0.750000  1
  O  O9  1  0.352317  0.647683  0.250000  1
  O  O10  1  0.912273  0.087727  0.750000  1
  O  O11  1  0.087727  0.912273  0.250000  1
  O  O12  1  0.917585  0.659388  0.524315  1
  O  O13  1  0.082415  0.340612  0.024315  1
  O  O14  1  0.340612  0.082415  0.975685  1
  O  O15  1  0.659388  0.917585  0.475685  1
  O  O16  1  0.358133  0.641867  0.750000  1
  O  O17  1  0.641867  0.358133  0.250000  1
  O  O18  1  0.918753  0.660283  0.974120  1
  O  O19  1  0.081247  0.339717  0.474120  1
  O  O20  1  0.339717  0.081247  0.525880  1
  O  O21  1  0.660283  0.918753  0.025880  1
