# generated using pymatgen
data_In9Hg3Ir4
_symmetry_space_group_name_H-M   'P 1'
_cell_length_a   7.23529873
_cell_length_b   7.20066000
_cell_length_c   7.13975500
_cell_angle_alpha   90.00000000
_cell_angle_beta   90.00000000
_cell_angle_gamma   90.58440318
_symmetry_Int_Tables_number   1
_chemical_formula_structural   In9Hg3Ir4
_chemical_formula_sum   'In9 Hg3 Ir4'
_cell_volume   371.95421948
_cell_formula_units_Z   1
loop_
 _symmetry_equiv_pos_site_id
 _symmetry_equiv_pos_as_xyz
  1  'x, y, z'
loop_
 _atom_site_type_symbol
 _atom_site_label
 _atom_site_symmetry_multiplicity
 _atom_site_fract_x
 _atom_site_fract_y
 _atom_site_fract_z
 _atom_site_occupancy
  In  In0  1  0.341464  0.347949  0.260858  1
  In  In1  1  0.154198  0.842846  0.763924  1
  In  In2  1  0.154198  0.842846  0.236076  1
  In  In3  1  0.845802  0.157154  0.236076  1
  In  In4  1  0.845802  0.157154  0.763924  1
  In  In5  1  0.658536  0.652051  0.260858  1
  In  In6  1  0.658536  0.652051  0.739142  1
  In  In7  1  0.341464  0.347949  0.739142  1
  In  In8  1  0.500000  0.000000  0.500000  1
  Hg  Hg9  1  0.000000  0.500000  0.000000  1
  Hg  Hg10  1  0.500000  0.000000  0.000000  1
  Hg  Hg11  1  0.000000  0.500000  0.500000  1
  Ir  Ir12  1  0.153141  0.153636  0.000000  1
  Ir  Ir13  1  0.650117  0.338464  0.500000  1
  Ir  Ir14  1  0.349883  0.661536  0.500000  1
  Ir  Ir15  1  0.846859  0.846364  0.000000  1
