# generated using pymatgen
data_NbGa3Si2Pb3O14
_symmetry_space_group_name_H-M   'P 1'
_cell_length_a   8.48950700
_cell_length_b   8.48950662
_cell_length_c   5.14936400
_cell_angle_alpha   90.00000000
_cell_angle_beta   90.00000000
_cell_angle_gamma   120.00000538
_symmetry_Int_Tables_number   1
_chemical_formula_structural   NbGa3Si2Pb3O14
_chemical_formula_sum   'Nb1 Ga3 Si2 Pb3 O14'
_cell_volume   321.40240538
_cell_formula_units_Z   1
loop_
 _symmetry_equiv_pos_site_id
 _symmetry_equiv_pos_as_xyz
  1  'x, y, z'
loop_
 _atom_site_type_symbol
 _atom_site_label
 _atom_site_symmetry_multiplicity
 _atom_site_fract_x
 _atom_site_fract_y
 _atom_site_fract_z
 _atom_site_occupancy
  Nb  Nb0  1  0.000000  0.000000  0.000000  1
  Ga  Ga1  1  0.741583  0.000000  0.500000  1
  Ga  Ga2  1  0.258417  0.258417  0.500000  1
  Ga  Ga3  1  0.000000  0.741583  0.500000  1
  Si  Si4  1  0.666667  0.333333  0.532034  1
  Si  Si5  1  0.333333  0.666667  0.467966  1
  Pb  Pb6  1  0.422386  0.000000  0.000000  1
  Pb  Pb7  1  0.577614  0.577614  0.000000  1
  Pb  Pb8  1  0.000000  0.422386  0.000000  1
  O  O9  1  0.666667  0.333333  0.218173  1
  O  O10  1  0.333333  0.666667  0.781827  1
  O  O11  1  0.167490  0.690903  0.336419  1
  O  O12  1  0.523413  0.832510  0.336419  1
  O  O13  1  0.309097  0.476587  0.336419  1
  O  O14  1  0.832510  0.523413  0.663581  1
  O  O15  1  0.690903  0.167490  0.663581  1
  O  O16  1  0.476587  0.309097  0.663581  1
  O  O17  1  0.123220  0.902685  0.767926  1
  O  O18  1  0.779464  0.876780  0.767926  1
  O  O19  1  0.097315  0.220536  0.767926  1
  O  O20  1  0.876780  0.779464  0.232074  1
  O  O21  1  0.902685  0.123220  0.232074  1
  O  O22  1  0.220536  0.097315  0.232074  1
