# generated using pymatgen
data_InBr9
_symmetry_space_group_name_H-M   'P 1'
_cell_length_a   9.33274961
_cell_length_b   9.33275011
_cell_length_c   9.33274986
_cell_angle_alpha   89.24463967
_cell_angle_beta   89.24464145
_cell_angle_gamma   89.24464609
_symmetry_Int_Tables_number   1
_chemical_formula_structural   InBr9
_chemical_formula_sum   'In2 Br18'
_cell_volume   812.67448903
_cell_formula_units_Z   2
loop_
 _symmetry_equiv_pos_site_id
 _symmetry_equiv_pos_as_xyz
  1  'x, y, z'
loop_
 _atom_site_type_symbol
 _atom_site_label
 _atom_site_symmetry_multiplicity
 _atom_site_fract_x
 _atom_site_fract_y
 _atom_site_fract_z
 _atom_site_occupancy
  In  In0  1  0.000000  0.000000  0.000000  1
  In  In1  1  0.500000  0.500000  0.500000  1
  Br  Br2  1  0.710101  0.983356  0.039480  1
  Br  Br3  1  0.742741  0.125672  0.607637  1
  Br  Br4  1  0.039480  0.710101  0.983356  1
  Br  Br5  1  0.257259  0.874328  0.392363  1
  Br  Br6  1  0.125672  0.607637  0.742741  1
  Br  Br7  1  0.016644  0.960520  0.289899  1
  Br  Br8  1  0.607637  0.742741  0.125672  1
  Br  Br9  1  0.960520  0.289899  0.016644  1
  Br  Br10  1  0.874328  0.392363  0.257259  1
  Br  Br11  1  0.392363  0.257259  0.874328  1
  Br  Br12  1  0.983356  0.039480  0.710101  1
  Br  Br13  1  0.289899  0.016644  0.960520  1
  Br  Br14  1  0.791655  0.525646  0.483781  1
  Br  Br15  1  0.516219  0.208345  0.474354  1
  Br  Br16  1  0.474354  0.516219  0.208345  1
  Br  Br17  1  0.483781  0.791655  0.525646  1
  Br  Br18  1  0.525646  0.483781  0.791655  1
  Br  Br19  1  0.208345  0.474354  0.516219  1
