# generated using pymatgen
data_LiTb4Pa2Co17P12
_symmetry_space_group_name_H-M   'P 1'
_cell_length_a   3.71841200
_cell_length_b   10.56295800
_cell_length_c   12.15829400
_cell_angle_alpha   90.00000000
_cell_angle_beta   90.00000000
_cell_angle_gamma   90.00000000
_symmetry_Int_Tables_number   1
_chemical_formula_structural   LiTb4Pa2Co17P12
_chemical_formula_sum   'Li1 Tb4 Pa2 Co17 P12'
_cell_volume   477.54653886
_cell_formula_units_Z   1
loop_
 _symmetry_equiv_pos_site_id
 _symmetry_equiv_pos_as_xyz
  1  'x, y, z'
loop_
 _atom_site_type_symbol
 _atom_site_label
 _atom_site_symmetry_multiplicity
 _atom_site_fract_x
 _atom_site_fract_y
 _atom_site_fract_z
 _atom_site_occupancy
  Li  Li0  1  0.500000  0.500000  0.151032  1
  Tb  Tb1  1  0.500000  0.815504  0.205194  1
  Tb  Tb2  1  0.500000  0.184496  0.205194  1
  Tb  Tb3  1  0.000000  0.685390  0.795451  1
  Tb  Tb4  1  0.000000  0.314610  0.795451  1
  Pa  Pa5  1  0.000000  0.500000  0.528233  1
  Pa  Pa6  1  0.500000  0.000000  0.471165  1
  Co  Co7  1  0.000000  0.000000  0.840608  1
  Co  Co8  1  0.500000  0.500000  0.696277  1
  Co  Co9  1  0.000000  0.000000  0.304831  1
  Co  Co10  1  0.000000  0.500000  0.984397  1
  Co  Co11  1  0.500000  0.000000  0.015092  1
  Co  Co12  1  0.500000  0.331791  0.994009  1
  Co  Co13  1  0.500000  0.668209  0.994009  1
  Co  Co14  1  0.000000  0.164235  0.004267  1
  Co  Co15  1  0.000000  0.835765  0.004267  1
  Co  Co16  1  0.500000  0.299480  0.433880  1
  Co  Co17  1  0.500000  0.700520  0.433880  1
  Co  Co18  1  0.000000  0.198354  0.568882  1
  Co  Co19  1  0.000000  0.801646  0.568882  1
  Co  Co20  1  0.500000  0.880777  0.709374  1
  Co  Co21  1  0.500000  0.119223  0.709374  1
  Co  Co22  1  0.000000  0.621339  0.293228  1
  Co  Co23  1  0.000000  0.378661  0.293228  1
  P  P24  1  0.500000  0.500000  0.880972  1
  P  P25  1  0.000000  0.000000  0.120390  1
  P  P26  1  0.500000  0.500000  0.344550  1
  P  P27  1  0.000000  0.000000  0.656551  1
  P  P28  1  0.500000  0.306426  0.616895  1
  P  P29  1  0.500000  0.693574  0.616895  1
  P  P30  1  0.000000  0.193625  0.383930  1
  P  P31  1  0.000000  0.806375  0.383930  1
  P  P32  1  0.500000  0.848576  0.894129  1
  P  P33  1  0.500000  0.151424  0.894129  1
  P  P34  1  0.000000  0.656164  0.103710  1
  P  P35  1  0.000000  0.343836  0.103710  1
