# generated using pymatgen
data_Ho2Ga9(Fe4Ge)3
_symmetry_space_group_name_H-M   'P 1'
_cell_length_a   5.02568100
_cell_length_b   8.42192029
_cell_length_c   9.65939567
_cell_angle_alpha   115.91648457
_cell_angle_beta   90.00000000
_cell_angle_gamma   90.00000000
_symmetry_Int_Tables_number   1
_chemical_formula_structural   Ho2Ga9(Fe4Ge)3
_chemical_formula_sum   'Ho2 Ga9 Fe12 Ge3'
_cell_volume   367.72602727
_cell_formula_units_Z   1
loop_
 _symmetry_equiv_pos_site_id
 _symmetry_equiv_pos_as_xyz
  1  'x, y, z'
loop_
 _atom_site_type_symbol
 _atom_site_label
 _atom_site_symmetry_multiplicity
 _atom_site_fract_x
 _atom_site_fract_y
 _atom_site_fract_z
 _atom_site_occupancy
  Ho  Ho0  1  0.250000  0.125532  0.256201  1
  Ho  Ho1  1  0.750000  0.870545  0.741478  1
  Ga  Ga2  1  0.750000  0.040536  0.081605  1
  Ga  Ga3  1  0.250000  0.958322  0.916612  1
  Ga  Ga4  1  0.750000  0.543499  0.084390  1
  Ga  Ga5  1  0.250000  0.462048  0.922114  1
  Ga  Ga6  1  0.750000  0.213356  0.427722  1
  Ga  Ga7  1  0.250000  0.785187  0.568148  1
  Ga  Ga8  1  0.750000  0.703261  0.403325  1
  Ga  Ga9  1  0.250000  0.297295  0.594877  1
  Ga  Ga10  1  0.250000  0.777219  0.249236  1
  Fe  Fe11  1  0.500334  0.001938  0.501423  1
  Fe  Fe12  1  0.500930  0.499086  0.500275  1
  Fe  Fe13  1  0.999666  0.001938  0.501423  1
  Fe  Fe14  1  0.999070  0.499086  0.500275  1
  Fe  Fe15  1  0.500497  0.751985  0.998544  1
  Fe  Fe16  1  0.999503  0.751985  0.998544  1
  Fe  Fe17  1  0.500610  0.248020  0.000391  1
  Fe  Fe18  1  0.999390  0.248020  0.000391  1
  Fe  Fe19  1  0.750000  0.879857  0.250128  1
  Fe  Fe20  1  0.250000  0.626929  0.748170  1
  Fe  Fe21  1  0.250000  0.123950  0.751158  1
  Fe  Fe22  1  0.750000  0.370743  0.250322  1
  Ge  Ge23  1  0.750000  0.531000  0.752354  1
  Ge  Ge24  1  0.750000  0.220915  0.751767  1
  Ge  Ge25  1  0.250000  0.467748  0.249128  1
