# generated using pymatgen
data_Er4Al18MoPd5
_symmetry_space_group_name_H-M   'P 1'
_cell_length_a   7.61466731
_cell_length_b   7.61453338
_cell_length_c   9.51710567
_cell_angle_alpha   89.59705497
_cell_angle_beta   89.59835824
_cell_angle_gamma   118.90047313
_symmetry_Int_Tables_number   1
_chemical_formula_structural   Er4Al18MoPd5
_chemical_formula_sum   'Er4 Al18 Mo1 Pd5'
_cell_volume   483.05241085
_cell_formula_units_Z   1
loop_
 _symmetry_equiv_pos_site_id
 _symmetry_equiv_pos_as_xyz
  1  'x, y, z'
loop_
 _atom_site_type_symbol
 _atom_site_label
 _atom_site_symmetry_multiplicity
 _atom_site_fract_x
 _atom_site_fract_y
 _atom_site_fract_z
 _atom_site_occupancy
  Er  Er0  1  0.995039  0.677254  0.247365  1
  Er  Er1  1  0.004961  0.322746  0.752635  1
  Er  Er2  1  0.677254  0.995036  0.247373  1
  Er  Er3  1  0.322746  0.004964  0.752627  1
  Al  Al4  1  0.132730  0.132728  0.248638  1
  Al  Al5  1  0.867270  0.867272  0.751362  1
  Al  Al6  1  0.001994  0.334491  0.076635  1
  Al  Al7  1  0.998006  0.665509  0.923365  1
  Al  Al8  1  0.998800  0.661227  0.578678  1
  Al  Al9  1  0.338769  0.001201  0.421322  1
  Al  Al10  1  0.001200  0.338773  0.421322  1
  Al  Al11  1  0.661231  0.998799  0.578678  1
  Al  Al12  1  0.665504  0.998005  0.923367  1
  Al  Al13  1  0.334496  0.001995  0.076633  1
  Al  Al14  1  0.333235  0.333238  0.556252  1
  Al  Al15  1  0.666765  0.666762  0.443748  1
  Al  Al16  1  0.668140  0.668141  0.054120  1
  Al  Al17  1  0.331860  0.331859  0.945880  1
  Al  Al18  1  0.341514  0.550192  0.250001  1
  Al  Al19  1  0.658486  0.449808  0.749999  1
  Al  Al20  1  0.550194  0.341515  0.249994  1
  Al  Al21  1  0.449806  0.658485  0.750006  1
  Mo  Mo22  1  0.000000  0.000000  0.000000  1
  Pd  Pd23  1  0.672566  0.327486  0.999993  1
  Pd  Pd24  1  0.327434  0.672514  0.000007  1
  Pd  Pd25  1  0.327959  0.672073  0.500008  1
  Pd  Pd26  1  0.672041  0.327927  0.499992  1
  Pd  Pd27  1  0.000000  0.000000  0.500000  1
