# generated using pymatgen
data_LaHo5(WO7)2
_symmetry_space_group_name_H-M   'P 1'
_cell_length_a   6.49427768
_cell_length_b   6.49427792
_cell_length_c   7.52264100
_cell_angle_alpha   89.86939012
_cell_angle_beta   90.13060831
_cell_angle_gamma   108.63535277
_symmetry_Int_Tables_number   1
_chemical_formula_structural   LaHo5(WO7)2
_chemical_formula_sum   'La1 Ho5 W2 O14'
_cell_volume   300.63691503
_cell_formula_units_Z   1
loop_
 _symmetry_equiv_pos_site_id
 _symmetry_equiv_pos_as_xyz
  1  'x, y, z'
loop_
 _atom_site_type_symbol
 _atom_site_label
 _atom_site_symmetry_multiplicity
 _atom_site_fract_x
 _atom_site_fract_y
 _atom_site_fract_z
 _atom_site_occupancy
  La  La0  1  0.503105  0.503105  0.500000  1
  Ho  Ho1  1  0.467347  0.467347  0.000000  1
  Ho  Ho2  1  0.000263  0.534990  0.242038  1
  Ho  Ho3  1  0.996574  0.468378  0.749427  1
  Ho  Ho4  1  0.534990  0.000263  0.757962  1
  Ho  Ho5  1  0.468378  0.996574  0.250573  1
  W  W6  1  0.000093  0.000093  0.500000  1
  W  W7  1  0.000124  0.000124  0.000000  1
  O  O8  1  0.926259  0.075986  0.749585  1
  O  O9  1  0.075986  0.926259  0.250415  1
  O  O10  1  0.359269  0.639919  0.237774  1
  O  O11  1  0.639919  0.359269  0.762226  1
  O  O12  1  0.363872  0.634212  0.762384  1
  O  O13  1  0.634212  0.363872  0.237616  1
  O  O14  1  0.326142  0.082364  0.972967  1
  O  O15  1  0.677126  0.927630  0.472222  1
  O  O16  1  0.319517  0.067543  0.535034  1
  O  O17  1  0.687114  0.942171  0.034934  1
  O  O18  1  0.067543  0.319517  0.464966  1
  O  O19  1  0.942171  0.687114  0.965066  1
  O  O20  1  0.927630  0.677126  0.527778  1
  O  O21  1  0.082364  0.326142  0.027033  1
