# generated using pymatgen
data_Na8Ca4TiSnAs8
_symmetry_space_group_name_H-M   'P 1'
_cell_length_a   9.59500657
_cell_length_b   9.60653559
_cell_length_c   7.33448263
_cell_angle_alpha   88.93285040
_cell_angle_beta   88.69649968
_cell_angle_gamma   120.00168000
_symmetry_Int_Tables_number   1
_chemical_formula_structural   Na8Ca4TiSnAs8
_chemical_formula_sum   'Na8 Ca4 Ti1 Sn1 As8'
_cell_volume   584.96728253
_cell_formula_units_Z   1
loop_
 _symmetry_equiv_pos_site_id
 _symmetry_equiv_pos_as_xyz
  1  'x, y, z'
loop_
 _atom_site_type_symbol
 _atom_site_label
 _atom_site_symmetry_multiplicity
 _atom_site_fract_x
 _atom_site_fract_y
 _atom_site_fract_z
 _atom_site_occupancy
  Na  Na0  1  0.469663  0.930796  0.375144  1
  Na  Na1  1  0.943183  0.474784  0.881731  1
  Na  Na2  1  0.865967  0.724617  0.180357  1
  Na  Na3  1  0.278997  0.132315  0.226490  1
  Na  Na4  1  0.855242  0.136991  0.204671  1
  Na  Na5  1  0.137979  0.293038  0.734115  1
  Na  Na6  1  0.710890  0.859393  0.685431  1
  Na  Na7  1  0.141983  0.847063  0.709007  1
  Ca  Ca8  1  0.059550  0.530264  0.388058  1
  Ca  Ca9  1  0.478646  0.532622  0.375461  1
  Ca  Ca10  1  0.528717  0.056008  0.881706  1
  Ca  Ca11  1  0.529694  0.480060  0.874491  1
  Ti  Ti12  1  0.331044  0.664385  0.994970  1
  Sn  Sn13  1  0.661535  0.327998  0.494641  1
  As  As14  1  0.200138  0.386124  0.125077  1
  As  As15  1  0.617321  0.805860  0.084877  1
  As  As16  1  0.197927  0.810303  0.103680  1
  As  As17  1  0.812860  0.632900  0.585049  1
  As  As18  1  0.367594  0.191506  0.636227  1
  As  As19  1  0.821153  0.192408  0.607135  1
  As  As20  1  0.654746  0.333457  0.136661  1
  As  As21  1  0.335018  0.656953  0.654981  1
