# generated using pymatgen
data_Er2Ta2Bi2O11
_symmetry_space_group_name_H-M   'P 1'
_cell_length_a   6.56786548
_cell_length_b   7.65994064
_cell_length_c   9.65415473
_cell_angle_alpha   101.45185022
_cell_angle_beta   90.01003062
_cell_angle_gamma   90.11528364
_symmetry_Int_Tables_number   1
_chemical_formula_structural   Er2Ta2Bi2O11
_chemical_formula_sum   'Er4 Ta4 Bi4 O22'
_cell_volume   476.02499341
_cell_formula_units_Z   2
loop_
 _symmetry_equiv_pos_site_id
 _symmetry_equiv_pos_as_xyz
  1  'x, y, z'
loop_
 _atom_site_type_symbol
 _atom_site_label
 _atom_site_symmetry_multiplicity
 _atom_site_fract_x
 _atom_site_fract_y
 _atom_site_fract_z
 _atom_site_occupancy
  Er  Er0  1  0.744413  0.368915  0.482334  1
  Er  Er1  1  0.255587  0.631085  0.517666  1
  Er  Er2  1  0.761369  0.871432  0.493187  1
  Er  Er3  1  0.238631  0.128568  0.506813  1
  Ta  Ta4  1  0.911013  0.700660  0.803560  1
  Ta  Ta5  1  0.088987  0.299340  0.196440  1
  Ta  Ta6  1  0.913420  0.198897  0.804358  1
  Ta  Ta7  1  0.086580  0.801103  0.195642  1
  Bi  Bi8  1  0.433068  0.955535  0.814304  1
  Bi  Bi9  1  0.566932  0.044465  0.185696  1
  Bi  Bi10  1  0.385576  0.455541  0.826633  1
  Bi  Bi11  1  0.614424  0.544459  0.173367  1
  O  O12  1  0.216128  0.723303  0.753678  1
  O  O13  1  0.783872  0.276697  0.246322  1
  O  O14  1  0.628275  0.666100  0.846128  1
  O  O15  1  0.371725  0.333900  0.153872  1
  O  O16  1  0.628730  0.253932  0.842997  1
  O  O17  1  0.371270  0.746068  0.157003  1
  O  O18  1  0.889771  0.156030  0.584334  1
  O  O19  1  0.110229  0.843970  0.415666  1
  O  O20  1  0.215317  0.150012  0.747285  1
  O  O21  1  0.784683  0.849988  0.252715  1
  O  O22  1  0.891227  0.635968  0.589586  1
  O  O23  1  0.108773  0.364032  0.410414  1
  O  O24  1  0.026105  0.549939  0.195920  1
  O  O25  1  0.973895  0.450061  0.804080  1
  O  O26  1  0.998419  0.790231  0.001306  1
  O  O27  1  0.001581  0.209769  0.998694  1
  O  O28  1  0.570721  0.596327  0.395607  1
  O  O29  1  0.429279  0.403673  0.604393  1
  O  O30  1  0.168887  0.057530  0.228535  1
  O  O31  1  0.831113  0.942470  0.771465  1
  O  O32  1  0.541640  0.107472  0.405824  1
  O  O33  1  0.458360  0.892528  0.594176  1
