# generated using pymatgen
data_Dy3Lu5In3Ir
_symmetry_space_group_name_H-M   'P 1'
_cell_length_a   10.27020500
_cell_length_b   10.27020488
_cell_length_c   6.99462100
_cell_angle_alpha   90.00000000
_cell_angle_beta   90.00000000
_cell_angle_gamma   120.00000362
_symmetry_Int_Tables_number   1
_chemical_formula_structural   Dy3Lu5In3Ir
_chemical_formula_sum   'Dy6 Lu10 In6 Ir2'
_cell_volume   638.92962154
_cell_formula_units_Z   2
loop_
 _symmetry_equiv_pos_site_id
 _symmetry_equiv_pos_as_xyz
  1  'x, y, z'
loop_
 _atom_site_type_symbol
 _atom_site_label
 _atom_site_symmetry_multiplicity
 _atom_site_fract_x
 _atom_site_fract_y
 _atom_site_fract_z
 _atom_site_occupancy
  Dy  Dy0  1  0.532150  0.064300  0.523397  1
  Dy  Dy1  1  0.935700  0.467850  0.523397  1
  Dy  Dy2  1  0.532150  0.467850  0.523397  1
  Dy  Dy3  1  0.467850  0.935700  0.023397  1
  Dy  Dy4  1  0.064300  0.532150  0.023397  1
  Dy  Dy5  1  0.467850  0.532150  0.023397  1
  Lu  Lu6  1  0.176885  0.353771  0.729035  1
  Lu  Lu7  1  0.646229  0.823115  0.729035  1
  Lu  Lu8  1  0.176885  0.823115  0.729035  1
  Lu  Lu9  1  0.823115  0.646229  0.229035  1
  Lu  Lu10  1  0.353771  0.176885  0.229035  1
  Lu  Lu11  1  0.823115  0.176885  0.229035  1
  Lu  Lu12  1  0.666667  0.333333  0.905134  1
  Lu  Lu13  1  0.333333  0.666667  0.405134  1
  Lu  Lu14  1  0.000000  0.000000  0.506979  1
  Lu  Lu15  1  0.000000  0.000000  0.006979  1
  In  In16  1  0.837697  0.675393  0.771321  1
  In  In17  1  0.324607  0.162303  0.771321  1
  In  In18  1  0.837697  0.162303  0.771321  1
  In  In19  1  0.162303  0.324607  0.271321  1
  In  In20  1  0.675393  0.837697  0.271321  1
  In  In21  1  0.162303  0.837697  0.271321  1
  Ir  Ir22  1  0.666667  0.333333  0.294473  1
  Ir  Ir23  1  0.333333  0.666667  0.794473  1
