# generated using pymatgen
data_Ca6TbTh(Si3Pd)4
_symmetry_space_group_name_H-M   'P 1'
_cell_length_a   8.26500400
_cell_length_b   8.26500363
_cell_length_c   8.34737900
_cell_angle_alpha   90.00000000
_cell_angle_beta   90.00000000
_cell_angle_gamma   120.00000148
_symmetry_Int_Tables_number   1
_chemical_formula_structural   Ca6TbTh(Si3Pd)4
_chemical_formula_sum   'Ca6 Tb1 Th1 Si12 Pd4'
_cell_volume   493.81795250
_cell_formula_units_Z   1
loop_
 _symmetry_equiv_pos_site_id
 _symmetry_equiv_pos_as_xyz
  1  'x, y, z'
loop_
 _atom_site_type_symbol
 _atom_site_label
 _atom_site_symmetry_multiplicity
 _atom_site_fract_x
 _atom_site_fract_y
 _atom_site_fract_z
 _atom_site_occupancy
  Ca  Ca0  1  0.500423  0.000843  0.250000  1
  Ca  Ca1  1  0.499589  0.999179  0.750000  1
  Ca  Ca2  1  0.999157  0.499577  0.250000  1
  Ca  Ca3  1  0.000821  0.500411  0.750000  1
  Ca  Ca4  1  0.500423  0.499577  0.250000  1
  Ca  Ca5  1  0.499589  0.500411  0.750000  1
  Tb  Tb6  1  0.000000  0.000000  0.750000  1
  Th  Th7  1  0.000000  0.000000  0.250000  1
  Si  Si8  1  0.164858  0.329715  0.998575  1
  Si  Si9  1  0.835153  0.670305  0.997493  1
  Si  Si10  1  0.670285  0.835142  0.998575  1
  Si  Si11  1  0.835153  0.670305  0.502507  1
  Si  Si12  1  0.329695  0.164847  0.997493  1
  Si  Si13  1  0.164858  0.329715  0.501425  1
  Si  Si14  1  0.164858  0.835142  0.998575  1
  Si  Si15  1  0.329695  0.164847  0.502507  1
  Si  Si16  1  0.835153  0.164847  0.997493  1
  Si  Si17  1  0.670285  0.835142  0.501425  1
  Si  Si18  1  0.835153  0.164847  0.502507  1
  Si  Si19  1  0.164858  0.835142  0.501425  1
  Pd  Pd20  1  0.333333  0.666667  0.000527  1
  Pd  Pd21  1  0.666667  0.333333  0.998879  1
  Pd  Pd22  1  0.666667  0.333333  0.501121  1
  Pd  Pd23  1  0.333333  0.666667  0.499473  1
