# generated using pymatgen
data_DyTmCdNi7B2
_symmetry_space_group_name_H-M   'P 1'
_cell_length_a   5.00554902
_cell_length_b   5.00236752
_cell_length_c   14.20528500
_cell_angle_alpha   90.00000000
_cell_angle_beta   90.00000000
_cell_angle_gamma   120.02531143
_symmetry_Int_Tables_number   1
_chemical_formula_structural   DyTmCdNi7B2
_chemical_formula_sum   'Dy2 Tm2 Cd2 Ni14 B4'
_cell_volume   307.96195851
_cell_formula_units_Z   2
loop_
 _symmetry_equiv_pos_site_id
 _symmetry_equiv_pos_as_xyz
  1  'x, y, z'
loop_
 _atom_site_type_symbol
 _atom_site_label
 _atom_site_symmetry_multiplicity
 _atom_site_fract_x
 _atom_site_fract_y
 _atom_site_fract_z
 _atom_site_occupancy
  Dy  Dy0  1  0.666770  0.333561  0.470340  1
  Dy  Dy1  1  0.333230  0.666439  0.970340  1
  Tm  Tm2  1  0.333297  0.666635  0.743884  1
  Tm  Tm3  1  0.666703  0.333365  0.243884  1
  Cd  Cd4  1  0.333142  0.666425  0.533099  1
  Cd  Cd5  1  0.666858  0.333575  0.033099  1
  Ni  Ni6  1  0.999872  0.999815  0.000150  1
  Ni  Ni7  1  0.000128  0.000185  0.500150  1
  Ni  Ni8  1  0.165455  0.330836  0.148471  1
  Ni  Ni9  1  0.834545  0.669164  0.648471  1
  Ni  Ni10  1  0.669266  0.834673  0.148425  1
  Ni  Ni11  1  0.165450  0.834702  0.148462  1
  Ni  Ni12  1  0.834550  0.165298  0.648462  1
  Ni  Ni13  1  0.330734  0.165327  0.648425  1
  Ni  Ni14  1  0.833940  0.667969  0.851636  1
  Ni  Ni15  1  0.833963  0.165722  0.851597  1
  Ni  Ni16  1  0.331628  0.165694  0.851540  1
  Ni  Ni17  1  0.668372  0.834306  0.351540  1
  Ni  Ni18  1  0.166037  0.834278  0.351597  1
  Ni  Ni19  1  0.166060  0.332031  0.351636  1
  B  B20  1  0.333502  0.666920  0.249779  1
  B  B21  1  0.666498  0.333080  0.749779  1
  B  B22  1  0.000073  0.000029  0.252618  1
  B  B23  1  0.999927  0.999971  0.752618  1
