# generated using pymatgen
data_TbEr2Tl(SbO4)4
_symmetry_space_group_name_H-M   'P 1'
_cell_length_a   5.38611722
_cell_length_b   7.71196213
_cell_length_c   7.56771187
_cell_angle_alpha   80.63870998
_cell_angle_beta   91.08811377
_cell_angle_gamma   91.83915201
_symmetry_Int_Tables_number   1
_chemical_formula_structural   TbEr2Tl(SbO4)4
_chemical_formula_sum   'Tb1 Er2 Tl1 Sb4 O16'
_cell_volume   309.96773507
_cell_formula_units_Z   1
loop_
 _symmetry_equiv_pos_site_id
 _symmetry_equiv_pos_as_xyz
  1  'x, y, z'
loop_
 _atom_site_type_symbol
 _atom_site_label
 _atom_site_symmetry_multiplicity
 _atom_site_fract_x
 _atom_site_fract_y
 _atom_site_fract_z
 _atom_site_occupancy
  Tb  Tb0  1  0.736927  0.863226  0.383084  1
  Er  Er1  1  0.214576  0.156815  0.110375  1
  Er  Er2  1  0.786945  0.842311  0.890842  1
  Tl  Tl3  1  0.258700  0.138647  0.620688  1
  Sb  Sb4  1  0.240864  0.662135  0.193735  1
  Sb  Sb5  1  0.759112  0.338992  0.805560  1
  Sb  Sb6  1  0.728869  0.335863  0.306824  1
  Sb  Sb7  1  0.268900  0.666725  0.692504  1
  O  O8  1  0.081362  0.438997  0.693183  1
  O  O9  1  0.914426  0.564126  0.308429  1
  O  O10  1  0.611392  0.326523  0.557944  1
  O  O11  1  0.386331  0.676035  0.440587  1
  O  O12  1  0.879437  0.331465  0.062233  1
  O  O13  1  0.123482  0.670460  0.939387  1
  O  O14  1  0.401126  0.429907  0.195889  1
  O  O15  1  0.594327  0.570411  0.806054  1
  O  O16  1  0.044958  0.886649  0.171614  1
  O  O17  1  0.953840  0.114079  0.832034  1
  O  O18  1  0.530870  0.112597  0.303702  1
  O  O19  1  0.484838  0.890803  0.677696  1
  O  O20  1  0.466624  0.189446  0.883007  1
  O  O21  1  0.536853  0.806517  0.118237  1
  O  O22  1  0.006647  0.167271  0.383413  1
  O  O23  1  0.988595  0.820000  0.622979  1
