# generated using pymatgen
data_Nd4Al18NiIr5
_symmetry_space_group_name_H-M   'P 1'
_cell_length_a   7.60818564
_cell_length_b   7.60818603
_cell_length_c   9.58064189
_cell_angle_alpha   90.09816430
_cell_angle_beta   90.09815143
_cell_angle_gamma   119.52559937
_symmetry_Int_Tables_number   1
_chemical_formula_structural   Nd4Al18NiIr5
_chemical_formula_sum   'Nd4 Al18 Ni1 Ir5'
_cell_volume   482.54881605
_cell_formula_units_Z   1
loop_
 _symmetry_equiv_pos_site_id
 _symmetry_equiv_pos_as_xyz
  1  'x, y, z'
loop_
 _atom_site_type_symbol
 _atom_site_label
 _atom_site_symmetry_multiplicity
 _atom_site_fract_x
 _atom_site_fract_y
 _atom_site_fract_z
 _atom_site_occupancy
  Nd  Nd0  1  0.994920  0.668670  0.249541  1
  Nd  Nd1  1  0.005080  0.331330  0.750459  1
  Nd  Nd2  1  0.668670  0.994920  0.249541  1
  Nd  Nd3  1  0.331330  0.005080  0.750459  1
  Al  Al4  1  0.127332  0.127332  0.247770  1
  Al  Al5  1  0.872668  0.872668  0.752230  1
  Al  Al6  1  0.002381  0.333181  0.073260  1
  Al  Al7  1  0.997619  0.666819  0.926740  1
  Al  Al8  1  0.998049  0.666194  0.572647  1
  Al  Al9  1  0.333806  0.001951  0.427353  1
  Al  Al10  1  0.001951  0.333806  0.427353  1
  Al  Al11  1  0.666194  0.998049  0.572647  1
  Al  Al12  1  0.666819  0.997619  0.926740  1
  Al  Al13  1  0.333181  0.002381  0.073260  1
  Al  Al14  1  0.334215  0.334215  0.547408  1
  Al  Al15  1  0.665785  0.665785  0.452592  1
  Al  Al16  1  0.667357  0.667357  0.046963  1
  Al  Al17  1  0.332643  0.332643  0.953037  1
  Al  Al18  1  0.338917  0.545732  0.249515  1
  Al  Al19  1  0.661083  0.454268  0.750485  1
  Al  Al20  1  0.545732  0.338917  0.249515  1
  Al  Al21  1  0.454268  0.661083  0.750485  1
  Ni  Ni22  1  0.000000  0.000000  0.000000  1
  Ir  Ir23  1  0.671307  0.328693  0.000000  1
  Ir  Ir24  1  0.328693  0.671307  0.000000  1
  Ir  Ir25  1  0.328973  0.671027  0.500000  1
  Ir  Ir26  1  0.671027  0.328973  0.500000  1
  Ir  Ir27  1  0.000000  0.000000  0.500000  1
