# generated using pymatgen
data_Ac4Co3Ge8
_symmetry_space_group_name_H-M   'P 1'
_cell_length_a   4.31749700
_cell_length_b   4.44710800
_cell_length_c   17.34308300
_cell_angle_alpha   90.00000000
_cell_angle_beta   90.00000000
_cell_angle_gamma   90.00000000
_symmetry_Int_Tables_number   1
_chemical_formula_structural   Ac4Co3Ge8
_chemical_formula_sum   'Ac4 Co3 Ge8'
_cell_volume   332.99370504
_cell_formula_units_Z   1
loop_
 _symmetry_equiv_pos_site_id
 _symmetry_equiv_pos_as_xyz
  1  'x, y, z'
loop_
 _atom_site_type_symbol
 _atom_site_label
 _atom_site_symmetry_multiplicity
 _atom_site_fract_x
 _atom_site_fract_y
 _atom_site_fract_z
 _atom_site_occupancy
  Ac  Ac0  1  0.000000  0.000000  0.106749  1
  Ac  Ac1  1  0.000000  0.500000  0.608411  1
  Ac  Ac2  1  0.500000  0.500000  0.388403  1
  Ac  Ac3  1  0.500000  0.000000  0.891143  1
  Co  Co4  1  0.000000  0.500000  0.817711  1
  Co  Co5  1  0.500000  0.500000  0.185096  1
  Co  Co6  1  0.500000  0.000000  0.683974  1
  Ge  Ge7  1  0.000000  0.500000  0.247505  1
  Ge  Ge8  1  0.000000  0.000000  0.749644  1
  Ge  Ge9  1  0.500000  0.000000  0.251866  1
  Ge  Ge10  1  0.500000  0.500000  0.749979  1
  Ge  Ge11  1  0.000000  0.000000  0.456758  1
  Ge  Ge12  1  0.000000  0.500000  0.954806  1
  Ge  Ge13  1  0.500000  0.500000  0.046743  1
  Ge  Ge14  1  0.500000  0.000000  0.545711  1
