# generated using pymatgen
data_Ba8Cu3Si12Pt
_symmetry_space_group_name_H-M   'P 1'
_cell_length_a   12.18641261
_cell_length_b   10.66766411
_cell_length_c   8.30141000
_cell_angle_alpha   78.78878546
_cell_angle_beta   59.13784142
_cell_angle_gamma   42.02371576
_symmetry_Int_Tables_number   1
_chemical_formula_structural   Ba8Cu3Si12Pt
_chemical_formula_sum   'Ba8 Cu3 Si12 Pt1'
_cell_volume   586.53046042
_cell_formula_units_Z   1
loop_
 _symmetry_equiv_pos_site_id
 _symmetry_equiv_pos_as_xyz
  1  'x, y, z'
loop_
 _atom_site_type_symbol
 _atom_site_label
 _atom_site_symmetry_multiplicity
 _atom_site_fract_x
 _atom_site_fract_y
 _atom_site_fract_z
 _atom_site_occupancy
  Ba  Ba0  1  0.124293  0.126468  0.377196  1
  Ba  Ba1  1  0.874553  0.877258  0.123710  1
  Ba  Ba2  1  0.123948  0.125166  0.874544  1
  Ba  Ba3  1  0.376941  0.371341  0.124975  1
  Ba  Ba4  1  0.623988  0.625004  0.375555  1
  Ba  Ba5  1  0.375294  0.375761  0.624826  1
  Ba  Ba6  1  0.628490  0.624300  0.872781  1
  Ba  Ba7  1  0.873073  0.874332  0.627501  1
  Cu  Cu8  1  0.082150  0.417351  0.083565  1
  Cu  Cu9  1  0.167675  0.832825  0.166761  1
  Cu  Cu10  1  0.417626  0.082001  0.417586  1
  Si  Si11  1  0.333060  0.664279  0.834606  1
  Si  Si12  1  0.169442  0.832705  0.662641  1
  Si  Si13  1  0.833628  0.168961  0.333591  1
  Si  Si14  1  0.663180  0.334276  0.168998  1
  Si  Si15  1  0.917185  0.585227  0.416034  1
  Si  Si16  1  0.081820  0.418832  0.584667  1
  Si  Si17  1  0.416782  0.080574  0.916727  1
  Si  Si18  1  0.916395  0.584125  0.915686  1
  Si  Si19  1  0.666043  0.333467  0.665483  1
  Si  Si20  1  0.333435  0.666302  0.333921  1
  Si  Si21  1  0.584198  0.916359  0.584152  1
  Si  Si22  1  0.584101  0.915377  0.082519  1
  Pt  Pt23  1  0.832698  0.167713  0.831976  1
