# generated using pymatgen
data_CsNiAs2Ru
_symmetry_space_group_name_H-M   'P 1'
_cell_length_a   8.11200758
_cell_length_b   8.11200704
_cell_length_c   8.11200664
_cell_angle_alpha   151.94088448
_cell_angle_beta   151.94088226
_cell_angle_gamma   40.09964052
_symmetry_Int_Tables_number   1
_chemical_formula_structural   CsNiAs2Ru
_chemical_formula_sum   'Cs1 Ni1 As2 Ru1'
_cell_volume   117.87962264
_cell_formula_units_Z   1
loop_
 _symmetry_equiv_pos_site_id
 _symmetry_equiv_pos_as_xyz
  1  'x, y, z'
loop_
 _atom_site_type_symbol
 _atom_site_label
 _atom_site_symmetry_multiplicity
 _atom_site_fract_x
 _atom_site_fract_y
 _atom_site_fract_z
 _atom_site_occupancy
  Cs  Cs0  1  0.000000  0.000000  0.000000  1
  Ni  Ni1  1  0.750000  0.250000  0.500000  1
  As  As2  1  0.340833  0.340833  0.000000  1
  As  As3  1  0.659167  0.659167  0.000000  1
  Ru  Ru4  1  0.250000  0.750000  0.500000  1
