# generated using pymatgen
data_Tb2PaGa6Cu2Ni7
_symmetry_space_group_name_H-M   'P 1'
_cell_length_a   4.15253500
_cell_length_b   8.75401343
_cell_length_c   8.74001357
_cell_angle_alpha   60.07869156
_cell_angle_beta   90.00000000
_cell_angle_gamma   90.00000000
_symmetry_Int_Tables_number   1
_chemical_formula_structural   Tb2PaGa6Cu2Ni7
_chemical_formula_sum   'Tb2 Pa1 Ga6 Cu2 Ni7'
_cell_volume   275.36394571
_cell_formula_units_Z   1
loop_
 _symmetry_equiv_pos_site_id
 _symmetry_equiv_pos_as_xyz
  1  'x, y, z'
loop_
 _atom_site_type_symbol
 _atom_site_label
 _atom_site_symmetry_multiplicity
 _atom_site_fract_x
 _atom_site_fract_y
 _atom_site_fract_z
 _atom_site_occupancy
  Tb  Tb0  1  0.500000  0.331245  0.332739  1
  Tb  Tb1  1  0.500000  0.668781  0.664019  1
  Pa  Pa2  1  0.000000  0.999988  0.004765  1
  Ga  Ga3  1  0.500000  0.721995  0.281020  1
  Ga  Ga4  1  0.500000  0.277961  0.002989  1
  Ga  Ga5  1  0.500000  0.000039  0.718597  1
  Ga  Ga6  1  0.000000  0.484309  0.514579  1
  Ga  Ga7  1  0.000000  0.515649  0.998930  1
  Ga  Ga8  1  0.000000  0.999984  0.483033  1
  Cu  Cu9  1  0.500000  0.294504  0.705984  1
  Cu  Cu10  1  0.500000  0.705471  0.000594  1
  Ni  Ni11  1  0.000000  0.192615  0.171669  1
  Ni  Ni12  1  0.000000  0.171584  0.636718  1
  Ni  Ni13  1  0.000000  0.636237  0.191841  1
  Ni  Ni14  1  0.000000  0.828438  0.808281  1
  Ni  Ni15  1  0.000000  0.363729  0.828159  1
  Ni  Ni16  1  0.000000  0.807448  0.364301  1
  Ni  Ni17  1  0.500000  0.999923  0.291882  1
