# generated using pymatgen
data_Er12Tl2Tc3
_symmetry_space_group_name_H-M   'P 1'
_cell_length_a   8.40976198
_cell_length_b   8.40976290
_cell_length_c   8.40976250
_cell_angle_alpha   108.90440289
_cell_angle_beta   108.90440641
_cell_angle_gamma   110.61090183
_symmetry_Int_Tables_number   1
_chemical_formula_structural   Er12Tl2Tc3
_chemical_formula_sum   'Er12 Tl2 Tc3'
_cell_volume   457.72021669
_cell_formula_units_Z   1
loop_
 _symmetry_equiv_pos_site_id
 _symmetry_equiv_pos_as_xyz
  1  'x, y, z'
loop_
 _atom_site_type_symbol
 _atom_site_label
 _atom_site_symmetry_multiplicity
 _atom_site_fract_x
 _atom_site_fract_y
 _atom_site_fract_z
 _atom_site_occupancy
  Er  Er0  1  0.189460  0.428808  0.239349  1
  Er  Er1  1  0.810540  0.571192  0.760651  1
  Er  Er2  1  0.189460  0.950112  0.760651  1
  Er  Er3  1  0.950112  0.189460  0.760651  1
  Er  Er4  1  0.810540  0.049888  0.239349  1
  Er  Er5  1  0.049888  0.810540  0.239349  1
  Er  Er6  1  0.428808  0.189460  0.239349  1
  Er  Er7  1  0.571192  0.810540  0.760651  1
  Er  Er8  1  0.306062  0.306062  0.612125  1
  Er  Er9  1  0.693938  0.693938  0.387875  1
  Er  Er10  1  0.693938  0.306062  0.000000  1
  Er  Er11  1  0.306062  0.693938  0.000000  1
  Tl  Tl12  1  0.000000  0.500000  0.500000  1
  Tl  Tl13  1  0.500000  0.000000  0.500000  1
  Tc  Tc14  1  0.371545  0.371545  0.000000  1
  Tc  Tc15  1  0.628455  0.628455  0.000000  1
  Tc  Tc16  1  0.000000  0.000000  0.000000  1
