# generated using pymatgen
data_Y5Th3Sb20
_symmetry_space_group_name_H-M   'P 1'
_cell_length_a   4.23803600
_cell_length_b   13.29751981
_cell_length_c   14.89304508
_cell_angle_alpha   76.71099711
_cell_angle_beta   90.00000000
_cell_angle_gamma   90.00000000
_symmetry_Int_Tables_number   1
_chemical_formula_structural   Y5Th3Sb20
_chemical_formula_sum   'Y5 Th3 Sb20'
_cell_volume   816.82902228
_cell_formula_units_Z   1
loop_
 _symmetry_equiv_pos_site_id
 _symmetry_equiv_pos_as_xyz
  1  'x, y, z'
loop_
 _atom_site_type_symbol
 _atom_site_label
 _atom_site_symmetry_multiplicity
 _atom_site_fract_x
 _atom_site_fract_y
 _atom_site_fract_z
 _atom_site_occupancy
  Y  Y0  1  0.750000  0.612596  0.224078  1
  Y  Y1  1  0.250000  0.951241  0.353945  1
  Y  Y2  1  0.750000  0.045598  0.643833  1
  Y  Y3  1  0.250000  0.663204  0.860880  1
  Y  Y4  1  0.750000  0.337266  0.144622  1
  Th  Th5  1  0.250000  0.674240  0.568600  1
  Th  Th6  1  0.750000  0.327870  0.426747  1
  Th  Th7  1  0.250000  0.386812  0.775929  1
  Sb  Sb8  1  0.250000  0.428590  0.552373  1
  Sb  Sb9  1  0.750000  0.573468  0.443124  1
  Sb  Sb10  1  0.250000  0.728784  0.058593  1
  Sb  Sb11  1  0.750000  0.271046  0.945392  1
  Sb  Sb12  1  0.250000  0.422209  0.982121  1
  Sb  Sb13  1  0.750000  0.579945  0.023732  1
  Sb  Sb14  1  0.250000  0.858919  0.685405  1
  Sb  Sb15  1  0.750000  0.138427  0.316539  1
  Sb  Sb16  1  0.250000  0.149630  0.171083  1
  Sb  Sb17  1  0.750000  0.850130  0.830417  1
  Sb  Sb18  1  0.250000  0.717657  0.337672  1
  Sb  Sb19  1  0.750000  0.280568  0.657918  1
  Sb  Sb20  1  0.250000  0.135546  0.778441  1
  Sb  Sb21  1  0.750000  0.861705  0.219512  1
  Sb  Sb22  1  0.250000  0.425424  0.265481  1
  Sb  Sb23  1  0.750000  0.577602  0.734669  1
  Sb  Sb24  1  0.250000  0.137235  0.483931  1
  Sb  Sb25  1  0.750000  0.863967  0.515454  1
  Sb  Sb26  1  0.250000  0.971557  0.083057  1
  Sb  Sb27  1  0.750000  0.028768  0.916453  1
