# generated using pymatgen
data_Sr4Dy3(US4)5
_symmetry_space_group_name_H-M   'P 1'
_cell_length_a   7.48563697
_cell_length_b   8.12856950
_cell_length_c   11.74846800
_cell_angle_alpha   89.75593832
_cell_angle_beta   89.93399872
_cell_angle_gamma   90.20018392
_symmetry_Int_Tables_number   1
_chemical_formula_structural   Sr4Dy3(US4)5
_chemical_formula_sum   'Sr4 Dy3 U5 S20'
_cell_volume   714.85381006
_cell_formula_units_Z   1
loop_
 _symmetry_equiv_pos_site_id
 _symmetry_equiv_pos_as_xyz
  1  'x, y, z'
loop_
 _atom_site_type_symbol
 _atom_site_label
 _atom_site_symmetry_multiplicity
 _atom_site_fract_x
 _atom_site_fract_y
 _atom_site_fract_z
 _atom_site_occupancy
  Sr  Sr0  1  0.046047  0.492382  0.328548  1
  Sr  Sr1  1  0.547699  0.507316  0.171732  1
  Sr  Sr2  1  0.953781  0.508200  0.669233  1
  Sr  Sr3  1  0.450482  0.494395  0.830444  1
  Dy  Dy4  1  0.030384  0.998846  0.320908  1
  Dy  Dy5  1  0.531503  0.001688  0.181188  1
  Dy  Dy6  1  0.971007  0.001551  0.676100  1
  U  U7  1  0.472067  0.000192  0.823237  1
  U  U8  1  0.065331  0.753145  0.007754  1
  U  U9  1  0.568384  0.246560  0.492283  1
  U  U10  1  0.933333  0.243893  0.991420  1
  U  U11  1  0.429202  0.753924  0.507822  1
  S  S12  1  0.663761  0.955720  0.408373  1
  S  S13  1  0.163924  0.042518  0.092210  1
  S  S14  1  0.338966  0.043921  0.597977  1
  S  S15  1  0.833489  0.954180  0.903380  1
  S  S16  1  0.449208  0.781763  0.999550  1
  S  S17  1  0.946964  0.222671  0.497621  1
  S  S18  1  0.550280  0.219910  0.995884  1
  S  S19  1  0.053441  0.778853  0.502203  1
  S  S20  1  0.842640  0.769671  0.187787  1
  S  S21  1  0.344260  0.229822  0.312727  1
  S  S22  1  0.159112  0.226851  0.811466  1
  S  S23  1  0.651559  0.770986  0.690766  1
  S  S24  1  0.317656  0.765560  0.286608  1
  S  S25  1  0.816453  0.233709  0.211567  1
  S  S26  1  0.682889  0.233711  0.714383  1
  S  S27  1  0.184112  0.768545  0.787723  1
  S  S28  1  0.175021  0.460347  0.075871  1
  S  S29  1  0.672144  0.540449  0.422673  1
  S  S30  1  0.826819  0.538390  0.921263  1
  S  S31  1  0.328083  0.460333  0.579301  1
