# generated using pymatgen
data_Ho8SiPd23Pt
_symmetry_space_group_name_H-M   'P 1'
_cell_length_a   8.31180800
_cell_length_b   8.31783400
_cell_length_c   8.31783400
_cell_angle_alpha   90.00000000
_cell_angle_beta   90.00000000
_cell_angle_gamma   90.00000000
_symmetry_Int_Tables_number   1
_chemical_formula_structural   Ho8SiPd23Pt
_chemical_formula_sum   'Ho8 Si1 Pd23 Pt1'
_cell_volume   575.06376092
_cell_formula_units_Z   1
loop_
 _symmetry_equiv_pos_site_id
 _symmetry_equiv_pos_as_xyz
  1  'x, y, z'
loop_
 _atom_site_type_symbol
 _atom_site_label
 _atom_site_symmetry_multiplicity
 _atom_site_fract_x
 _atom_site_fract_y
 _atom_site_fract_z
 _atom_site_occupancy
  Ho  Ho0  1  0.253525  0.253329  0.253329  1
  Ho  Ho1  1  0.746345  0.746141  0.746141  1
  Ho  Ho2  1  0.746345  0.746141  0.253859  1
  Ho  Ho3  1  0.746345  0.253859  0.746141  1
  Ho  Ho4  1  0.253525  0.253329  0.746671  1
  Ho  Ho5  1  0.253525  0.746671  0.253329  1
  Ho  Ho6  1  0.253525  0.746671  0.746671  1
  Ho  Ho7  1  0.746345  0.253859  0.253859  1
  Si  Si8  1  0.001270  0.000000  0.000000  1
  Pd  Pd9  1  0.257353  0.500000  0.000000  1
  Pd  Pd10  1  0.742389  0.500000  0.000000  1
  Pd  Pd11  1  0.999949  0.257582  0.500000  1
  Pd  Pd12  1  0.499904  0.257563  0.000000  1
  Pd  Pd13  1  0.999949  0.742418  0.500000  1
  Pd  Pd14  1  0.499904  0.742437  0.000000  1
  Pd  Pd15  1  0.499904  0.000000  0.257563  1
  Pd  Pd16  1  0.257353  0.000000  0.500000  1
  Pd  Pd17  1  0.499904  0.000000  0.742437  1
  Pd  Pd18  1  0.742389  0.000000  0.500000  1
  Pd  Pd19  1  0.999949  0.500000  0.257582  1
  Pd  Pd20  1  0.999949  0.500000  0.742418  1
  Pd  Pd21  1  0.252355  0.500000  0.500000  1
  Pd  Pd22  1  0.747725  0.500000  0.500000  1
  Pd  Pd23  1  0.500055  0.252387  0.500000  1
  Pd  Pd24  1  0.500055  0.747613  0.500000  1
  Pd  Pd25  1  0.500055  0.500000  0.252387  1
  Pd  Pd26  1  0.500055  0.500000  0.747613  1
  Pd  Pd27  1  0.720715  0.000000  0.000000  1
  Pd  Pd28  1  0.999682  0.280517  0.000000  1
  Pd  Pd29  1  0.999682  0.719483  0.000000  1
  Pd  Pd30  1  0.999682  0.000000  0.280517  1
  Pd  Pd31  1  0.999682  0.000000  0.719483  1
  Pt  Pt32  1  0.280612  0.000000  0.000000  1
