# generated using pymatgen
data_Np4Al6Ga6Pd
_symmetry_space_group_name_H-M   'P 1'
_cell_length_a   7.48311560
_cell_length_b   7.48311515
_cell_length_c   7.48311500
_cell_angle_alpha   109.47122293
_cell_angle_beta   109.47122172
_cell_angle_gamma   109.47121694
_symmetry_Int_Tables_number   1
_chemical_formula_structural   Np4Al6Ga6Pd
_chemical_formula_sum   'Np4 Al6 Ga6 Pd1'
_cell_volume   322.57106864
_cell_formula_units_Z   1
loop_
 _symmetry_equiv_pos_site_id
 _symmetry_equiv_pos_as_xyz
  1  'x, y, z'
loop_
 _atom_site_type_symbol
 _atom_site_label
 _atom_site_symmetry_multiplicity
 _atom_site_fract_x
 _atom_site_fract_y
 _atom_site_fract_z
 _atom_site_occupancy
  Np  Np0  1  0.500000  0.500000  0.500000  1
  Np  Np1  1  0.000000  0.000000  0.500000  1
  Np  Np2  1  0.000000  0.500000  0.000000  1
  Np  Np3  1  0.500000  0.000000  0.000000  1
  Al  Al4  1  0.500000  0.750000  0.250000  1
  Al  Al5  1  0.500000  0.250000  0.750000  1
  Al  Al6  1  0.250000  0.500000  0.750000  1
  Al  Al7  1  0.750000  0.500000  0.250000  1
  Al  Al8  1  0.750000  0.250000  0.500000  1
  Al  Al9  1  0.250000  0.750000  0.500000  1
  Ga  Ga10  1  0.000000  0.294929  0.294929  1
  Ga  Ga11  1  0.000000  0.705071  0.705071  1
  Ga  Ga12  1  0.294929  0.000000  0.294929  1
  Ga  Ga13  1  0.705071  0.000000  0.705071  1
  Ga  Ga14  1  0.294929  0.294929  0.000000  1
  Ga  Ga15  1  0.705071  0.705071  0.000000  1
  Pd  Pd16  1  0.000000  0.000000  0.000000  1
