# generated using pymatgen
data_Ba6GdSc(BO3)6
_symmetry_space_group_name_H-M   'P 1'
_cell_length_a   8.18607791
_cell_length_b   8.18607721
_cell_length_c   8.18607895
_cell_angle_alpha   105.72095262
_cell_angle_beta   105.72094869
_cell_angle_gamma   105.72096127
_symmetry_Int_Tables_number   1
_chemical_formula_structural   Ba6GdSc(BO3)6
_chemical_formula_sum   'Ba6 Gd1 Sc1 B6 O18'
_cell_volume   471.88343577
_cell_formula_units_Z   1
loop_
 _symmetry_equiv_pos_site_id
 _symmetry_equiv_pos_as_xyz
  1  'x, y, z'
loop_
 _atom_site_type_symbol
 _atom_site_label
 _atom_site_symmetry_multiplicity
 _atom_site_fract_x
 _atom_site_fract_y
 _atom_site_fract_z
 _atom_site_occupancy
  Ba  Ba0  1  0.348805  0.732576  0.837043  1
  Ba  Ba1  1  0.837043  0.348805  0.732576  1
  Ba  Ba2  1  0.732576  0.837043  0.348805  1
  Ba  Ba3  1  0.651195  0.267424  0.162957  1
  Ba  Ba4  1  0.162957  0.651195  0.267424  1
  Ba  Ba5  1  0.267424  0.162957  0.651195  1
  Gd  Gd6  1  0.000000  0.000000  0.000000  1
  Sc  Sc7  1  0.500000  0.500000  0.500000  1
  B  B8  1  0.377286  0.051579  0.294265  1
  B  B9  1  0.294265  0.377286  0.051579  1
  B  B10  1  0.051579  0.294265  0.377286  1
  B  B11  1  0.705735  0.622714  0.948421  1
  B  B12  1  0.948421  0.705735  0.622714  1
  B  B13  1  0.622714  0.948421  0.705735  1
  O  O14  1  0.426520  0.489523  0.226295  1
  O  O15  1  0.226295  0.426520  0.489523  1
  O  O16  1  0.809189  0.012569  0.735925  1
  O  O17  1  0.012569  0.735925  0.809189  1
  O  O18  1  0.735925  0.809189  0.012569  1
  O  O19  1  0.264075  0.190811  0.987431  1
  O  O20  1  0.190811  0.987431  0.264075  1
  O  O21  1  0.987431  0.264075  0.190811  1
  O  O22  1  0.547978  0.056442  0.797505  1
  O  O23  1  0.056442  0.797505  0.547978  1
  O  O24  1  0.797505  0.547978  0.056442  1
  O  O25  1  0.452022  0.943558  0.202495  1
  O  O26  1  0.943558  0.202495  0.452022  1
  O  O27  1  0.202495  0.452022  0.943558  1
  O  O28  1  0.510477  0.773705  0.573480  1
  O  O29  1  0.773705  0.573480  0.510477  1
  O  O30  1  0.573480  0.510477  0.773705  1
  O  O31  1  0.489523  0.226295  0.426520  1
