# generated using pymatgen
data_Tb3(Sn2Rh)2
_symmetry_space_group_name_H-M   'P 1'
_cell_length_a   7.54092000
_cell_length_b   7.54091875
_cell_length_c   4.21912200
_cell_angle_alpha   90.00000000
_cell_angle_beta   90.00000000
_cell_angle_gamma   119.99999553
_symmetry_Int_Tables_number   1
_chemical_formula_structural   Tb3(Sn2Rh)2
_chemical_formula_sum   'Tb3 Sn4 Rh2'
_cell_volume   207.77884599
_cell_formula_units_Z   1
loop_
 _symmetry_equiv_pos_site_id
 _symmetry_equiv_pos_as_xyz
  1  'x, y, z'
loop_
 _atom_site_type_symbol
 _atom_site_label
 _atom_site_symmetry_multiplicity
 _atom_site_fract_x
 _atom_site_fract_y
 _atom_site_fract_z
 _atom_site_occupancy
  Tb  Tb0  1  0.414743  0.022231  0.500000  1
  Tb  Tb1  1  0.977769  0.392511  0.500000  1
  Tb  Tb2  1  0.607489  0.585257  0.500000  1
  Sn  Sn3  1  0.761495  0.018049  0.000000  1
  Sn  Sn4  1  0.981951  0.743446  0.000000  1
  Sn  Sn5  1  0.256554  0.238505  0.000000  1
  Sn  Sn6  1  0.333333  0.666667  0.000000  1
  Rh  Rh7  1  0.666667  0.333333  0.000000  1
  Rh  Rh8  1  0.000000  0.000000  0.500000  1
