# generated using pymatgen
data_Nd6Ir13Rh5
_symmetry_space_group_name_H-M   'P 1'
_cell_length_a   5.36994500
_cell_length_b   5.36994407
_cell_length_c   17.67348200
_cell_angle_alpha   90.00000000
_cell_angle_beta   90.00000000
_cell_angle_gamma   119.99999958
_symmetry_Int_Tables_number   1
_chemical_formula_structural   Nd6Ir13Rh5
_chemical_formula_sum   'Nd6 Ir13 Rh5'
_cell_volume   441.35937435
_cell_formula_units_Z   1
loop_
 _symmetry_equiv_pos_site_id
 _symmetry_equiv_pos_as_xyz
  1  'x, y, z'
loop_
 _atom_site_type_symbol
 _atom_site_label
 _atom_site_symmetry_multiplicity
 _atom_site_fract_x
 _atom_site_fract_y
 _atom_site_fract_z
 _atom_site_occupancy
  Nd  Nd0  1  0.333333  0.666667  0.541482  1
  Nd  Nd1  1  0.666667  0.333333  0.041253  1
  Nd  Nd2  1  0.666667  0.333333  0.458518  1
  Nd  Nd3  1  0.333333  0.666667  0.958747  1
  Nd  Nd4  1  0.333333  0.666667  0.750055  1
  Nd  Nd5  1  0.666667  0.333333  0.249945  1
  Ir  Ir6  1  0.166854  0.333707  0.127726  1
  Ir  Ir7  1  0.832783  0.665566  0.627672  1
  Ir  Ir8  1  0.666293  0.833146  0.127726  1
  Ir  Ir9  1  0.166854  0.833146  0.127726  1
  Ir  Ir10  1  0.832783  0.167217  0.627672  1
  Ir  Ir11  1  0.334434  0.167217  0.627672  1
  Ir  Ir12  1  0.833146  0.666293  0.872274  1
  Ir  Ir13  1  0.833146  0.166854  0.872274  1
  Ir  Ir14  1  0.333707  0.166854  0.872274  1
  Ir  Ir15  1  0.665566  0.832783  0.372328  1
  Ir  Ir16  1  0.167217  0.832783  0.372328  1
  Ir  Ir17  1  0.167217  0.334434  0.372328  1
  Ir  Ir18  1  0.000000  0.000000  0.000000  1
  Rh  Rh19  1  0.000000  0.000000  0.250440  1
  Rh  Rh20  1  0.000000  0.000000  0.749560  1
  Rh  Rh21  1  0.333333  0.666667  0.250496  1
  Rh  Rh22  1  0.666667  0.333333  0.749504  1
  Rh  Rh23  1  0.000000  0.000000  0.500000  1
