# generated using pymatgen
data_Ce8Zn2Si12NiRh
_symmetry_space_group_name_H-M   'P 1'
_cell_length_a   8.15887200
_cell_length_b   8.15887250
_cell_length_c   8.33293500
_cell_angle_alpha   90.00000000
_cell_angle_beta   90.00000000
_cell_angle_gamma   119.99999796
_symmetry_Int_Tables_number   1
_chemical_formula_structural   Ce8Zn2Si12NiRh
_chemical_formula_sum   'Ce8 Zn2 Si12 Ni1 Rh1'
_cell_volume   480.38440609
_cell_formula_units_Z   1
loop_
 _symmetry_equiv_pos_site_id
 _symmetry_equiv_pos_as_xyz
  1  'x, y, z'
loop_
 _atom_site_type_symbol
 _atom_site_label
 _atom_site_symmetry_multiplicity
 _atom_site_fract_x
 _atom_site_fract_y
 _atom_site_fract_z
 _atom_site_occupancy
  Ce  Ce0  1  0.000000  0.000000  0.250650  1
  Ce  Ce1  1  0.000000  0.000000  0.749319  1
  Ce  Ce2  1  0.496433  0.503567  0.249280  1
  Ce  Ce3  1  0.496433  0.992866  0.249280  1
  Ce  Ce4  1  0.007134  0.503567  0.249280  1
  Ce  Ce5  1  0.494885  0.505115  0.750939  1
  Ce  Ce6  1  0.494885  0.989769  0.750939  1
  Ce  Ce7  1  0.010231  0.505115  0.750939  1
  Zn  Zn8  1  0.666667  0.333333  0.506468  1
  Zn  Zn9  1  0.666667  0.333333  0.995600  1
  Si  Si10  1  0.171471  0.828529  0.499951  1
  Si  Si11  1  0.171471  0.342942  0.499951  1
  Si  Si12  1  0.657058  0.828529  0.499951  1
  Si  Si13  1  0.835476  0.164524  0.499768  1
  Si  Si14  1  0.835476  0.670951  0.499768  1
  Si  Si15  1  0.329049  0.164524  0.499768  1
  Si  Si16  1  0.834939  0.165061  0.999495  1
  Si  Si17  1  0.834939  0.669876  0.999495  1
  Si  Si18  1  0.330124  0.165061  0.999495  1
  Si  Si19  1  0.165797  0.834203  0.000795  1
  Si  Si20  1  0.165797  0.331595  0.000795  1
  Si  Si21  1  0.668405  0.834203  0.000795  1
  Ni  Ni22  1  0.333333  0.666667  0.496316  1
  Rh  Rh23  1  0.333333  0.666667  0.000967  1
