# generated using pymatgen
data_LiEr15TmCo4Ag3
_symmetry_space_group_name_H-M   'P 1'
_cell_length_a   9.32992824
_cell_length_b   9.33639976
_cell_length_c   9.33496623
_cell_angle_alpha   60.17277674
_cell_angle_beta   60.11295929
_cell_angle_gamma   60.13121252
_symmetry_Int_Tables_number   1
_chemical_formula_structural   LiEr15TmCo4Ag3
_chemical_formula_sum   'Li1 Er15 Tm1 Co4 Ag3'
_cell_volume   576.79355203
_cell_formula_units_Z   1
loop_
 _symmetry_equiv_pos_site_id
 _symmetry_equiv_pos_as_xyz
  1  'x, y, z'
loop_
 _atom_site_type_symbol
 _atom_site_label
 _atom_site_symmetry_multiplicity
 _atom_site_fract_x
 _atom_site_fract_y
 _atom_site_fract_z
 _atom_site_occupancy
  Li  Li0  1  0.299901  0.566830  0.566692  1
  Er  Er1  1  0.346491  0.345646  0.345584  1
  Er  Er2  1  0.345943  0.345280  0.962923  1
  Er  Er3  1  0.346250  0.962252  0.345382  1
  Er  Er4  1  0.950515  0.349717  0.349545  1
  Er  Er5  1  0.808582  0.189124  0.189461  1
  Er  Er6  1  0.185742  0.813935  0.813883  1
  Er  Er7  1  0.185636  0.814171  0.186420  1
  Er  Er8  1  0.808331  0.189217  0.812930  1
  Er  Er9  1  0.185638  0.186041  0.814321  1
  Er  Er10  1  0.808370  0.812927  0.189333  1
  Er  Er11  1  0.936627  0.561971  0.561652  1
  Er  Er12  1  0.562862  0.937155  0.936712  1
  Er  Er13  1  0.562795  0.937095  0.563428  1
  Er  Er14  1  0.936662  0.562055  0.939692  1
  Er  Er15  1  0.562333  0.563487  0.937068  1
  Tm  Tm16  1  0.936689  0.940425  0.561634  1
  Co  Co17  1  0.136477  0.143101  0.143791  1
  Co  Co18  1  0.136408  0.143094  0.576637  1
  Co  Co19  1  0.136638  0.576687  0.143313  1
  Co  Co20  1  0.573834  0.141928  0.142080  1
  Ag  Ag21  1  0.582249  0.582880  0.582637  1
  Ag  Ag22  1  0.582193  0.582830  0.252375  1
  Ag  Ag23  1  0.582834  0.252151  0.582505  1
