# generated using pymatgen
data_Dy14Ho6GaBi11
_symmetry_space_group_name_H-M   'P 1'
_cell_length_a   8.21397843
_cell_length_b   9.47891801
_cell_length_c   12.03432501
_cell_angle_alpha   89.99571172
_cell_angle_beta   90.28611989
_cell_angle_gamma   90.00053564
_symmetry_Int_Tables_number   1
_chemical_formula_structural   Dy14Ho6GaBi11
_chemical_formula_sum   'Dy14 Ho6 Ga1 Bi11'
_cell_volume   936.97638411
_cell_formula_units_Z   1
loop_
 _symmetry_equiv_pos_site_id
 _symmetry_equiv_pos_as_xyz
  1  'x, y, z'
loop_
 _atom_site_type_symbol
 _atom_site_label
 _atom_site_symmetry_multiplicity
 _atom_site_fract_x
 _atom_site_fract_y
 _atom_site_fract_z
 _atom_site_occupancy
  Dy  Dy0  1  0.355268  0.750022  0.206143  1
  Dy  Dy1  1  0.852573  0.750016  0.284655  1
  Dy  Dy2  1  0.648573  0.249998  0.784461  1
  Dy  Dy3  1  0.148900  0.249998  0.716327  1
  Dy  Dy4  1  0.684000  0.570309  0.054657  1
  Dy  Dy5  1  0.193115  0.935863  0.440112  1
  Dy  Dy6  1  0.475355  0.250039  0.488690  1
  Dy  Dy7  1  0.978810  0.249974  0.010536  1
  Dy  Dy8  1  0.525740  0.749975  0.511746  1
  Dy  Dy9  1  0.035971  0.750004  0.989399  1
  Dy  Dy10  1  0.314441  0.250004  0.219505  1
  Dy  Dy11  1  0.812097  0.249983  0.281253  1
  Dy  Dy12  1  0.673285  0.750059  0.788323  1
  Dy  Dy13  1  0.190417  0.749957  0.722296  1
  Ho  Ho14  1  0.309653  0.049533  0.941092  1
  Ho  Ho15  1  0.807120  0.436091  0.558969  1
  Ho  Ho16  1  0.309628  0.450467  0.941083  1
  Ho  Ho17  1  0.807165  0.063918  0.558950  1
  Ho  Ho18  1  0.683974  0.929608  0.054632  1
  Ho  Ho19  1  0.193095  0.564204  0.440092  1
  Ga  Ga20  1  0.407972  0.750106  0.960585  1
  Bi  Bi21  1  0.908302  0.749886  0.544736  1
  Bi  Bi22  1  0.592937  0.249723  0.042370  1
  Bi  Bi23  1  0.092863  0.250281  0.457479  1
  Bi  Bi24  1  0.564971  0.995450  0.325587  1
  Bi  Bi25  1  0.064226  0.503311  0.175209  1
  Bi  Bi26  1  0.435280  0.495882  0.674945  1
  Bi  Bi27  1  0.934938  0.002742  0.825213  1
  Bi  Bi28  1  0.435293  0.004105  0.674988  1
  Bi  Bi29  1  0.934970  0.497269  0.825176  1
  Bi  Bi30  1  0.564895  0.504556  0.325648  1
  Bi  Bi31  1  0.064175  0.996667  0.175140  1
