# generated using pymatgen
data_Y3Lu5(AlNi)2
_symmetry_space_group_name_H-M   'P 1'
_cell_length_a   9.32045902
_cell_length_b   9.32045858
_cell_length_c   9.32045900
_cell_angle_alpha   59.99999496
_cell_angle_beta   59.99999651
_cell_angle_gamma   59.99999408
_symmetry_Int_Tables_number   1
_chemical_formula_structural   Y3Lu5(AlNi)2
_chemical_formula_sum   'Y6 Lu10 Al4 Ni4'
_cell_volume   572.52813972
_cell_formula_units_Z   2
loop_
 _symmetry_equiv_pos_site_id
 _symmetry_equiv_pos_as_xyz
  1  'x, y, z'
loop_
 _atom_site_type_symbol
 _atom_site_label
 _atom_site_symmetry_multiplicity
 _atom_site_fract_x
 _atom_site_fract_y
 _atom_site_fract_z
 _atom_site_occupancy
  Y  Y0  1  0.187753  0.812247  0.812247  1
  Y  Y1  1  0.812247  0.187753  0.187753  1
  Y  Y2  1  0.812247  0.187753  0.812247  1
  Y  Y3  1  0.187753  0.812247  0.187753  1
  Y  Y4  1  0.812247  0.812247  0.187753  1
  Y  Y5  1  0.187753  0.187753  0.812247  1
  Lu  Lu6  1  0.600007  0.600007  0.600007  1
  Lu  Lu7  1  0.600007  0.600007  0.199979  1
  Lu  Lu8  1  0.600007  0.199979  0.600007  1
  Lu  Lu9  1  0.199979  0.600007  0.600007  1
  Lu  Lu10  1  0.061119  0.438881  0.438881  1
  Lu  Lu11  1  0.438881  0.061119  0.061119  1
  Lu  Lu12  1  0.438881  0.061119  0.438881  1
  Lu  Lu13  1  0.061119  0.438881  0.061119  1
  Lu  Lu14  1  0.438881  0.438881  0.061119  1
  Lu  Lu15  1  0.061119  0.061119  0.438881  1
  Al  Al16  1  0.827078  0.827078  0.827078  1
  Al  Al17  1  0.827078  0.827078  0.518765  1
  Al  Al18  1  0.827078  0.518765  0.827078  1
  Al  Al19  1  0.518765  0.827078  0.827078  1
  Ni  Ni20  1  0.392732  0.392732  0.392732  1
  Ni  Ni21  1  0.392732  0.392732  0.821805  1
  Ni  Ni22  1  0.392732  0.821805  0.392732  1
  Ni  Ni23  1  0.821805  0.392732  0.392732  1
