# generated using pymatgen
data_KP2PdPt5
_symmetry_space_group_name_H-M   'P 1'
_cell_length_a   8.63230600
_cell_length_b   8.58922400
_cell_length_c   8.53078600
_cell_angle_alpha   90.00000000
_cell_angle_beta   90.00000000
_cell_angle_gamma   90.00000000
_symmetry_Int_Tables_number   1
_chemical_formula_structural   KP2PdPt5
_chemical_formula_sum   'K4 P8 Pd4 Pt20'
_cell_volume   632.51350602
_cell_formula_units_Z   4
loop_
 _symmetry_equiv_pos_site_id
 _symmetry_equiv_pos_as_xyz
  1  'x, y, z'
loop_
 _atom_site_type_symbol
 _atom_site_label
 _atom_site_symmetry_multiplicity
 _atom_site_fract_x
 _atom_site_fract_y
 _atom_site_fract_z
 _atom_site_occupancy
  K  K0  1  0.501360  0.501609  0.002548  1
  K  K1  1  0.498640  0.001609  0.497452  1
  K  K2  1  0.998640  0.498391  0.502548  1
  K  K3  1  0.001360  0.998391  0.997452  1
  P  P4  1  0.808307  0.304298  0.193477  1
  P  P5  1  0.191693  0.804298  0.306523  1
  P  P6  1  0.691693  0.695702  0.693477  1
  P  P7  1  0.308307  0.195702  0.806523  1
  P  P8  1  0.198751  0.693529  0.808889  1
  P  P9  1  0.801249  0.193529  0.691111  1
  P  P10  1  0.301249  0.306471  0.308889  1
  P  P11  1  0.698751  0.806471  0.191111  1
  Pd  Pd12  1  0.421585  0.844504  0.157326  1
  Pd  Pd13  1  0.578415  0.344504  0.342674  1
  Pd  Pd14  1  0.078415  0.155496  0.657326  1
  Pd  Pd15  1  0.921585  0.655496  0.842674  1
  Pt  Pt16  1  0.158499  0.422057  0.846053  1
  Pt  Pt17  1  0.341501  0.577943  0.346053  1
  Pt  Pt18  1  0.658499  0.077943  0.153947  1
  Pt  Pt19  1  0.841501  0.922057  0.653947  1
  Pt  Pt20  1  0.845248  0.155082  0.420542  1
  Pt  Pt21  1  0.345248  0.344918  0.579458  1
  Pt  Pt22  1  0.154752  0.655082  0.079458  1
  Pt  Pt23  1  0.654752  0.844918  0.920542  1
  Pt  Pt24  1  0.577916  0.158493  0.844239  1
  Pt  Pt25  1  0.422084  0.658493  0.655761  1
  Pt  Pt26  1  0.922084  0.841507  0.344239  1
  Pt  Pt27  1  0.077916  0.341507  0.155761  1
  Pt  Pt28  1  0.844039  0.574361  0.158541  1
  Pt  Pt29  1  0.655961  0.425639  0.658541  1
  Pt  Pt30  1  0.344039  0.925639  0.841459  1
  Pt  Pt31  1  0.155961  0.074361  0.341459  1
  Pt  Pt32  1  0.151886  0.840070  0.581159  1
  Pt  Pt33  1  0.651886  0.659930  0.418841  1
  Pt  Pt34  1  0.848114  0.340070  0.918841  1
  Pt  Pt35  1  0.348114  0.159930  0.081159  1
