# generated using pymatgen
data_Tb4Ho4Re3B24Rh
_symmetry_space_group_name_H-M   'P 1'
_cell_length_a   3.68281700
_cell_length_b   9.17065894
_cell_length_c   11.55969501
_cell_angle_alpha   90.15808968
_cell_angle_beta   90.00000000
_cell_angle_gamma   90.00000000
_symmetry_Int_Tables_number   1
_chemical_formula_structural   Tb4Ho4Re3B24Rh
_chemical_formula_sum   'Tb4 Ho4 Re3 B24 Rh1'
_cell_volume   390.41401902
_cell_formula_units_Z   1
loop_
 _symmetry_equiv_pos_site_id
 _symmetry_equiv_pos_as_xyz
  1  'x, y, z'
loop_
 _atom_site_type_symbol
 _atom_site_label
 _atom_site_symmetry_multiplicity
 _atom_site_fract_x
 _atom_site_fract_y
 _atom_site_fract_z
 _atom_site_occupancy
  Tb  Tb0  1  0.000000  0.318664  0.415498  1
  Tb  Tb1  1  0.000000  0.678078  0.590947  1
  Tb  Tb2  1  0.000000  0.826913  0.081662  1
  Tb  Tb3  1  0.000000  0.177406  0.912723  1
  Ho  Ho4  1  0.000000  0.943300  0.369966  1
  Ho  Ho5  1  0.000000  0.055883  0.628904  1
  Ho  Ho6  1  0.000000  0.441293  0.129078  1
  Ho  Ho7  1  0.000000  0.556682  0.871630  1
  Re  Re8  1  0.000000  0.362279  0.678067  1
  Re  Re9  1  0.000000  0.138677  0.180275  1
  Re  Re10  1  0.000000  0.861378  0.820524  1
  B  B11  1  0.500000  0.554196  0.433277  1
  B  B12  1  0.500000  0.446402  0.567064  1
  B  B13  1  0.500000  0.053765  0.066946  1
  B  B14  1  0.500000  0.946885  0.932259  1
  B  B15  1  0.500000  0.749152  0.419774  1
  B  B16  1  0.500000  0.250531  0.581330  1
  B  B17  1  0.500000  0.249416  0.081718  1
  B  B18  1  0.500000  0.751638  0.918496  1
  B  B19  1  0.500000  0.790919  0.265367  1
  B  B20  1  0.500000  0.208533  0.733806  1
  B  B21  1  0.500000  0.291578  0.234942  1
  B  B22  1  0.500000  0.708233  0.766101  1
  B  B23  1  0.500000  0.631612  0.184313  1
  B  B24  1  0.500000  0.369578  0.813996  1
  B  B25  1  0.500000  0.130567  0.314722  1
  B  B26  1  0.500000  0.868609  0.685562  1
  B  B27  1  0.500000  0.983351  0.212148  1
  B  B28  1  0.500000  0.017010  0.786728  1
  B  B29  1  0.500000  0.483627  0.287789  1
  B  B30  1  0.500000  0.517807  0.712673  1
  B  B31  1  0.500000  0.603375  0.029299  1
  B  B32  1  0.500000  0.397922  0.972322  1
  B  B33  1  0.500000  0.101332  0.471111  1
  B  B34  1  0.500000  0.895322  0.528079  1
  Rh  Rh35  1  0.000000  0.638090  0.320907  1
