# generated using pymatgen
data_Tb5Y11MgIn3Pd4
_symmetry_space_group_name_H-M   'P 1'
_cell_length_a   9.79506059
_cell_length_b   9.79734159
_cell_length_c   9.79734103
_cell_angle_alpha   59.84496242
_cell_angle_beta   59.95301228
_cell_angle_gamma   59.95300860
_symmetry_Int_Tables_number   1
_chemical_formula_structural   Tb5Y11MgIn3Pd4
_chemical_formula_sum   'Tb5 Y11 Mg1 In3 Pd4'
_cell_volume   663.57353727
_cell_formula_units_Z   1
loop_
 _symmetry_equiv_pos_site_id
 _symmetry_equiv_pos_as_xyz
  1  'x, y, z'
loop_
 _atom_site_type_symbol
 _atom_site_label
 _atom_site_symmetry_multiplicity
 _atom_site_fract_x
 _atom_site_fract_y
 _atom_site_fract_z
 _atom_site_occupancy
  Tb  Tb0  1  0.351473  0.350903  0.350903  1
  Tb  Tb1  1  0.352055  0.352066  0.944245  1
  Tb  Tb2  1  0.352055  0.944245  0.352066  1
  Tb  Tb3  1  0.941256  0.352596  0.352596  1
  Tb  Tb4  1  0.809105  0.190961  0.190961  1
  Y  Y5  1  0.188822  0.810793  0.810793  1
  Y  Y6  1  0.188481  0.811433  0.189230  1
  Y  Y7  1  0.808744  0.191627  0.808564  1
  Y  Y8  1  0.188481  0.189230  0.811433  1
  Y  Y9  1  0.808744  0.808564  0.191627  1
  Y  Y10  1  0.934915  0.565255  0.565255  1
  Y  Y11  1  0.564207  0.935877  0.935877  1
  Y  Y12  1  0.564668  0.935063  0.564243  1
  Y  Y13  1  0.935505  0.564390  0.935815  1
  Y  Y14  1  0.564668  0.564243  0.935063  1
  Y  Y15  1  0.935505  0.935815  0.564390  1
  Mg  Mg16  1  0.266489  0.577637  0.577637  1
  In  In17  1  0.582889  0.584085  0.584085  1
  In  In18  1  0.581795  0.583846  0.250858  1
  In  In19  1  0.581795  0.250858  0.583846  1
  Pd  Pd20  1  0.143972  0.144596  0.144596  1
  Pd  Pd21  1  0.143050  0.144353  0.567761  1
  Pd  Pd22  1  0.143050  0.567761  0.144353  1
  Pd  Pd23  1  0.568271  0.143804  0.143804  1
