# generated using pymatgen
data_DyIn6IrBr12
_symmetry_space_group_name_H-M   'P 1'
_cell_length_a   9.21250535
_cell_length_b   9.21250547
_cell_length_c   9.21250463
_cell_angle_alpha   104.86994356
_cell_angle_beta   104.86995168
_cell_angle_gamma   104.86995448
_symmetry_Int_Tables_number   1
_chemical_formula_structural   DyIn6IrBr12
_chemical_formula_sum   'Dy1 In6 Ir1 Br12'
_cell_volume   685.47465865
_cell_formula_units_Z   1
loop_
 _symmetry_equiv_pos_site_id
 _symmetry_equiv_pos_as_xyz
  1  'x, y, z'
loop_
 _atom_site_type_symbol
 _atom_site_label
 _atom_site_symmetry_multiplicity
 _atom_site_fract_x
 _atom_site_fract_y
 _atom_site_fract_z
 _atom_site_occupancy
  Dy  Dy0  1  0.500000  0.500000  0.500000  1
  In  In1  1  0.046599  0.062995  0.309494  1
  In  In2  1  0.309494  0.046599  0.062995  1
  In  In3  1  0.062995  0.309494  0.046599  1
  In  In4  1  0.953401  0.937005  0.690506  1
  In  In5  1  0.690506  0.953401  0.937005  1
  In  In6  1  0.937005  0.690506  0.953401  1
  Ir  Ir7  1  0.000000  0.000000  0.000000  1
  Br  Br8  1  0.982536  0.558858  0.193029  1
  Br  Br9  1  0.193029  0.982536  0.558858  1
  Br  Br10  1  0.558858  0.193029  0.982536  1
  Br  Br11  1  0.017464  0.441142  0.806971  1
  Br  Br12  1  0.806971  0.017464  0.441142  1
  Br  Br13  1  0.441142  0.806971  0.017464  1
  Br  Br14  1  0.491982  0.183815  0.386267  1
  Br  Br15  1  0.386267  0.491982  0.183815  1
  Br  Br16  1  0.183815  0.386267  0.491982  1
  Br  Br17  1  0.508018  0.816185  0.613733  1
  Br  Br18  1  0.613733  0.508018  0.816185  1
  Br  Br19  1  0.816185  0.613733  0.508018  1
