# generated using pymatgen
data_Sr4Yb(InSb3)2
_symmetry_space_group_name_H-M   'P 1'
_cell_length_a   4.72684600
_cell_length_b   12.63465400
_cell_length_c   14.73280300
_cell_angle_alpha   90.00000000
_cell_angle_beta   90.00000000
_cell_angle_gamma   90.00000000
_symmetry_Int_Tables_number   1
_chemical_formula_structural   Sr4Yb(InSb3)2
_chemical_formula_sum   'Sr8 Yb2 In4 Sb12'
_cell_volume   879.87339956
_cell_formula_units_Z   2
loop_
 _symmetry_equiv_pos_site_id
 _symmetry_equiv_pos_as_xyz
  1  'x, y, z'
loop_
 _atom_site_type_symbol
 _atom_site_label
 _atom_site_symmetry_multiplicity
 _atom_site_fract_x
 _atom_site_fract_y
 _atom_site_fract_z
 _atom_site_occupancy
  Sr  Sr0  1  0.500000  0.088626  0.748219  1
  Sr  Sr1  1  0.500000  0.174883  0.017911  1
  Sr  Sr2  1  0.500000  0.411374  0.248219  1
  Sr  Sr3  1  0.500000  0.825117  0.982089  1
  Sr  Sr4  1  0.500000  0.325117  0.517911  1
  Sr  Sr5  1  0.500000  0.588626  0.751781  1
  Sr  Sr6  1  0.500000  0.911374  0.251781  1
  Sr  Sr7  1  0.500000  0.674883  0.482089  1
  Yb  Yb8  1  0.500000  0.000000  0.500000  1
  Yb  Yb9  1  0.500000  0.500000  0.000000  1
  In  In10  1  0.000000  0.328949  0.714417  1
  In  In11  1  0.000000  0.171051  0.214417  1
  In  In12  1  0.000000  0.671051  0.285583  1
  In  In13  1  0.000000  0.828949  0.785583  1
  Sb  Sb14  1  0.000000  0.646906  0.909280  1
  Sb  Sb15  1  0.500000  0.661242  0.171256  1
  Sb  Sb16  1  0.000000  0.025697  0.904205  1
  Sb  Sb17  1  0.000000  0.474303  0.404205  1
  Sb  Sb18  1  0.500000  0.338758  0.828744  1
  Sb  Sb19  1  0.500000  0.161242  0.328744  1
  Sb  Sb20  1  0.000000  0.353094  0.090720  1
  Sb  Sb21  1  0.000000  0.146906  0.590720  1
  Sb  Sb22  1  0.000000  0.974303  0.095795  1
  Sb  Sb23  1  0.500000  0.838758  0.671256  1
  Sb  Sb24  1  0.000000  0.525697  0.595795  1
  Sb  Sb25  1  0.000000  0.853094  0.409280  1
