# generated using pymatgen
data_Er3AlIn2PdAu2
_symmetry_space_group_name_H-M   'P 1'
_cell_length_a   7.76438054
_cell_length_b   7.76437975
_cell_length_c   3.75523700
_cell_angle_alpha   90.00000000
_cell_angle_beta   90.00000000
_cell_angle_gamma   120.58893512
_symmetry_Int_Tables_number   1
_chemical_formula_structural   Er3AlIn2PdAu2
_chemical_formula_sum   'Er3 Al1 In2 Pd1 Au2'
_cell_volume   194.88280882
_cell_formula_units_Z   1
loop_
 _symmetry_equiv_pos_site_id
 _symmetry_equiv_pos_as_xyz
  1  'x, y, z'
loop_
 _atom_site_type_symbol
 _atom_site_label
 _atom_site_symmetry_multiplicity
 _atom_site_fract_x
 _atom_site_fract_y
 _atom_site_fract_z
 _atom_site_occupancy
  Er  Er0  1  0.400841  0.003245  0.500000  1
  Er  Er1  1  0.589455  0.589455  0.500000  1
  Er  Er2  1  0.003245  0.400841  0.500000  1
  Al  Al3  1  0.254409  0.254409  0.000000  1
  In  In4  1  0.742422  0.999203  0.000000  1
  In  In5  1  0.999203  0.742422  0.000000  1
  Pd  Pd6  1  0.025468  0.025468  0.500000  1
  Au  Au7  1  0.654799  0.330158  0.000000  1
  Au  Au8  1  0.330158  0.654799  0.000000  1
