# generated using pymatgen
data_La2Ho4Ir13Rh5
_symmetry_space_group_name_H-M   'P 1'
_cell_length_a   5.33107500
_cell_length_b   5.33675577
_cell_length_c   17.49657534
_cell_angle_alpha   90.01948037
_cell_angle_beta   90.00000000
_cell_angle_gamma   119.96478797
_symmetry_Int_Tables_number   1
_chemical_formula_structural   La2Ho4Ir13Rh5
_chemical_formula_sum   'La2 Ho4 Ir13 Rh5'
_cell_volume   431.25064414
_cell_formula_units_Z   1
loop_
 _symmetry_equiv_pos_site_id
 _symmetry_equiv_pos_as_xyz
  1  'x, y, z'
loop_
 _atom_site_type_symbol
 _atom_site_label
 _atom_site_symmetry_multiplicity
 _atom_site_fract_x
 _atom_site_fract_y
 _atom_site_fract_z
 _atom_site_occupancy
  La  La0  1  0.333409  0.666818  0.750045  1
  La  La1  1  0.666750  0.333498  0.249932  1
  Ho  Ho2  1  0.333279  0.666559  0.540161  1
  Ho  Ho3  1  0.666544  0.333086  0.039921  1
  Ho  Ho4  1  0.665922  0.331843  0.459991  1
  Ho  Ho5  1  0.333440  0.666881  0.959910  1
  Ir  Ir6  1  0.167591  0.335183  0.124620  1
  Ir  Ir7  1  0.832299  0.664597  0.623927  1
  Ir  Ir8  1  0.664422  0.832260  0.124187  1
  Ir  Ir9  1  0.167837  0.832260  0.124187  1
  Ir  Ir10  1  0.832582  0.168322  0.624130  1
  Ir  Ir11  1  0.335741  0.168322  0.624130  1
  Ir  Ir12  1  0.832206  0.664411  0.875852  1
  Ir  Ir13  1  0.831987  0.167568  0.875783  1
  Ir  Ir14  1  0.335582  0.167568  0.875783  1
  Ir  Ir15  1  0.665368  0.834574  0.375871  1
  Ir  Ir16  1  0.169205  0.834574  0.375871  1
  Ir  Ir17  1  0.000501  0.001001  0.999968  1
  Ir  Ir18  1  0.997774  0.995549  0.499771  1
  Rh  Rh19  1  0.168190  0.336382  0.375932  1
  Rh  Rh20  1  0.998854  0.997708  0.250000  1
  Rh  Rh21  1  0.000139  0.000277  0.749980  1
  Rh  Rh22  1  0.333755  0.667511  0.250120  1
  Rh  Rh23  1  0.666625  0.333248  0.749927  1
