# generated using pymatgen
data_Pu3Pa5S12
_symmetry_space_group_name_H-M   'P 1'
_cell_length_a   3.88607700
_cell_length_b   10.34908994
_cell_length_c   10.53139400
_cell_angle_alpha   90.07095338
_cell_angle_beta   90.00000000
_cell_angle_gamma   90.00000000
_symmetry_Int_Tables_number   1
_chemical_formula_structural   Pu3Pa5S12
_chemical_formula_sum   'Pu3 Pa5 S12'
_cell_volume   423.54454292
_cell_formula_units_Z   1
loop_
 _symmetry_equiv_pos_site_id
 _symmetry_equiv_pos_as_xyz
  1  'x, y, z'
loop_
 _atom_site_type_symbol
 _atom_site_label
 _atom_site_symmetry_multiplicity
 _atom_site_fract_x
 _atom_site_fract_y
 _atom_site_fract_z
 _atom_site_occupancy
  Pu  Pu0  1  0.750000  0.493726  0.689268  1
  Pu  Pu1  1  0.750000  0.008667  0.188507  1
  Pu  Pu2  1  0.250000  0.993140  0.812093  1
  Pa  Pa3  1  0.250000  0.316455  0.991015  1
  Pa  Pa4  1  0.750000  0.684745  0.009087  1
  Pa  Pa5  1  0.750000  0.816276  0.510867  1
  Pa  Pa6  1  0.250000  0.188052  0.490920  1
  Pa  Pa7  1  0.250000  0.502498  0.309089  1
  S  S8  1  0.250000  0.867042  0.052910  1
  S  S9  1  0.750000  0.132637  0.949039  1
  S  S10  1  0.750000  0.369590  0.446274  1
  S  S11  1  0.250000  0.629238  0.547146  1
  S  S12  1  0.250000  0.556520  0.875517  1
  S  S13  1  0.750000  0.443544  0.125219  1
  S  S14  1  0.750000  0.056771  0.622939  1
  S  S15  1  0.250000  0.944854  0.376674  1
  S  S16  1  0.250000  0.209631  0.230146  1
  S  S17  1  0.750000  0.792560  0.770810  1
  S  S18  1  0.750000  0.700296  0.274134  1
  S  S19  1  0.250000  0.293761  0.728346  1
