# generated using pymatgen
data_Er2TmLu7Bi6
_symmetry_space_group_name_H-M   'P 1'
_cell_length_a   8.15617600
_cell_length_b   9.41223600
_cell_length_c   11.82296900
_cell_angle_alpha   90.00000000
_cell_angle_beta   90.00000000
_cell_angle_gamma   90.00000000
_symmetry_Int_Tables_number   1
_chemical_formula_structural   Er2TmLu7Bi6
_chemical_formula_sum   'Er4 Tm2 Lu14 Bi12'
_cell_volume   907.62395058
_cell_formula_units_Z   2
loop_
 _symmetry_equiv_pos_site_id
 _symmetry_equiv_pos_as_xyz
  1  'x, y, z'
loop_
 _atom_site_type_symbol
 _atom_site_label
 _atom_site_symmetry_multiplicity
 _atom_site_fract_x
 _atom_site_fract_y
 _atom_site_fract_z
 _atom_site_occupancy
  Er  Er0  1  0.312956  0.250000  0.217113  1
  Er  Er1  1  0.812956  0.250000  0.282887  1
  Er  Er2  1  0.687009  0.750000  0.782899  1
  Er  Er3  1  0.187009  0.750000  0.717101  1
  Tm  Tm4  1  0.352424  0.750000  0.217757  1
  Tm  Tm5  1  0.852424  0.750000  0.282243  1
  Lu  Lu6  1  0.647459  0.250000  0.782179  1
  Lu  Lu7  1  0.147459  0.250000  0.717821  1
  Lu  Lu8  1  0.692018  0.567141  0.059094  1
  Lu  Lu9  1  0.192018  0.932859  0.440906  1
  Lu  Lu10  1  0.308027  0.067060  0.940816  1
  Lu  Lu11  1  0.808027  0.432940  0.559184  1
  Lu  Lu12  1  0.308027  0.432940  0.940816  1
  Lu  Lu13  1  0.808027  0.067060  0.559184  1
  Lu  Lu14  1  0.692018  0.932859  0.059094  1
  Lu  Lu15  1  0.192018  0.567141  0.440906  1
  Lu  Lu16  1  0.477837  0.250000  0.489329  1
  Lu  Lu17  1  0.977837  0.250000  0.010671  1
  Lu  Lu18  1  0.522136  0.750000  0.510783  1
  Lu  Lu19  1  0.022136  0.750000  0.989217  1
  Bi  Bi20  1  0.402708  0.750000  0.957643  1
  Bi  Bi21  1  0.902708  0.750000  0.542357  1
  Bi  Bi22  1  0.597487  0.250000  0.042135  1
  Bi  Bi23  1  0.097487  0.250000  0.457865  1
  Bi  Bi24  1  0.565369  0.995482  0.325388  1
  Bi  Bi25  1  0.065369  0.504518  0.174612  1
  Bi  Bi26  1  0.434577  0.495416  0.674685  1
  Bi  Bi27  1  0.934577  0.004584  0.825315  1
  Bi  Bi28  1  0.434577  0.004584  0.674685  1
  Bi  Bi29  1  0.934577  0.495416  0.825315  1
  Bi  Bi30  1  0.565369  0.504518  0.325388  1
  Bi  Bi31  1  0.065369  0.995482  0.174612  1
