# generated using pymatgen
data_Yb4Ho2Si24OsRu7
_symmetry_space_group_name_H-M   'P 1'
_cell_length_a   10.15711958
_cell_length_b   10.15712035
_cell_length_c   8.13189906
_cell_angle_alpha   90.01857497
_cell_angle_beta   90.01856808
_cell_angle_gamma   132.81442614
_symmetry_Int_Tables_number   1
_chemical_formula_structural   Yb4Ho2Si24OsRu7
_chemical_formula_sum   'Yb4 Ho2 Si24 Os1 Ru7'
_cell_volume   615.41476776
_cell_formula_units_Z   1
loop_
 _symmetry_equiv_pos_site_id
 _symmetry_equiv_pos_as_xyz
  1  'x, y, z'
loop_
 _atom_site_type_symbol
 _atom_site_label
 _atom_site_symmetry_multiplicity
 _atom_site_fract_x
 _atom_site_fract_y
 _atom_site_fract_z
 _atom_site_occupancy
  Yb  Yb0  1  0.499977  0.500023  0.500000  1
  Yb  Yb1  1  0.999999  0.000001  0.000000  1
  Yb  Yb2  1  0.500982  0.000810  0.749922  1
  Yb  Yb3  1  0.999190  0.499018  0.250078  1
  Ho  Ho4  1  0.499556  0.999685  0.250004  1
  Ho  Ho5  1  0.000315  0.500444  0.749996  1
  Si  Si6  1  0.795774  0.204226  0.500000  1
  Si  Si7  1  0.294975  0.705025  0.000000  1
  Si  Si8  1  0.205078  0.794922  0.500000  1
  Si  Si9  1  0.704752  0.295248  0.000000  1
  Si  Si10  1  0.332194  0.335328  0.832250  1
  Si  Si11  1  0.664672  0.667806  0.167750  1
  Si  Si12  1  0.167907  0.164367  0.331956  1
  Si  Si13  1  0.835633  0.832093  0.668044  1
  Si  Si14  1  0.122755  0.889970  0.730390  1
  Si  Si15  1  0.110030  0.877245  0.269610  1
  Si  Si16  1  0.608435  0.375694  0.229253  1
  Si  Si17  1  0.624306  0.391565  0.770747  1
  Si  Si18  1  0.875219  0.108013  0.269196  1
  Si  Si19  1  0.891987  0.124781  0.730804  1
  Si  Si20  1  0.390618  0.623573  0.769882  1
  Si  Si21  1  0.376427  0.609382  0.230118  1
  Si  Si22  1  0.345830  0.112829  0.506355  1
  Si  Si23  1  0.887171  0.654170  0.493645  1
  Si  Si24  1  0.386301  0.152912  0.008394  1
  Si  Si25  1  0.847088  0.613699  0.991606  1
  Si  Si26  1  0.652659  0.885822  0.490681  1
  Si  Si27  1  0.114178  0.347341  0.509319  1
  Si  Si28  1  0.613181  0.846788  0.993686  1
  Si  Si29  1  0.153212  0.386819  0.006314  1
  Os  Os30  1  0.671039  0.328961  0.500000  1
  Ru  Ru31  1  0.170598  0.829402  0.000000  1
  Ru  Ru32  1  0.329509  0.670491  0.500000  1
  Ru  Ru33  1  0.828837  0.171163  0.000000  1
  Ru  Ru34  1  0.126352  0.127024  0.625175  1
  Ru  Ru35  1  0.872976  0.873648  0.374825  1
  Ru  Ru36  1  0.373322  0.373037  0.124894  1
  Ru  Ru37  1  0.626963  0.626678  0.875106  1
