# generated using pymatgen
data_Ba2Fe2RhN3
_symmetry_space_group_name_H-M   'P 1'
_cell_length_a   6.80439285
_cell_length_b   6.80439218
_cell_length_c   6.76089431
_cell_angle_alpha   88.88325444
_cell_angle_beta   88.88325048
_cell_angle_gamma   117.08768262
_symmetry_Int_Tables_number   1
_chemical_formula_structural   Ba2Fe2RhN3
_chemical_formula_sum   'Ba4 Fe4 Rh2 N6'
_cell_volume   278.49754254
_cell_formula_units_Z   2
loop_
 _symmetry_equiv_pos_site_id
 _symmetry_equiv_pos_as_xyz
  1  'x, y, z'
loop_
 _atom_site_type_symbol
 _atom_site_label
 _atom_site_symmetry_multiplicity
 _atom_site_fract_x
 _atom_site_fract_y
 _atom_site_fract_z
 _atom_site_occupancy
  Ba  Ba0  1  0.839178  0.673094  0.900643  1
  Ba  Ba1  1  0.326906  0.160822  0.599357  1
  Ba  Ba2  1  0.160822  0.326906  0.099357  1
  Ba  Ba3  1  0.673094  0.839178  0.400643  1
  Fe  Fe4  1  0.556563  0.154861  0.103252  1
  Fe  Fe5  1  0.443437  0.845139  0.896748  1
  Fe  Fe6  1  0.845139  0.443437  0.396748  1
  Fe  Fe7  1  0.154861  0.556563  0.603252  1
  Rh  Rh8  1  0.804648  0.195352  0.750000  1
  Rh  Rh9  1  0.195352  0.804648  0.250000  1
  N  N10  1  0.382735  0.617265  0.750000  1
  N  N11  1  0.617265  0.382735  0.250000  1
  N  N12  1  0.013202  0.712074  0.504650  1
  N  N13  1  0.712074  0.013202  0.004650  1
  N  N14  1  0.986798  0.287926  0.495350  1
  N  N15  1  0.287926  0.986798  0.995350  1
