# generated using pymatgen
data_CsNdSe4
_symmetry_space_group_name_H-M   'P 1'
_cell_length_a   6.43315900
_cell_length_b   6.43315900
_cell_length_c   9.24500400
_cell_angle_alpha   90.00000000
_cell_angle_beta   90.00000000
_cell_angle_gamma   90.00000000
_symmetry_Int_Tables_number   1
_chemical_formula_structural   CsNdSe4
_chemical_formula_sum   'Cs2 Nd2 Se8'
_cell_volume   382.60943402
_cell_formula_units_Z   2
loop_
 _symmetry_equiv_pos_site_id
 _symmetry_equiv_pos_as_xyz
  1  'x, y, z'
loop_
 _atom_site_type_symbol
 _atom_site_label
 _atom_site_symmetry_multiplicity
 _atom_site_fract_x
 _atom_site_fract_y
 _atom_site_fract_z
 _atom_site_occupancy
  Cs  Cs0  1  0.000000  0.000000  0.000000  1
  Cs  Cs1  1  0.500000  0.500000  0.000000  1
  Nd  Nd2  1  0.000000  0.000000  0.500000  1
  Nd  Nd3  1  0.500000  0.500000  0.500000  1
  Se  Se4  1  0.633770  0.133768  0.307101  1
  Se  Se5  1  0.133768  0.366231  0.307101  1
  Se  Se6  1  0.866231  0.633770  0.307101  1
  Se  Se7  1  0.366231  0.866231  0.307101  1
  Se  Se8  1  0.366231  0.133768  0.692899  1
  Se  Se9  1  0.866231  0.366231  0.692899  1
  Se  Se10  1  0.133768  0.633770  0.692899  1
  Se  Se11  1  0.633770  0.866231  0.692899  1
