# generated using pymatgen
data_Ce4MnSi2Ru
_symmetry_space_group_name_H-M   'P 1'
_cell_length_a   7.56886700
_cell_length_b   7.56886666
_cell_length_c   9.64566700
_cell_angle_alpha   90.00000000
_cell_angle_beta   90.00000000
_cell_angle_gamma   119.99999710
_symmetry_Int_Tables_number   1
_chemical_formula_structural   Ce4MnSi2Ru
_chemical_formula_sum   'Ce12 Mn3 Si6 Ru3'
_cell_volume   478.54704346
_cell_formula_units_Z   3
loop_
 _symmetry_equiv_pos_site_id
 _symmetry_equiv_pos_as_xyz
  1  'x, y, z'
loop_
 _atom_site_type_symbol
 _atom_site_label
 _atom_site_symmetry_multiplicity
 _atom_site_fract_x
 _atom_site_fract_y
 _atom_site_fract_z
 _atom_site_occupancy
  Ce  Ce0  1  0.000000  0.568126  0.492129  1
  Ce  Ce1  1  0.568126  0.000000  0.492129  1
  Ce  Ce2  1  0.431874  0.431874  0.492129  1
  Ce  Ce3  1  0.000000  0.410596  0.009536  1
  Ce  Ce4  1  0.410596  0.000000  0.009536  1
  Ce  Ce5  1  0.589404  0.589404  0.009536  1
  Ce  Ce6  1  0.000000  0.746125  0.180057  1
  Ce  Ce7  1  0.746125  0.000000  0.180057  1
  Ce  Ce8  1  0.253875  0.253875  0.180057  1
  Ce  Ce9  1  0.000000  0.259533  0.671098  1
  Ce  Ce10  1  0.259533  0.000000  0.671098  1
  Ce  Ce11  1  0.740467  0.740467  0.671098  1
  Mn  Mn12  1  0.000000  0.352084  0.341277  1
  Mn  Mn13  1  0.352084  0.000000  0.341277  1
  Mn  Mn14  1  0.647916  0.647916  0.341277  1
  Si  Si15  1  0.666667  0.333333  0.268092  1
  Si  Si16  1  0.333333  0.666667  0.268092  1
  Si  Si17  1  0.333333  0.666667  0.771779  1
  Si  Si18  1  0.666667  0.333333  0.771779  1
  Si  Si19  1  0.000000  0.000000  0.421843  1
  Si  Si20  1  0.000000  0.000000  0.921076  1
  Ru  Ru21  1  0.000000  0.658621  0.841432  1
  Ru  Ru22  1  0.658621  0.000000  0.841432  1
  Ru  Ru23  1  0.341379  0.341379  0.841432  1
