# generated using pymatgen
data_Y2ThRu2
_symmetry_space_group_name_H-M   'P 1'
_cell_length_a   5.91103224
_cell_length_b   5.91103293
_cell_length_c   5.91103302
_cell_angle_alpha   137.37866435
_cell_angle_beta   118.71269274
_cell_angle_gamma   77.51037759
_symmetry_Int_Tables_number   1
_chemical_formula_structural   Y2ThRu2
_chemical_formula_sum   'Y2 Th1 Ru2'
_cell_volume   119.33706765
_cell_formula_units_Z   1
loop_
 _symmetry_equiv_pos_site_id
 _symmetry_equiv_pos_as_xyz
  1  'x, y, z'
loop_
 _atom_site_type_symbol
 _atom_site_label
 _atom_site_symmetry_multiplicity
 _atom_site_fract_x
 _atom_site_fract_y
 _atom_site_fract_z
 _atom_site_occupancy
  Y  Y0  1  0.693232  0.193232  0.500000  1
  Y  Y1  1  0.306767  0.806766  0.499999  1
  Th  Th2  1  0.000000  0.000000  0.000000  1
  Ru  Ru3  1  0.730363  0.500000  0.230364  1
  Ru  Ru4  1  0.269636  0.499999  0.769635  1
