# generated using pymatgen
data_La3LuSb10
_symmetry_space_group_name_H-M   'P 1'
_cell_length_a   4.32420100
_cell_length_b   13.61801237
_cell_length_c   15.16528734
_cell_angle_alpha   78.55616739
_cell_angle_beta   90.00000000
_cell_angle_gamma   90.00000000
_symmetry_Int_Tables_number   1
_chemical_formula_structural   La3LuSb10
_chemical_formula_sum   'La6 Lu2 Sb20'
_cell_volume   875.28472205
_cell_formula_units_Z   2
loop_
 _symmetry_equiv_pos_site_id
 _symmetry_equiv_pos_as_xyz
  1  'x, y, z'
loop_
 _atom_site_type_symbol
 _atom_site_label
 _atom_site_symmetry_multiplicity
 _atom_site_fract_x
 _atom_site_fract_y
 _atom_site_fract_z
 _atom_site_occupancy
  La  La0  1  0.750000  0.333379  0.141024  1
  La  La1  1  0.250000  0.946548  0.363958  1
  La  La2  1  0.250000  0.666621  0.858976  1
  La  La3  1  0.250000  0.666051  0.577664  1
  La  La4  1  0.750000  0.053452  0.636042  1
  La  La5  1  0.750000  0.333949  0.422336  1
  Lu  Lu6  1  0.250000  0.399771  0.771618  1
  Lu  Lu7  1  0.750000  0.600229  0.228382  1
  Sb  Sb8  1  0.750000  0.857147  0.818029  1
  Sb  Sb9  1  0.250000  0.863475  0.675693  1
  Sb  Sb10  1  0.250000  0.146102  0.475582  1
  Sb  Sb11  1  0.750000  0.288707  0.928303  1
  Sb  Sb12  1  0.250000  0.152822  0.781305  1
  Sb  Sb13  1  0.750000  0.575708  0.438051  1
  Sb  Sb14  1  0.750000  0.136525  0.324307  1
  Sb  Sb15  1  0.250000  0.702529  0.350270  1
  Sb  Sb16  1  0.750000  0.297471  0.649730  1
  Sb  Sb17  1  0.750000  0.847178  0.218695  1
  Sb  Sb18  1  0.250000  0.420101  0.969445  1
  Sb  Sb19  1  0.250000  0.424292  0.561949  1
  Sb  Sb20  1  0.750000  0.568455  0.739663  1
  Sb  Sb21  1  0.250000  0.431545  0.260337  1
  Sb  Sb22  1  0.750000  0.853898  0.524418  1
  Sb  Sb23  1  0.750000  0.039081  0.887559  1
  Sb  Sb24  1  0.250000  0.711293  0.071697  1
  Sb  Sb25  1  0.250000  0.960919  0.112441  1
  Sb  Sb26  1  0.250000  0.142853  0.181971  1
  Sb  Sb27  1  0.750000  0.579899  0.030555  1
