# generated using pymatgen
data_Ta3Cu(PO4)6
_symmetry_space_group_name_H-M   'P 1'
_cell_length_a   8.69406225
_cell_length_b   8.69406206
_cell_length_c   8.98365678
_cell_angle_alpha   61.06073164
_cell_angle_beta   61.06073154
_cell_angle_gamma   59.99998999
_symmetry_Int_Tables_number   1
_chemical_formula_structural   Ta3Cu(PO4)6
_chemical_formula_sum   'Ta3 Cu1 P6 O24'
_cell_volume   487.71224324
_cell_formula_units_Z   1
loop_
 _symmetry_equiv_pos_site_id
 _symmetry_equiv_pos_as_xyz
  1  'x, y, z'
loop_
 _atom_site_type_symbol
 _atom_site_label
 _atom_site_symmetry_multiplicity
 _atom_site_fract_x
 _atom_site_fract_y
 _atom_site_fract_z
 _atom_site_occupancy
  Ta  Ta0  1  0.141850  0.141850  0.574450  1
  Ta  Ta1  1  0.356988  0.356988  0.929036  1
  Ta  Ta2  1  0.639890  0.639890  0.080330  1
  Cu  Cu3  1  0.854734  0.854734  0.435797  1
  P  P4  1  0.748443  0.030777  0.744360  1
  P  P5  1  0.030777  0.476420  0.744360  1
  P  P6  1  0.476420  0.748443  0.744360  1
  P  P7  1  0.541128  0.238870  0.254085  1
  P  P8  1  0.965917  0.541128  0.254085  1
  P  P9  1  0.238870  0.965917  0.254085  1
  O  O10  1  0.286511  0.131124  0.085030  1
  O  O11  1  0.497335  0.286511  0.085030  1
  O  O12  1  0.928205  0.052527  0.718391  1
  O  O13  1  0.131124  0.497335  0.085030  1
  O  O14  1  0.583363  0.210805  0.781863  1
  O  O15  1  0.749470  0.020667  0.580578  1
  O  O16  1  0.052527  0.300877  0.718391  1
  O  O17  1  0.210805  0.423969  0.781863  1
  O  O18  1  0.423969  0.583363  0.781863  1
  O  O19  1  0.360839  0.227204  0.417784  1
  O  O20  1  0.710131  0.062867  0.267417  1
  O  O21  1  0.994173  0.360839  0.417784  1
  O  O22  1  0.020667  0.649285  0.580578  1
  O  O23  1  0.300877  0.928205  0.718391  1
  O  O24  1  0.649285  0.749470  0.580578  1
  O  O25  1  0.571084  0.414881  0.227199  1
  O  O26  1  0.786836  0.571084  0.227199  1
  O  O27  1  0.959585  0.710131  0.267417  1
  O  O28  1  0.227204  0.994173  0.417784  1
  O  O29  1  0.414881  0.786836  0.227199  1
  O  O30  1  0.862434  0.499999  0.916756  1
  O  O31  1  0.062867  0.959585  0.267417  1
  O  O32  1  0.499999  0.720811  0.916756  1
  O  O33  1  0.720811  0.862434  0.916756  1
