# generated using pymatgen
data_Lu2Cr2Co10P7
_symmetry_space_group_name_H-M   'P 1'
_cell_length_a   8.94761913
_cell_length_b   8.96578896
_cell_length_c   3.59652100
_cell_angle_alpha   90.00000000
_cell_angle_beta   90.00000000
_cell_angle_gamma   119.91340982
_symmetry_Int_Tables_number   1
_chemical_formula_structural   Lu2Cr2Co10P7
_chemical_formula_sum   'Lu2 Cr2 Co10 P7'
_cell_volume   250.08492432
_cell_formula_units_Z   1
loop_
 _symmetry_equiv_pos_site_id
 _symmetry_equiv_pos_as_xyz
  1  'x, y, z'
loop_
 _atom_site_type_symbol
 _atom_site_label
 _atom_site_symmetry_multiplicity
 _atom_site_fract_x
 _atom_site_fract_y
 _atom_site_fract_z
 _atom_site_occupancy
  Lu  Lu0  1  0.665981  0.333062  0.500000  1
  Lu  Lu1  1  0.337165  0.668685  0.000000  1
  Cr  Cr2  1  0.216049  0.097688  0.500000  1
  Cr  Cr3  1  0.905015  0.123484  0.500000  1
  Co  Co4  1  0.725122  0.880928  0.000000  1
  Co  Co5  1  0.938793  0.371015  0.000000  1
  Co  Co6  1  0.158276  0.280094  0.000000  1
  Co  Co7  1  0.383569  0.436309  0.500000  1
  Co  Co8  1  0.119915  0.840534  0.000000  1
  Co  Co9  1  0.432834  0.061058  0.000000  1
  Co  Co10  1  0.049357  0.614412  0.500000  1
  Co  Co11  1  0.564463  0.948664  0.500000  1
  Co  Co12  1  0.627318  0.564820  0.000000  1
  Co  Co13  1  0.872530  0.775451  0.500000  1
  P  P14  1  0.409769  0.294977  0.000000  1
  P  P15  1  0.288908  0.886013  0.500000  1
  P  P16  1  0.702975  0.113945  0.000000  1
  P  P17  1  0.595601  0.709621  0.500000  1
  P  P18  1  0.885046  0.588793  0.000000  1
  P  P19  1  0.118537  0.411032  0.500000  1
  P  P20  1  0.002778  0.999413  0.000000  1
