# generated using pymatgen
data_YPa(Al4Fe)2
_symmetry_space_group_name_H-M   'P 1'
_cell_length_a   7.53967400
_cell_length_b   4.07440100
_cell_length_c   6.64180500
_cell_angle_alpha   90.00000000
_cell_angle_beta   90.00000000
_cell_angle_gamma   90.00000000
_symmetry_Int_Tables_number   1
_chemical_formula_structural   YPa(Al4Fe)2
_chemical_formula_sum   'Y1 Pa1 Al8 Fe2'
_cell_volume   204.03396007
_cell_formula_units_Z   1
loop_
 _symmetry_equiv_pos_site_id
 _symmetry_equiv_pos_as_xyz
  1  'x, y, z'
loop_
 _atom_site_type_symbol
 _atom_site_label
 _atom_site_symmetry_multiplicity
 _atom_site_fract_x
 _atom_site_fract_y
 _atom_site_fract_z
 _atom_site_occupancy
  Y  Y0  1  0.750000  0.000000  0.620658  1
  Pa  Pa1  1  0.250000  0.000000  0.396183  1
  Al  Al2  1  0.005874  0.000000  0.001532  1
  Al  Al3  1  0.494126  0.000000  0.001532  1
  Al  Al4  1  0.250000  0.499999  0.046525  1
  Al  Al5  1  0.567246  0.499999  0.305642  1
  Al  Al6  1  0.932754  0.499999  0.305642  1
  Al  Al7  1  0.065391  0.499999  0.696459  1
  Al  Al8  1  0.434608  0.499999  0.696459  1
  Al  Al9  1  0.750000  0.499999  0.958187  1
  Fe  Fe10  1  0.750000  0.000000  0.195152  1
  Fe  Fe11  1  0.250000  0.000000  0.776034  1
