# generated using pymatgen
data_Mg2Zn6SnPt3O16
_symmetry_space_group_name_H-M   'P 1'
_cell_length_a   6.15768100
_cell_length_b   6.14078380
_cell_length_c   8.65316610
_cell_angle_alpha   89.81529737
_cell_angle_beta   90.00000000
_cell_angle_gamma   90.00000000
_symmetry_Int_Tables_number   1
_chemical_formula_structural   Mg2Zn6SnPt3O16
_chemical_formula_sum   'Mg2 Zn6 Sn1 Pt3 O16'
_cell_volume   327.20036337
_cell_formula_units_Z   1
loop_
 _symmetry_equiv_pos_site_id
 _symmetry_equiv_pos_as_xyz
  1  'x, y, z'
loop_
 _atom_site_type_symbol
 _atom_site_label
 _atom_site_symmetry_multiplicity
 _atom_site_fract_x
 _atom_site_fract_y
 _atom_site_fract_z
 _atom_site_occupancy
  Mg  Mg0  1  0.240342  0.000000  0.250000  1
  Mg  Mg1  1  0.758611  0.000000  0.750000  1
  Zn  Zn2  1  0.998926  0.226714  0.001859  1
  Zn  Zn3  1  0.998926  0.773286  0.498141  1
  Zn  Zn4  1  0.256897  0.243675  0.626150  1
  Zn  Zn5  1  0.256897  0.756325  0.873850  1
  Zn  Zn6  1  0.748156  0.251309  0.371271  1
  Zn  Zn7  1  0.748156  0.748691  0.128729  1
  Sn  Sn8  1  0.768473  0.500000  0.750000  1
  Pt  Pt9  1  0.243411  0.500000  0.250000  1
  Pt  Pt10  1  0.497997  0.754248  0.499029  1
  Pt  Pt11  1  0.497997  0.245752  0.000971  1
  O  O12  1  0.523525  0.748337  0.735644  1
  O  O13  1  0.523525  0.251663  0.764356  1
  O  O14  1  0.737476  0.984130  0.507027  1
  O  O15  1  0.737476  0.015870  0.992973  1
  O  O16  1  0.738362  0.520378  0.508706  1
  O  O17  1  0.738362  0.479622  0.991294  1
  O  O18  1  0.986957  0.751445  0.748318  1
  O  O19  1  0.986957  0.248555  0.751682  1
  O  O20  1  0.018878  0.744672  0.254968  1
  O  O21  1  0.018878  0.255328  0.245032  1
  O  O22  1  0.253245  0.523199  0.486843  1
  O  O23  1  0.253245  0.476801  0.013157  1
  O  O24  1  0.260949  0.984732  0.489486  1
  O  O25  1  0.260949  0.015268  0.010514  1
  O  O26  1  0.473213  0.747123  0.262664  1
  O  O27  1  0.473213  0.252877  0.237336  1
