# generated using pymatgen
data_La3Ga24Pd8Rh
_symmetry_space_group_name_H-M   'P 1'
_cell_length_a   8.55379105
_cell_length_b   8.55379213
_cell_length_c   8.55379096
_cell_angle_alpha   89.90704650
_cell_angle_beta   89.90704807
_cell_angle_gamma   89.90705368
_symmetry_Int_Tables_number   1
_chemical_formula_structural   La3Ga24Pd8Rh
_chemical_formula_sum   'La3 Ga24 Pd8 Rh1'
_cell_volume   625.85575357
_cell_formula_units_Z   1
loop_
 _symmetry_equiv_pos_site_id
 _symmetry_equiv_pos_as_xyz
  1  'x, y, z'
loop_
 _atom_site_type_symbol
 _atom_site_label
 _atom_site_symmetry_multiplicity
 _atom_site_fract_x
 _atom_site_fract_y
 _atom_site_fract_z
 _atom_site_occupancy
  La  La0  1  0.000000  0.500000  0.000000  1
  La  La1  1  0.500000  0.000000  0.000000  1
  La  La2  1  0.000000  0.000000  0.500000  1
  Ga  Ga3  1  0.988024  0.643275  0.643275  1
  Ga  Ga4  1  0.643275  0.643275  0.988024  1
  Ga  Ga5  1  0.643275  0.988024  0.643275  1
  Ga  Ga6  1  0.011976  0.356725  0.356725  1
  Ga  Ga7  1  0.356725  0.356725  0.011976  1
  Ga  Ga8  1  0.356725  0.011976  0.356725  1
  Ga  Ga9  1  0.736053  0.500000  0.263947  1
  Ga  Ga10  1  0.263947  0.500000  0.736053  1
  Ga  Ga11  1  0.500000  0.263947  0.736053  1
  Ga  Ga12  1  0.500000  0.736053  0.263947  1
  Ga  Ga13  1  0.263947  0.736053  0.500000  1
  Ga  Ga14  1  0.736053  0.263947  0.500000  1
  Ga  Ga15  1  0.838532  0.143687  0.838532  1
  Ga  Ga16  1  0.143687  0.838532  0.838532  1
  Ga  Ga17  1  0.838532  0.838532  0.143687  1
  Ga  Ga18  1  0.161468  0.856313  0.161468  1
  Ga  Ga19  1  0.856313  0.161468  0.161468  1
  Ga  Ga20  1  0.161468  0.161468  0.856313  1
  Ga  Ga21  1  0.728753  0.486558  0.728753  1
  Ga  Ga22  1  0.486558  0.728753  0.728753  1
  Ga  Ga23  1  0.728753  0.728753  0.486558  1
  Ga  Ga24  1  0.271247  0.513442  0.271247  1
  Ga  Ga25  1  0.513442  0.271247  0.271247  1
  Ga  Ga26  1  0.271247  0.271247  0.513442  1
  Pd  Pd27  1  0.837406  0.837406  0.837406  1
  Pd  Pd28  1  0.162594  0.162594  0.162594  1
  Pd  Pd29  1  0.663124  0.336876  0.000000  1
  Pd  Pd30  1  0.000000  0.336876  0.663124  1
  Pd  Pd31  1  0.336876  0.000000  0.663124  1
  Pd  Pd32  1  0.336876  0.663124  0.000000  1
  Pd  Pd33  1  0.000000  0.663124  0.336876  1
  Pd  Pd34  1  0.663124  0.000000  0.336876  1
  Rh  Rh35  1  0.500000  0.500000  0.500000  1
