# generated using pymatgen
data_Bi3Pt4Pb
_symmetry_space_group_name_H-M   'P 1'
_cell_length_a   4.39885400
_cell_length_b   4.39885510
_cell_length_c   11.19178600
_cell_angle_alpha   90.00000000
_cell_angle_beta   90.00000000
_cell_angle_gamma   120.00000680
_symmetry_Int_Tables_number   1
_chemical_formula_structural   Bi3Pt4Pb
_chemical_formula_sum   'Bi3 Pt4 Pb1'
_cell_volume   187.54660336
_cell_formula_units_Z   1
loop_
 _symmetry_equiv_pos_site_id
 _symmetry_equiv_pos_as_xyz
  1  'x, y, z'
loop_
 _atom_site_type_symbol
 _atom_site_label
 _atom_site_symmetry_multiplicity
 _atom_site_fract_x
 _atom_site_fract_y
 _atom_site_fract_z
 _atom_site_occupancy
  Bi  Bi0  1  0.000000  0.000000  0.500000  1
  Bi  Bi1  1  0.666667  0.333333  0.250682  1
  Bi  Bi2  1  0.666667  0.333333  0.749318  1
  Pt  Pt3  1  0.333333  0.666667  0.123869  1
  Pt  Pt4  1  0.333333  0.666667  0.625479  1
  Pt  Pt5  1  0.333333  0.666667  0.374521  1
  Pt  Pt6  1  0.333333  0.666667  0.876131  1
  Pb  Pb7  1  0.000000  0.000000  0.000000  1
