# generated using pymatgen
data_Nb20AlSiOs8
_symmetry_space_group_name_H-M   'P 1'
_cell_length_a   9.90937988
_cell_length_b   9.90937988
_cell_length_c   5.17039500
_cell_angle_alpha   90.00000000
_cell_angle_beta   90.00000000
_cell_angle_gamma   89.95166269
_symmetry_Int_Tables_number   1
_chemical_formula_structural   Nb20AlSiOs8
_chemical_formula_sum   'Nb20 Al1 Si1 Os8'
_cell_volume   507.71094250
_cell_formula_units_Z   1
loop_
 _symmetry_equiv_pos_site_id
 _symmetry_equiv_pos_as_xyz
  1  'x, y, z'
loop_
 _atom_site_type_symbol
 _atom_site_label
 _atom_site_symmetry_multiplicity
 _atom_site_fract_x
 _atom_site_fract_y
 _atom_site_fract_z
 _atom_site_occupancy
  Nb  Nb0  1  0.394766  0.394766  0.000000  1
  Nb  Nb1  1  0.896846  0.103154  0.500000  1
  Nb  Nb2  1  0.103154  0.896846  0.500000  1
  Nb  Nb3  1  0.605234  0.605234  0.000000  1
  Nb  Nb4  1  0.127443  0.465875  0.000000  1
  Nb  Nb5  1  0.965634  0.371568  0.500000  1
  Nb  Nb6  1  0.034366  0.628432  0.500000  1
  Nb  Nb7  1  0.872557  0.534125  0.000000  1
  Nb  Nb8  1  0.371568  0.965634  0.500000  1
  Nb  Nb9  1  0.628432  0.034366  0.500000  1
  Nb  Nb10  1  0.465875  0.127443  0.000000  1
  Nb  Nb11  1  0.534125  0.872557  0.000000  1
  Nb  Nb12  1  0.181381  0.181381  0.250411  1
  Nb  Nb13  1  0.683175  0.316825  0.750808  1
  Nb  Nb14  1  0.316825  0.683175  0.750808  1
  Nb  Nb15  1  0.818619  0.818619  0.250411  1
  Nb  Nb16  1  0.316825  0.683175  0.249192  1
  Nb  Nb17  1  0.683175  0.316825  0.249192  1
  Nb  Nb18  1  0.181381  0.181381  0.749589  1
  Nb  Nb19  1  0.818619  0.818619  0.749589  1
  Al  Al20  1  0.500000  0.500000  0.500000  1
  Si  Si21  1  0.000000  0.000000  0.000000  1
  Os  Os22  1  0.253549  0.937408  0.000000  1
  Os  Os23  1  0.435507  0.243708  0.500000  1
  Os  Os24  1  0.564493  0.756292  0.500000  1
  Os  Os25  1  0.746451  0.062592  0.000000  1
  Os  Os26  1  0.243708  0.435507  0.500000  1
  Os  Os27  1  0.756292  0.564493  0.500000  1
  Os  Os28  1  0.937408  0.253549  0.000000  1
  Os  Os29  1  0.062592  0.746451  0.000000  1
