# generated using pymatgen
data_Zr10Ga3Bi5
_symmetry_space_group_name_H-M   'P 1'
_cell_length_a   8.81145005
_cell_length_b   8.76961393
_cell_length_c   5.93807800
_cell_angle_alpha   90.00000000
_cell_angle_beta   90.00000000
_cell_angle_gamma   119.84305654
_symmetry_Int_Tables_number   1
_chemical_formula_structural   Zr10Ga3Bi5
_chemical_formula_sum   'Zr10 Ga3 Bi5'
_cell_volume   398.00546927
_cell_formula_units_Z   1
loop_
 _symmetry_equiv_pos_site_id
 _symmetry_equiv_pos_as_xyz
  1  'x, y, z'
loop_
 _atom_site_type_symbol
 _atom_site_label
 _atom_site_symmetry_multiplicity
 _atom_site_fract_x
 _atom_site_fract_y
 _atom_site_fract_z
 _atom_site_occupancy
  Zr  Zr0  1  0.674469  0.335002  0.004511  1
  Zr  Zr1  1  0.325531  0.660534  0.004511  1
  Zr  Zr2  1  0.325531  0.660534  0.495489  1
  Zr  Zr3  1  0.674469  0.335002  0.495489  1
  Zr  Zr4  1  0.738290  0.737292  0.750000  1
  Zr  Zr5  1  0.261710  0.999002  0.750000  1
  Zr  Zr6  1  0.000000  0.262707  0.750000  1
  Zr  Zr7  1  0.256093  0.271829  0.250000  1
  Zr  Zr8  1  0.743907  0.015736  0.250000  1
  Zr  Zr9  1  0.000000  0.724828  0.250000  1
  Ga  Ga10  1  0.000000  0.998386  0.004963  1
  Ga  Ga11  1  0.000000  0.998386  0.495037  1
  Ga  Ga12  1  0.000000  0.389309  0.250000  1
  Bi  Bi13  1  0.391081  0.389207  0.750000  1
  Bi  Bi14  1  0.608919  0.998126  0.750000  1
  Bi  Bi15  1  0.000000  0.606315  0.750000  1
  Bi  Bi16  1  0.613492  0.615648  0.250000  1
  Bi  Bi17  1  0.386508  0.002156  0.250000  1
