# generated using pymatgen
data_LuZr8ScSn6
_symmetry_space_group_name_H-M   'P 1'
_cell_length_a   8.58758536
_cell_length_b   8.53944778
_cell_length_c   5.86791500
_cell_angle_alpha   90.00000000
_cell_angle_beta   90.00000000
_cell_angle_gamma   119.63898966
_symmetry_Int_Tables_number   1
_chemical_formula_structural   LuZr8ScSn6
_chemical_formula_sum   'Lu1 Zr8 Sc1 Sn6'
_cell_volume   374.01041932
_cell_formula_units_Z   1
loop_
 _symmetry_equiv_pos_site_id
 _symmetry_equiv_pos_as_xyz
  1  'x, y, z'
loop_
 _atom_site_type_symbol
 _atom_site_label
 _atom_site_symmetry_multiplicity
 _atom_site_fract_x
 _atom_site_fract_y
 _atom_site_fract_z
 _atom_site_occupancy
  Lu  Lu0  1  0.000690  0.765255  0.250000  1
  Zr  Zr1  1  0.665840  0.329541  0.999841  1
  Zr  Zr2  1  0.330931  0.664553  0.999738  1
  Zr  Zr3  1  0.330931  0.664553  0.500262  1
  Zr  Zr4  1  0.665840  0.329541  0.500159  1
  Zr  Zr5  1  0.249811  0.001781  0.750000  1
  Zr  Zr6  1  0.001233  0.244193  0.750000  1
  Zr  Zr7  1  0.247872  0.248823  0.250000  1
  Zr  Zr8  1  0.753558  0.002531  0.250000  1
  Sc  Sc9  1  0.753364  0.753265  0.750000  1
  Sn  Sn10  1  0.392033  0.391630  0.750000  1
  Sn  Sn11  1  0.609524  0.996965  0.750000  1
  Sn  Sn12  1  0.998416  0.607995  0.750000  1
  Sn  Sn13  1  0.605670  0.607270  0.250000  1
  Sn  Sn14  1  0.394157  0.000678  0.250000  1
  Sn  Sn15  1  0.000132  0.391425  0.250000  1
