# generated using pymatgen
data_Dy11Th5Mg3HgRu4
_symmetry_space_group_name_H-M   'P 1'
_cell_length_a   9.68830754
_cell_length_b   9.75824142
_cell_length_c   9.75824080
_cell_angle_alpha   59.93174336
_cell_angle_beta   60.26561087
_cell_angle_gamma   60.26561988
_symmetry_Int_Tables_number   1
_chemical_formula_structural   Dy11Th5Mg3HgRu4
_chemical_formula_sum   'Dy11 Th5 Mg3 Hg1 Ru4'
_cell_volume   654.60855413
_cell_formula_units_Z   1
loop_
 _symmetry_equiv_pos_site_id
 _symmetry_equiv_pos_as_xyz
  1  'x, y, z'
loop_
 _atom_site_type_symbol
 _atom_site_label
 _atom_site_symmetry_multiplicity
 _atom_site_fract_x
 _atom_site_fract_y
 _atom_site_fract_z
 _atom_site_occupancy
  Dy  Dy0  1  0.186392  0.812119  0.812119  1
  Dy  Dy1  1  0.191052  0.808843  0.186074  1
  Dy  Dy2  1  0.812119  0.185279  0.809160  1
  Dy  Dy3  1  0.191052  0.186074  0.808843  1
  Dy  Dy4  1  0.812119  0.809160  0.185279  1
  Dy  Dy5  1  0.931956  0.566702  0.566702  1
  Dy  Dy6  1  0.563698  0.935028  0.935028  1
  Dy  Dy7  1  0.562439  0.934383  0.563668  1
  Dy  Dy8  1  0.936867  0.563036  0.936153  1
  Dy  Dy9  1  0.562439  0.563668  0.934383  1
  Dy  Dy10  1  0.936867  0.936153  0.563036  1
  Th  Th11  1  0.342282  0.348212  0.348212  1
  Th  Th12  1  0.347906  0.347719  0.957761  1
  Th  Th13  1  0.347906  0.957761  0.347719  1
  Th  Th14  1  0.956911  0.350442  0.350442  1
  Th  Th15  1  0.816463  0.184081  0.184081  1
  Mg  Mg16  1  0.578383  0.582064  0.262114  1
  Mg  Mg17  1  0.578383  0.262114  0.582064  1
  Mg  Mg18  1  0.263932  0.578749  0.578749  1
  Hg  Hg19  1  0.583803  0.583362  0.583362  1
  Ru  Ru20  1  0.128727  0.147278  0.147278  1
  Ru  Ru21  1  0.145647  0.142027  0.567686  1
  Ru  Ru22  1  0.145647  0.567686  0.142027  1
  Ru  Ru23  1  0.577011  0.148056  0.148056  1
