# generated using pymatgen
data_Tm6Al17Fe8Si7
_symmetry_space_group_name_H-M   'P 1'
_cell_length_a   8.45755003
_cell_length_b   8.45447161
_cell_length_c   9.22751000
_cell_angle_alpha   90.00000000
_cell_angle_beta   90.00000000
_cell_angle_gamma   120.05682617
_symmetry_Int_Tables_number   1
_chemical_formula_structural   Tm6Al17Fe8Si7
_chemical_formula_sum   'Tm6 Al17 Fe8 Si7'
_cell_volume   571.08036953
_cell_formula_units_Z   1
loop_
 _symmetry_equiv_pos_site_id
 _symmetry_equiv_pos_as_xyz
  1  'x, y, z'
loop_
 _atom_site_type_symbol
 _atom_site_label
 _atom_site_symmetry_multiplicity
 _atom_site_fract_x
 _atom_site_fract_y
 _atom_site_fract_z
 _atom_site_occupancy
  Tm  Tm0  1  0.192739  0.389597  0.250000  1
  Tm  Tm1  1  0.805767  0.612293  0.750000  1
  Tm  Tm2  1  0.609282  0.806799  0.250000  1
  Tm  Tm3  1  0.389936  0.191868  0.750000  1
  Tm  Tm4  1  0.196374  0.804012  0.250000  1
  Tm  Tm5  1  0.800915  0.192108  0.750000  1
  Al  Al6  1  0.163166  0.326974  0.574791  1
  Al  Al7  1  0.835489  0.672720  0.423905  1
  Al  Al8  1  0.672904  0.836073  0.574556  1
  Al  Al9  1  0.835489  0.672720  0.076095  1
  Al  Al10  1  0.328277  0.164931  0.425061  1
  Al  Al11  1  0.163166  0.326974  0.925209  1
  Al  Al12  1  0.163193  0.835502  0.573503  1
  Al  Al13  1  0.328277  0.164931  0.074939  1
  Al  Al14  1  0.835799  0.164134  0.424417  1
  Al  Al15  1  0.672904  0.836073  0.925444  1
  Al  Al16  1  0.835799  0.164134  0.075583  1
  Al  Al17  1  0.163193  0.835502  0.926497  1
  Al  Al18  1  0.121532  0.562932  0.750000  1
  Al  Al19  1  0.562411  0.437147  0.250000  1
  Al  Al20  1  0.440369  0.563493  0.750000  1
  Al  Al21  1  0.999779  0.999451  0.250000  1
  Al  Al22  1  0.999894  0.000721  0.750000  1
  Fe  Fe23  1  0.501227  0.001553  0.000920  1
  Fe  Fe24  1  0.998440  0.499365  0.007367  1
  Fe  Fe25  1  0.501227  0.001553  0.499080  1
  Fe  Fe26  1  0.500938  0.500044  0.000213  1
  Fe  Fe27  1  0.998440  0.499365  0.492633  1
  Fe  Fe28  1  0.500938  0.500044  0.499787  1
  Fe  Fe29  1  0.000450  0.000211  0.000182  1
  Fe  Fe30  1  0.000450  0.000211  0.499818  1
  Si  Si31  1  0.333378  0.663835  0.032269  1
  Si  Si32  1  0.666502  0.336323  0.966654  1
  Si  Si33  1  0.666502  0.336323  0.533346  1
  Si  Si34  1  0.333378  0.663835  0.467731  1
  Si  Si35  1  0.561242  0.118853  0.250000  1
  Si  Si36  1  0.439128  0.878715  0.750000  1
  Si  Si37  1  0.881110  0.438681  0.250000  1
