# generated using pymatgen
data_Lu2HfBe2Rh5
_symmetry_space_group_name_H-M   'P 1'
_cell_length_a   9.72812300
_cell_length_b   9.72812300
_cell_length_c   3.25636500
_cell_angle_alpha   90.00000000
_cell_angle_beta   90.00000000
_cell_angle_gamma   90.00000000
_symmetry_Int_Tables_number   1
_chemical_formula_structural   Lu2HfBe2Rh5
_chemical_formula_sum   'Lu4 Hf2 Be4 Rh10'
_cell_volume   308.17058613
_cell_formula_units_Z   2
loop_
 _symmetry_equiv_pos_site_id
 _symmetry_equiv_pos_as_xyz
  1  'x, y, z'
loop_
 _atom_site_type_symbol
 _atom_site_label
 _atom_site_symmetry_multiplicity
 _atom_site_fract_x
 _atom_site_fract_y
 _atom_site_fract_z
 _atom_site_occupancy
  Lu  Lu0  1  0.174943  0.674943  0.000000  1
  Lu  Lu1  1  0.325057  0.174943  0.000000  1
  Lu  Lu2  1  0.825057  0.325057  0.000000  1
  Lu  Lu3  1  0.674943  0.825057  0.000000  1
  Hf  Hf4  1  0.500000  0.500000  0.000000  1
  Hf  Hf5  1  0.000000  0.000000  0.000000  1
  Be  Be6  1  0.379899  0.879899  0.000000  1
  Be  Be7  1  0.120101  0.379899  0.000000  1
  Be  Be8  1  0.879899  0.620101  0.000000  1
  Be  Be9  1  0.620101  0.120101  0.000000  1
  Rh  Rh10  1  0.215923  0.930073  0.500000  1
  Rh  Rh11  1  0.930073  0.784077  0.500000  1
  Rh  Rh12  1  0.430073  0.715923  0.500000  1
  Rh  Rh13  1  0.569927  0.284077  0.500000  1
  Rh  Rh14  1  0.715923  0.569927  0.500000  1
  Rh  Rh15  1  0.284077  0.430073  0.500000  1
  Rh  Rh16  1  0.069927  0.215923  0.500000  1
  Rh  Rh17  1  0.000000  0.500000  0.500000  1
  Rh  Rh18  1  0.500000  0.000000  0.500000  1
  Rh  Rh19  1  0.784077  0.069927  0.500000  1
