# generated using pymatgen
data_La13Pr7Si15Sn
_symmetry_space_group_name_H-M   'P 1'
_cell_length_a   8.07566962
_cell_length_b   8.05304811
_cell_length_c   15.41048105
_cell_angle_alpha   90.17854551
_cell_angle_beta   89.71504731
_cell_angle_gamma   89.76663650
_symmetry_Int_Tables_number   1
_chemical_formula_structural   La13Pr7Si15Sn
_chemical_formula_sum   'La13 Pr7 Si15 Sn1'
_cell_volume   1002.17582782
_cell_formula_units_Z   1
loop_
 _symmetry_equiv_pos_site_id
 _symmetry_equiv_pos_as_xyz
  1  'x, y, z'
loop_
 _atom_site_type_symbol
 _atom_site_label
 _atom_site_symmetry_multiplicity
 _atom_site_fract_x
 _atom_site_fract_y
 _atom_site_fract_z
 _atom_site_occupancy
  La  La0  1  0.308319  0.308639  0.000063  1
  La  La1  1  0.191587  0.808573  0.250017  1
  La  La2  1  0.800360  0.187714  0.753590  1
  La  La3  1  0.689158  0.691503  0.496145  1
  La  La4  1  0.375216  0.014882  0.449962  1
  La  La5  1  0.496945  0.871553  0.697736  1
  La  La6  1  0.510502  0.122027  0.198529  1
  La  La7  1  0.876978  0.488715  0.299931  1
  La  La8  1  0.120560  0.515208  0.804704  1
  La  La9  1  0.623260  0.986586  0.950601  1
  La  La10  1  0.004631  0.383600  0.545544  1
  La  La11  1  0.988702  0.620878  0.053654  1
  La  La12  1  0.127955  0.983541  0.879814  1
  Pr  Pr13  1  0.516863  0.626484  0.127513  1
  Pr  Pr14  1  0.494081  0.383072  0.624578  1
  Pr  Pr15  1  0.628594  0.518765  0.876702  1
  Pr  Pr16  1  0.373439  0.484682  0.372532  1
  Pr  Pr17  1  0.872324  0.016941  0.375529  1
  Pr  Pr18  1  0.983587  0.128327  0.125654  1
  Pr  Pr19  1  0.004266  0.858613  0.620212  1
  Si  Si20  1  0.332900  0.696094  0.953725  1
  Si  Si21  1  0.665139  0.301555  0.448757  1
  Si  Si22  1  0.698691  0.332405  0.051170  1
  Si  Si23  1  0.302326  0.670020  0.547698  1
  Si  Si24  1  0.801454  0.832875  0.200416  1
  Si  Si25  1  0.166469  0.199553  0.300900  1
  Si  Si26  1  0.835582  0.799444  0.799875  1
  Si  Si27  1  0.289909  0.921084  0.060561  1
  Si  Si28  1  0.579059  0.790246  0.308157  1
  Si  Si29  1  0.430020  0.213092  0.812570  1
  Si  Si30  1  0.789591  0.576730  0.692012  1
  Si  Si31  1  0.211371  0.419234  0.191706  1
  Si  Si32  1  0.710294  0.081749  0.558409  1
  Si  Si33  1  0.920337  0.289690  0.942987  1
  Si  Si34  1  0.080756  0.714540  0.439573  1
  Sn  Sn35  1  0.198776  0.161394  0.688475  1
