# generated using pymatgen
data_Hg3Ru4PbO14
_symmetry_space_group_name_H-M   'P 1'
_cell_length_a   7.36504235
_cell_length_b   7.30175458
_cell_length_c   7.30175500
_cell_angle_alpha   60.00000261
_cell_angle_beta   60.28385179
_cell_angle_gamma   60.28385778
_symmetry_Int_Tables_number   1
_chemical_formula_structural   Hg3Ru4PbO14
_chemical_formula_sum   'Hg3 Ru4 Pb1 O14'
_cell_volume   278.84625003
_cell_formula_units_Z   1
loop_
 _symmetry_equiv_pos_site_id
 _symmetry_equiv_pos_as_xyz
  1  'x, y, z'
loop_
 _atom_site_type_symbol
 _atom_site_label
 _atom_site_symmetry_multiplicity
 _atom_site_fract_x
 _atom_site_fract_y
 _atom_site_fract_z
 _atom_site_occupancy
  Hg  Hg0  1  0.625000  0.625000  0.625000  1
  Hg  Hg1  1  0.625000  0.125000  0.625000  1
  Hg  Hg2  1  0.625000  0.625000  0.125000  1
  Ru  Ru3  1  0.125000  0.625000  0.125000  1
  Ru  Ru4  1  0.125000  0.125000  0.625000  1
  Ru  Ru5  1  0.625000  0.125000  0.125000  1
  Ru  Ru6  1  0.125000  0.125000  0.125000  1
  Pb  Pb7  1  0.125000  0.625000  0.625000  1
  O  O8  1  0.721864  0.759378  0.759378  1
  O  O9  1  0.186601  0.805529  0.805529  1
  O  O10  1  0.186601  0.805529  0.202341  1
  O  O11  1  0.812534  0.809338  0.189064  1
  O  O12  1  0.812534  0.189064  0.809338  1
  O  O13  1  0.186601  0.202341  0.805529  1
  O  O14  1  0.437466  0.060936  0.060936  1
  O  O15  1  0.812534  0.189064  0.189064  1
  O  O16  1  0.063399  0.444471  0.047659  1
  O  O17  1  0.063399  0.047659  0.444471  1
  O  O18  1  0.437466  0.440662  0.060936  1
  O  O19  1  0.437466  0.060936  0.440662  1
  O  O20  1  0.063399  0.444471  0.444471  1
  O  O21  1  0.528136  0.490622  0.490622  1
