# generated using pymatgen
data_YbV(PO3)4
_symmetry_space_group_name_H-M   'P 1'
_cell_length_a   7.56393406
_cell_length_b   7.56393481
_cell_length_c   10.33134166
_cell_angle_alpha   66.99916993
_cell_angle_beta   66.99916590
_cell_angle_gamma   70.66184543
_symmetry_Int_Tables_number   1
_chemical_formula_structural   YbV(PO3)4
_chemical_formula_sum   'Yb2 V2 P8 O24'
_cell_volume   489.60529843
_cell_formula_units_Z   2
loop_
 _symmetry_equiv_pos_site_id
 _symmetry_equiv_pos_as_xyz
  1  'x, y, z'
loop_
 _atom_site_type_symbol
 _atom_site_label
 _atom_site_symmetry_multiplicity
 _atom_site_fract_x
 _atom_site_fract_y
 _atom_site_fract_z
 _atom_site_occupancy
  Yb  Yb0  1  0.951522  0.048478  0.750000  1
  Yb  Yb1  1  0.048478  0.951522  0.250000  1
  V  V2  1  0.500000  0.000000  0.000000  1
  V  V3  1  0.000000  0.500000  0.500000  1
  P  P4  1  0.318854  0.302115  0.693171  1
  P  P5  1  0.697885  0.681146  0.806829  1
  P  P6  1  0.681146  0.697885  0.306829  1
  P  P7  1  0.302115  0.318854  0.193171  1
  P  P8  1  0.719706  0.269021  0.475691  1
  P  P9  1  0.730979  0.280294  0.024309  1
  P  P10  1  0.280294  0.730979  0.524309  1
  P  P11  1  0.269021  0.719706  0.975691  1
  O  O12  1  0.320523  0.529967  0.653937  1
  O  O13  1  0.470033  0.679477  0.846063  1
  O  O14  1  0.679477  0.470033  0.346063  1
  O  O15  1  0.529967  0.320523  0.153937  1
  O  O16  1  0.501718  0.229741  0.564615  1
  O  O17  1  0.770259  0.498282  0.935385  1
  O  O18  1  0.498282  0.770259  0.435385  1
  O  O19  1  0.229741  0.501718  0.064615  1
  O  O20  1  0.350436  0.195179  0.839606  1
  O  O21  1  0.804821  0.649564  0.660394  1
  O  O22  1  0.649564  0.804821  0.160394  1
  O  O23  1  0.195179  0.350436  0.339606  1
  O  O24  1  0.136842  0.289672  0.670562  1
  O  O25  1  0.710328  0.863158  0.829438  1
  O  O26  1  0.863158  0.710328  0.329438  1
  O  O27  1  0.289672  0.136842  0.170562  1
  O  O28  1  0.800772  0.305263  0.574607  1
  O  O29  1  0.694737  0.199228  0.925393  1
  O  O30  1  0.199228  0.694737  0.425393  1
  O  O31  1  0.305263  0.800772  0.074606  1
  O  O32  1  0.832975  0.107702  0.409468  1
  O  O33  1  0.892298  0.167025  0.090532  1
  O  O34  1  0.167025  0.892298  0.590532  1
  O  O35  1  0.107702  0.832975  0.909468  1
