# generated using pymatgen
data_Nd3In3CuPdPt
_symmetry_space_group_name_H-M   'P 1'
_cell_length_a   7.72702800
_cell_length_b   7.72702753
_cell_length_c   4.02958300
_cell_angle_alpha   90.00000000
_cell_angle_beta   90.00000000
_cell_angle_gamma   120.00000202
_symmetry_Int_Tables_number   1
_chemical_formula_structural   Nd3In3CuPdPt
_chemical_formula_sum   'Nd3 In3 Cu1 Pd1 Pt1'
_cell_volume   208.36063581
_cell_formula_units_Z   1
loop_
 _symmetry_equiv_pos_site_id
 _symmetry_equiv_pos_as_xyz
  1  'x, y, z'
loop_
 _atom_site_type_symbol
 _atom_site_label
 _atom_site_symmetry_multiplicity
 _atom_site_fract_x
 _atom_site_fract_y
 _atom_site_fract_z
 _atom_site_occupancy
  Nd  Nd0  1  0.005196  0.588946  0.000000  1
  Nd  Nd1  1  0.411054  0.416250  0.000000  1
  Nd  Nd2  1  0.583750  0.994804  0.000000  1
  In  In3  1  0.756171  0.753356  0.500000  1
  In  In4  1  0.997185  0.243829  0.500000  1
  In  In5  1  0.246644  0.002815  0.500000  1
  Cu  Cu6  1  0.000000  0.000000  0.000000  1
  Pd  Pd7  1  0.666667  0.333333  0.500000  1
  Pt  Pt8  1  0.333333  0.666667  0.500000  1
