# generated using pymatgen
data_ErTh2Sc2(In2Rh)2
_symmetry_space_group_name_H-M   'P 1'
_cell_length_a   3.75597400
_cell_length_b   7.89555700
_cell_length_c   17.61696300
_cell_angle_alpha   90.00000000
_cell_angle_beta   90.00000000
_cell_angle_gamma   90.00000000
_symmetry_Int_Tables_number   1
_chemical_formula_structural   ErTh2Sc2(In2Rh)2
_chemical_formula_sum   'Er2 Th4 Sc4 In8 Rh4'
_cell_volume   522.43996617
_cell_formula_units_Z   2
loop_
 _symmetry_equiv_pos_site_id
 _symmetry_equiv_pos_as_xyz
  1  'x, y, z'
loop_
 _atom_site_type_symbol
 _atom_site_label
 _atom_site_symmetry_multiplicity
 _atom_site_fract_x
 _atom_site_fract_y
 _atom_site_fract_z
 _atom_site_occupancy
  Er  Er0  1  0.000000  0.000000  0.000000  1
  Er  Er1  1  0.000000  0.500000  0.500000  1
  Th  Th2  1  0.000000  0.766585  0.784249  1
  Th  Th3  1  0.000000  0.233415  0.215751  1
  Th  Th4  1  0.000000  0.266585  0.715751  1
  Th  Th5  1  0.000000  0.733415  0.284249  1
  Sc  Sc6  1  0.000000  0.894437  0.586566  1
  Sc  Sc7  1  0.000000  0.105563  0.413434  1
  Sc  Sc8  1  0.000000  0.394437  0.913434  1
  Sc  Sc9  1  0.000000  0.605563  0.086566  1
  In  In10  1  0.500000  0.807653  0.445376  1
  In  In11  1  0.500000  0.192347  0.554624  1
  In  In12  1  0.500000  0.307653  0.054624  1
  In  In13  1  0.500000  0.692347  0.945376  1
  In  In14  1  0.500000  0.900597  0.143562  1
  In  In15  1  0.500000  0.099403  0.856438  1
  In  In16  1  0.500000  0.400597  0.356438  1
  In  In17  1  0.500000  0.599403  0.643562  1
  Rh  Rh18  1  0.500000  0.981723  0.695800  1
  Rh  Rh19  1  0.500000  0.018277  0.304200  1
  Rh  Rh20  1  0.500000  0.481723  0.804200  1
  Rh  Rh21  1  0.500000  0.518277  0.195800  1
