# generated using pymatgen
data_Tb6Dy10MgCd(InPt2)2
_symmetry_space_group_name_H-M   'P 1'
_cell_length_a   9.71308560
_cell_length_b   9.71308541
_cell_length_c   9.71308600
_cell_angle_alpha   60.05710856
_cell_angle_beta   60.05711601
_cell_angle_gamma   60.05711482
_symmetry_Int_Tables_number   1
_chemical_formula_structural   Tb6Dy10MgCd(InPt2)2
_chemical_formula_sum   'Tb6 Dy10 Mg1 Cd1 In2 Pt4'
_cell_volume   648.81138191
_cell_formula_units_Z   1
loop_
 _symmetry_equiv_pos_site_id
 _symmetry_equiv_pos_as_xyz
  1  'x, y, z'
loop_
 _atom_site_type_symbol
 _atom_site_label
 _atom_site_symmetry_multiplicity
 _atom_site_fract_x
 _atom_site_fract_y
 _atom_site_fract_z
 _atom_site_occupancy
  Tb  Tb0  1  0.936146  0.565830  0.565830  1
  Tb  Tb1  1  0.563725  0.936511  0.936511  1
  Tb  Tb2  1  0.566264  0.935646  0.565383  1
  Tb  Tb3  1  0.937626  0.562840  0.936277  1
  Tb  Tb4  1  0.566264  0.565383  0.935646  1
  Tb  Tb5  1  0.937626  0.936277  0.562840  1
  Dy  Dy6  1  0.349281  0.349917  0.349917  1
  Dy  Dy7  1  0.351687  0.351486  0.945653  1
  Dy  Dy8  1  0.351687  0.945653  0.351486  1
  Dy  Dy9  1  0.945337  0.351894  0.351894  1
  Dy  Dy10  1  0.809480  0.191308  0.191308  1
  Dy  Dy11  1  0.189061  0.811967  0.811967  1
  Dy  Dy12  1  0.191050  0.809992  0.190931  1
  Dy  Dy13  1  0.811348  0.189849  0.810979  1
  Dy  Dy14  1  0.191050  0.190931  0.809992  1
  Dy  Dy15  1  0.811348  0.810979  0.189849  1
  Mg  Mg16  1  0.576231  0.576566  0.576566  1
  Cd  Cd17  1  0.253967  0.581474  0.581474  1
  In  In18  1  0.580802  0.581887  0.254401  1
  In  In19  1  0.580802  0.254401  0.581887  1
  Pt  Pt20  1  0.143405  0.143603  0.143603  1
  Pt  Pt21  1  0.141903  0.141978  0.571790  1
  Pt  Pt22  1  0.141903  0.571790  0.141978  1
  Pt  Pt23  1  0.572003  0.141834  0.141834  1
