# generated using pymatgen
data_La2OsRhF14
_symmetry_space_group_name_H-M   'P 1'
_cell_length_a   5.81541000
_cell_length_b   9.28650060
_cell_length_c   12.54269118
_cell_angle_alpha   62.04817985
_cell_angle_beta   90.00000000
_cell_angle_gamma   90.00000000
_symmetry_Int_Tables_number   1
_chemical_formula_structural   La2OsRhF14
_chemical_formula_sum   'La4 Os2 Rh2 F28'
_cell_volume   598.34555373
_cell_formula_units_Z   2
loop_
 _symmetry_equiv_pos_site_id
 _symmetry_equiv_pos_as_xyz
  1  'x, y, z'
loop_
 _atom_site_type_symbol
 _atom_site_label
 _atom_site_symmetry_multiplicity
 _atom_site_fract_x
 _atom_site_fract_y
 _atom_site_fract_z
 _atom_site_occupancy
  La  La0  1  0.763191  0.801435  0.257119  1
  La  La1  1  0.263191  0.198565  0.242881  1
  La  La2  1  0.247483  0.179518  0.728407  1
  La  La3  1  0.747483  0.820482  0.771593  1
  Os  Os4  1  0.245191  0.721174  0.548097  1
  Os  Os5  1  0.745191  0.278826  0.951903  1
  Rh  Rh6  1  0.758641  0.270200  0.462327  1
  Rh  Rh7  1  0.258641  0.729800  0.037673  1
  F  F8  1  0.970484  0.711744  0.465695  1
  F  F9  1  0.470484  0.288256  0.034305  1
  F  F10  1  0.039771  0.284851  0.547940  1
  F  F11  1  0.539771  0.715149  0.952060  1
  F  F12  1  0.058019  0.712662  0.914285  1
  F  F13  1  0.558019  0.287338  0.585715  1
  F  F14  1  0.932049  0.296741  0.070530  1
  F  F15  1  0.432049  0.703259  0.429470  1
  F  F16  1  0.738080  0.512654  0.856412  1
  F  F17  1  0.238080  0.487346  0.643588  1
  F  F18  1  0.261317  0.486090  0.133866  1
  F  F19  1  0.761317  0.513910  0.366134  1
  F  F20  1  0.745926  0.045680  0.040251  1
  F  F21  1  0.245926  0.954320  0.459749  1
  F  F22  1  0.268201  0.972525  0.939490  1
  F  F23  1  0.768201  0.027475  0.560510  1
  F  F24  1  0.056519  0.734231  0.669585  1
  F  F25  1  0.556519  0.265769  0.830415  1
  F  F26  1  0.952330  0.249786  0.337919  1
  F  F27  1  0.452330  0.750214  0.162081  1
  F  F28  1  0.017429  0.275394  0.865898  1
  F  F29  1  0.517429  0.724606  0.634102  1
  F  F30  1  0.982092  0.740605  0.127763  1
  F  F31  1  0.482092  0.259395  0.372237  1
  F  F32  1  0.070081  0.978340  0.237615  1
  F  F33  1  0.570081  0.021660  0.262385  1
  F  F34  1  0.893196  0.044429  0.775672  1
  F  F35  1  0.393196  0.955571  0.724328  1
