# generated using pymatgen
data_Dy5Ag2B4Rh13
_symmetry_space_group_name_H-M   'P 1'
_cell_length_a   4.20275400
_cell_length_b   4.20275400
_cell_length_c   20.94320200
_cell_angle_alpha   90.00000000
_cell_angle_beta   90.00000000
_cell_angle_gamma   90.00000000
_symmetry_Int_Tables_number   1
_chemical_formula_structural   Dy5Ag2B4Rh13
_chemical_formula_sum   'Dy5 Ag2 B4 Rh13'
_cell_volume   369.92273378
_cell_formula_units_Z   1
loop_
 _symmetry_equiv_pos_site_id
 _symmetry_equiv_pos_as_xyz
  1  'x, y, z'
loop_
 _atom_site_type_symbol
 _atom_site_label
 _atom_site_symmetry_multiplicity
 _atom_site_fract_x
 _atom_site_fract_y
 _atom_site_fract_z
 _atom_site_occupancy
  Dy  Dy0  1  0.000000  0.000000  0.892429  1
  Dy  Dy1  1  0.000000  0.000000  0.107571  1
  Dy  Dy2  1  0.000000  0.000000  0.300912  1
  Dy  Dy3  1  0.000000  0.000000  0.500000  1
  Dy  Dy4  1  0.000000  0.000000  0.699088  1
  Ag  Ag5  1  0.500000  0.000000  0.000000  1
  Ag  Ag6  1  0.000000  0.500000  0.000000  1
  B  B7  1  0.500000  0.500000  0.193871  1
  B  B8  1  0.500000  0.500000  0.398754  1
  B  B9  1  0.500000  0.500000  0.601246  1
  B  B10  1  0.500000  0.500000  0.806129  1
  Rh  Rh11  1  0.500000  0.500000  0.903641  1
  Rh  Rh12  1  0.500000  0.500000  0.096359  1
  Rh  Rh13  1  0.500000  0.500000  0.298857  1
  Rh  Rh14  1  0.500000  0.500000  0.500000  1
  Rh  Rh15  1  0.500000  0.500000  0.701143  1
  Rh  Rh16  1  0.500000  0.000000  0.201745  1
  Rh  Rh17  1  0.500000  0.000000  0.400231  1
  Rh  Rh18  1  0.500000  0.000000  0.599769  1
  Rh  Rh19  1  0.500000  0.000000  0.798255  1
  Rh  Rh20  1  0.000000  0.500000  0.201745  1
  Rh  Rh21  1  0.000000  0.500000  0.400231  1
  Rh  Rh22  1  0.000000  0.500000  0.599769  1
  Rh  Rh23  1  0.000000  0.500000  0.798255  1
