# generated using pymatgen
data_Sc22Ir3Os4Rh
_symmetry_space_group_name_H-M   'P 1'
_cell_length_a   9.46810375
_cell_length_b   9.47258730
_cell_length_c   9.46810105
_cell_angle_alpha   59.98434585
_cell_angle_beta   60.03134671
_cell_angle_gamma   59.98754532
_symmetry_Int_Tables_number   1
_chemical_formula_structural   Sc22Ir3Os4Rh
_chemical_formula_sum   'Sc22 Ir3 Os4 Rh1'
_cell_volume   600.46812068
_cell_formula_units_Z   1
loop_
 _symmetry_equiv_pos_site_id
 _symmetry_equiv_pos_as_xyz
  1  'x, y, z'
loop_
 _atom_site_type_symbol
 _atom_site_label
 _atom_site_symmetry_multiplicity
 _atom_site_fract_x
 _atom_site_fract_y
 _atom_site_fract_z
 _atom_site_occupancy
  Sc  Sc0  1  0.844146  0.842830  0.844019  1
  Sc  Sc1  1  0.532721  0.154581  0.156930  1
  Sc  Sc2  1  0.157170  0.155854  0.530993  1
  Sc  Sc3  1  0.154581  0.532721  0.155768  1
  Sc  Sc4  1  0.842830  0.844146  0.469007  1
  Sc  Sc5  1  0.845419  0.467279  0.844232  1
  Sc  Sc6  1  0.467279  0.845419  0.843070  1
  Sc  Sc7  1  0.155854  0.157170  0.155981  1
  Sc  Sc8  1  0.195872  0.804128  0.199056  1
  Sc  Sc9  1  0.196103  0.803897  0.800753  1
  Sc  Sc10  1  0.803897  0.196103  0.199247  1
  Sc  Sc11  1  0.801568  0.801568  0.198432  1
  Sc  Sc12  1  0.198432  0.198432  0.801568  1
  Sc  Sc13  1  0.804128  0.195872  0.800944  1
  Sc  Sc14  1  0.382671  0.380647  0.386520  1
  Sc  Sc15  1  0.149220  0.616185  0.618328  1
  Sc  Sc16  1  0.616185  0.149220  0.616267  1
  Sc  Sc17  1  0.619353  0.617329  0.149839  1
  Sc  Sc18  1  0.383815  0.850780  0.383733  1
  Sc  Sc19  1  0.380647  0.382671  0.850161  1
  Sc  Sc20  1  0.850780  0.383815  0.381672  1
  Sc  Sc21  1  0.617329  0.619353  0.613480  1
  Ir  Ir22  1  0.000000  0.000000  0.500000  1
  Ir  Ir23  1  0.000000  0.500000  0.500000  1
  Ir  Ir24  1  0.500000  0.000000  0.000000  1
  Os  Os25  1  0.500000  0.000000  0.500000  1
  Os  Os26  1  0.000000  0.500000  0.000000  1
  Os  Os27  1  0.500000  0.500000  0.500000  1
  Os  Os28  1  0.000000  0.000000  0.000000  1
  Rh  Rh29  1  0.500000  0.500000  0.000000  1
