# generated using pymatgen
data_Ce6U2SnSb9
_symmetry_space_group_name_H-M   'P 1'
_cell_length_a   9.65386500
_cell_length_b   9.65386669
_cell_length_c   6.21825100
_cell_angle_alpha   90.00000000
_cell_angle_beta   90.00000000
_cell_angle_gamma   119.99999763
_symmetry_Int_Tables_number   1
_chemical_formula_structural   Ce6U2SnSb9
_chemical_formula_sum   'Ce6 U2 Sn1 Sb9'
_cell_volume   501.88175647
_cell_formula_units_Z   1
loop_
 _symmetry_equiv_pos_site_id
 _symmetry_equiv_pos_as_xyz
  1  'x, y, z'
loop_
 _atom_site_type_symbol
 _atom_site_label
 _atom_site_symmetry_multiplicity
 _atom_site_fract_x
 _atom_site_fract_y
 _atom_site_fract_z
 _atom_site_occupancy
  Ce  Ce0  1  0.614255  0.000964  0.249935  1
  Ce  Ce1  1  0.386709  0.000964  0.750065  1
  Ce  Ce2  1  0.999036  0.613291  0.249935  1
  Ce  Ce3  1  0.999036  0.385745  0.750065  1
  Ce  Ce4  1  0.386709  0.385745  0.249935  1
  Ce  Ce5  1  0.614255  0.613291  0.750065  1
  U  U6  1  0.000000  0.000000  0.000000  1
  U  U7  1  0.000000  0.000000  0.500000  1
  Sn  Sn8  1  0.333333  0.666667  0.000000  1
  Sb  Sb9  1  0.276546  0.998565  0.248378  1
  Sb  Sb10  1  0.722019  0.998565  0.751622  1
  Sb  Sb11  1  0.001435  0.277981  0.248378  1
  Sb  Sb12  1  0.001435  0.723454  0.751622  1
  Sb  Sb13  1  0.722019  0.723454  0.248378  1
  Sb  Sb14  1  0.276546  0.277981  0.751622  1
  Sb  Sb15  1  0.666667  0.333333  0.000000  1
  Sb  Sb16  1  0.666667  0.333333  0.500000  1
  Sb  Sb17  1  0.333333  0.666667  0.500000  1
