# generated using pymatgen
data_Pr6EuFeI12
_symmetry_space_group_name_H-M   'P 1'
_cell_length_a   10.08304077
_cell_length_b   10.08304060
_cell_length_c   10.08304031
_cell_angle_alpha   106.85643438
_cell_angle_beta   106.85642916
_cell_angle_gamma   106.85642830
_symmetry_Int_Tables_number   1
_chemical_formula_structural   Pr6EuFeI12
_chemical_formula_sum   'Pr6 Eu1 Fe1 I12'
_cell_volume   857.05099831
_cell_formula_units_Z   1
loop_
 _symmetry_equiv_pos_site_id
 _symmetry_equiv_pos_as_xyz
  1  'x, y, z'
loop_
 _atom_site_type_symbol
 _atom_site_label
 _atom_site_symmetry_multiplicity
 _atom_site_fract_x
 _atom_site_fract_y
 _atom_site_fract_z
 _atom_site_occupancy
  Pr  Pr0  1  0.795745  0.525173  0.595482  1
  Pr  Pr1  1  0.525173  0.595482  0.795745  1
  Pr  Pr2  1  0.204255  0.474827  0.404518  1
  Pr  Pr3  1  0.474827  0.404518  0.204255  1
  Pr  Pr4  1  0.595482  0.795745  0.525173  1
  Pr  Pr5  1  0.404518  0.204255  0.474827  1
  Eu  Eu6  1  0.000000  0.000000  0.000000  1
  Fe  Fe7  1  0.500000  0.500000  0.500000  1
  I  I8  1  0.724387  0.184521  0.573813  1
  I  I9  1  0.955819  0.877736  0.650438  1
  I  I10  1  0.573813  0.724387  0.184521  1
  I  I11  1  0.122264  0.349562  0.044181  1
  I  I12  1  0.650438  0.955819  0.877736  1
  I  I13  1  0.877736  0.650438  0.955819  1
  I  I14  1  0.044181  0.122264  0.349562  1
  I  I15  1  0.815479  0.426187  0.275613  1
  I  I16  1  0.349562  0.044181  0.122264  1
  I  I17  1  0.275613  0.815479  0.426187  1
  I  I18  1  0.184521  0.573813  0.724387  1
  I  I19  1  0.426187  0.275613  0.815479  1
