# generated using pymatgen
data_Lu12Si12RuAu3
_symmetry_space_group_name_H-M   'P 1'
_cell_length_a   4.18681900
_cell_length_b   10.68570783
_cell_length_c   12.15198410
_cell_angle_alpha   90.02604283
_cell_angle_beta   90.00000000
_cell_angle_gamma   90.00000000
_symmetry_Int_Tables_number   1
_chemical_formula_structural   Lu12Si12RuAu3
_chemical_formula_sum   'Lu12 Si12 Ru1 Au3'
_cell_volume   543.66907427
_cell_formula_units_Z   1
loop_
 _symmetry_equiv_pos_site_id
 _symmetry_equiv_pos_as_xyz
  1  'x, y, z'
loop_
 _atom_site_type_symbol
 _atom_site_label
 _atom_site_symmetry_multiplicity
 _atom_site_fract_x
 _atom_site_fract_y
 _atom_site_fract_z
 _atom_site_occupancy
  Lu  Lu0  1  0.250000  0.874971  0.017356  1
  Lu  Lu1  1  0.250000  0.626057  0.521510  1
  Lu  Lu2  1  0.750000  0.120843  0.976949  1
  Lu  Lu3  1  0.750000  0.373618  0.480739  1
  Lu  Lu4  1  0.250000  0.921550  0.602862  1
  Lu  Lu5  1  0.250000  0.579017  0.098628  1
  Lu  Lu6  1  0.750000  0.077309  0.400265  1
  Lu  Lu7  1  0.750000  0.421868  0.899589  1
  Lu  Lu8  1  0.250000  0.664503  0.800252  1
  Lu  Lu9  1  0.250000  0.838638  0.300955  1
  Lu  Lu10  1  0.750000  0.337974  0.198304  1
  Lu  Lu11  1  0.750000  0.154290  0.701964  1
  Si  Si12  1  0.250000  0.010547  0.823915  1
  Si  Si13  1  0.250000  0.474888  0.326780  1
  Si  Si14  1  0.750000  0.975538  0.176189  1
  Si  Si15  1  0.750000  0.527077  0.671831  1
  Si  Si16  1  0.250000  0.242215  0.848508  1
  Si  Si17  1  0.250000  0.251778  0.348615  1
  Si  Si18  1  0.750000  0.752966  0.150188  1
  Si  Si19  1  0.750000  0.754858  0.661093  1
  Si  Si20  1  0.250000  0.182982  0.540514  1
  Si  Si21  1  0.250000  0.317819  0.037095  1
  Si  Si22  1  0.750000  0.815998  0.463243  1
  Si  Si23  1  0.750000  0.698341  0.953249  1
  Ru  Ru24  1  0.750000  0.891727  0.821751  1
  Au  Au25  1  0.250000  0.387095  0.679688  1
  Au  Au26  1  0.250000  0.112164  0.177549  1
  Au  Au27  1  0.750000  0.613369  0.320421  1
