# generated using pymatgen
data_Dy15Ho5(Ir5Au)2
_symmetry_space_group_name_H-M   'P 1'
_cell_length_a   11.03849726
_cell_length_b   10.97138501
_cell_length_c   6.32784901
_cell_angle_alpha   89.99916559
_cell_angle_beta   89.87607108
_cell_angle_gamma   89.99634948
_symmetry_Int_Tables_number   1
_chemical_formula_structural   Dy15Ho5(Ir5Au)2
_chemical_formula_sum   'Dy15 Ho5 Ir10 Au2'
_cell_volume   766.34883373
_cell_formula_units_Z   1
loop_
 _symmetry_equiv_pos_site_id
 _symmetry_equiv_pos_as_xyz
  1  'x, y, z'
loop_
 _atom_site_type_symbol
 _atom_site_label
 _atom_site_symmetry_multiplicity
 _atom_site_fract_x
 _atom_site_fract_y
 _atom_site_fract_z
 _atom_site_occupancy
  Dy  Dy0  1  0.292027  0.088534  0.371904  1
  Dy  Dy1  1  0.292076  0.911560  0.871937  1
  Dy  Dy2  1  0.698116  0.092218  0.865628  1
  Dy  Dy3  1  0.698119  0.907763  0.365636  1
  Dy  Dy4  1  0.578054  0.789278  0.877042  1
  Dy  Dy5  1  0.578063  0.210721  0.377044  1
  Dy  Dy6  1  0.408214  0.790606  0.376929  1
  Dy  Dy7  1  0.408170  0.209414  0.876951  1
  Dy  Dy8  1  0.209934  0.411093  0.621364  1
  Dy  Dy9  1  0.209928  0.588766  0.121413  1
  Dy  Dy10  1  0.788978  0.419539  0.123346  1
  Dy  Dy11  1  0.788922  0.580435  0.623329  1
  Dy  Dy12  1  0.917466  0.705375  0.139108  1
  Dy  Dy13  1  0.917518  0.294591  0.639095  1
  Dy  Dy14  1  0.096149  0.702714  0.624137  1
  Ho  Ho15  1  0.096152  0.297441  0.123997  1
  Ho  Ho16  1  0.009590  0.997430  0.499767  1
  Ho  Ho17  1  0.009611  0.002698  0.999820  1
  Ho  Ho18  1  0.499817  0.498851  0.000700  1
  Ho  Ho19  1  0.499829  0.501135  0.500701  1
  Ir  Ir20  1  0.153598  0.153786  0.750492  1
  Ir  Ir21  1  0.153674  0.846329  0.250182  1
  Ir  Ir22  1  0.655362  0.346355  0.748213  1
  Ir  Ir23  1  0.655374  0.653631  0.248231  1
  Ir  Ir24  1  0.347326  0.346396  0.251466  1
  Ir  Ir25  1  0.347491  0.653552  0.751574  1
  Ir  Ir26  1  0.499830  0.999720  0.120971  1
  Ir  Ir27  1  0.499830  0.000275  0.620997  1
  Ir  Ir28  1  0.999747  0.500844  0.878952  1
  Ir  Ir29  1  0.999729  0.498891  0.378682  1
  Au  Au30  1  0.845676  0.154725  0.250184  1
  Au  Au31  1  0.845628  0.845333  0.750205  1
