# generated using pymatgen
data_Dy5MgP12(Ir8Rh)2
_symmetry_space_group_name_H-M   'P 1'
_cell_length_a   12.71842996
_cell_length_b   12.81477998
_cell_length_c   3.96759000
_cell_angle_alpha   90.00000000
_cell_angle_beta   90.00000000
_cell_angle_gamma   120.25092158
_symmetry_Int_Tables_number   1
_chemical_formula_structural   Dy5MgP12(Ir8Rh)2
_chemical_formula_sum   'Dy5 Mg1 P12 Ir16 Rh2'
_cell_volume   558.59677033
_cell_formula_units_Z   1
loop_
 _symmetry_equiv_pos_site_id
 _symmetry_equiv_pos_as_xyz
  1  'x, y, z'
loop_
 _atom_site_type_symbol
 _atom_site_label
 _atom_site_symmetry_multiplicity
 _atom_site_fract_x
 _atom_site_fract_y
 _atom_site_fract_z
 _atom_site_occupancy
  Dy  Dy0  1  0.332108  0.666110  0.500000  1
  Dy  Dy1  1  0.667892  0.334002  0.500000  1
  Dy  Dy2  1  0.000000  0.812992  0.000000  1
  Dy  Dy3  1  0.187817  0.187343  0.000000  1
  Dy  Dy4  1  0.812183  0.999526  0.000000  1
  Mg  Mg5  1  0.000000  0.446170  0.500000  1
  P  P6  1  0.000000  0.643198  0.500000  1
  P  P7  1  0.361197  0.358299  0.500000  1
  P  P8  1  0.638803  0.997101  0.500000  1
  P  P9  1  0.515640  0.686919  0.000000  1
  P  P10  1  0.311201  0.830071  0.000000  1
  P  P11  1  0.170468  0.485089  0.000000  1
  P  P12  1  0.484360  0.171279  0.000000  1
  P  P13  1  0.688799  0.518870  0.000000  1
  P  P14  1  0.829532  0.314621  0.000000  1
  P  P15  1  0.000000  0.177396  0.500000  1
  P  P16  1  0.820983  0.822019  0.500000  1
  P  P17  1  0.179017  0.001036  0.500000  1
  Ir  Ir18  1  0.506687  0.866411  0.000000  1
  Ir  Ir19  1  0.131617  0.641746  0.000000  1
  Ir  Ir20  1  0.358456  0.492626  0.000000  1
  Ir  Ir21  1  0.493313  0.359723  0.000000  1
  Ir  Ir22  1  0.868383  0.510128  0.000000  1
  Ir  Ir23  1  0.641544  0.134169  0.000000  1
  Ir  Ir24  1  0.000000  0.281736  0.000000  1
  Ir  Ir25  1  0.716567  0.718922  0.000000  1
  Ir  Ir26  1  0.283433  0.002355  0.000000  1
  Ir  Ir27  1  0.623165  0.804169  0.500000  1
  Ir  Ir28  1  0.196598  0.824668  0.500000  1
  Ir  Ir29  1  0.182026  0.372400  0.500000  1
  Ir  Ir30  1  0.376835  0.181004  0.500000  1
  Ir  Ir31  1  0.803402  0.628070  0.500000  1
  Ir  Ir32  1  0.817974  0.190374  0.500000  1
  Ir  Ir33  1  0.000000  0.000528  0.500000  1
  Rh  Rh34  1  0.537883  0.538406  0.500000  1
  Rh  Rh35  1  0.462117  0.000523  0.500000  1
