# generated using pymatgen
data_Yb8Ag7PtPb4
_symmetry_space_group_name_H-M   'P 1'
_cell_length_a   8.25587039
_cell_length_b   8.25587039
_cell_length_c   7.31082492
_cell_angle_alpha   90.12102047
_cell_angle_beta   89.87897953
_cell_angle_gamma   89.97507417
_symmetry_Int_Tables_number   1
_chemical_formula_structural   Yb8Ag7PtPb4
_chemical_formula_sum   'Yb8 Ag7 Pt1 Pb4'
_cell_volume   498.29913874
_cell_formula_units_Z   1
loop_
 _symmetry_equiv_pos_site_id
 _symmetry_equiv_pos_as_xyz
  1  'x, y, z'
loop_
 _atom_site_type_symbol
 _atom_site_label
 _atom_site_symmetry_multiplicity
 _atom_site_fract_x
 _atom_site_fract_y
 _atom_site_fract_z
 _atom_site_occupancy
  Yb  Yb0  1  0.671155  0.688200  0.993909  1
  Yb  Yb1  1  0.329486  0.346830  0.507461  1
  Yb  Yb2  1  0.815902  0.184098  0.499266  1
  Yb  Yb3  1  0.653170  0.670514  0.507461  1
  Yb  Yb4  1  0.311800  0.328845  0.993909  1
  Yb  Yb5  1  0.193919  0.806081  0.507897  1
  Yb  Yb6  1  0.836003  0.163997  0.001402  1
  Yb  Yb7  1  0.177034  0.822966  0.991512  1
  Ag  Ag8  1  0.880789  0.877570  0.728135  1
  Ag  Ag9  1  0.122430  0.119211  0.728135  1
  Ag  Ag10  1  0.624804  0.375196  0.772442  1
  Ag  Ag11  1  0.620860  0.379140  0.229581  1
  Ag  Ag12  1  0.379403  0.620597  0.230364  1
  Ag  Ag13  1  0.126088  0.116965  0.271308  1
  Ag  Ag14  1  0.883035  0.873912  0.271308  1
  Pt  Pt15  1  0.382812  0.617188  0.764524  1
  Pb  Pb16  1  0.499307  0.003203  0.750227  1
  Pb  Pb17  1  0.499589  0.004385  0.250466  1
  Pb  Pb18  1  0.996797  0.500693  0.750227  1
  Pb  Pb19  1  0.995615  0.500411  0.250466  1
