# generated using pymatgen
data_Pr19NdSi15As
_symmetry_space_group_name_H-M   'P 1'
_cell_length_a   7.93296779
_cell_length_b   7.92286888
_cell_length_c   15.33574470
_cell_angle_alpha   89.93197811
_cell_angle_beta   89.66822820
_cell_angle_gamma   89.98232259
_symmetry_Int_Tables_number   1
_chemical_formula_structural   Pr19NdSi15As
_chemical_formula_sum   'Pr19 Nd1 Si15 As1'
_cell_volume   963.86325149
_cell_formula_units_Z   1
loop_
 _symmetry_equiv_pos_site_id
 _symmetry_equiv_pos_as_xyz
  1  'x, y, z'
loop_
 _atom_site_type_symbol
 _atom_site_label
 _atom_site_symmetry_multiplicity
 _atom_site_fract_x
 _atom_site_fract_y
 _atom_site_fract_z
 _atom_site_occupancy
  Pr  Pr0  1  0.189338  0.809836  0.249943  1
  Pr  Pr1  1  0.805170  0.190347  0.750831  1
  Pr  Pr2  1  0.688238  0.689802  0.498520  1
  Pr  Pr3  1  0.379699  0.009948  0.446378  1
  Pr  Pr4  1  0.490571  0.877174  0.697850  1
  Pr  Pr5  1  0.510888  0.121838  0.197457  1
  Pr  Pr6  1  0.877521  0.488596  0.301879  1
  Pr  Pr7  1  0.122620  0.510864  0.803054  1
  Pr  Pr8  1  0.623544  0.988219  0.947810  1
  Pr  Pr9  1  0.007754  0.378723  0.550948  1
  Pr  Pr10  1  0.989032  0.621068  0.052629  1
  Pr  Pr11  1  0.129803  0.984380  0.875665  1
  Pr  Pr12  1  0.518560  0.627712  0.125953  1
  Pr  Pr13  1  0.481336  0.371689  0.627304  1
  Pr  Pr14  1  0.628223  0.518563  0.874010  1
  Pr  Pr15  1  0.371961  0.480589  0.374333  1
  Pr  Pr16  1  0.872865  0.017967  0.376611  1
  Pr  Pr17  1  0.982081  0.128260  0.124082  1
  Pr  Pr18  1  0.017580  0.870999  0.623353  1
  Nd  Nd19  1  0.310965  0.310457  0.000023  1
  Si  Si20  1  0.331191  0.696431  0.951634  1
  Si  Si21  1  0.667789  0.303941  0.452639  1
  Si  Si22  1  0.697564  0.332757  0.048476  1
  Si  Si23  1  0.303205  0.667602  0.548750  1
  Si  Si24  1  0.803073  0.832652  0.201996  1
  Si  Si25  1  0.167830  0.196897  0.298090  1
  Si  Si26  1  0.834982  0.803404  0.797791  1
  Si  Si27  1  0.287676  0.921521  0.059233  1
  Si  Si28  1  0.577975  0.788773  0.309236  1
  Si  Si29  1  0.430537  0.210739  0.814346  1
  Si  Si30  1  0.789133  0.578750  0.689630  1
  Si  Si31  1  0.211522  0.422228  0.190620  1
  Si  Si32  1  0.708808  0.076912  0.559836  1
  Si  Si33  1  0.923893  0.288742  0.940528  1
  Si  Si34  1  0.078235  0.711024  0.440739  1
  As  As35  1  0.188839  0.170592  0.697823  1
