# generated using pymatgen
data_Er3In3Ni2Au
_symmetry_space_group_name_H-M   'P 1'
_cell_length_a   7.65838200
_cell_length_b   7.65838305
_cell_length_c   3.67995300
_cell_angle_alpha   90.00000000
_cell_angle_beta   90.00000000
_cell_angle_gamma   119.99999662
_symmetry_Int_Tables_number   1
_chemical_formula_structural   Er3In3Ni2Au
_chemical_formula_sum   'Er3 In3 Ni2 Au1'
_cell_volume   186.91623662
_cell_formula_units_Z   1
loop_
 _symmetry_equiv_pos_site_id
 _symmetry_equiv_pos_as_xyz
  1  'x, y, z'
loop_
 _atom_site_type_symbol
 _atom_site_label
 _atom_site_symmetry_multiplicity
 _atom_site_fract_x
 _atom_site_fract_y
 _atom_site_fract_z
 _atom_site_occupancy
  Er  Er0  1  0.599125  0.018325  0.500000  1
  Er  Er1  1  0.419200  0.400875  0.500000  1
  Er  Er2  1  0.981675  0.580800  0.500000  1
  In  In3  1  0.994721  0.249366  0.000000  1
  In  In4  1  0.750634  0.745354  0.000000  1
  In  In5  1  0.254646  0.005279  0.000000  1
  Ni  Ni6  1  0.666667  0.333333  0.000000  1
  Ni  Ni7  1  0.000000  0.000000  0.500000  1
  Au  Au8  1  0.333333  0.666667  0.000000  1
