# generated using pymatgen
data_Cd3HgIrRu3O14
_symmetry_space_group_name_H-M   'P 1'
_cell_length_a   7.24614299
_cell_length_b   7.28539928
_cell_length_c   7.28540000
_cell_angle_alpha   59.99999675
_cell_angle_beta   59.82062343
_cell_angle_gamma   59.82061598
_symmetry_Int_Tables_number   1
_chemical_formula_structural   Cd3HgIrRu3O14
_chemical_formula_sum   'Cd3 Hg1 Ir1 Ru3 O14'
_cell_volume   271.21630718
_cell_formula_units_Z   1
loop_
 _symmetry_equiv_pos_site_id
 _symmetry_equiv_pos_as_xyz
  1  'x, y, z'
loop_
 _atom_site_type_symbol
 _atom_site_label
 _atom_site_symmetry_multiplicity
 _atom_site_fract_x
 _atom_site_fract_y
 _atom_site_fract_z
 _atom_site_occupancy
  Cd  Cd0  1  0.125000  0.625000  0.125000  1
  Cd  Cd1  1  0.125000  0.125000  0.625000  1
  Cd  Cd2  1  0.125000  0.125000  0.125000  1
  Hg  Hg3  1  0.625000  0.125000  0.125000  1
  Ir  Ir4  1  0.125000  0.625000  0.625000  1
  Ru  Ru5  1  0.625000  0.125000  0.625000  1
  Ru  Ru6  1  0.625000  0.625000  0.125000  1
  Ru  Ru7  1  0.625000  0.625000  0.625000  1
  O  O8  1  0.687514  0.690828  0.310829  1
  O  O9  1  0.950688  0.550060  0.550060  1
  O  O10  1  0.562486  0.939171  0.939171  1
  O  O11  1  0.950688  0.949191  0.550060  1
  O  O12  1  0.950688  0.550060  0.949191  1
  O  O13  1  0.562486  0.939171  0.559172  1
  O  O14  1  0.299312  0.699940  0.300809  1
  O  O15  1  0.299312  0.699940  0.699940  1
  O  O16  1  0.687514  0.310829  0.310829  1
  O  O17  1  0.687514  0.310829  0.690828  1
  O  O18  1  0.562486  0.559172  0.939171  1
  O  O19  1  0.299312  0.300809  0.699940  1
  O  O20  1  0.257789  0.247404  0.247404  1
  O  O21  1  0.992211  0.002596  0.002596  1
