# generated using pymatgen
data_Hf6Mg3Al13Pt7
_symmetry_space_group_name_H-M   'P 1'
_cell_length_a   8.82060832
_cell_length_b   8.82060790
_cell_length_c   8.82060818
_cell_angle_alpha   60.01866280
_cell_angle_beta   60.01866509
_cell_angle_gamma   60.01866814
_symmetry_Int_Tables_number   1
_chemical_formula_structural   Hf6Mg3Al13Pt7
_chemical_formula_sum   'Hf6 Mg3 Al13 Pt7'
_cell_volume   485.47214436
_cell_formula_units_Z   1
loop_
 _symmetry_equiv_pos_site_id
 _symmetry_equiv_pos_as_xyz
  1  'x, y, z'
loop_
 _atom_site_type_symbol
 _atom_site_label
 _atom_site_symmetry_multiplicity
 _atom_site_fract_x
 _atom_site_fract_y
 _atom_site_fract_z
 _atom_site_occupancy
  Hf  Hf0  1  0.679971  0.679971  0.319695  1
  Hf  Hf1  1  0.322008  0.678063  0.322008  1
  Hf  Hf2  1  0.678063  0.322008  0.322008  1
  Hf  Hf3  1  0.322008  0.322008  0.678063  1
  Hf  Hf4  1  0.679971  0.319695  0.679971  1
  Hf  Hf5  1  0.319695  0.679971  0.679971  1
  Mg  Mg6  1  0.881627  0.881627  0.356582  1
  Mg  Mg7  1  0.881627  0.356582  0.881627  1
  Mg  Mg8  1  0.356582  0.881627  0.881627  1
  Al  Al9  1  0.879366  0.879366  0.879366  1
  Al  Al10  1  0.120836  0.120836  0.639451  1
  Al  Al11  1  0.120836  0.639451  0.120836  1
  Al  Al12  1  0.639451  0.120836  0.120836  1
  Al  Al13  1  0.119530  0.119530  0.119530  1
  Al  Al14  1  0.662495  0.662495  0.010880  1
  Al  Al15  1  0.662495  0.010880  0.662495  1
  Al  Al16  1  0.010880  0.662495  0.662495  1
  Al  Al17  1  0.663304  0.663304  0.663304  1
  Al  Al18  1  0.337019  0.337019  0.987928  1
  Al  Al19  1  0.337019  0.987928  0.337019  1
  Al  Al20  1  0.987928  0.337019  0.337019  1
  Al  Al21  1  0.337527  0.337527  0.337527  1
  Pt  Pt22  1  0.995249  0.995249  0.995249  1
  Pt  Pt23  1  0.000577  0.000577  0.506453  1
  Pt  Pt24  1  0.497329  0.002244  0.497329  1
  Pt  Pt25  1  0.002244  0.497329  0.497329  1
  Pt  Pt26  1  0.497329  0.497329  0.002244  1
  Pt  Pt27  1  0.000577  0.506453  0.000577  1
  Pt  Pt28  1  0.506453  0.000577  0.000577  1
