# generated using pymatgen
data_Sm12Ga(SiI4)3
_symmetry_space_group_name_H-M   'P 1'
_cell_length_a   10.72631324
_cell_length_b   10.72631429
_cell_length_c   10.72631355
_cell_angle_alpha   109.57755964
_cell_angle_beta   109.57756383
_cell_angle_gamma   109.57756391
_symmetry_Int_Tables_number   1
_chemical_formula_structural   Sm12Ga(SiI4)3
_chemical_formula_sum   'Sm12 Ga1 Si3 I12'
_cell_volume   946.25421932
_cell_formula_units_Z   1
loop_
 _symmetry_equiv_pos_site_id
 _symmetry_equiv_pos_as_xyz
  1  'x, y, z'
loop_
 _atom_site_type_symbol
 _atom_site_label
 _atom_site_symmetry_multiplicity
 _atom_site_fract_x
 _atom_site_fract_y
 _atom_site_fract_z
 _atom_site_occupancy
  Sm  Sm0  1  0.466406  0.485191  0.231209  1
  Sm  Sm1  1  0.750000  0.231509  0.268491  1
  Sm  Sm2  1  0.750000  0.017647  0.482353  1
  Sm  Sm3  1  0.231209  0.466406  0.485191  1
  Sm  Sm4  1  0.268491  0.750000  0.231509  1
  Sm  Sm5  1  0.033594  0.268791  0.014809  1
  Sm  Sm6  1  0.014809  0.033594  0.268791  1
  Sm  Sm7  1  0.482353  0.750000  0.017647  1
  Sm  Sm8  1  0.485191  0.231209  0.466406  1
  Sm  Sm9  1  0.017647  0.482353  0.750000  1
  Sm  Sm10  1  0.268791  0.014809  0.033594  1
  Sm  Sm11  1  0.231509  0.268491  0.750000  1
  Ga  Ga12  1  0.250000  0.250000  0.250000  1
  Si  Si13  1  0.500040  0.999960  0.250000  1
  Si  Si14  1  0.999960  0.250000  0.500040  1
  Si  Si15  1  0.250000  0.500040  0.999960  1
  I  I16  1  0.250000  0.757223  0.742777  1
  I  I17  1  0.514413  0.507395  0.757644  1
  I  I18  1  0.985587  0.742356  0.992605  1
  I  I19  1  0.742777  0.250000  0.757223  1
  I  I20  1  0.992605  0.985587  0.742356  1
  I  I21  1  0.250000  0.992333  0.507667  1
  I  I22  1  0.757644  0.514413  0.507395  1
  I  I23  1  0.507667  0.250000  0.992333  1
  I  I24  1  0.757223  0.742777  0.250000  1
  I  I25  1  0.742356  0.992605  0.985587  1
  I  I26  1  0.992333  0.507667  0.250000  1
  I  I27  1  0.507395  0.757644  0.514413  1
