# generated using pymatgen
data_Tb2Dy3Tm3(CdPt)2
_symmetry_space_group_name_H-M   'P 1'
_cell_length_a   9.65774121
_cell_length_b   9.65774093
_cell_length_c   9.65774000
_cell_angle_alpha   59.99999633
_cell_angle_beta   59.99999729
_cell_angle_gamma   59.99999526
_symmetry_Int_Tables_number   1
_chemical_formula_structural   Tb2Dy3Tm3(CdPt)2
_chemical_formula_sum   'Tb4 Dy6 Tm6 Cd4 Pt4'
_cell_volume   636.95916349
_cell_formula_units_Z   2
loop_
 _symmetry_equiv_pos_site_id
 _symmetry_equiv_pos_as_xyz
  1  'x, y, z'
loop_
 _atom_site_type_symbol
 _atom_site_label
 _atom_site_symmetry_multiplicity
 _atom_site_fract_x
 _atom_site_fract_y
 _atom_site_fract_z
 _atom_site_occupancy
  Tb  Tb0  1  0.352606  0.352606  0.352606  1
  Tb  Tb1  1  0.352606  0.352606  0.942184  1
  Tb  Tb2  1  0.352606  0.942184  0.352606  1
  Tb  Tb3  1  0.942184  0.352606  0.352606  1
  Dy  Dy4  1  0.935122  0.564878  0.564878  1
  Dy  Dy5  1  0.564878  0.935122  0.935122  1
  Dy  Dy6  1  0.564878  0.935122  0.564878  1
  Dy  Dy7  1  0.935122  0.564877  0.935122  1
  Dy  Dy8  1  0.564878  0.564878  0.935122  1
  Dy  Dy9  1  0.935122  0.935122  0.564877  1
  Tm  Tm10  1  0.811788  0.188212  0.188212  1
  Tm  Tm11  1  0.188212  0.811788  0.811788  1
  Tm  Tm12  1  0.188212  0.811788  0.188212  1
  Tm  Tm13  1  0.811788  0.188212  0.811788  1
  Tm  Tm14  1  0.188212  0.188212  0.811788  1
  Tm  Tm15  1  0.811788  0.811788  0.188212  1
  Cd  Cd16  1  0.581890  0.581890  0.581890  1
  Cd  Cd17  1  0.581890  0.581890  0.254330  1
  Cd  Cd18  1  0.581890  0.254330  0.581890  1
  Cd  Cd19  1  0.254330  0.581890  0.581890  1
  Pt  Pt20  1  0.142007  0.142007  0.142007  1
  Pt  Pt21  1  0.142007  0.142007  0.573981  1
  Pt  Pt22  1  0.142007  0.573981  0.142007  1
  Pt  Pt23  1  0.573981  0.142007  0.142007  1
