# generated using pymatgen
data_Dy6Lu4InPb5
_symmetry_space_group_name_H-M   'P 1'
_cell_length_a   6.55681516
_cell_length_b   8.94672008
_cell_length_c   8.99415775
_cell_angle_alpha   119.82567727
_cell_angle_beta   90.01272232
_cell_angle_gamma   89.97442135
_symmetry_Int_Tables_number   1
_chemical_formula_structural   Dy6Lu4InPb5
_chemical_formula_sum   'Dy6 Lu4 In1 Pb5'
_cell_volume   457.72863299
_cell_formula_units_Z   1
loop_
 _symmetry_equiv_pos_site_id
 _symmetry_equiv_pos_as_xyz
  1  'x, y, z'
loop_
 _atom_site_type_symbol
 _atom_site_label
 _atom_site_symmetry_multiplicity
 _atom_site_fract_x
 _atom_site_fract_y
 _atom_site_fract_z
 _atom_site_occupancy
  Dy  Dy0  1  0.749906  0.237490  0.000000  1
  Dy  Dy1  1  0.749886  0.758746  0.765141  1
  Dy  Dy2  1  0.749886  0.993606  0.234859  1
  Dy  Dy3  1  0.249829  0.763713  0.000000  1
  Dy  Dy4  1  0.250034  0.239445  0.237564  1
  Dy  Dy5  1  0.250034  0.001880  0.762436  1
  Lu  Lu6  1  0.502000  0.337278  0.671353  1
  Lu  Lu7  1  0.502000  0.665925  0.328647  1
  Lu  Lu8  1  0.997784  0.665730  0.328102  1
  Lu  Lu9  1  0.997784  0.337627  0.671898  1
  In  In10  1  0.749221  0.599099  0.000000  1
  Pb  Pb11  1  0.750882  0.394766  0.395174  1
  Pb  Pb12  1  0.750882  0.999593  0.604826  1
  Pb  Pb13  1  0.249362  0.397942  0.000000  1
  Pb  Pb14  1  0.250255  0.604755  0.602348  1
  Pb  Pb15  1  0.250255  0.002406  0.397652  1
