# generated using pymatgen
data_Tb8Lu7Sc5Si15P
_symmetry_space_group_name_H-M   'P 1'
_cell_length_a   7.19124742
_cell_length_b   7.51996467
_cell_length_c   14.22284520
_cell_angle_alpha   90.10580103
_cell_angle_beta   90.06186157
_cell_angle_gamma   90.28750731
_symmetry_Int_Tables_number   1
_chemical_formula_structural   Tb8Lu7Sc5Si15P
_chemical_formula_sum   'Tb8 Lu7 Sc5 Si15 P1'
_cell_volume   769.13052646
_cell_formula_units_Z   1
loop_
 _symmetry_equiv_pos_site_id
 _symmetry_equiv_pos_as_xyz
  1  'x, y, z'
loop_
 _atom_site_type_symbol
 _atom_site_label
 _atom_site_symmetry_multiplicity
 _atom_site_fract_x
 _atom_site_fract_y
 _atom_site_fract_z
 _atom_site_occupancy
  Tb  Tb0  1  0.012083  0.176607  0.097675  1
  Tb  Tb1  1  0.990247  0.825011  0.899962  1
  Tb  Tb2  1  0.488321  0.677444  0.903199  1
  Tb  Tb3  1  0.989427  0.824873  0.600924  1
  Tb  Tb4  1  0.512321  0.322973  0.097120  1
  Tb  Tb5  1  0.011995  0.176788  0.401705  1
  Tb  Tb6  1  0.513115  0.322629  0.402095  1
  Tb  Tb7  1  0.488647  0.676828  0.596908  1
  Lu  Lu8  1  0.324810  0.172163  0.627323  1
  Lu  Lu9  1  0.670150  0.822778  0.374714  1
  Lu  Lu10  1  0.169863  0.677519  0.374954  1
  Lu  Lu11  1  0.669120  0.823176  0.123885  1
  Lu  Lu12  1  0.828938  0.323977  0.626018  1
  Lu  Lu13  1  0.324954  0.172372  0.874045  1
  Lu  Lu14  1  0.829247  0.324451  0.874961  1
  Sc  Sc15  1  0.160285  0.508800  0.750221  1
  Sc  Sc16  1  0.839157  0.493119  0.249224  1
  Sc  Sc17  1  0.338287  0.006431  0.248714  1
  Sc  Sc18  1  0.663206  0.993009  0.750213  1
  Sc  Sc19  1  0.169797  0.677459  0.125760  1
  Si  Si20  1  0.970928  0.890167  0.248307  1
  Si  Si21  1  0.467513  0.606084  0.247523  1
  Si  Si22  1  0.525628  0.391524  0.750600  1
  Si  Si23  1  0.299672  0.855584  0.750303  1
  Si  Si24  1  0.714514  0.131286  0.249333  1
  Si  Si25  1  0.214643  0.370567  0.248731  1
  Si  Si26  1  0.787375  0.634121  0.750184  1
  Si  Si27  1  0.157164  0.465714  0.540231  1
  Si  Si28  1  0.842308  0.533276  0.460848  1
  Si  Si29  1  0.341607  0.968928  0.459902  1
  Si  Si30  1  0.849866  0.534347  0.040707  1
  Si  Si31  1  0.659186  0.033384  0.540417  1
  Si  Si32  1  0.158071  0.468345  0.962916  1
  Si  Si33  1  0.660011  0.033306  0.959232  1
  Si  Si34  1  0.335000  0.963177  0.040760  1
  P  P35  1  0.022541  0.121783  0.750389  1
