# generated using pymatgen
data_BaNi(Sb4Ru)3
_symmetry_space_group_name_H-M   'P 1'
_cell_length_a   8.16843570
_cell_length_b   8.12614648
_cell_length_c   8.12614676
_cell_angle_alpha   109.36556652
_cell_angle_beta   109.57667310
_cell_angle_gamma   109.57667071
_symmetry_Int_Tables_number   1
_chemical_formula_structural   BaNi(Sb4Ru)3
_chemical_formula_sum   'Ba1 Ni1 Sb12 Ru3'
_cell_volume   414.68606990
_cell_formula_units_Z   1
loop_
 _symmetry_equiv_pos_site_id
 _symmetry_equiv_pos_as_xyz
  1  'x, y, z'
loop_
 _atom_site_type_symbol
 _atom_site_label
 _atom_site_symmetry_multiplicity
 _atom_site_fract_x
 _atom_site_fract_y
 _atom_site_fract_z
 _atom_site_occupancy
  Ba  Ba0  1  0.000000  0.000000  0.000000  1
  Ni  Ni1  1  0.500000  0.000000  0.000000  1
  Sb  Sb2  1  0.160081  0.816942  0.658864  1
  Sb  Sb3  1  0.159768  0.500828  0.341755  1
  Sb  Sb4  1  0.498783  0.658864  0.841921  1
  Sb  Sb5  1  0.343139  0.841921  0.183058  1
  Sb  Sb6  1  0.818013  0.658245  0.159072  1
  Sb  Sb7  1  0.658940  0.840928  0.499172  1
  Sb  Sb8  1  0.181987  0.341755  0.840928  1
  Sb  Sb9  1  0.656861  0.158079  0.816942  1
  Sb  Sb10  1  0.341060  0.159072  0.500828  1
  Sb  Sb11  1  0.501217  0.341136  0.158079  1
  Sb  Sb12  1  0.840232  0.499172  0.658245  1
  Sb  Sb13  1  0.839919  0.183058  0.341136  1
  Ru  Ru14  1  0.500000  0.500000  0.500000  1
  Ru  Ru15  1  0.000000  0.000000  0.500000  1
  Ru  Ru16  1  0.000000  0.500000  0.000000  1
