# generated using pymatgen
data_Lu3UGeAs5Ru7
_symmetry_space_group_name_H-M   'P 1'
_cell_length_a   7.22949807
_cell_length_b   7.16562053
_cell_length_c   7.17163571
_cell_angle_alpha   109.40962449
_cell_angle_beta   109.46492612
_cell_angle_gamma   109.73695448
_symmetry_Int_Tables_number   1
_chemical_formula_structural   Lu3UGeAs5Ru7
_chemical_formula_sum   'Lu3 U1 Ge1 As5 Ru7'
_cell_volume   285.29245878
_cell_formula_units_Z   1
loop_
 _symmetry_equiv_pos_site_id
 _symmetry_equiv_pos_as_xyz
  1  'x, y, z'
loop_
 _atom_site_type_symbol
 _atom_site_label
 _atom_site_symmetry_multiplicity
 _atom_site_fract_x
 _atom_site_fract_y
 _atom_site_fract_z
 _atom_site_occupancy
  Lu  Lu0  1  0.000933  0.000000  0.501816  1
  Lu  Lu1  1  0.001123  0.499948  0.000812  1
  Lu  Lu2  1  0.501176  0.500052  0.500864  1
  U  U3  1  0.501516  0.000000  0.001428  1
  Ge  Ge4  1  0.309249  0.000000  0.314365  1
  As  As5  1  0.006044  0.315188  0.316287  1
  As  As6  1  0.996310  0.684611  0.685550  1
  As  As7  1  0.311699  0.315389  0.000939  1
  As  As8  1  0.690856  0.684812  0.001100  1
  As  As9  1  0.684021  0.000000  0.679983  1
  Ru  Ru10  1  0.747249  0.493066  0.247340  1
  Ru  Ru11  1  0.499172  0.753359  0.245524  1
  Ru  Ru12  1  0.500511  0.248023  0.754236  1
  Ru  Ru13  1  0.745813  0.246641  0.492164  1
  Ru  Ru14  1  0.252488  0.751977  0.506214  1
  Ru  Ru15  1  0.254182  0.506934  0.754273  1
  Ru  Ru16  1  0.997655  0.000000  0.997104  1
