# generated using pymatgen
data_Pr16NdY3Sn16
_symmetry_space_group_name_H-M   'P 1'
_cell_length_a   8.31380300
_cell_length_b   8.47071667
_cell_length_c   16.07045800
_cell_angle_alpha   90.00000000
_cell_angle_beta   90.00000000
_cell_angle_gamma   89.96355349
_symmetry_Int_Tables_number   1
_chemical_formula_structural   Pr16NdY3Sn16
_chemical_formula_sum   'Pr16 Nd1 Y3 Sn16'
_cell_volume   1131.74361052
_cell_formula_units_Z   1
loop_
 _symmetry_equiv_pos_site_id
 _symmetry_equiv_pos_as_xyz
  1  'x, y, z'
loop_
 _atom_site_type_symbol
 _atom_site_label
 _atom_site_symmetry_multiplicity
 _atom_site_fract_x
 _atom_site_fract_y
 _atom_site_fract_z
 _atom_site_occupancy
  Pr  Pr0  1  0.367901  0.837025  0.879674  1
  Pr  Pr1  1  0.867202  0.663407  0.620608  1
  Pr  Pr2  1  0.632632  0.162799  0.379296  1
  Pr  Pr3  1  0.132705  0.337143  0.121465  1
  Pr  Pr4  1  0.632632  0.162799  0.120704  1
  Pr  Pr5  1  0.132705  0.337143  0.378535  1
  Pr  Pr6  1  0.367901  0.837025  0.620326  1
  Pr  Pr7  1  0.867202  0.663407  0.879392  1
  Pr  Pr8  1  0.520126  0.319099  0.901520  1
  Pr  Pr9  1  0.019408  0.179905  0.598524  1
  Pr  Pr10  1  0.480060  0.680367  0.400880  1
  Pr  Pr11  1  0.980358  0.819468  0.098705  1
  Pr  Pr12  1  0.480060  0.680367  0.099120  1
  Pr  Pr13  1  0.980358  0.819468  0.401295  1
  Pr  Pr14  1  0.520126  0.319099  0.598480  1
  Pr  Pr15  1  0.019408  0.179905  0.901476  1
  Nd  Nd16  1  0.198194  0.501392  0.750000  1
  Y  Y17  1  0.699747  0.998454  0.750000  1
  Y  Y18  1  0.800231  0.498946  0.250000  1
  Y  Y19  1  0.300066  0.000814  0.250000  1
  Sn  Sn20  1  0.292299  0.034277  0.044235  1
  Sn  Sn21  1  0.792490  0.465999  0.455840  1
  Sn  Sn22  1  0.707544  0.965781  0.543935  1
  Sn  Sn23  1  0.207502  0.535567  0.957959  1
  Sn  Sn24  1  0.707544  0.965781  0.956065  1
  Sn  Sn25  1  0.207502  0.535567  0.542041  1
  Sn  Sn26  1  0.292299  0.034277  0.455765  1
  Sn  Sn27  1  0.792490  0.465999  0.044160  1
  Sn  Sn28  1  0.568779  0.617016  0.750000  1
  Sn  Sn29  1  0.064235  0.886292  0.750000  1
  Sn  Sn30  1  0.435301  0.383726  0.250000  1
  Sn  Sn31  1  0.934840  0.116052  0.250000  1
  Sn  Sn32  1  0.327073  0.142623  0.750000  1
  Sn  Sn33  1  0.823917  0.352317  0.750000  1
  Sn  Sn34  1  0.673907  0.853718  0.250000  1
  Sn  Sn35  1  0.173260  0.646974  0.250000  1
