# generated using pymatgen
data_Sm2Dy3Ho3(Si3Rh)4
_symmetry_space_group_name_H-M   'P 1'
_cell_length_a   8.17368300
_cell_length_b   8.17368315
_cell_length_c   7.96146600
_cell_angle_alpha   90.00000000
_cell_angle_beta   90.00000000
_cell_angle_gamma   120.00000346
_symmetry_Int_Tables_number   1
_chemical_formula_structural   Sm2Dy3Ho3(Si3Rh)4
_chemical_formula_sum   'Sm2 Dy3 Ho3 Si12 Rh4'
_cell_volume   460.63745701
_cell_formula_units_Z   1
loop_
 _symmetry_equiv_pos_site_id
 _symmetry_equiv_pos_as_xyz
  1  'x, y, z'
loop_
 _atom_site_type_symbol
 _atom_site_label
 _atom_site_symmetry_multiplicity
 _atom_site_fract_x
 _atom_site_fract_y
 _atom_site_fract_z
 _atom_site_occupancy
  Sm  Sm0  1  0.000000  0.000000  0.250000  1
  Sm  Sm1  1  0.000000  0.000000  0.750000  1
  Dy  Dy2  1  0.508777  0.491223  0.250000  1
  Dy  Dy3  1  0.508777  0.017556  0.250000  1
  Dy  Dy4  1  0.982444  0.491223  0.250000  1
  Ho  Ho5  1  0.491211  0.508789  0.750000  1
  Ho  Ho6  1  0.491211  0.982422  0.750000  1
  Ho  Ho7  1  0.017578  0.508789  0.750000  1
  Si  Si8  1  0.167730  0.832270  0.500504  1
  Si  Si9  1  0.167730  0.335459  0.500504  1
  Si  Si10  1  0.664541  0.832270  0.500504  1
  Si  Si11  1  0.832276  0.167724  0.500048  1
  Si  Si12  1  0.832276  0.664553  0.500048  1
  Si  Si13  1  0.335447  0.167724  0.500048  1
  Si  Si14  1  0.832276  0.167724  0.999952  1
  Si  Si15  1  0.832276  0.664553  0.999952  1
  Si  Si16  1  0.335447  0.167724  0.999952  1
  Si  Si17  1  0.167730  0.832270  0.999496  1
  Si  Si18  1  0.167730  0.335459  0.999496  1
  Si  Si19  1  0.664541  0.832270  0.999496  1
  Rh  Rh20  1  0.333333  0.666667  0.466754  1
  Rh  Rh21  1  0.666667  0.333333  0.534679  1
  Rh  Rh22  1  0.666667  0.333333  0.965321  1
  Rh  Rh23  1  0.333333  0.666667  0.033246  1
