# generated using pymatgen
data_Pa5Ga6HgPt6
_symmetry_space_group_name_H-M   'P 1'
_cell_length_a   6.96427928
_cell_length_b   7.05064335
_cell_length_c   8.28172700
_cell_angle_alpha   90.10516276
_cell_angle_beta   89.98382553
_cell_angle_gamma   120.24042267
_symmetry_Int_Tables_number   1
_chemical_formula_structural   Pa5Ga6HgPt6
_chemical_formula_sum   'Pa5 Ga6 Hg1 Pt6'
_cell_volume   351.31635038
_cell_formula_units_Z   1
loop_
 _symmetry_equiv_pos_site_id
 _symmetry_equiv_pos_as_xyz
  1  'x, y, z'
loop_
 _atom_site_type_symbol
 _atom_site_label
 _atom_site_symmetry_multiplicity
 _atom_site_fract_x
 _atom_site_fract_y
 _atom_site_fract_z
 _atom_site_occupancy
  Pa  Pa0  1  0.414604  0.414851  0.249958  1
  Pa  Pa1  1  0.577453  0.001269  0.750002  1
  Pa  Pa2  1  0.422373  0.423663  0.749965  1
  Pa  Pa3  1  0.000073  0.577546  0.250145  1
  Pa  Pa4  1  0.585031  0.000034  0.249960  1
  Ga  Ga5  1  0.238542  0.994830  0.995728  1
  Ga  Ga6  1  0.238763  0.995016  0.504113  1
  Ga  Ga7  1  0.000094  0.248955  0.502612  1
  Ga  Ga8  1  0.000101  0.248850  0.997568  1
  Ga  Ga9  1  0.761508  0.756070  0.995647  1
  Ga  Ga10  1  0.761428  0.756012  0.504184  1
  Hg  Hg11  1  0.999863  0.583502  0.750165  1
  Pt  Pt12  1  0.659646  0.328716  0.494753  1
  Pt  Pt13  1  0.000194  0.015092  0.749909  1
  Pt  Pt14  1  0.659539  0.328616  0.005284  1
  Pt  Pt15  1  0.340369  0.669205  0.005163  1
  Pt  Pt16  1  0.340336  0.669202  0.494870  1
  Pt  Pt17  1  0.000081  0.988571  0.249975  1
