# generated using pymatgen
data_La2Pr18Ir11Ru
_symmetry_space_group_name_H-M   'P 1'
_cell_length_a   11.34354773
_cell_length_b   11.36588603
_cell_length_c   6.63130646
_cell_angle_alpha   90.00762714
_cell_angle_beta   89.82832858
_cell_angle_gamma   90.00293742
_symmetry_Int_Tables_number   1
_chemical_formula_structural   La2Pr18Ir11Ru
_chemical_formula_sum   'La2 Pr18 Ir11 Ru1'
_cell_volume   854.96698504
_cell_formula_units_Z   1
loop_
 _symmetry_equiv_pos_site_id
 _symmetry_equiv_pos_as_xyz
  1  'x, y, z'
loop_
 _atom_site_type_symbol
 _atom_site_label
 _atom_site_symmetry_multiplicity
 _atom_site_fract_x
 _atom_site_fract_y
 _atom_site_fract_z
 _atom_site_occupancy
  La  La0  1  0.292735  0.089809  0.383036  1
  La  La1  1  0.293091  0.910238  0.886417  1
  Pr  Pr2  1  0.707644  0.088938  0.884823  1
  Pr  Pr3  1  0.707847  0.911120  0.381947  1
  Pr  Pr4  1  0.589767  0.792061  0.884375  1
  Pr  Pr5  1  0.589695  0.208071  0.381558  1
  Pr  Pr6  1  0.411845  0.791106  0.381692  1
  Pr  Pr7  1  0.411791  0.208718  0.884467  1
  Pr  Pr8  1  0.208515  0.410424  0.618820  1
  Pr  Pr9  1  0.208346  0.589084  0.118449  1
  Pr  Pr10  1  0.791429  0.410563  0.117864  1
  Pr  Pr11  1  0.791304  0.589913  0.618316  1
  Pr  Pr12  1  0.910050  0.708593  0.117946  1
  Pr  Pr13  1  0.909620  0.291295  0.618349  1
  Pr  Pr14  1  0.089580  0.708221  0.618219  1
  Pr  Pr15  1  0.089139  0.291894  0.117838  1
  Pr  Pr16  1  0.999238  0.999563  0.498316  1
  Pr  Pr17  1  0.999159  0.000386  0.998119  1
  Pr  Pr18  1  0.500165  0.499882  0.998710  1
  Pr  Pr19  1  0.500192  0.500115  0.498864  1
  Ir  Ir20  1  0.846641  0.154227  0.249699  1
  Ir  Ir21  1  0.846613  0.846174  0.749323  1
  Ir  Ir22  1  0.154168  0.153833  0.747857  1
  Ir  Ir23  1  0.154198  0.845810  0.248193  1
  Ir  Ir24  1  0.653988  0.346816  0.749239  1
  Ir  Ir25  1  0.654294  0.653260  0.249614  1
  Ir  Ir26  1  0.345544  0.346363  0.250038  1
  Ir  Ir27  1  0.345894  0.653632  0.749702  1
  Ir  Ir28  1  0.499003  0.999757  0.617286  1
  Ir  Ir29  1  0.000090  0.499683  0.882689  1
  Ir  Ir30  1  0.000089  0.500305  0.383244  1
  Ru  Ru31  1  0.498323  0.000145  0.114994  1
