# generated using pymatgen
data_HoTm7(SiBr6)2
_symmetry_space_group_name_H-M   'P 1'
_cell_length_a   4.00215500
_cell_length_b   13.05804268
_cell_length_c   13.83775772
_cell_angle_alpha   89.96294564
_cell_angle_beta   90.00000000
_cell_angle_gamma   90.00000000
_symmetry_Int_Tables_number   1
_chemical_formula_structural   HoTm7(SiBr6)2
_chemical_formula_sum   'Ho1 Tm7 Si2 Br12'
_cell_volume   723.16536835
_cell_formula_units_Z   1
loop_
 _symmetry_equiv_pos_site_id
 _symmetry_equiv_pos_as_xyz
  1  'x, y, z'
loop_
 _atom_site_type_symbol
 _atom_site_label
 _atom_site_symmetry_multiplicity
 _atom_site_fract_x
 _atom_site_fract_y
 _atom_site_fract_z
 _atom_site_occupancy
  Ho  Ho0  1  0.000000  0.117626  0.578107  1
  Tm  Tm1  1  0.500000  0.117749  0.341592  1
  Tm  Tm2  1  0.500000  0.882174  0.658367  1
  Tm  Tm3  1  0.500000  0.617764  0.158375  1
  Tm  Tm4  1  0.500000  0.382224  0.841591  1
  Tm  Tm5  1  0.000000  0.882602  0.422067  1
  Tm  Tm6  1  0.000000  0.617042  0.922283  1
  Tm  Tm7  1  0.000000  0.382957  0.077714  1
  Si  Si8  1  0.500000  0.999203  0.499488  1
  Si  Si9  1  0.500000  0.499996  0.999997  1
  Br  Br10  1  0.500000  0.244202  0.162614  1
  Br  Br11  1  0.500000  0.755760  0.837358  1
  Br  Br12  1  0.500000  0.744038  0.337214  1
  Br  Br13  1  0.500000  0.256926  0.663405  1
  Br  Br14  1  0.000000  0.255909  0.410499  1
  Br  Br15  1  0.000000  0.744392  0.588828  1
  Br  Br16  1  0.000000  0.755551  0.088795  1
  Br  Br17  1  0.000000  0.244452  0.911220  1
  Br  Br18  1  0.000000  0.001853  0.242864  1
  Br  Br19  1  0.000000  0.997556  0.757608  1
  Br  Br20  1  0.000000  0.501826  0.257071  1
  Br  Br21  1  0.000000  0.498196  0.742943  1
