# generated using pymatgen
data_Tb8Er3Cd9Pd4
_symmetry_space_group_name_H-M   'P 1'
_cell_length_a   13.14147095
_cell_length_b   13.12699085
_cell_length_c   3.72181400
_cell_angle_alpha   90.00000000
_cell_angle_beta   90.00000000
_cell_angle_gamma   112.97798146
_symmetry_Int_Tables_number   1
_chemical_formula_structural   Tb8Er3Cd9Pd4
_chemical_formula_sum   'Tb8 Er3 Cd9 Pd4'
_cell_volume   591.09966843
_cell_formula_units_Z   1
loop_
 _symmetry_equiv_pos_site_id
 _symmetry_equiv_pos_as_xyz
  1  'x, y, z'
loop_
 _atom_site_type_symbol
 _atom_site_label
 _atom_site_symmetry_multiplicity
 _atom_site_fract_x
 _atom_site_fract_y
 _atom_site_fract_z
 _atom_site_occupancy
  Tb  Tb0  1  0.925413  0.584518  0.000000  1
  Tb  Tb1  1  0.163199  0.837797  0.000000  1
  Tb  Tb2  1  0.837652  0.162931  0.000000  1
  Tb  Tb3  1  0.372494  0.627500  0.000000  1
  Tb  Tb4  1  0.627311  0.372004  0.000000  1
  Tb  Tb5  1  0.307390  0.307336  0.000000  1
  Tb  Tb6  1  0.692721  0.692834  0.000000  1
  Tb  Tb7  1  0.999977  0.000331  0.000000  1
  Er  Er8  1  0.415656  0.075635  0.000000  1
  Er  Er9  1  0.584273  0.924392  0.000000  1
  Er  Er10  1  0.075648  0.415465  0.000000  1
  Cd  Cd11  1  0.367555  0.843761  0.500000  1
  Cd  Cd12  1  0.632301  0.155978  0.500000  1
  Cd  Cd13  1  0.843331  0.366599  0.500000  1
  Cd  Cd14  1  0.157287  0.632674  0.500000  1
  Cd  Cd15  1  0.214735  0.068667  0.500000  1
  Cd  Cd16  1  0.785144  0.931229  0.500000  1
  Cd  Cd17  1  0.068905  0.214971  0.500000  1
  Cd  Cd18  1  0.930770  0.785934  0.500000  1
  Cd  Cd19  1  0.499763  0.499776  0.500000  1
  Pd  Pd20  1  0.450566  0.247999  0.500000  1
  Pd  Pd21  1  0.549217  0.751922  0.500000  1
  Pd  Pd22  1  0.248251  0.450753  0.500000  1
  Pd  Pd23  1  0.750440  0.548994  0.500000  1
