# generated using pymatgen
data_La6ZnSb8Pt5
_symmetry_space_group_name_H-M   'P 1'
_cell_length_a   8.71581455
_cell_length_b   8.71571735
_cell_length_c   8.71588684
_cell_angle_alpha   109.36274254
_cell_angle_beta   109.36274688
_cell_angle_gamma   109.68751062
_symmetry_Int_Tables_number   1
_chemical_formula_structural   La6ZnSb8Pt5
_chemical_formula_sum   'La6 Zn1 Sb8 Pt5'
_cell_volume   509.68384341
_cell_formula_units_Z   1
loop_
 _symmetry_equiv_pos_site_id
 _symmetry_equiv_pos_as_xyz
  1  'x, y, z'
loop_
 _atom_site_type_symbol
 _atom_site_label
 _atom_site_symmetry_multiplicity
 _atom_site_fract_x
 _atom_site_fract_y
 _atom_site_fract_z
 _atom_site_occupancy
  La  La0  1  0.875258  0.252591  0.130481  1
  La  La1  1  0.622072  0.744724  0.369487  1
  La  La2  1  0.255275  0.124766  0.877380  1
  La  La3  1  0.747386  0.377911  0.622672  1
  La  La4  1  0.124973  0.874985  0.249971  1
  La  La5  1  0.374996  0.625016  0.750043  1
  Zn  Zn6  1  0.874999  0.124997  0.749992  1
  Sb  Sb7  1  0.667056  0.498741  0.000473  1
  Sb  Sb8  1  0.502548  0.003712  0.666252  1
  Sb  Sb9  1  0.998263  0.666574  0.499519  1
  Sb  Sb10  1  0.837462  0.836291  0.833747  1
  Sb  Sb11  1  0.501259  0.001735  0.168310  1
  Sb  Sb12  1  0.163715  0.497458  0.001165  1
  Sb  Sb13  1  0.996290  0.162541  0.498829  1
  Sb  Sb14  1  0.333422  0.332945  0.331689  1
  Pt  Pt15  1  0.374210  0.251543  0.625202  1
  Pt  Pt16  1  0.126347  0.749001  0.874797  1
  Pt  Pt17  1  0.251005  0.625801  0.377346  1
  Pt  Pt18  1  0.748458  0.873668  0.122653  1
  Pt  Pt19  1  0.625007  0.374999  0.249992  1
