# generated using pymatgen
data_Y24In15Ga
_symmetry_space_group_name_H-M   'P 1'
_cell_length_a   11.69033206
_cell_length_b   11.69033191
_cell_length_c   11.69033200
_cell_angle_alpha   116.58831801
_cell_angle_beta   116.58831766
_cell_angle_gamma   96.01831905
_symmetry_Int_Tables_number   1
_chemical_formula_structural   Y24In15Ga
_chemical_formula_sum   'Y24 In15 Ga1'
_cell_volume   1180.90847592
_cell_formula_units_Z   1
loop_
 _symmetry_equiv_pos_site_id
 _symmetry_equiv_pos_as_xyz
  1  'x, y, z'
loop_
 _atom_site_type_symbol
 _atom_site_label
 _atom_site_symmetry_multiplicity
 _atom_site_fract_x
 _atom_site_fract_y
 _atom_site_fract_z
 _atom_site_occupancy
  Y  Y0  1  0.146992  0.646992  0.500000  1
  Y  Y1  1  0.646992  0.146992  0.500000  1
  Y  Y2  1  0.853008  0.353008  0.500000  1
  Y  Y3  1  0.353008  0.853008  0.500000  1
  Y  Y4  1  0.668582  0.169561  0.838144  1
  Y  Y5  1  0.331418  0.830439  0.161856  1
  Y  Y6  1  0.169561  0.331418  0.500978  1
  Y  Y7  1  0.830439  0.668582  0.499022  1
  Y  Y8  1  0.068103  0.932704  0.266328  1
  Y  Y9  1  0.666376  0.801775  0.733672  1
  Y  Y10  1  0.568000  0.297587  0.138150  1
  Y  Y11  1  0.159437  0.429850  0.861850  1
  Y  Y12  1  0.801775  0.068103  0.135399  1
  Y  Y13  1  0.932704  0.666376  0.864601  1
  Y  Y14  1  0.429850  0.568000  0.270413  1
  Y  Y15  1  0.297587  0.159437  0.729587  1
  Y  Y16  1  0.931897  0.067296  0.733672  1
  Y  Y17  1  0.333624  0.198225  0.266328  1
  Y  Y18  1  0.432000  0.702413  0.861850  1
  Y  Y19  1  0.840563  0.570150  0.138150  1
  Y  Y20  1  0.198225  0.931897  0.864601  1
  Y  Y21  1  0.067296  0.333624  0.135399  1
  Y  Y22  1  0.570150  0.432000  0.729587  1
  Y  Y23  1  0.702413  0.840563  0.270413  1
  In  In24  1  0.749503  0.749503  0.000000  1
  In  In25  1  0.250497  0.250497  0.000000  1
  In  In26  1  0.500000  0.500000  0.000000  1
  In  In27  1  0.118100  0.617862  0.735963  1
  In  In28  1  0.881900  0.382138  0.264037  1
  In  In29  1  0.617862  0.881900  0.499762  1
  In  In30  1  0.382138  0.118100  0.500238  1
  In  In31  1  0.874868  0.375637  0.849735  1
  In  In32  1  0.525902  0.025134  0.150265  1
  In  In33  1  0.375637  0.525902  0.500768  1
  In  In34  1  0.025134  0.874868  0.499232  1
  In  In35  1  0.125132  0.624363  0.150265  1
  In  In36  1  0.474098  0.974866  0.849735  1
  In  In37  1  0.624363  0.474098  0.499232  1
  In  In38  1  0.974866  0.125132  0.500768  1
  Ga  Ga39  1  0.000000  0.000000  0.000000  1
