# generated using pymatgen
data_Ta6V11Re
_symmetry_space_group_name_H-M   'P 1'
_cell_length_a   8.85102700
_cell_length_b   8.85102605
_cell_length_c   8.12097200
_cell_angle_alpha   90.00000000
_cell_angle_beta   90.00000000
_cell_angle_gamma   119.99999234
_symmetry_Int_Tables_number   1
_chemical_formula_structural   Ta6V11Re
_chemical_formula_sum   'Ta12 V22 Re2'
_cell_volume   550.96747588
_cell_formula_units_Z   2
loop_
 _symmetry_equiv_pos_site_id
 _symmetry_equiv_pos_as_xyz
  1  'x, y, z'
loop_
 _atom_site_type_symbol
 _atom_site_label
 _atom_site_symmetry_multiplicity
 _atom_site_fract_x
 _atom_site_fract_y
 _atom_site_fract_z
 _atom_site_occupancy
  Ta  Ta0  1  0.334294  0.000000  0.062202  1
  Ta  Ta1  1  0.665706  0.000000  0.937798  1
  Ta  Ta2  1  0.000000  0.334294  0.062202  1
  Ta  Ta3  1  0.665706  0.000000  0.562202  1
  Ta  Ta4  1  0.000000  0.334294  0.437798  1
  Ta  Ta5  1  0.000000  0.665706  0.937798  1
  Ta  Ta6  1  0.334294  0.000000  0.437798  1
  Ta  Ta7  1  0.000000  0.665706  0.562202  1
  Ta  Ta8  1  0.665706  0.665706  0.062202  1
  Ta  Ta9  1  0.334294  0.334294  0.937798  1
  Ta  Ta10  1  0.334294  0.334294  0.562202  1
  Ta  Ta11  1  0.665706  0.665706  0.437798  1
  V  V12  1  0.164175  0.497166  0.750000  1
  V  V13  1  0.835825  0.502834  0.250000  1
  V  V14  1  0.502834  0.667009  0.750000  1
  V  V15  1  0.497166  0.164175  0.750000  1
  V  V16  1  0.497166  0.332991  0.250000  1
  V  V17  1  0.502834  0.835825  0.250000  1
  V  V18  1  0.332991  0.835825  0.750000  1
  V  V19  1  0.667009  0.502834  0.750000  1
  V  V20  1  0.667009  0.164175  0.250000  1
  V  V21  1  0.332991  0.497166  0.250000  1
  V  V22  1  0.835825  0.332991  0.750000  1
  V  V23  1  0.164175  0.667009  0.250000  1
  V  V24  1  0.333333  0.666667  0.500000  1
  V  V25  1  0.666667  0.333333  0.500000  1
  V  V26  1  0.666667  0.333333  0.000000  1
  V  V27  1  0.333333  0.666667  0.000000  1
  V  V28  1  0.172045  0.000000  0.750000  1
  V  V29  1  0.827955  0.000000  0.250000  1
  V  V30  1  0.000000  0.172045  0.750000  1
  V  V31  1  0.000000  0.827955  0.250000  1
  V  V32  1  0.827955  0.827955  0.750000  1
  V  V33  1  0.172045  0.172045  0.250000  1
  Re  Re34  1  0.000000  0.000000  0.500000  1
  Re  Re35  1  0.000000  0.000000  0.000000  1
