# generated using pymatgen
data_La11In9(IrPd)2
_symmetry_space_group_name_H-M   'P 1'
_cell_length_a   13.48078700
_cell_length_b   13.57231929
_cell_length_c   3.89656800
_cell_angle_alpha   90.00000000
_cell_angle_beta   90.00000000
_cell_angle_gamma   111.98153723
_symmetry_Int_Tables_number   1
_chemical_formula_structural   La11In9(IrPd)2
_chemical_formula_sum   'La11 In9 Ir2 Pd2'
_cell_volume   661.11034065
_cell_formula_units_Z   1
loop_
 _symmetry_equiv_pos_site_id
 _symmetry_equiv_pos_as_xyz
  1  'x, y, z'
loop_
 _atom_site_type_symbol
 _atom_site_label
 _atom_site_symmetry_multiplicity
 _atom_site_fract_x
 _atom_site_fract_y
 _atom_site_fract_z
 _atom_site_occupancy
  La  La0  1  0.500000  0.500000  0.500000  1
  La  La1  1  0.815282  0.808510  0.500000  1
  La  La2  1  0.184718  0.191490  0.500000  1
  La  La3  1  0.571474  0.918333  0.500000  1
  La  La4  1  0.428526  0.081667  0.500000  1
  La  La5  1  0.919324  0.576480  0.500000  1
  La  La6  1  0.080676  0.423520  0.500000  1
  La  La7  1  0.122505  0.868044  0.500000  1
  La  La8  1  0.877495  0.131956  0.500000  1
  La  La9  1  0.339399  0.658630  0.500000  1
  La  La10  1  0.660601  0.341370  0.500000  1
  In  In11  1  0.338419  0.866995  0.000000  1
  In  In12  1  0.661581  0.133005  0.000000  1
  In  In13  1  0.864867  0.335717  0.000000  1
  In  In14  1  0.135133  0.664283  0.000000  1
  In  In15  1  0.576361  0.718812  0.000000  1
  In  In16  1  0.423639  0.281188  0.000000  1
  In  In17  1  0.719813  0.579039  0.000000  1
  In  In18  1  0.280187  0.420961  0.000000  1
  In  In19  1  0.000000  0.000000  0.000000  1
  Ir  Ir20  1  0.948699  0.742474  0.000000  1
  Ir  Ir21  1  0.051301  0.257526  0.000000  1
  Pd  Pd22  1  0.748807  0.951969  0.000000  1
  Pd  Pd23  1  0.251193  0.048031  0.000000  1
