# generated using pymatgen
data_AcAl2Au3
_symmetry_space_group_name_H-M   'P 1'
_cell_length_a   5.63107800
_cell_length_b   6.96596100
_cell_length_c   13.21342900
_cell_angle_alpha   90.00000000
_cell_angle_beta   90.00000000
_cell_angle_gamma   90.00000000
_symmetry_Int_Tables_number   1
_chemical_formula_structural   AcAl2Au3
_chemical_formula_sum   'Ac4 Al8 Au12'
_cell_volume   518.30824472
_cell_formula_units_Z   4
loop_
 _symmetry_equiv_pos_site_id
 _symmetry_equiv_pos_as_xyz
  1  'x, y, z'
loop_
 _atom_site_type_symbol
 _atom_site_label
 _atom_site_symmetry_multiplicity
 _atom_site_fract_x
 _atom_site_fract_y
 _atom_site_fract_z
 _atom_site_occupancy
  Ac  Ac0  1  0.250000  0.670216  0.909583  1
  Ac  Ac1  1  0.250000  0.829784  0.409583  1
  Ac  Ac2  1  0.750000  0.329784  0.090417  1
  Ac  Ac3  1  0.750000  0.170216  0.590417  1
  Al  Al4  1  0.999945  0.143186  0.847287  1
  Al  Al5  1  0.500055  0.356814  0.347287  1
  Al  Al6  1  0.499945  0.856814  0.152713  1
  Al  Al7  1  0.000055  0.643186  0.652713  1
  Al  Al8  1  0.000055  0.856814  0.152713  1
  Al  Al9  1  0.499945  0.643186  0.652713  1
  Al  Al10  1  0.500055  0.143186  0.847287  1
  Al  Al11  1  0.999945  0.356814  0.347287  1
  Au  Au12  1  0.250000  0.353722  0.720105  1
  Au  Au13  1  0.250000  0.146278  0.220105  1
  Au  Au14  1  0.750000  0.646278  0.279895  1
  Au  Au15  1  0.750000  0.853722  0.779895  1
  Au  Au16  1  0.250000  0.949310  0.681106  1
  Au  Au17  1  0.250000  0.550690  0.181106  1
  Au  Au18  1  0.750000  0.050690  0.318894  1
  Au  Au19  1  0.750000  0.449310  0.818894  1
  Au  Au20  1  0.250000  0.391031  0.507553  1
  Au  Au21  1  0.250000  0.108969  0.007553  1
  Au  Au22  1  0.750000  0.608969  0.492447  1
  Au  Au23  1  0.750000  0.891031  0.992447  1
