# generated using pymatgen
data_Y3Tc(P3Rh4)2
_symmetry_space_group_name_H-M   'P 1'
_cell_length_a   3.93382500
_cell_length_b   11.14512600
_cell_length_c   12.79110400
_cell_angle_alpha   90.00000000
_cell_angle_beta   90.00000000
_cell_angle_gamma   90.00000000
_symmetry_Int_Tables_number   1
_chemical_formula_structural   Y3Tc(P3Rh4)2
_chemical_formula_sum   'Y6 Tc2 P12 Rh16'
_cell_volume   560.80005656
_cell_formula_units_Z   2
loop_
 _symmetry_equiv_pos_site_id
 _symmetry_equiv_pos_as_xyz
  1  'x, y, z'
loop_
 _atom_site_type_symbol
 _atom_site_label
 _atom_site_symmetry_multiplicity
 _atom_site_fract_x
 _atom_site_fract_y
 _atom_site_fract_z
 _atom_site_occupancy
  Y  Y0  1  0.000000  0.500000  0.520899  1
  Y  Y1  1  0.500000  0.000000  0.479101  1
  Y  Y2  1  0.500000  0.816181  0.205326  1
  Y  Y3  1  0.500000  0.183819  0.205326  1
  Y  Y4  1  0.000000  0.683819  0.794674  1
  Y  Y5  1  0.000000  0.316181  0.794674  1
  Tc  Tc6  1  0.500000  0.500000  0.159419  1
  Tc  Tc7  1  0.000000  0.000000  0.840581  1
  P  P8  1  0.500000  0.500000  0.877606  1
  P  P9  1  0.000000  0.000000  0.122394  1
  P  P10  1  0.500000  0.500000  0.346255  1
  P  P11  1  0.000000  0.000000  0.653745  1
  P  P12  1  0.500000  0.315371  0.618716  1
  P  P13  1  0.500000  0.684629  0.618716  1
  P  P14  1  0.000000  0.184629  0.381284  1
  P  P15  1  0.000000  0.815371  0.381284  1
  P  P16  1  0.500000  0.848286  0.888694  1
  P  P17  1  0.500000  0.151714  0.888694  1
  P  P18  1  0.000000  0.651714  0.111306  1
  P  P19  1  0.000000  0.348286  0.111306  1
  Rh  Rh20  1  0.500000  0.500000  0.701155  1
  Rh  Rh21  1  0.000000  0.000000  0.298845  1
  Rh  Rh22  1  0.000000  0.500000  0.988866  1
  Rh  Rh23  1  0.500000  0.000000  0.011134  1
  Rh  Rh24  1  0.500000  0.331421  0.985189  1
  Rh  Rh25  1  0.500000  0.668579  0.985189  1
  Rh  Rh26  1  0.000000  0.168579  0.014811  1
  Rh  Rh27  1  0.000000  0.831421  0.014811  1
  Rh  Rh28  1  0.500000  0.296138  0.432111  1
  Rh  Rh29  1  0.500000  0.703862  0.432111  1
  Rh  Rh30  1  0.000000  0.203862  0.567889  1
  Rh  Rh31  1  0.000000  0.796138  0.567889  1
  Rh  Rh32  1  0.500000  0.875489  0.709553  1
  Rh  Rh33  1  0.500000  0.124511  0.709553  1
  Rh  Rh34  1  0.000000  0.624511  0.290447  1
  Rh  Rh35  1  0.000000  0.375489  0.290447  1
