# generated using pymatgen
data_Y2Er2Zn4Ir3Pd
_symmetry_space_group_name_H-M   'P 1'
_cell_length_a   4.08287800
_cell_length_b   6.98184687
_cell_length_c   8.10138923
_cell_angle_alpha   89.95234212
_cell_angle_beta   90.00000000
_cell_angle_gamma   90.00000000
_symmetry_Int_Tables_number   1
_chemical_formula_structural   Y2Er2Zn4Ir3Pd
_chemical_formula_sum   'Y2 Er2 Zn4 Ir3 Pd1'
_cell_volume   230.93835629
_cell_formula_units_Z   1
loop_
 _symmetry_equiv_pos_site_id
 _symmetry_equiv_pos_as_xyz
  1  'x, y, z'
loop_
 _atom_site_type_symbol
 _atom_site_label
 _atom_site_symmetry_multiplicity
 _atom_site_fract_x
 _atom_site_fract_y
 _atom_site_fract_z
 _atom_site_occupancy
  Y  Y0  1  0.250000  0.544891  0.185464  1
  Y  Y1  1  0.750000  0.469993  0.809150  1
  Er  Er2  1  0.250000  0.028588  0.324054  1
  Er  Er3  1  0.750000  0.964342  0.682772  1
  Zn  Zn4  1  0.250000  0.641216  0.565943  1
  Zn  Zn5  1  0.250000  0.137931  0.932085  1
  Zn  Zn6  1  0.750000  0.359013  0.435764  1
  Zn  Zn7  1  0.750000  0.858078  0.066386  1
  Ir  Ir8  1  0.250000  0.253539  0.619198  1
  Ir  Ir9  1  0.250000  0.760290  0.880108  1
  Ir  Ir10  1  0.750000  0.743808  0.379607  1
  Pd  Pd11  1  0.750000  0.238308  0.119470  1
