# generated using pymatgen
data_Pr16In3AgRh4
_symmetry_space_group_name_H-M   'P 1'
_cell_length_a   10.02648685
_cell_length_b   10.02648646
_cell_length_c   10.02648728
_cell_angle_alpha   59.79877889
_cell_angle_beta   59.79877894
_cell_angle_gamma   59.79877191
_symmetry_Int_Tables_number   1
_chemical_formula_structural   Pr16In3AgRh4
_chemical_formula_sum   'Pr16 In3 Ag1 Rh4'
_cell_volume   709.48460653
_cell_formula_units_Z   1
loop_
 _symmetry_equiv_pos_site_id
 _symmetry_equiv_pos_as_xyz
  1  'x, y, z'
loop_
 _atom_site_type_symbol
 _atom_site_label
 _atom_site_symmetry_multiplicity
 _atom_site_fract_x
 _atom_site_fract_y
 _atom_site_fract_z
 _atom_site_occupancy
  Pr  Pr0  1  0.598103  0.598103  0.598103  1
  Pr  Pr1  1  0.600306  0.600306  0.200639  1
  Pr  Pr2  1  0.600306  0.200639  0.600306  1
  Pr  Pr3  1  0.200639  0.600306  0.600306  1
  Pr  Pr4  1  0.058504  0.441196  0.441196  1
  Pr  Pr5  1  0.439339  0.059456  0.059456  1
  Pr  Pr6  1  0.441196  0.058504  0.441196  1
  Pr  Pr7  1  0.059456  0.439339  0.059456  1
  Pr  Pr8  1  0.441196  0.441196  0.058504  1
  Pr  Pr9  1  0.059456  0.059456  0.439339  1
  Pr  Pr10  1  0.188356  0.811352  0.811352  1
  Pr  Pr11  1  0.808951  0.189914  0.189914  1
  Pr  Pr12  1  0.811352  0.188356  0.811352  1
  Pr  Pr13  1  0.189914  0.808951  0.189914  1
  Pr  Pr14  1  0.811352  0.811352  0.188356  1
  Pr  Pr15  1  0.189914  0.189914  0.808951  1
  In  In16  1  0.830628  0.830628  0.510011  1
  In  In17  1  0.830628  0.510011  0.830628  1
  In  In18  1  0.510011  0.830628  0.830628  1
  Ag  Ag19  1  0.831032  0.831032  0.831032  1
  Rh  Rh20  1  0.392241  0.392241  0.392241  1
  Rh  Rh21  1  0.391720  0.391720  0.823678  1
  Rh  Rh22  1  0.391720  0.823678  0.391720  1
  Rh  Rh23  1  0.823678  0.391720  0.391720  1
