# generated using pymatgen
data_Y6VMoO12
_symmetry_space_group_name_H-M   'P 1'
_cell_length_a   6.59751932
_cell_length_b   6.59751843
_cell_length_c   6.59751900
_cell_angle_alpha   92.64623970
_cell_angle_beta   92.64623066
_cell_angle_gamma   92.64623667
_symmetry_Int_Tables_number   1
_chemical_formula_structural   Y6VMoO12
_chemical_formula_sum   'Y6 V1 Mo1 O12'
_cell_volume   286.22386980
_cell_formula_units_Z   1
loop_
 _symmetry_equiv_pos_site_id
 _symmetry_equiv_pos_as_xyz
  1  'x, y, z'
loop_
 _atom_site_type_symbol
 _atom_site_label
 _atom_site_symmetry_multiplicity
 _atom_site_fract_x
 _atom_site_fract_y
 _atom_site_fract_z
 _atom_site_occupancy
  Y  Y0  1  0.742366  0.926773  0.436315  1
  Y  Y1  1  0.926773  0.436315  0.742366  1
  Y  Y2  1  0.436315  0.742366  0.926773  1
  Y  Y3  1  0.257634  0.073227  0.563685  1
  Y  Y4  1  0.073227  0.563685  0.257634  1
  Y  Y5  1  0.563685  0.257634  0.073227  1
  V  V6  1  0.500000  0.500000  0.500000  1
  Mo  Mo7  1  0.000000  0.000000  0.000000  1
  O  O8  1  0.588647  0.460679  0.800232  1
  O  O9  1  0.460679  0.800232  0.588647  1
  O  O10  1  0.800232  0.588647  0.460679  1
  O  O11  1  0.411353  0.539321  0.199768  1
  O  O12  1  0.539321  0.199768  0.411353  1
  O  O13  1  0.199768  0.411353  0.539321  1
  O  O14  1  0.068591  0.912048  0.311036  1
  O  O15  1  0.912048  0.311036  0.068591  1
  O  O16  1  0.688964  0.931409  0.087952  1
  O  O17  1  0.087952  0.688964  0.931409  1
  O  O18  1  0.931409  0.087952  0.688964  1
  O  O19  1  0.311036  0.068591  0.912048  1
