# generated using pymatgen
data_SmHo3Al14(Ga2Ir3)2
_symmetry_space_group_name_H-M   'P 1'
_cell_length_a   7.53327422
_cell_length_b   7.54028174
_cell_length_c   9.55341900
_cell_angle_alpha   90.00000000
_cell_angle_beta   90.00000000
_cell_angle_gamma   119.44611065
_symmetry_Int_Tables_number   1
_chemical_formula_structural   SmHo3Al14(Ga2Ir3)2
_chemical_formula_sum   'Sm1 Ho3 Al14 Ga4 Ir6'
_cell_volume   472.56091814
_cell_formula_units_Z   1
loop_
 _symmetry_equiv_pos_site_id
 _symmetry_equiv_pos_as_xyz
  1  'x, y, z'
loop_
 _atom_site_type_symbol
 _atom_site_label
 _atom_site_symmetry_multiplicity
 _atom_site_fract_x
 _atom_site_fract_y
 _atom_site_fract_z
 _atom_site_occupancy
  Sm  Sm0  1  0.994347  0.670681  0.250000  1
  Ho  Ho1  1  0.002639  0.324717  0.750000  1
  Ho  Ho2  1  0.671810  0.994488  0.250000  1
  Ho  Ho3  1  0.324706  0.003570  0.750000  1
  Al  Al4  1  0.003243  0.334457  0.071044  1
  Al  Al5  1  0.999400  0.664067  0.924529  1
  Al  Al6  1  0.999400  0.664067  0.575471  1
  Al  Al7  1  0.336495  0.003976  0.428964  1
  Al  Al8  1  0.003243  0.334457  0.428956  1
  Al  Al9  1  0.664063  0.999562  0.573769  1
  Al  Al10  1  0.664063  0.999562  0.926231  1
  Al  Al11  1  0.336495  0.003976  0.071036  1
  Al  Al12  1  0.333592  0.333767  0.560399  1
  Al  Al13  1  0.665396  0.666038  0.453858  1
  Al  Al14  1  0.665396  0.666038  0.046142  1
  Al  Al15  1  0.333592  0.333767  0.939601  1
  Al  Al16  1  0.662350  0.449939  0.750000  1
  Al  Al17  1  0.449670  0.663345  0.750000  1
  Ga  Ga18  1  0.130220  0.131339  0.250000  1
  Ga  Ga19  1  0.865105  0.866227  0.750000  1
  Ga  Ga20  1  0.343088  0.548837  0.250000  1
  Ga  Ga21  1  0.546566  0.338172  0.250000  1
  Ir  Ir22  1  0.672390  0.328780  0.997232  1
  Ir  Ir23  1  0.329178  0.672581  0.997343  1
  Ir  Ir24  1  0.329178  0.672581  0.502657  1
  Ir  Ir25  1  0.672390  0.328780  0.502768  1
  Ir  Ir26  1  0.000992  0.001116  0.998644  1
  Ir  Ir27  1  0.000992  0.001116  0.501356  1
