# generated using pymatgen
data_Tb2Lu5Pa(ReB6)4
_symmetry_space_group_name_H-M   'P 1'
_cell_length_a   3.65608100
_cell_length_b   9.09963738
_cell_length_c   11.47535000
_cell_angle_alpha   90.13098302
_cell_angle_beta   90.00000000
_cell_angle_gamma   90.00000000
_symmetry_Int_Tables_number   1
_chemical_formula_structural   Tb2Lu5Pa(ReB6)4
_chemical_formula_sum   'Tb2 Lu5 Pa1 Re4 B24'
_cell_volume   381.77255182
_cell_formula_units_Z   1
loop_
 _symmetry_equiv_pos_site_id
 _symmetry_equiv_pos_as_xyz
  1  'x, y, z'
loop_
 _atom_site_type_symbol
 _atom_site_label
 _atom_site_symmetry_multiplicity
 _atom_site_fract_x
 _atom_site_fract_y
 _atom_site_fract_z
 _atom_site_occupancy
  Tb  Tb0  1  0.000000  0.679881  0.586888  1
  Tb  Tb1  1  0.000000  0.822772  0.085415  1
  Lu  Lu2  1  0.000000  0.175989  0.913479  1
  Lu  Lu3  1  0.000000  0.943104  0.371577  1
  Lu  Lu4  1  0.000000  0.055555  0.629399  1
  Lu  Lu5  1  0.000000  0.443302  0.127049  1
  Lu  Lu6  1  0.000000  0.556720  0.870694  1
  Pa  Pa7  1  0.000000  0.322778  0.414067  1
  Re  Re8  1  0.000000  0.636012  0.320861  1
  Re  Re9  1  0.000000  0.360886  0.677855  1
  Re  Re10  1  0.000000  0.141634  0.181678  1
  Re  Re11  1  0.000000  0.862107  0.820690  1
  B  B12  1  0.500000  0.552798  0.431682  1
  B  B13  1  0.500000  0.444911  0.567554  1
  B  B14  1  0.500000  0.054789  0.066864  1
  B  B15  1  0.500000  0.947812  0.933334  1
  B  B16  1  0.500000  0.750467  0.418040  1
  B  B17  1  0.500000  0.249080  0.581694  1
  B  B18  1  0.500000  0.250180  0.079681  1
  B  B19  1  0.500000  0.749755  0.918546  1
  B  B20  1  0.500000  0.792311  0.265703  1
  B  B21  1  0.500000  0.206939  0.735778  1
  B  B22  1  0.500000  0.292453  0.234085  1
  B  B23  1  0.500000  0.707713  0.765875  1
  B  B24  1  0.500000  0.629903  0.184222  1
  B  B25  1  0.500000  0.369377  0.815623  1
  B  B26  1  0.500000  0.131250  0.315392  1
  B  B27  1  0.500000  0.870384  0.685777  1
  B  B28  1  0.500000  0.982726  0.212745  1
  B  B29  1  0.500000  0.019364  0.788179  1
  B  B30  1  0.500000  0.481902  0.286582  1
  B  B31  1  0.500000  0.517679  0.713933  1
  B  B32  1  0.500000  0.598910  0.026928  1
  B  B33  1  0.500000  0.399195  0.971382  1
  B  B34  1  0.500000  0.101339  0.472204  1
  B  B35  1  0.500000  0.898022  0.528540  1
