# generated using pymatgen
data_Tb4Al16GaSiIr6
_symmetry_space_group_name_H-M   'P 1'
_cell_length_a   7.54849781
_cell_length_b   7.54850653
_cell_length_c   9.44358600
_cell_angle_alpha   90.00000000
_cell_angle_beta   90.00000000
_cell_angle_gamma   119.50778169
_symmetry_Int_Tables_number   1
_chemical_formula_structural   Tb4Al16GaSiIr6
_chemical_formula_sum   'Tb4 Al16 Ga1 Si1 Ir6'
_cell_volume   468.29757329
_cell_formula_units_Z   1
loop_
 _symmetry_equiv_pos_site_id
 _symmetry_equiv_pos_as_xyz
  1  'x, y, z'
loop_
 _atom_site_type_symbol
 _atom_site_label
 _atom_site_symmetry_multiplicity
 _atom_site_fract_x
 _atom_site_fract_y
 _atom_site_fract_z
 _atom_site_occupancy
  Tb  Tb0  1  0.995154  0.673667  0.250000  1
  Tb  Tb1  1  0.005006  0.324147  0.750000  1
  Tb  Tb2  1  0.673662  0.995152  0.250000  1
  Tb  Tb3  1  0.324144  0.005003  0.750000  1
  Al  Al4  1  0.001980  0.335407  0.074182  1
  Al  Al5  1  0.998376  0.662422  0.923715  1
  Al  Al6  1  0.998376  0.662422  0.576285  1
  Al  Al7  1  0.335406  0.001980  0.425821  1
  Al  Al8  1  0.001980  0.335407  0.425818  1
  Al  Al9  1  0.662422  0.998374  0.576285  1
  Al  Al10  1  0.662422  0.998374  0.923715  1
  Al  Al11  1  0.335406  0.001980  0.074179  1
  Al  Al12  1  0.335823  0.335823  0.553884  1
  Al  Al13  1  0.666135  0.666134  0.445712  1
  Al  Al14  1  0.666135  0.666134  0.054288  1
  Al  Al15  1  0.335823  0.335823  0.946116  1
  Al  Al16  1  0.338130  0.549461  0.250000  1
  Al  Al17  1  0.663464  0.450971  0.750000  1
  Al  Al18  1  0.549460  0.338129  0.250000  1
  Al  Al19  1  0.450970  0.663464  0.750000  1
  Ga  Ga20  1  0.131884  0.131879  0.250000  1
  Si  Si21  1  0.868122  0.868123  0.750000  1
  Ir  Ir22  1  0.672331  0.329125  0.999627  1
  Ir  Ir23  1  0.329121  0.672330  0.999626  1
  Ir  Ir24  1  0.329121  0.672330  0.500374  1
  Ir  Ir25  1  0.672331  0.329125  0.500373  1
  Ir  Ir26  1  0.998408  0.998409  0.990955  1
  Ir  Ir27  1  0.998408  0.998409  0.509045  1
