# generated using pymatgen
data_Na4SbRhO6
_symmetry_space_group_name_H-M   'P 1'
_cell_length_a   5.51790107
_cell_length_b   5.51790112
_cell_length_c   5.74209969
_cell_angle_alpha   99.37297132
_cell_angle_beta   99.37297733
_cell_angle_gamma   119.97667690
_symmetry_Int_Tables_number   1
_chemical_formula_structural   Na4SbRhO6
_chemical_formula_sum   'Na4 Sb1 Rh1 O6'
_cell_volume   143.19083386
_cell_formula_units_Z   1
loop_
 _symmetry_equiv_pos_site_id
 _symmetry_equiv_pos_as_xyz
  1  'x, y, z'
loop_
 _atom_site_type_symbol
 _atom_site_label
 _atom_site_symmetry_multiplicity
 _atom_site_fract_x
 _atom_site_fract_y
 _atom_site_fract_z
 _atom_site_occupancy
  Na  Na0  1  0.500547  0.499455  0.000000  1
  Na  Na1  1  0.991776  0.008223  0.499999  1
  Na  Na2  1  0.661135  0.338865  0.499999  1
  Na  Na3  1  0.343399  0.656601  0.499999  1
  Sb  Sb4  1  0.167373  0.832628  0.000000  1
  Rh  Rh5  1  0.833164  0.166838  0.000000  1
  O  O6  1  0.209130  0.199591  0.209539  1
  O  O7  1  0.562520  0.933259  0.208891  1
  O  O8  1  0.942950  0.579146  0.208432  1
  O  O9  1  0.420854  0.057050  0.791569  1
  O  O10  1  0.066741  0.437481  0.791109  1
  O  O11  1  0.800410  0.790870  0.790461  1
