# generated using pymatgen
data_Ho(Tc2Ge)2
_symmetry_space_group_name_H-M   'P 1'
_cell_length_a   7.42668800
_cell_length_b   7.42668800
_cell_length_c   4.22312500
_cell_angle_alpha   90.00000000
_cell_angle_beta   90.00000000
_cell_angle_gamma   90.00000000
_symmetry_Int_Tables_number   1
_chemical_formula_structural   Ho(Tc2Ge)2
_chemical_formula_sum   'Ho2 Tc8 Ge4'
_cell_volume   232.92939297
_cell_formula_units_Z   2
loop_
 _symmetry_equiv_pos_site_id
 _symmetry_equiv_pos_as_xyz
  1  'x, y, z'
loop_
 _atom_site_type_symbol
 _atom_site_label
 _atom_site_symmetry_multiplicity
 _atom_site_fract_x
 _atom_site_fract_y
 _atom_site_fract_z
 _atom_site_occupancy
  Ho  Ho0  1  0.000000  0.000000  0.000000  1
  Ho  Ho1  1  0.500000  0.500000  0.500000  1
  Tc  Tc2  1  0.596069  0.150782  0.000000  1
  Tc  Tc3  1  0.403931  0.849218  0.000000  1
  Tc  Tc4  1  0.650782  0.903931  0.500000  1
  Tc  Tc5  1  0.096069  0.349218  0.500000  1
  Tc  Tc6  1  0.349218  0.096069  0.500000  1
  Tc  Tc7  1  0.903931  0.650782  0.500000  1
  Tc  Tc8  1  0.150782  0.596069  0.000000  1
  Tc  Tc9  1  0.849218  0.403931  0.000000  1
  Ge  Ge10  1  0.292456  0.292456  0.000000  1
  Ge  Ge11  1  0.707544  0.707544  0.000000  1
  Ge  Ge12  1  0.792456  0.207544  0.500000  1
  Ge  Ge13  1  0.207544  0.792456  0.500000  1
