# generated using pymatgen
data_Hf8Fe8Si13As
_symmetry_space_group_name_H-M   'P 1'
_cell_length_a   9.49361554
_cell_length_b   9.49492131
_cell_length_c   9.49485906
_cell_angle_alpha   94.06125975
_cell_angle_beta   94.05198153
_cell_angle_gamma   149.14632589
_symmetry_Int_Tables_number   1
_chemical_formula_structural   Hf8Fe8Si13As
_chemical_formula_sum   'Hf8 Fe8 Si13 As1'
_cell_volume   423.12810220
_cell_formula_units_Z   1
loop_
 _symmetry_equiv_pos_site_id
 _symmetry_equiv_pos_as_xyz
  1  'x, y, z'
loop_
 _atom_site_type_symbol
 _atom_site_label
 _atom_site_symmetry_multiplicity
 _atom_site_fract_x
 _atom_site_fract_y
 _atom_site_fract_z
 _atom_site_occupancy
  Hf  Hf0  1  0.138048  0.138042  0.276117  1
  Hf  Hf1  1  0.862415  0.862373  0.724791  1
  Hf  Hf2  1  0.138079  0.862085  0.999945  1
  Hf  Hf3  1  0.861870  0.137933  0.999974  1
  Hf  Hf4  1  0.303624  0.502329  0.805758  1
  Hf  Hf5  1  0.696288  0.499619  0.195756  1
  Hf  Hf6  1  0.499464  0.696206  0.195739  1
  Hf  Hf7  1  0.502086  0.303409  0.805735  1
  Fe  Fe8  1  0.101910  0.601915  0.203560  1
  Fe  Fe9  1  0.398537  0.898509  0.797099  1
  Fe  Fe10  1  0.895409  0.098979  0.498723  1
  Fe  Fe11  1  0.603281  0.399664  0.498643  1
  Fe  Fe12  1  0.601610  0.101563  0.203175  1
  Fe  Fe13  1  0.898617  0.398561  0.797189  1
  Fe  Fe14  1  0.099039  0.895211  0.498733  1
  Fe  Fe15  1  0.399598  0.603415  0.498814  1
  Si  Si16  1  0.708122  0.708140  0.416356  1
  Si  Si17  1  0.290389  0.710947  0.001653  1
  Si  Si18  1  0.711321  0.290759  0.001696  1
  Si  Si19  1  0.090938  0.498247  0.589989  1
  Si  Si20  1  0.908026  0.499352  0.408094  1
  Si  Si21  1  0.500088  0.908711  0.408233  1
  Si  Si22  1  0.499150  0.091849  0.590036  1
  Si  Si23  1  0.249909  0.249926  0.999592  1
  Si  Si24  1  0.749677  0.749715  0.999595  1
  Si  Si25  1  0.300469  0.999704  0.299794  1
  Si  Si26  1  0.700479  0.999948  0.700058  1
  Si  Si27  1  0.999542  0.700057  0.700089  1
  Si  Si28  1  0.999418  0.300262  0.299887  1
  As  As29  1  0.292598  0.292571  0.585175  1
