# generated using pymatgen
data_Pr9Dy(Tl3Br)2
_symmetry_space_group_name_H-M   'P 1'
_cell_length_a   9.55930200
_cell_length_b   9.55930168
_cell_length_c   6.87368700
_cell_angle_alpha   90.00000000
_cell_angle_beta   90.00000000
_cell_angle_gamma   120.00000112
_symmetry_Int_Tables_number   1
_chemical_formula_structural   Pr9Dy(Tl3Br)2
_chemical_formula_sum   'Pr9 Dy1 Tl6 Br2'
_cell_volume   543.96721893
_cell_formula_units_Z   1
loop_
 _symmetry_equiv_pos_site_id
 _symmetry_equiv_pos_as_xyz
  1  'x, y, z'
loop_
 _atom_site_type_symbol
 _atom_site_label
 _atom_site_symmetry_multiplicity
 _atom_site_fract_x
 _atom_site_fract_y
 _atom_site_fract_z
 _atom_site_occupancy
  Pr  Pr0  1  0.733745  0.732934  0.248618  1
  Pr  Pr1  1  0.333333  0.666667  0.500000  1
  Pr  Pr2  1  0.267066  0.266255  0.751382  1
  Pr  Pr3  1  0.999189  0.266255  0.248618  1
  Pr  Pr4  1  0.666667  0.333333  0.500000  1
  Pr  Pr5  1  0.267066  0.000811  0.248618  1
  Pr  Pr6  1  0.733745  0.000811  0.751382  1
  Pr  Pr7  1  0.333333  0.666667  0.000000  1
  Pr  Pr8  1  0.999189  0.732934  0.751382  1
  Dy  Dy9  1  0.666667  0.333333  0.000000  1
  Tl  Tl10  1  0.392702  0.388473  0.246627  1
  Tl  Tl11  1  0.611527  0.607298  0.753373  1
  Tl  Tl12  1  0.392702  0.004229  0.753373  1
  Tl  Tl13  1  0.995771  0.607298  0.246627  1
  Tl  Tl14  1  0.611527  0.004229  0.246627  1
  Tl  Tl15  1  0.995771  0.388473  0.753373  1
  Br  Br16  1  0.000000  0.000000  0.000000  1
  Br  Br17  1  0.000000  0.000000  0.500000  1
