# generated using pymatgen
data_Dy3YAlPt
_symmetry_space_group_name_H-M   'P 1'
_cell_length_a   9.61693255
_cell_length_b   9.62078078
_cell_length_c   9.62078065
_cell_angle_alpha   59.97354351
_cell_angle_beta   60.01323618
_cell_angle_gamma   60.01323188
_symmetry_Int_Tables_number   1
_chemical_formula_structural   Dy3YAlPt
_chemical_formula_sum   'Dy12 Y4 Al4 Pt4'
_cell_volume   629.42226727
_cell_formula_units_Z   4
loop_
 _symmetry_equiv_pos_site_id
 _symmetry_equiv_pos_as_xyz
  1  'x, y, z'
loop_
 _atom_site_type_symbol
 _atom_site_label
 _atom_site_symmetry_multiplicity
 _atom_site_fract_x
 _atom_site_fract_y
 _atom_site_fract_z
 _atom_site_occupancy
  Dy  Dy0  1  0.353728  0.354123  0.354123  1
  Dy  Dy1  1  0.354123  0.353728  0.938025  1
  Dy  Dy2  1  0.354123  0.938025  0.353728  1
  Dy  Dy3  1  0.938025  0.354123  0.354123  1
  Dy  Dy4  1  0.806747  0.193253  0.193253  1
  Dy  Dy5  1  0.193253  0.806747  0.806747  1
  Dy  Dy6  1  0.192971  0.807029  0.192971  1
  Dy  Dy7  1  0.807029  0.192971  0.807029  1
  Dy  Dy8  1  0.192971  0.192971  0.807029  1
  Dy  Dy9  1  0.807029  0.807029  0.192971  1
  Dy  Dy10  1  0.936503  0.563497  0.563497  1
  Dy  Dy11  1  0.563497  0.936503  0.936503  1
  Y  Y12  1  0.563749  0.936251  0.563749  1
  Y  Y13  1  0.936251  0.563749  0.936251  1
  Y  Y14  1  0.563749  0.563749  0.936251  1
  Y  Y15  1  0.936251  0.936251  0.563749  1
  Al  Al16  1  0.577919  0.577994  0.577994  1
  Al  Al17  1  0.577994  0.577919  0.266094  1
  Al  Al18  1  0.577994  0.266094  0.577919  1
  Al  Al19  1  0.266094  0.577994  0.577994  1
  Pt  Pt20  1  0.143470  0.143557  0.143557  1
  Pt  Pt21  1  0.143557  0.143470  0.569417  1
  Pt  Pt22  1  0.143557  0.569417  0.143470  1
  Pt  Pt23  1  0.569417  0.143557  0.143557  1
