# generated using pymatgen
data_BaPaPdS3
_symmetry_space_group_name_H-M   'P 1'
_cell_length_a   7.20859422
_cell_length_b   7.20859518
_cell_length_c   10.24277700
_cell_angle_alpha   89.99695837
_cell_angle_beta   90.00304073
_cell_angle_gamma   147.44007653
_symmetry_Int_Tables_number   1
_chemical_formula_structural   BaPaPdS3
_chemical_formula_sum   'Ba2 Pa2 Pd2 S6'
_cell_volume   286.44919451
_cell_formula_units_Z   2
loop_
 _symmetry_equiv_pos_site_id
 _symmetry_equiv_pos_as_xyz
  1  'x, y, z'
loop_
 _atom_site_type_symbol
 _atom_site_label
 _atom_site_symmetry_multiplicity
 _atom_site_fract_x
 _atom_site_fract_y
 _atom_site_fract_z
 _atom_site_occupancy
  Ba  Ba0  1  0.746194  0.253808  0.250001  1
  Ba  Ba1  1  0.253808  0.746194  0.749999  1
  Pa  Pa2  1  0.000000  0.000000  0.000000  1
  Pa  Pa3  1  0.000000  0.000000  0.500000  1
  Pd  Pd4  1  0.466192  0.533811  0.249953  1
  Pd  Pd5  1  0.533811  0.466192  0.750047  1
  S  S6  1  0.366287  0.633715  0.052442  1
  S  S7  1  0.070727  0.929276  0.249891  1
  S  S8  1  0.366180  0.633822  0.447541  1
  S  S9  1  0.633822  0.366180  0.552459  1
  S  S10  1  0.929276  0.070727  0.750109  1
  S  S11  1  0.633715  0.366287  0.947558  1
