# generated using pymatgen
data_KGePIrRh
_symmetry_space_group_name_H-M   'P 1'
_cell_length_a   7.36444258
_cell_length_b   7.36444144
_cell_length_c   7.36444101
_cell_angle_alpha   148.51028844
_cell_angle_beta   148.29213911
_cell_angle_gamma   45.29368876
_symmetry_Int_Tables_number   1
_chemical_formula_structural   KGePIrRh
_chemical_formula_sum   'K1 Ge1 P1 Ir1 Rh1'
_cell_volume   109.30160809
_cell_formula_units_Z   1
loop_
 _symmetry_equiv_pos_site_id
 _symmetry_equiv_pos_as_xyz
  1  'x, y, z'
loop_
 _atom_site_type_symbol
 _atom_site_label
 _atom_site_symmetry_multiplicity
 _atom_site_fract_x
 _atom_site_fract_y
 _atom_site_fract_z
 _atom_site_occupancy
  K  K0  1  0.992580  0.992580  0.000000  1
  Ge  Ge1  1  0.648314  0.648314  0.000000  1
  P  P2  1  0.344017  0.344017  0.000000  1
  Ir  Ir3  1  0.257094  0.757094  0.500000  1
  Rh  Rh4  1  0.757994  0.257994  0.500000  1
