# generated using pymatgen
data_Rb2PuBiO6
_symmetry_space_group_name_H-M   'P 1'
_cell_length_a   6.20929793
_cell_length_b   6.20928956
_cell_length_c   6.20929700
_cell_angle_alpha   119.99995178
_cell_angle_beta   120.00006922
_cell_angle_gamma   60.00004098
_symmetry_Int_Tables_number   1
_chemical_formula_structural   Rb2PuBiO6
_chemical_formula_sum   'Rb2 Pu1 Bi1 O6'
_cell_volume   169.28244102
_cell_formula_units_Z   1
loop_
 _symmetry_equiv_pos_site_id
 _symmetry_equiv_pos_as_xyz
  1  'x, y, z'
loop_
 _atom_site_type_symbol
 _atom_site_label
 _atom_site_symmetry_multiplicity
 _atom_site_fract_x
 _atom_site_fract_y
 _atom_site_fract_z
 _atom_site_occupancy
  Rb  Rb0  1  0.750000  0.750000  0.249998  1
  Rb  Rb1  1  0.249999  0.249999  0.749998  1
  Pu  Pu2  1  0.000000  0.000000  0.000000  1
  Bi  Bi3  1  0.500001  0.500001  0.500000  1
  O  O4  1  0.231225  0.231225  0.231225  1
  O  O5  1  0.768775  0.231226  0.231226  1
  O  O6  1  0.231225  0.768776  0.231225  1
  O  O7  1  0.768775  0.768775  0.768776  1
  O  O8  1  0.768776  0.231226  0.768776  1
  O  O9  1  0.231227  0.768775  0.768775  1
