# generated using pymatgen
data_Sc7NbCo7Si14Rh
_symmetry_space_group_name_H-M   'P 1'
_cell_length_a   9.49264683
_cell_length_b   9.49449510
_cell_length_c   9.51575976
_cell_angle_alpha   94.14329520
_cell_angle_beta   94.05985199
_cell_angle_gamma   148.85967491
_symmetry_Int_Tables_number   1
_chemical_formula_structural   Sc7NbCo7Si14Rh
_chemical_formula_sum   'Sc7 Nb1 Co7 Si14 Rh1'
_cell_volume   427.47807009
_cell_formula_units_Z   1
loop_
 _symmetry_equiv_pos_site_id
 _symmetry_equiv_pos_as_xyz
  1  'x, y, z'
loop_
 _atom_site_type_symbol
 _atom_site_label
 _atom_site_symmetry_multiplicity
 _atom_site_fract_x
 _atom_site_fract_y
 _atom_site_fract_z
 _atom_site_occupancy
  Sc  Sc0  1  0.308638  0.505046  0.805308  1
  Sc  Sc1  1  0.696409  0.501496  0.196811  1
  Sc  Sc2  1  0.499095  0.695143  0.196320  1
  Sc  Sc3  1  0.497926  0.303472  0.804417  1
  Sc  Sc4  1  0.139256  0.138284  0.278006  1
  Sc  Sc5  1  0.861920  0.861629  0.722737  1
  Sc  Sc6  1  0.138372  0.864177  0.000949  1
  Nb  Nb7  1  0.865315  0.139441  0.001209  1
  Co  Co8  1  0.105136  0.603755  0.210705  1
  Co  Co9  1  0.898142  0.099395  0.497519  1
  Co  Co10  1  0.599234  0.397268  0.497176  1
  Co  Co11  1  0.602041  0.100306  0.201706  1
  Co  Co12  1  0.898732  0.397253  0.798432  1
  Co  Co13  1  0.103987  0.895952  0.500457  1
  Co  Co14  1  0.395751  0.605510  0.501459  1
  Si  Si15  1  0.291153  0.291269  0.580282  1
  Si  Si16  1  0.707516  0.707838  0.420008  1
  Si  Si17  1  0.282465  0.700313  0.005043  1
  Si  Si18  1  0.725510  0.302057  0.005265  1
  Si  Si19  1  0.064186  0.470686  0.586380  1
  Si  Si20  1  0.900948  0.493042  0.408152  1
  Si  Si21  1  0.507842  0.915458  0.408065  1
  Si  Si22  1  0.520523  0.114206  0.586004  1
  Si  Si23  1  0.245547  0.250893  0.000415  1
  Si  Si24  1  0.750256  0.755879  0.000784  1
  Si  Si25  1  0.302745  0.000475  0.300885  1
  Si  Si26  1  0.717692  0.012254  0.701421  1
  Si  Si27  1  0.982119  0.686390  0.697193  1
  Si  Si28  1  0.996512  0.295606  0.297053  1
  Rh  Rh29  1  0.395033  0.895505  0.789836  1
