# generated using pymatgen
data_NdPa(Ge2Ir)2
_symmetry_space_group_name_H-M   'P 1'
_cell_length_a   9.57116825
_cell_length_b   9.57116704
_cell_length_c   9.57116804
_cell_angle_alpha   153.39043897
_cell_angle_beta   125.56620118
_cell_angle_gamma   61.59358311
_symmetry_Int_Tables_number   1
_chemical_formula_structural   NdPa(Ge2Ir)2
_chemical_formula_sum   'Nd2 Pa2 Ge8 Ir4'
_cell_volume   317.08490787
_cell_formula_units_Z   2
loop_
 _symmetry_equiv_pos_site_id
 _symmetry_equiv_pos_as_xyz
  1  'x, y, z'
loop_
 _atom_site_type_symbol
 _atom_site_label
 _atom_site_symmetry_multiplicity
 _atom_site_fract_x
 _atom_site_fract_y
 _atom_site_fract_z
 _atom_site_occupancy
  Nd  Nd0  1  0.737474  0.000000  0.737474  1
  Nd  Nd1  1  0.262526  0.000000  0.262526  1
  Pa  Pa2  1  0.707574  0.207574  0.500000  1
  Pa  Pa3  1  0.292426  0.792426  0.500000  1
  Ge  Ge4  1  0.423492  0.423492  0.000000  1
  Ge  Ge5  1  0.576508  0.576508  0.000000  1
  Ge  Ge6  1  0.923465  0.423465  0.500000  1
  Ge  Ge7  1  0.076535  0.576535  0.500000  1
  Ge  Ge8  1  0.044722  0.197945  0.846778  1
  Ge  Ge9  1  0.955278  0.802055  0.153222  1
  Ge  Ge10  1  0.648834  0.802055  0.846778  1
  Ge  Ge11  1  0.351166  0.197945  0.153222  1
  Ir  Ir12  1  0.097655  0.348445  0.749209  1
  Ir  Ir13  1  0.902345  0.651555  0.250791  1
  Ir  Ir14  1  0.400763  0.651555  0.749209  1
  Ir  Ir15  1  0.599237  0.348445  0.250791  1
