# generated using pymatgen
data_YbErNbIr3
_symmetry_space_group_name_H-M   'P 1'
_cell_length_a   5.24291872
_cell_length_b   5.24291866
_cell_length_c   5.24291768
_cell_angle_alpha   64.87868315
_cell_angle_beta   64.87868490
_cell_angle_gamma   64.87868615
_symmetry_Int_Tables_number   1
_chemical_formula_structural   YbErNbIr3
_chemical_formula_sum   'Yb1 Er1 Nb1 Ir3'
_cell_volume   112.77535610
_cell_formula_units_Z   1
loop_
 _symmetry_equiv_pos_site_id
 _symmetry_equiv_pos_as_xyz
  1  'x, y, z'
loop_
 _atom_site_type_symbol
 _atom_site_label
 _atom_site_symmetry_multiplicity
 _atom_site_fract_x
 _atom_site_fract_y
 _atom_site_fract_z
 _atom_site_occupancy
  Yb  Yb0  1  0.250432  0.250432  0.250432  1
  Er  Er1  1  0.999234  0.999234  0.999234  1
  Nb  Nb2  1  0.625953  0.625953  0.625953  1
  Ir  Ir3  1  0.624230  0.125920  0.624230  1
  Ir  Ir4  1  0.624230  0.624230  0.125920  1
  Ir  Ir5  1  0.125920  0.624230  0.624230  1
