# generated using pymatgen
data_Ho3Er5(B6Ru)4
_symmetry_space_group_name_H-M   'P 1'
_cell_length_a   3.63607200
_cell_length_b   9.10250700
_cell_length_c   11.47265600
_cell_angle_alpha   90.00167618
_cell_angle_beta   90.00000000
_cell_angle_gamma   90.00000000
_symmetry_Int_Tables_number   1
_chemical_formula_structural   Ho3Er5(B6Ru)4
_chemical_formula_sum   'Ho3 Er5 B24 Ru4'
_cell_volume   379.71474998
_cell_formula_units_Z   1
loop_
 _symmetry_equiv_pos_site_id
 _symmetry_equiv_pos_as_xyz
  1  'x, y, z'
loop_
 _atom_site_type_symbol
 _atom_site_label
 _atom_site_symmetry_multiplicity
 _atom_site_fract_x
 _atom_site_fract_y
 _atom_site_fract_z
 _atom_site_occupancy
  Ho  Ho0  1  0.000000  0.322467  0.414115  1
  Ho  Ho1  1  0.000000  0.677527  0.585900  1
  Ho  Ho2  1  0.000000  0.822496  0.085863  1
  Er  Er3  1  0.000000  0.177686  0.914161  1
  Er  Er4  1  0.000000  0.944255  0.372379  1
  Er  Er5  1  0.000000  0.055779  0.627667  1
  Er  Er6  1  0.000000  0.444216  0.127545  1
  Er  Er7  1  0.000000  0.555668  0.872403  1
  B  B8  1  0.500000  0.554377  0.433188  1
  B  B9  1  0.500000  0.445590  0.566850  1
  B  B10  1  0.500000  0.054435  0.066641  1
  B  B11  1  0.500000  0.945815  0.933215  1
  B  B12  1  0.500000  0.748709  0.419881  1
  B  B13  1  0.500000  0.251289  0.580163  1
  B  B14  1  0.500000  0.248625  0.079906  1
  B  B15  1  0.500000  0.751349  0.919871  1
  B  B16  1  0.500000  0.792060  0.266087  1
  B  B17  1  0.500000  0.207846  0.734074  1
  B  B18  1  0.500000  0.292027  0.233842  1
  B  B19  1  0.500000  0.707975  0.766115  1
  B  B20  1  0.500000  0.632182  0.184947  1
  B  B21  1  0.500000  0.367624  0.815149  1
  B  B22  1  0.500000  0.132214  0.315011  1
  B  B23  1  0.500000  0.867833  0.685000  1
  B  B24  1  0.500000  0.983771  0.212875  1
  B  B25  1  0.500000  0.016475  0.787188  1
  B  B26  1  0.500000  0.483726  0.287057  1
  B  B27  1  0.500000  0.516198  0.712956  1
  B  B28  1  0.500000  0.607736  0.029672  1
  B  B29  1  0.500000  0.391955  0.970230  1
  B  B30  1  0.500000  0.107698  0.470347  1
  B  B31  1  0.500000  0.892316  0.529674  1
  Ru  Ru32  1  0.000000  0.638385  0.320963  1
  Ru  Ru33  1  0.000000  0.361502  0.679124  1
  Ru  Ru34  1  0.000000  0.138376  0.178857  1
  Ru  Ru35  1  0.000000  0.861819  0.821082  1
