# generated using pymatgen
data_Tb3Ho5(CoHg)2
_symmetry_space_group_name_H-M   'P 1'
_cell_length_a   9.46335589
_cell_length_b   9.46335567
_cell_length_c   9.46335600
_cell_angle_alpha   59.99999185
_cell_angle_beta   59.99999263
_cell_angle_gamma   59.99999632
_symmetry_Int_Tables_number   1
_chemical_formula_structural   Tb3Ho5(CoHg)2
_chemical_formula_sum   'Tb6 Ho10 Co4 Hg4'
_cell_volume   599.26712445
_cell_formula_units_Z   2
loop_
 _symmetry_equiv_pos_site_id
 _symmetry_equiv_pos_as_xyz
  1  'x, y, z'
loop_
 _atom_site_type_symbol
 _atom_site_label
 _atom_site_symmetry_multiplicity
 _atom_site_fract_x
 _atom_site_fract_y
 _atom_site_fract_z
 _atom_site_occupancy
  Tb  Tb0  1  0.938967  0.561033  0.561033  1
  Tb  Tb1  1  0.561033  0.938967  0.938967  1
  Tb  Tb2  1  0.561033  0.938967  0.561033  1
  Tb  Tb3  1  0.938967  0.561033  0.938967  1
  Tb  Tb4  1  0.561033  0.561033  0.938967  1
  Tb  Tb5  1  0.938967  0.938967  0.561033  1
  Ho  Ho6  1  0.347561  0.347561  0.347561  1
  Ho  Ho7  1  0.347561  0.347561  0.957319  1
  Ho  Ho8  1  0.347561  0.957319  0.347561  1
  Ho  Ho9  1  0.957319  0.347561  0.347561  1
  Ho  Ho10  1  0.812125  0.187875  0.187875  1
  Ho  Ho11  1  0.187875  0.812125  0.812125  1
  Ho  Ho12  1  0.187875  0.812125  0.187875  1
  Ho  Ho13  1  0.812125  0.187875  0.812125  1
  Ho  Ho14  1  0.187875  0.187875  0.812125  1
  Ho  Ho15  1  0.812125  0.812125  0.187875  1
  Co  Co16  1  0.141298  0.141298  0.141298  1
  Co  Co17  1  0.141298  0.141298  0.576108  1
  Co  Co18  1  0.141298  0.576108  0.141298  1
  Co  Co19  1  0.576108  0.141298  0.141298  1
  Hg  Hg20  1  0.583338  0.583338  0.583338  1
  Hg  Hg21  1  0.583338  0.583338  0.249986  1
  Hg  Hg22  1  0.583338  0.249986  0.583338  1
  Hg  Hg23  1  0.249986  0.583338  0.583338  1
