# generated using pymatgen
data_Rb2Lu4Cu4S9
_symmetry_space_group_name_H-M   'P 1'
_cell_length_a   3.91715101
_cell_length_b   7.15011568
_cell_length_c   15.07010536
_cell_angle_alpha   94.09484109
_cell_angle_beta   97.46753765
_cell_angle_gamma   105.89779761
_symmetry_Int_Tables_number   1
_chemical_formula_structural   Rb2Lu4Cu4S9
_chemical_formula_sum   'Rb2 Lu4 Cu4 S9'
_cell_volume   399.95566688
_cell_formula_units_Z   1
loop_
 _symmetry_equiv_pos_site_id
 _symmetry_equiv_pos_as_xyz
  1  'x, y, z'
loop_
 _atom_site_type_symbol
 _atom_site_label
 _atom_site_symmetry_multiplicity
 _atom_site_fract_x
 _atom_site_fract_y
 _atom_site_fract_z
 _atom_site_occupancy
  Rb  Rb0  1  0.257810  0.287093  0.228526  1
  Rb  Rb1  1  0.742190  0.712906  0.771474  1
  Lu  Lu2  1  0.401199  0.747402  0.054998  1
  Lu  Lu3  1  0.628666  0.861188  0.396144  1
  Lu  Lu4  1  0.371334  0.138811  0.603857  1
  Lu  Lu5  1  0.598801  0.252598  0.945003  1
  Cu  Cu6  1  0.979489  0.730136  0.228844  1
  Cu  Cu7  1  0.891635  0.322910  0.460359  1
  Cu  Cu8  1  0.108366  0.677091  0.539641  1
  Cu  Cu9  1  0.020510  0.269863  0.771156  1
  S  S10  1  0.000000  0.000000  0.000000  1
  S  S11  1  0.804583  0.511886  0.097279  1
  S  S12  1  0.566896  0.910887  0.222905  1
  S  S13  1  0.985949  0.596318  0.375580  1
  S  S14  1  0.282995  0.140152  0.425838  1
  S  S15  1  0.717006  0.859849  0.574162  1
  S  S16  1  0.014052  0.403682  0.624420  1
  S  S17  1  0.433105  0.089114  0.777095  1
  S  S18  1  0.195417  0.488113  0.902722  1
