# generated using pymatgen
data_HoHf3Al17GaIr6
_symmetry_space_group_name_H-M   'P 1'
_cell_length_a   7.47235200
_cell_length_b   7.46536916
_cell_length_c   9.27929300
_cell_angle_alpha   90.00000000
_cell_angle_beta   90.00000000
_cell_angle_gamma   119.69545979
_symmetry_Int_Tables_number   1
_chemical_formula_structural   HoHf3Al17GaIr6
_chemical_formula_sum   'Ho1 Hf3 Al17 Ga1 Ir6'
_cell_volume   449.65425571
_cell_formula_units_Z   1
loop_
 _symmetry_equiv_pos_site_id
 _symmetry_equiv_pos_as_xyz
  1  'x, y, z'
loop_
 _atom_site_type_symbol
 _atom_site_label
 _atom_site_symmetry_multiplicity
 _atom_site_fract_x
 _atom_site_fract_y
 _atom_site_fract_z
 _atom_site_occupancy
  Ho  Ho0  1  0.326396  0.006180  0.750000  1
  Hf  Hf1  1  0.994418  0.671795  0.250000  1
  Hf  Hf2  1  0.005861  0.327529  0.750000  1
  Hf  Hf3  1  0.671625  0.994365  0.250000  1
  Al  Al4  1  0.124953  0.126047  0.250000  1
  Al  Al5  1  0.998175  0.334938  0.077585  1
  Al  Al6  1  0.999935  0.662656  0.925638  1
  Al  Al7  1  0.999935  0.662656  0.574362  1
  Al  Al8  1  0.335334  0.998769  0.419704  1
  Al  Al9  1  0.998175  0.334938  0.422415  1
  Al  Al10  1  0.667543  0.001722  0.574957  1
  Al  Al11  1  0.667543  0.001722  0.925043  1
  Al  Al12  1  0.335334  0.998769  0.080296  1
  Al  Al13  1  0.331910  0.334213  0.556224  1
  Al  Al14  1  0.668303  0.668228  0.437271  1
  Al  Al15  1  0.668303  0.668228  0.062729  1
  Al  Al16  1  0.331910  0.334213  0.943776  1
  Al  Al17  1  0.337802  0.552622  0.250000  1
  Al  Al18  1  0.667057  0.450915  0.750000  1
  Al  Al19  1  0.553822  0.338959  0.250000  1
  Al  Al20  1  0.445984  0.658049  0.750000  1
  Ga  Ga21  1  0.866015  0.868606  0.750000  1
  Ir  Ir22  1  0.673750  0.328634  0.001159  1
  Ir  Ir23  1  0.328664  0.673773  0.001525  1
  Ir  Ir24  1  0.328664  0.673773  0.498475  1
  Ir  Ir25  1  0.673750  0.328634  0.498841  1
  Ir  Ir26  1  0.999418  0.999531  0.003702  1
  Ir  Ir27  1  0.999418  0.999531  0.496298  1
