# generated using pymatgen
data_Nb12Co8Mo4C3N
_symmetry_space_group_name_H-M   'P 1'
_cell_length_a   8.18460873
_cell_length_b   8.19848110
_cell_length_c   8.19848000
_cell_angle_alpha   60.00000446
_cell_angle_beta   59.94392064
_cell_angle_gamma   59.94391586
_symmetry_Int_Tables_number   1
_chemical_formula_structural   Nb12Co8Mo4C3N
_chemical_formula_sum   'Nb12 Co8 Mo4 C3 N1'
_cell_volume   388.66999950
_cell_formula_units_Z   1
loop_
 _symmetry_equiv_pos_site_id
 _symmetry_equiv_pos_as_xyz
  1  'x, y, z'
loop_
 _atom_site_type_symbol
 _atom_site_label
 _atom_site_symmetry_multiplicity
 _atom_site_fract_x
 _atom_site_fract_y
 _atom_site_fract_z
 _atom_site_occupancy
  Nb  Nb0  1  0.691748  0.308615  0.691022  1
  Nb  Nb1  1  0.941032  0.559226  0.559226  1
  Nb  Nb2  1  0.558252  0.941385  0.941385  1
  Nb  Nb3  1  0.941032  0.559226  0.940515  1
  Nb  Nb4  1  0.558252  0.558978  0.941385  1
  Nb  Nb5  1  0.941032  0.940515  0.559226  1
  Nb  Nb6  1  0.691748  0.691022  0.308615  1
  Nb  Nb7  1  0.308968  0.690774  0.690774  1
  Nb  Nb8  1  0.691748  0.308615  0.308615  1
  Nb  Nb9  1  0.308968  0.309485  0.690774  1
  Nb  Nb10  1  0.558252  0.941385  0.558978  1
  Nb  Nb11  1  0.308968  0.690774  0.309485  1
  Co  Co12  1  0.326794  0.327120  0.327120  1
  Co  Co13  1  0.231459  0.922846  0.922846  1
  Co  Co14  1  0.923206  0.231033  0.922880  1
  Co  Co15  1  0.923206  0.922880  0.231033  1
  Co  Co16  1  0.326794  0.018967  0.327120  1
  Co  Co17  1  0.326794  0.327120  0.018967  1
  Co  Co18  1  0.018541  0.327154  0.327154  1
  Co  Co19  1  0.923206  0.922880  0.922880  1
  Mo  Mo20  1  0.125000  0.125000  0.125000  1
  Mo  Mo21  1  0.625000  0.125000  0.125000  1
  Mo  Mo22  1  0.125000  0.625000  0.125000  1
  Mo  Mo23  1  0.125000  0.125000  0.625000  1
  C  C24  1  0.625000  0.625000  0.625000  1
  C  C25  1  0.625000  0.125000  0.625000  1
  C  C26  1  0.625000  0.625000  0.125000  1
  N  N27  1  0.125000  0.625000  0.625000  1
