# generated using pymatgen
data_Sc3Ge2B4Ru10W
_symmetry_space_group_name_H-M   'P 1'
_cell_length_a   9.39303403
_cell_length_b   9.39303403
_cell_length_c   2.99014900
_cell_angle_alpha   90.00000000
_cell_angle_beta   90.00000000
_cell_angle_gamma   89.75182269
_symmetry_Int_Tables_number   1
_chemical_formula_structural   Sc3Ge2B4Ru10W
_chemical_formula_sum   'Sc3 Ge2 B4 Ru10 W1'
_cell_volume   263.81564519
_cell_formula_units_Z   1
loop_
 _symmetry_equiv_pos_site_id
 _symmetry_equiv_pos_as_xyz
  1  'x, y, z'
loop_
 _atom_site_type_symbol
 _atom_site_label
 _atom_site_symmetry_multiplicity
 _atom_site_fract_x
 _atom_site_fract_y
 _atom_site_fract_z
 _atom_site_occupancy
  Sc  Sc0  1  0.325038  0.825038  0.000000  1
  Sc  Sc1  1  0.174513  0.327227  0.000000  1
  Sc  Sc2  1  0.827227  0.674513  0.000000  1
  Ge  Ge3  1  0.002739  0.998380  0.000000  1
  Ge  Ge4  1  0.498380  0.502739  0.000000  1
  B  B5  1  0.122978  0.622978  0.000000  1
  B  B6  1  0.876671  0.376671  0.000000  1
  B  B7  1  0.623954  0.874343  0.000000  1
  B  B8  1  0.374343  0.123954  0.000000  1
  Ru  Ru9  1  0.213639  0.073139  0.500000  1
  Ru  Ru10  1  0.783743  0.941913  0.500000  1
  Ru  Ru11  1  0.069397  0.786090  0.500000  1
  Ru  Ru12  1  0.709769  0.419378  0.500000  1
  Ru  Ru13  1  0.919378  0.209769  0.500000  1
  Ru  Ru14  1  0.286090  0.569397  0.500000  1
  Ru  Ru15  1  0.573139  0.713639  0.500000  1
  Ru  Ru16  1  0.441913  0.283743  0.500000  1
  Ru  Ru17  1  0.504090  0.004090  0.500000  1
  Ru  Ru18  1  0.998385  0.498385  0.500000  1
  W  W19  1  0.674611  0.174611  0.000000  1
