# generated using pymatgen
data_K9Rb7(ZrS4)4
_symmetry_space_group_name_H-M   'P 1'
_cell_length_a   8.21095668
_cell_length_b   9.98213000
_cell_length_c   15.06843106
_cell_angle_alpha   90.00000000
_cell_angle_beta   89.89438578
_cell_angle_gamma   90.00000000
_symmetry_Int_Tables_number   1
_chemical_formula_structural   K9Rb7(ZrS4)4
_chemical_formula_sum   'K9 Rb7 Zr4 S16'
_cell_volume   1235.04926030
_cell_formula_units_Z   1
loop_
 _symmetry_equiv_pos_site_id
 _symmetry_equiv_pos_as_xyz
  1  'x, y, z'
loop_
 _atom_site_type_symbol
 _atom_site_label
 _atom_site_symmetry_multiplicity
 _atom_site_fract_x
 _atom_site_fract_y
 _atom_site_fract_z
 _atom_site_occupancy
  K  K0  1  0.978620  0.750000  0.433095  1
  K  K1  1  0.838321  0.059289  0.274540  1
  K  K2  1  0.340053  0.940347  0.227985  1
  K  K3  1  0.160978  0.559202  0.725643  1
  K  K4  1  0.660796  0.441401  0.772264  1
  K  K5  1  0.160978  0.940798  0.725643  1
  K  K6  1  0.660796  0.058599  0.772264  1
  K  K7  1  0.838321  0.440711  0.274540  1
  K  K8  1  0.340053  0.559653  0.227985  1
  Rb  Rb9  1  0.000575  0.000082  0.000331  1
  Rb  Rb10  1  0.498873  0.998666  0.499466  1
  Rb  Rb11  1  0.000575  0.499918  0.000331  1
  Rb  Rb12  1  0.498873  0.501334  0.499466  1
  Rb  Rb13  1  0.487452  0.250000  0.069211  1
  Rb  Rb14  1  0.011662  0.250000  0.569254  1
  Rb  Rb15  1  0.513918  0.750000  0.931646  1
  Zr  Zr16  1  0.759077  0.750000  0.670832  1
  Zr  Zr17  1  0.239235  0.250000  0.328758  1
  Zr  Zr18  1  0.744467  0.750000  0.173637  1
  Zr  Zr19  1  0.258322  0.250000  0.827079  1
  S  S20  1  0.962742  0.250000  0.821222  1
  S  S21  1  0.534638  0.250000  0.322863  1
  S  S22  1  0.463583  0.750000  0.677417  1
  S  S23  1  0.039679  0.750000  0.177356  1
  S  S24  1  0.649656  0.551048  0.099958  1
  S  S25  1  0.146232  0.451516  0.401322  1
  S  S26  1  0.351620  0.050780  0.900875  1
  S  S27  1  0.852801  0.948064  0.595897  1
  S  S28  1  0.351620  0.449220  0.900875  1
  S  S29  1  0.852801  0.551936  0.595897  1
  S  S30  1  0.649656  0.948952  0.099958  1
  S  S31  1  0.146232  0.048484  0.401322  1
  S  S32  1  0.629288  0.750000  0.322884  1
  S  S33  1  0.123146  0.250000  0.180307  1
  S  S34  1  0.377096  0.250000  0.678824  1
  S  S35  1  0.877266  0.750000  0.819054  1
