# generated using pymatgen
data_Tb3Yb(B4Ru)4
_symmetry_space_group_name_H-M   'P 1'
_cell_length_a   3.55718700
_cell_length_b   5.97187907
_cell_length_c   11.54513314
_cell_angle_alpha   89.98189986
_cell_angle_beta   90.00000000
_cell_angle_gamma   90.00000000
_symmetry_Int_Tables_number   1
_chemical_formula_structural   Tb3Yb(B4Ru)4
_chemical_formula_sum   'Tb3 Yb1 B16 Ru4'
_cell_volume   245.25429724
_cell_formula_units_Z   1
loop_
 _symmetry_equiv_pos_site_id
 _symmetry_equiv_pos_as_xyz
  1  'x, y, z'
loop_
 _atom_site_type_symbol
 _atom_site_label
 _atom_site_symmetry_multiplicity
 _atom_site_fract_x
 _atom_site_fract_y
 _atom_site_fract_z
 _atom_site_occupancy
  Tb  Tb0  1  0.500000  0.628254  0.150150  1
  Tb  Tb1  1  0.500000  0.371231  0.848597  1
  Tb  Tb2  1  0.500000  0.128232  0.350969  1
  Yb  Yb3  1  0.500000  0.870408  0.649588  1
  B  B4  1  0.000000  0.975889  0.191556  1
  B  B5  1  0.000000  0.024373  0.807992  1
  B  B6  1  0.000000  0.475318  0.308970  1
  B  B7  1  0.000000  0.524587  0.690959  1
  B  B8  1  0.000000  0.788262  0.315383  1
  B  B9  1  0.000000  0.211450  0.684814  1
  B  B10  1  0.000000  0.288010  0.185581  1
  B  B11  1  0.000000  0.713093  0.813979  1
  B  B12  1  0.000000  0.863756  0.470051  1
  B  B13  1  0.000000  0.135899  0.530834  1
  B  B14  1  0.000000  0.363496  0.030466  1
  B  B15  1  0.000000  0.636344  0.969505  1
  B  B16  1  0.000000  0.887852  0.046654  1
  B  B17  1  0.000000  0.111352  0.953022  1
  B  B18  1  0.000000  0.388575  0.454256  1
  B  B19  1  0.000000  0.613873  0.547145  1
  Ru  Ru20  1  0.500000  0.639448  0.408163  1
  Ru  Ru21  1  0.500000  0.360816  0.590860  1
  Ru  Ru22  1  0.500000  0.139753  0.092012  1
  Ru  Ru23  1  0.500000  0.859730  0.908497  1
