# generated using pymatgen
data_Dy3TmMg2(Ni7B2)2
_symmetry_space_group_name_H-M   'P 1'
_cell_length_a   4.98569500
_cell_length_b   4.98569566
_cell_length_c   14.21648300
_cell_angle_alpha   90.00000000
_cell_angle_beta   90.00000000
_cell_angle_gamma   120.00000225
_symmetry_Int_Tables_number   1
_chemical_formula_structural   Dy3TmMg2(Ni7B2)2
_chemical_formula_sum   'Dy3 Tm1 Mg2 Ni14 B4'
_cell_volume   306.03723074
_cell_formula_units_Z   1
loop_
 _symmetry_equiv_pos_site_id
 _symmetry_equiv_pos_as_xyz
  1  'x, y, z'
loop_
 _atom_site_type_symbol
 _atom_site_label
 _atom_site_symmetry_multiplicity
 _atom_site_fract_x
 _atom_site_fract_y
 _atom_site_fract_z
 _atom_site_occupancy
  Dy  Dy0  1  0.666667  0.333333  0.469335  1
  Dy  Dy1  1  0.333333  0.666667  0.970442  1
  Dy  Dy2  1  0.333333  0.666667  0.744420  1
  Tm  Tm3  1  0.666667  0.333333  0.244771  1
  Mg  Mg4  1  0.333333  0.666667  0.532460  1
  Mg  Mg5  1  0.666667  0.333333  0.033898  1
  Ni  Ni6  1  0.000000  0.000000  0.001749  1
  Ni  Ni7  1  0.000000  0.000000  0.500593  1
  Ni  Ni8  1  0.165544  0.331089  0.147806  1
  Ni  Ni9  1  0.834492  0.668985  0.646432  1
  Ni  Ni10  1  0.668911  0.834456  0.147806  1
  Ni  Ni11  1  0.165544  0.834456  0.147806  1
  Ni  Ni12  1  0.834492  0.165508  0.646432  1
  Ni  Ni13  1  0.331015  0.165508  0.646432  1
  Ni  Ni14  1  0.833724  0.667448  0.852779  1
  Ni  Ni15  1  0.833724  0.166276  0.852779  1
  Ni  Ni16  1  0.332552  0.166276  0.852779  1
  Ni  Ni17  1  0.667532  0.833766  0.352193  1
  Ni  Ni18  1  0.166234  0.833766  0.352193  1
  Ni  Ni19  1  0.166234  0.332468  0.352193  1
  B  B20  1  0.333333  0.666667  0.250252  1
  B  B21  1  0.666667  0.333333  0.749859  1
  B  B22  1  0.000000  0.000000  0.252413  1
  B  B23  1  0.000000  0.000000  0.752177  1
