# generated using pymatgen
data_Ho16In4IrOs2Rh
_symmetry_space_group_name_H-M   'P 1'
_cell_length_a   9.63829979
_cell_length_b   9.68482545
_cell_length_c   9.62050080
_cell_angle_alpha   59.77858120
_cell_angle_beta   59.64299957
_cell_angle_gamma   59.84019127
_symmetry_Int_Tables_number   1
_chemical_formula_structural   Ho16In4IrOs2Rh
_chemical_formula_sum   'Ho16 In4 Ir1 Os2 Rh1'
_cell_volume   631.44957258
_cell_formula_units_Z   1
loop_
 _symmetry_equiv_pos_site_id
 _symmetry_equiv_pos_as_xyz
  1  'x, y, z'
loop_
 _atom_site_type_symbol
 _atom_site_label
 _atom_site_symmetry_multiplicity
 _atom_site_fract_x
 _atom_site_fract_y
 _atom_site_fract_z
 _atom_site_occupancy
  Ho  Ho0  1  0.190042  0.191744  0.804549  1
  Ho  Ho1  1  0.598374  0.597446  0.206733  1
  Ho  Ho2  1  0.441431  0.059048  0.440472  1
  Ho  Ho3  1  0.439331  0.443501  0.059677  1
  Ho  Ho4  1  0.812742  0.188147  0.810965  1
  Ho  Ho5  1  0.193065  0.807201  0.192532  1
  Ho  Ho6  1  0.439331  0.057491  0.059677  1
  Ho  Ho7  1  0.190042  0.813666  0.804549  1
  Ho  Ho8  1  0.056564  0.442917  0.057601  1
  Ho  Ho9  1  0.805048  0.812121  0.190358  1
  Ho  Ho10  1  0.205734  0.597972  0.598322  1
  Ho  Ho11  1  0.059288  0.444217  0.439036  1
  Ho  Ho12  1  0.059288  0.057457  0.439036  1
  Ho  Ho13  1  0.805048  0.192473  0.190358  1
  Ho  Ho14  1  0.600025  0.202250  0.599341  1
  Ho  Ho15  1  0.600025  0.598385  0.599341  1
  In  In16  1  0.832277  0.832943  0.832020  1
  In  In17  1  0.833177  0.832930  0.500963  1
  In  In18  1  0.500588  0.833152  0.833109  1
  In  In19  1  0.832277  0.502761  0.832020  1
  Ir  Ir20  1  0.829636  0.388624  0.393115  1
  Os  Os21  1  0.392168  0.828098  0.393116  1
  Os  Os22  1  0.392168  0.386618  0.393116  1
  Rh  Rh23  1  0.392335  0.388835  0.829995  1
