# generated using pymatgen
data_Yb4CuOs4Ru3
_symmetry_space_group_name_H-M   'P 1'
_cell_length_a   5.18589938
_cell_length_b   5.25627487
_cell_length_c   8.75431700
_cell_angle_alpha   90.00000000
_cell_angle_beta   90.00000000
_cell_angle_gamma   118.33802324
_symmetry_Int_Tables_number   1
_chemical_formula_structural   Yb4CuOs4Ru3
_chemical_formula_sum   'Yb4 Cu1 Os4 Ru3'
_cell_volume   210.03288785
_cell_formula_units_Z   1
loop_
 _symmetry_equiv_pos_site_id
 _symmetry_equiv_pos_as_xyz
  1  'x, y, z'
loop_
 _atom_site_type_symbol
 _atom_site_label
 _atom_site_symmetry_multiplicity
 _atom_site_fract_x
 _atom_site_fract_y
 _atom_site_fract_z
 _atom_site_occupancy
  Yb  Yb0  1  0.664344  0.331887  0.565226  1
  Yb  Yb1  1  0.332131  0.663284  0.436588  1
  Yb  Yb2  1  0.332131  0.663284  0.063412  1
  Yb  Yb3  1  0.664344  0.331887  0.934774  1
  Cu  Cu4  1  0.171691  0.344812  0.750000  1
  Os  Os5  1  0.186471  0.846611  0.750000  1
  Os  Os6  1  0.660228  0.846106  0.750000  1
  Os  Os7  1  0.842402  0.675133  0.250000  1
  Os  Os8  1  0.837927  0.184856  0.250000  1
  Ru  Ru9  1  0.977640  0.967203  0.504023  1
  Ru  Ru10  1  0.977640  0.967203  0.995977  1
  Ru  Ru11  1  0.353048  0.177735  0.250000  1
