# generated using pymatgen
data_Hf7Th8Zr5Si16
_symmetry_space_group_name_H-M   'P 1'
_cell_length_a   7.41459539
_cell_length_b   7.41579613
_cell_length_c   13.64588494
_cell_angle_alpha   89.97886367
_cell_angle_beta   90.03687905
_cell_angle_gamma   89.99569185
_symmetry_Int_Tables_number   1
_chemical_formula_structural   Hf7Th8Zr5Si16
_chemical_formula_sum   'Hf7 Th8 Zr5 Si16'
_cell_volume   750.32051874
_cell_formula_units_Z   1
loop_
 _symmetry_equiv_pos_site_id
 _symmetry_equiv_pos_as_xyz
  1  'x, y, z'
loop_
 _atom_site_type_symbol
 _atom_site_label
 _atom_site_symmetry_multiplicity
 _atom_site_fract_x
 _atom_site_fract_y
 _atom_site_fract_z
 _atom_site_occupancy
  Hf  Hf0  1  0.503198  0.653985  0.625636  1
  Hf  Hf1  1  0.846065  0.002884  0.875564  1
  Hf  Hf2  1  0.153893  0.996625  0.375698  1
  Hf  Hf3  1  0.653977  0.503421  0.374512  1
  Hf  Hf4  1  0.345677  0.496714  0.874269  1
  Hf  Hf5  1  0.003096  0.846082  0.124360  1
  Hf  Hf6  1  0.996869  0.154052  0.624303  1
  Th  Th7  1  0.496675  0.157450  0.534061  1
  Th  Th8  1  0.503361  0.843042  0.034059  1
  Th  Th9  1  0.657394  0.003348  0.284264  1
  Th  Th10  1  0.342626  0.996657  0.783993  1
  Th  Th11  1  0.842587  0.503179  0.965787  1
  Th  Th12  1  0.157226  0.496934  0.466083  1
  Th  Th13  1  0.003277  0.657335  0.715909  1
  Th  Th14  1  0.996951  0.342494  0.215989  1
  Zr  Zr15  1  0.674432  0.325605  0.749867  1
  Zr  Zr16  1  0.325406  0.674640  0.250198  1
  Zr  Zr17  1  0.825622  0.825475  0.500076  1
  Zr  Zr18  1  0.174142  0.174194  0.999757  1
  Zr  Zr19  1  0.497257  0.345997  0.125715  1
  Si  Si20  1  0.797762  0.132238  0.065714  1
  Si  Si21  1  0.203279  0.867341  0.566164  1
  Si  Si22  1  0.632628  0.703192  0.816041  1
  Si  Si23  1  0.366869  0.296363  0.316699  1
  Si  Si24  1  0.867277  0.203364  0.433962  1
  Si  Si25  1  0.132834  0.796612  0.933905  1
  Si  Si26  1  0.704261  0.633984  0.184296  1
  Si  Si27  1  0.296749  0.367308  0.683851  1
  Si  Si28  1  0.547224  0.209091  0.935261  1
  Si  Si29  1  0.452938  0.790478  0.435828  1
  Si  Si30  1  0.709516  0.953071  0.685813  1
  Si  Si31  1  0.289971  0.046211  0.186066  1
  Si  Si32  1  0.790512  0.453028  0.564173  1
  Si  Si33  1  0.208592  0.547761  0.063917  1
  Si  Si34  1  0.952819  0.709370  0.314084  1
  Si  Si35  1  0.047037  0.290475  0.814126  1
