# generated using pymatgen
data_Na4In11GaSe20
_symmetry_space_group_name_H-M   'P 1'
_cell_length_a   10.13456421
_cell_length_b   10.15488597
_cell_length_c   10.10869400
_cell_angle_alpha   89.74720093
_cell_angle_beta   89.35096974
_cell_angle_gamma   90.30131125
_symmetry_Int_Tables_number   1
_chemical_formula_structural   Na4In11GaSe20
_chemical_formula_sum   'Na4 In11 Ga1 Se20'
_cell_volume   1040.24818614
_cell_formula_units_Z   1
loop_
 _symmetry_equiv_pos_site_id
 _symmetry_equiv_pos_as_xyz
  1  'x, y, z'
loop_
 _atom_site_type_symbol
 _atom_site_label
 _atom_site_symmetry_multiplicity
 _atom_site_fract_x
 _atom_site_fract_y
 _atom_site_fract_z
 _atom_site_occupancy
  Na  Na0  1  0.260367  0.000247  0.260712  1
  Na  Na1  1  0.000603  0.738491  0.738362  1
  Na  Na2  1  0.740635  0.260346  0.997142  1
  Na  Na3  1  0.501234  0.499301  0.500151  1
  In  In4  1  0.429090  0.125766  0.839416  1
  In  In5  1  0.123743  0.156266  0.576289  1
  In  In6  1  0.158091  0.425108  0.873542  1
  In  In7  1  0.873106  0.575684  0.159076  1
  In  In8  1  0.574101  0.842681  0.126536  1
  In  In9  1  0.842460  0.875194  0.426349  1
  In  In10  1  0.661127  0.833813  0.744354  1
  In  In11  1  0.828646  0.253099  0.341444  1
  In  In12  1  0.252002  0.661477  0.170803  1
  In  In13  1  0.168873  0.338407  0.253038  1
  In  In14  1  0.338313  0.747029  0.830158  1
  Ga  Ga15  1  0.747600  0.168697  0.658658  1
  Se  Se16  1  0.998685  0.167639  0.169124  1
  Se  Se17  1  0.827726  0.012576  0.819026  1
  Se  Se18  1  0.833044  0.835217  0.166356  1
  Se  Se19  1  0.169607  0.166541  0.835040  1
  Se  Se20  1  0.166630  0.832005  0.000963  1
  Se  Se21  1  0.915403  0.501287  0.915300  1
  Se  Se22  1  0.499990  0.085557  0.084667  1
  Se  Se23  1  0.086057  0.913758  0.499695  1
  Se  Se24  1  0.581362  0.314229  0.746291  1
  Se  Se25  1  0.321613  0.243645  0.432093  1
  Se  Se26  1  0.245415  0.568058  0.675320  1
  Se  Se27  1  0.675422  0.430500  0.244054  1
  Se  Se28  1  0.430018  0.756809  0.324895  1
  Se  Se29  1  0.758463  0.676175  0.569296  1
  Se  Se30  1  0.430462  0.930690  0.665827  1
  Se  Se31  1  0.922570  0.323138  0.577292  1
  Se  Se32  1  0.332356  0.432766  0.067824  1
  Se  Se33  1  0.066208  0.567128  0.334134  1
  Se  Se34  1  0.569184  0.670015  0.930486  1
  Se  Se35  1  0.669792  0.070660  0.446285  1
