# generated using pymatgen
data_Pa4CdHgPt4
_symmetry_space_group_name_H-M   'P 1'
_cell_length_a   7.84752100
_cell_length_b   7.84752100
_cell_length_c   3.64112500
_cell_angle_alpha   90.00000000
_cell_angle_beta   90.00000000
_cell_angle_gamma   90.00000000
_symmetry_Int_Tables_number   1
_chemical_formula_structural   Pa4CdHgPt4
_chemical_formula_sum   'Pa4 Cd1 Hg1 Pt4'
_cell_volume   224.23353401
_cell_formula_units_Z   1
loop_
 _symmetry_equiv_pos_site_id
 _symmetry_equiv_pos_as_xyz
  1  'x, y, z'
loop_
 _atom_site_type_symbol
 _atom_site_label
 _atom_site_symmetry_multiplicity
 _atom_site_fract_x
 _atom_site_fract_y
 _atom_site_fract_z
 _atom_site_occupancy
  Pa  Pa0  1  0.172361  0.328639  0.500000  1
  Pa  Pa1  1  0.328639  0.827639  0.500000  1
  Pa  Pa2  1  0.827639  0.671361  0.500000  1
  Pa  Pa3  1  0.671361  0.172361  0.500000  1
  Cd  Cd4  1  0.000000  0.000000  0.000000  1
  Hg  Hg5  1  0.500000  0.500000  0.000000  1
  Pt  Pt6  1  0.633197  0.871415  0.000000  1
  Pt  Pt7  1  0.128585  0.633197  0.000000  1
  Pt  Pt8  1  0.871415  0.366803  0.000000  1
  Pt  Pt9  1  0.366803  0.128585  0.000000  1
