# generated using pymatgen
data_Zr2AlIr5
_symmetry_space_group_name_H-M   'P 1'
_cell_length_a   5.59503093
_cell_length_b   5.59503063
_cell_length_c   8.21053500
_cell_angle_alpha   89.99998371
_cell_angle_beta   89.99998273
_cell_angle_gamma   96.80747948
_symmetry_Int_Tables_number   1
_chemical_formula_structural   Zr2AlIr5
_chemical_formula_sum   'Zr4 Al2 Ir10'
_cell_volume   255.21360132
_cell_formula_units_Z   2
loop_
 _symmetry_equiv_pos_site_id
 _symmetry_equiv_pos_as_xyz
  1  'x, y, z'
loop_
 _atom_site_type_symbol
 _atom_site_label
 _atom_site_symmetry_multiplicity
 _atom_site_fract_x
 _atom_site_fract_y
 _atom_site_fract_z
 _atom_site_occupancy
  Zr  Zr0  1  0.774800  0.225200  0.500000  1
  Zr  Zr1  1  0.225200  0.774800  0.000000  1
  Zr  Zr2  1  0.225200  0.774800  0.500000  1
  Zr  Zr3  1  0.774800  0.225200  0.000000  1
  Al  Al4  1  0.500054  0.500054  0.750000  1
  Al  Al5  1  0.499946  0.499946  0.250000  1
  Ir  Ir6  1  0.721434  0.721434  0.000240  1
  Ir  Ir7  1  0.721434  0.721434  0.499760  1
  Ir  Ir8  1  0.278566  0.278566  0.999760  1
  Ir  Ir9  1  0.278566  0.278566  0.500240  1
  Ir  Ir10  1  0.500143  0.000154  0.750000  1
  Ir  Ir11  1  0.499857  0.999846  0.250000  1
  Ir  Ir12  1  0.000104  0.000104  0.250000  1
  Ir  Ir13  1  0.999896  0.999896  0.750000  1
  Ir  Ir14  1  0.000154  0.500143  0.750000  1
  Ir  Ir15  1  0.999846  0.499857  0.250000  1
