# generated using pymatgen
data_LiTb2Ce2Zn7Ru2
_symmetry_space_group_name_H-M   'P 1'
_cell_length_a   7.16195863
_cell_length_b   7.16195863
_cell_length_c   5.12263256
_cell_angle_alpha   90.33217742
_cell_angle_beta   90.33217742
_cell_angle_gamma   90.80166615
_symmetry_Int_Tables_number   1
_chemical_formula_structural   LiTb2Ce2Zn7Ru2
_chemical_formula_sum   'Li1 Tb2 Ce2 Zn7 Ru2'
_cell_volume   262.72385315
_cell_formula_units_Z   1
loop_
 _symmetry_equiv_pos_site_id
 _symmetry_equiv_pos_as_xyz
  1  'x, y, z'
loop_
 _atom_site_type_symbol
 _atom_site_label
 _atom_site_symmetry_multiplicity
 _atom_site_fract_x
 _atom_site_fract_y
 _atom_site_fract_z
 _atom_site_occupancy
  Li  Li0  1  0.185877  0.685877  0.291567  1
  Tb  Tb1  1  0.999103  0.499103  0.765910  1
  Tb  Tb2  1  0.502744  0.002744  0.229097  1
  Ce  Ce3  1  0.002185  0.997828  0.003233  1
  Ce  Ce4  1  0.497828  0.502185  0.003233  1
  Zn  Zn5  1  0.816254  0.685806  0.290356  1
  Zn  Zn6  1  0.815816  0.315816  0.286286  1
  Zn  Zn7  1  0.314043  0.184102  0.710665  1
  Zn  Zn8  1  0.185806  0.316254  0.290356  1
  Zn  Zn9  1  0.686011  0.186011  0.713023  1
  Zn  Zn10  1  0.684102  0.814043  0.710665  1
  Zn  Zn11  1  0.310562  0.810562  0.710402  1
  Ru  Ru12  1  0.502573  0.497096  0.497604  1
  Ru  Ru13  1  0.997096  0.002573  0.497604  1
