# generated using pymatgen
data_HfTi(Nb9Al5)2
_symmetry_space_group_name_H-M   'P 1'
_cell_length_a   10.01693279
_cell_length_b   10.01877179
_cell_length_c   5.22154900
_cell_angle_alpha   90.00000000
_cell_angle_beta   90.00000000
_cell_angle_gamma   89.93148197
_symmetry_Int_Tables_number   1
_chemical_formula_structural   HfTi(Nb9Al5)2
_chemical_formula_sum   'Hf1 Ti1 Nb18 Al10'
_cell_volume   524.02051724
_cell_formula_units_Z   1
loop_
 _symmetry_equiv_pos_site_id
 _symmetry_equiv_pos_as_xyz
  1  'x, y, z'
loop_
 _atom_site_type_symbol
 _atom_site_label
 _atom_site_symmetry_multiplicity
 _atom_site_fract_x
 _atom_site_fract_y
 _atom_site_fract_z
 _atom_site_occupancy
  Hf  Hf0  1  0.896735  0.103481  0.500000  1
  Ti  Ti1  1  0.396784  0.396641  0.000000  1
  Nb  Nb2  1  0.106019  0.894282  0.500000  1
  Nb  Nb3  1  0.602269  0.601725  0.000000  1
  Nb  Nb4  1  0.129516  0.465368  0.000000  1
  Nb  Nb5  1  0.964930  0.376120  0.500000  1
  Nb  Nb6  1  0.035161  0.628278  0.500000  1
  Nb  Nb7  1  0.872231  0.537423  0.000000  1
  Nb  Nb8  1  0.372252  0.963899  0.500000  1
  Nb  Nb9  1  0.624300  0.033836  0.500000  1
  Nb  Nb10  1  0.462437  0.128658  0.000000  1
  Nb  Nb11  1  0.534662  0.871250  0.000000  1
  Nb  Nb12  1  0.182199  0.182265  0.251994  1
  Nb  Nb13  1  0.679779  0.319435  0.753115  1
  Nb  Nb14  1  0.319573  0.679322  0.753543  1
  Nb  Nb15  1  0.818521  0.818910  0.252648  1
  Nb  Nb16  1  0.319573  0.679322  0.246457  1
  Nb  Nb17  1  0.679779  0.319435  0.246885  1
  Nb  Nb18  1  0.182199  0.182265  0.748006  1
  Nb  Nb19  1  0.818521  0.818910  0.747352  1
  Al  Al20  1  0.002543  0.998150  0.000000  1
  Al  Al21  1  0.500826  0.500600  0.500000  1
  Al  Al22  1  0.262646  0.931907  0.000000  1
  Al  Al23  1  0.433211  0.237350  0.500000  1
  Al  Al24  1  0.567023  0.760872  0.500000  1
  Al  Al25  1  0.735479  0.066516  0.000000  1
  Al  Al26  1  0.237779  0.433454  0.500000  1
  Al  Al27  1  0.761466  0.567518  0.500000  1
  Al  Al28  1  0.933574  0.264912  0.000000  1
  Al  Al29  1  0.068015  0.737896  0.000000  1
