# generated using pymatgen
data_YErSiPd14
_symmetry_space_group_name_H-M   'P 1'
_cell_length_a   8.92536800
_cell_length_b   8.92536800
_cell_length_c   7.07911600
_cell_angle_alpha   90.00000000
_cell_angle_beta   90.00000000
_cell_angle_gamma   90.00000000
_symmetry_Int_Tables_number   1
_chemical_formula_structural   YErSiPd14
_chemical_formula_sum   'Y2 Er2 Si2 Pd28'
_cell_volume   563.93791168
_cell_formula_units_Z   2
loop_
 _symmetry_equiv_pos_site_id
 _symmetry_equiv_pos_as_xyz
  1  'x, y, z'
loop_
 _atom_site_type_symbol
 _atom_site_label
 _atom_site_symmetry_multiplicity
 _atom_site_fract_x
 _atom_site_fract_y
 _atom_site_fract_z
 _atom_site_occupancy
  Y  Y0  1  0.500000  0.000000  0.934452  1
  Y  Y1  1  0.000000  0.500000  0.065548  1
  Er  Er2  1  0.000000  0.000000  0.500000  1
  Er  Er3  1  0.500000  0.500000  0.500000  1
  Si  Si4  1  0.500000  0.000000  0.448003  1
  Si  Si5  1  0.000000  0.500000  0.551997  1
  Pd  Pd6  1  0.334519  0.834519  0.616040  1
  Pd  Pd7  1  0.334519  0.165481  0.616040  1
  Pd  Pd8  1  0.665481  0.834519  0.616040  1
  Pd  Pd9  1  0.665481  0.165481  0.616040  1
  Pd  Pd10  1  0.165481  0.665481  0.383960  1
  Pd  Pd11  1  0.165481  0.334519  0.383960  1
  Pd  Pd12  1  0.834519  0.665481  0.383960  1
  Pd  Pd13  1  0.834519  0.334519  0.383960  1
  Pd  Pd14  1  0.500000  0.769810  0.256645  1
  Pd  Pd15  1  0.500000  0.230190  0.256645  1
  Pd  Pd16  1  0.269810  0.000000  0.256645  1
  Pd  Pd17  1  0.730190  0.000000  0.256645  1
  Pd  Pd18  1  0.000000  0.730190  0.743355  1
  Pd  Pd19  1  0.000000  0.269810  0.743355  1
  Pd  Pd20  1  0.230190  0.500000  0.743355  1
  Pd  Pd21  1  0.769810  0.500000  0.743355  1
  Pd  Pd22  1  0.500000  0.349274  0.851960  1
  Pd  Pd23  1  0.500000  0.650726  0.851960  1
  Pd  Pd24  1  0.849274  0.000000  0.851960  1
  Pd  Pd25  1  0.150726  0.000000  0.851960  1
  Pd  Pd26  1  0.000000  0.150726  0.148040  1
  Pd  Pd27  1  0.000000  0.849274  0.148040  1
  Pd  Pd28  1  0.650726  0.500000  0.148040  1
  Pd  Pd29  1  0.349274  0.500000  0.148040  1
  Pd  Pd30  1  0.250000  0.750000  0.000000  1
  Pd  Pd31  1  0.250000  0.250000  0.000000  1
  Pd  Pd32  1  0.750000  0.750000  0.000000  1
  Pd  Pd33  1  0.750000  0.250000  0.000000  1
