# generated using pymatgen
data_Ba2YbTcN4
_symmetry_space_group_name_H-M   'P 1'
_cell_length_a   10.82056389
_cell_length_b   10.45522776
_cell_length_c   8.02308069
_cell_angle_alpha   70.28410880
_cell_angle_beta   65.44920424
_cell_angle_gamma   44.26669151
_symmetry_Int_Tables_number   1
_chemical_formula_structural   Ba2YbTcN4
_chemical_formula_sum   'Ba8 Yb4 Tc4 N16'
_cell_volume   575.13644631
_cell_formula_units_Z   4
loop_
 _symmetry_equiv_pos_site_id
 _symmetry_equiv_pos_as_xyz
  1  'x, y, z'
loop_
 _atom_site_type_symbol
 _atom_site_label
 _atom_site_symmetry_multiplicity
 _atom_site_fract_x
 _atom_site_fract_y
 _atom_site_fract_z
 _atom_site_occupancy
  Ba  Ba0  1  0.573271  0.926729  0.926729  1
  Ba  Ba1  1  0.926729  0.573271  0.573271  1
  Ba  Ba2  1  0.323271  0.676729  0.676729  1
  Ba  Ba3  1  0.111068  0.111068  0.888932  1
  Ba  Ba4  1  0.138932  0.138932  0.361068  1
  Ba  Ba5  1  0.361068  0.361068  0.138932  1
  Ba  Ba6  1  0.676729  0.323271  0.323271  1
  Ba  Ba7  1  0.888932  0.888932  0.111068  1
  Yb  Yb8  1  0.337771  0.337771  0.662229  1
  Yb  Yb9  1  0.912229  0.912229  0.587771  1
  Yb  Yb10  1  0.662229  0.662229  0.337771  1
  Yb  Yb11  1  0.587771  0.587771  0.912229  1
  Tc  Tc12  1  0.493848  0.006152  0.493848  1
  Tc  Tc13  1  0.006152  0.493848  0.006152  1
  Tc  Tc14  1  0.756152  0.243848  0.756152  1
  Tc  Tc15  1  0.243848  0.756152  0.243848  1
  N  N16  1  0.011710  0.656135  0.823300  1
  N  N17  1  0.702664  0.282989  0.996569  1
  N  N18  1  0.656135  0.011710  0.508854  1
  N  N19  1  0.508854  0.823300  0.656135  1
  N  N20  1  0.238290  0.593865  0.426700  1
  N  N21  1  0.741146  0.426700  0.593865  1
  N  N22  1  0.996569  0.017779  0.702664  1
  N  N23  1  0.547336  0.967011  0.253431  1
  N  N24  1  0.426700  0.741146  0.238290  1
  N  N25  1  0.967011  0.547336  0.232221  1
  N  N26  1  0.282989  0.702664  0.017779  1
  N  N27  1  0.823300  0.508854  0.011710  1
  N  N28  1  0.232221  0.253431  0.967011  1
  N  N29  1  0.593865  0.238290  0.741146  1
  N  N30  1  0.253431  0.232221  0.547336  1
  N  N31  1  0.017779  0.996569  0.282989  1
