# generated using pymatgen
data_Ca3Si(SnRh3)2
_symmetry_space_group_name_H-M   'P 1'
_cell_length_a   5.75694900
_cell_length_b   5.75694781
_cell_length_c   15.95872300
_cell_angle_alpha   90.00000000
_cell_angle_beta   90.00000000
_cell_angle_gamma   120.00000108
_symmetry_Int_Tables_number   1
_chemical_formula_structural   Ca3Si(SnRh3)2
_chemical_formula_sum   'Ca6 Si2 Sn4 Rh12'
_cell_volume   458.05058093
_cell_formula_units_Z   2
loop_
 _symmetry_equiv_pos_site_id
 _symmetry_equiv_pos_as_xyz
  1  'x, y, z'
loop_
 _atom_site_type_symbol
 _atom_site_label
 _atom_site_symmetry_multiplicity
 _atom_site_fract_x
 _atom_site_fract_y
 _atom_site_fract_z
 _atom_site_occupancy
  Ca  Ca0  1  0.333333  0.666667  0.038662  1
  Ca  Ca1  1  0.333333  0.666667  0.250000  1
  Ca  Ca2  1  0.333333  0.666667  0.461338  1
  Ca  Ca3  1  0.666667  0.333334  0.547574  1
  Ca  Ca4  1  0.666667  0.333334  0.750000  1
  Ca  Ca5  1  0.666667  0.333334  0.952426  1
  Si  Si6  1  0.000000  0.000000  0.750000  1
  Si  Si7  1  0.333333  0.666667  0.750000  1
  Sn  Sn8  1  0.000000  0.000000  0.989987  1
  Sn  Sn9  1  0.000000  0.000000  0.250000  1
  Sn  Sn10  1  0.666667  0.333334  0.250000  1
  Sn  Sn11  1  0.000000  0.000000  0.510013  1
  Rh  Rh12  1  0.339670  0.169835  0.120457  1
  Rh  Rh13  1  0.830165  0.169835  0.120457  1
  Rh  Rh14  1  0.830165  0.660330  0.120457  1
  Rh  Rh15  1  0.339670  0.169835  0.379543  1
  Rh  Rh16  1  0.830165  0.169835  0.379543  1
  Rh  Rh17  1  0.830165  0.660330  0.379543  1
  Rh  Rh18  1  0.167344  0.334689  0.644493  1
  Rh  Rh19  1  0.167344  0.832656  0.644493  1
  Rh  Rh20  1  0.665312  0.832656  0.644493  1
  Rh  Rh21  1  0.167344  0.334689  0.855508  1
  Rh  Rh22  1  0.167344  0.832656  0.855508  1
  Rh  Rh23  1  0.665312  0.832656  0.855508  1
