# generated using pymatgen
data_Ti12Tc6RuRh5
_symmetry_space_group_name_H-M   'P 1'
_cell_length_a   4.38428300
_cell_length_b   6.19709500
_cell_length_c   13.18278900
_cell_angle_alpha   90.00000000
_cell_angle_beta   90.00036988
_cell_angle_gamma   90.00000000
_symmetry_Int_Tables_number   1
_chemical_formula_structural   Ti12Tc6RuRh5
_chemical_formula_sum   'Ti12 Tc6 Ru1 Rh5'
_cell_volume   358.17398126
_cell_formula_units_Z   1
loop_
 _symmetry_equiv_pos_site_id
 _symmetry_equiv_pos_as_xyz
  1  'x, y, z'
loop_
 _atom_site_type_symbol
 _atom_site_label
 _atom_site_symmetry_multiplicity
 _atom_site_fract_x
 _atom_site_fract_y
 _atom_site_fract_z
 _atom_site_occupancy
  Ti  Ti0  1  0.499988  0.248660  0.998083  1
  Ti  Ti1  1  0.499988  0.751339  0.998083  1
  Ti  Ti2  1  0.000039  0.249683  0.166413  1
  Ti  Ti3  1  0.000039  0.750316  0.166413  1
  Ti  Ti4  1  0.500051  0.250463  0.333330  1
  Ti  Ti5  1  0.500051  0.749537  0.333330  1
  Ti  Ti6  1  0.999997  0.249683  0.500250  1
  Ti  Ti7  1  0.999997  0.750318  0.500250  1
  Ti  Ti8  1  0.499933  0.248662  0.668583  1
  Ti  Ti9  1  0.499933  0.751338  0.668583  1
  Ti  Ti10  1  0.999927  0.246278  0.833334  1
  Ti  Ti11  1  0.999927  0.753721  0.833334  1
  Tc  Tc12  1  0.999992  0.000000  0.001184  1
  Tc  Tc13  1  0.500044  0.500000  0.167161  1
  Tc  Tc14  1  0.000053  0.000000  0.333334  1
  Tc  Tc15  1  0.499996  0.500000  0.499493  1
  Tc  Tc16  1  0.999934  0.000000  0.665483  1
  Tc  Tc17  1  0.499936  0.500000  0.833335  1
  Ru  Ru18  1  0.499941  0.000000  0.833360  1
  Rh  Rh19  1  0.999995  0.500000  0.000369  1
  Rh  Rh20  1  0.500051  0.000000  0.166998  1
  Rh  Rh21  1  0.000050  0.500000  0.333313  1
  Rh  Rh22  1  0.499995  0.000000  0.499680  1
  Rh  Rh23  1  0.999939  0.500000  0.666310  1
