# generated using pymatgen
data_Ho3Tm3B14OsW
_symmetry_space_group_name_H-M   'P 1'
_cell_length_a   8.03306878
_cell_length_b   8.03306901
_cell_length_c   9.35405908
_cell_angle_alpha   89.92530710
_cell_angle_beta   90.07469314
_cell_angle_gamma   155.00058550
_symmetry_Int_Tables_number   1
_chemical_formula_structural   Ho3Tm3B14OsW
_chemical_formula_sum   'Ho3 Tm3 B14 Os1 W1'
_cell_volume   255.09470663
_cell_formula_units_Z   1
loop_
 _symmetry_equiv_pos_site_id
 _symmetry_equiv_pos_as_xyz
  1  'x, y, z'
loop_
 _atom_site_type_symbol
 _atom_site_label
 _atom_site_symmetry_multiplicity
 _atom_site_fract_x
 _atom_site_fract_y
 _atom_site_fract_z
 _atom_site_occupancy
  Ho  Ho0  1  0.893684  0.106316  0.437916  1
  Ho  Ho1  1  0.244167  0.755833  0.249868  1
  Ho  Ho2  1  0.753986  0.246014  0.750119  1
  Tm  Tm3  1  0.107034  0.892966  0.557583  1
  Tm  Tm4  1  0.894032  0.105968  0.061120  1
  Tm  Tm5  1  0.107183  0.892817  0.942552  1
  B  B6  1  0.726106  0.273894  0.465447  1
  B  B7  1  0.271258  0.728742  0.532129  1
  B  B8  1  0.726692  0.273308  0.034874  1
  B  B9  1  0.271667  0.728333  0.968172  1
  B  B10  1  0.631782  0.368218  0.150668  1
  B  B11  1  0.365299  0.634701  0.853195  1
  B  B12  1  0.631741  0.368259  0.349311  1
  B  B13  1  0.365207  0.634793  0.647648  1
  B  B14  1  0.520532  0.479468  0.095865  1
  B  B15  1  0.481270  0.518730  0.909797  1
  B  B16  1  0.520733  0.479267  0.403451  1
  B  B17  1  0.481423  0.518577  0.590829  1
  B  B18  1  0.456057  0.543943  0.249183  1
  B  B19  1  0.548262  0.451738  0.750185  1
  Os  Os20  1  0.053612  0.946388  0.249732  1
  W  W21  1  0.948278  0.051722  0.750356  1
