# generated using pymatgen
data_Dy5Ho5Tm2Co5Sn
_symmetry_space_group_name_H-M   'P 1'
_cell_length_a   8.24709928
_cell_length_b   8.25068561
_cell_length_c   8.24709955
_cell_angle_alpha   106.96305150
_cell_angle_beta   110.61624123
_cell_angle_gamma   110.84593651
_symmetry_Int_Tables_number   1
_chemical_formula_structural   Dy5Ho5Tm2Co5Sn
_chemical_formula_sum   'Dy5 Ho5 Tm2 Co5 Sn1'
_cell_volume   431.46171310
_cell_formula_units_Z   1
loop_
 _symmetry_equiv_pos_site_id
 _symmetry_equiv_pos_as_xyz
  1  'x, y, z'
loop_
 _atom_site_type_symbol
 _atom_site_label
 _atom_site_symmetry_multiplicity
 _atom_site_fract_x
 _atom_site_fract_y
 _atom_site_fract_z
 _atom_site_occupancy
  Dy  Dy0  1  0.693598  0.007141  0.313544  1
  Dy  Dy1  1  0.193465  0.207679  0.401667  1
  Dy  Dy2  1  0.807762  0.792124  0.600019  1
  Dy  Dy3  1  0.192105  0.792124  0.984361  1
  Dy  Dy4  1  0.806012  0.207679  0.014215  1
  Ho  Ho5  1  0.479189  0.292742  0.186428  1
  Ho  Ho6  1  0.106314  0.292742  0.813552  1
  Ho  Ho7  1  0.893470  0.706944  0.186300  1
  Ho  Ho8  1  0.520645  0.706944  0.813475  1
  Ho  Ho9  1  0.305597  0.619389  0.313791  1
  Tm  Tm10  1  0.307432  0.993663  0.686230  1
  Tm  Tm11  1  0.692757  0.379228  0.686471  1
  Co  Co12  1  0.500103  0.611036  0.110933  1
  Co  Co13  1  0.499795  0.386003  0.886208  1
  Co  Co14  1  0.378812  0.001682  0.379320  1
  Co  Co15  1  0.622363  0.001682  0.622870  1
  Co  Co16  1  0.000383  0.000526  0.000144  1
  Sn  Sn17  1  0.000197  0.500673  0.500476  1
