# generated using pymatgen
data_Cs4K3Rb2AlAs4
_symmetry_space_group_name_H-M   'P 1'
_cell_length_a   10.53194758
_cell_length_b   10.51680363
_cell_length_c   11.18610584
_cell_angle_alpha   90.00000188
_cell_angle_beta   90.11044886
_cell_angle_gamma   119.95244926
_symmetry_Int_Tables_number   1
_chemical_formula_structural   Cs4K3Rb2AlAs4
_chemical_formula_sum   'Cs8 K6 Rb4 Al2 As8'
_cell_volume   1073.51675823
_cell_formula_units_Z   2
loop_
 _symmetry_equiv_pos_site_id
 _symmetry_equiv_pos_as_xyz
  1  'x, y, z'
loop_
 _atom_site_type_symbol
 _atom_site_label
 _atom_site_symmetry_multiplicity
 _atom_site_fract_x
 _atom_site_fract_y
 _atom_site_fract_z
 _atom_site_occupancy
  Cs  Cs0  1  0.792231  0.584251  0.047164  1
  Cs  Cs1  1  0.790794  0.207996  0.452081  1
  Cs  Cs2  1  0.790794  0.582798  0.452081  1
  Cs  Cs3  1  0.208566  0.792293  0.547831  1
  Cs  Cs4  1  0.583360  0.791680  0.547752  1
  Cs  Cs5  1  0.415571  0.207785  0.047571  1
  Cs  Cs6  1  0.792231  0.207980  0.047164  1
  Cs  Cs7  1  0.208566  0.416273  0.547831  1
  K  K8  1  0.241763  0.120881  0.749726  1
  K  K9  1  0.879582  0.120688  0.750767  1
  K  K10  1  0.757893  0.878947  0.248826  1
  K  K11  1  0.121688  0.242190  0.249162  1
  K  K12  1  0.121688  0.879498  0.249162  1
  K  K13  1  0.879582  0.758895  0.750767  1
  Rb  Rb14  1  0.208306  0.791441  0.954360  1
  Rb  Rb15  1  0.208306  0.416866  0.954360  1
  Rb  Rb16  1  0.582907  0.791453  0.954184  1
  Rb  Rb17  1  0.415237  0.207619  0.454209  1
  Al  Al18  1  0.333003  0.666502  0.247903  1
  Al  Al19  1  0.666460  0.333229  0.751699  1
  As  As20  1  0.999693  0.999847  0.999310  1
  As  As21  1  0.062363  0.531182  0.247783  1
  As  As22  1  0.469256  0.938345  0.248576  1
  As  As23  1  0.530124  0.060707  0.750150  1
  As  As24  1  0.530124  0.469417  0.750150  1
  As  As25  1  0.002079  0.001039  0.499337  1
  As  As26  1  0.469256  0.530911  0.248576  1
  As  As27  1  0.938576  0.469288  0.751524  1
