# generated using pymatgen
data_Y6Al24Ru5Pt3
_symmetry_space_group_name_H-M   'P 1'
_cell_length_a   8.84671867
_cell_length_b   8.84106018
_cell_length_c   9.51560302
_cell_angle_alpha   90.21061618
_cell_angle_beta   89.98847814
_cell_angle_gamma   119.78601500
_symmetry_Int_Tables_number   1
_chemical_formula_structural   Y6Al24Ru5Pt3
_chemical_formula_sum   'Y6 Al24 Ru5 Pt3'
_cell_volume   645.92520529
_cell_formula_units_Z   1
loop_
 _symmetry_equiv_pos_site_id
 _symmetry_equiv_pos_as_xyz
  1  'x, y, z'
loop_
 _atom_site_type_symbol
 _atom_site_label
 _atom_site_symmetry_multiplicity
 _atom_site_fract_x
 _atom_site_fract_y
 _atom_site_fract_z
 _atom_site_occupancy
  Y  Y0  1  0.189963  0.385267  0.251599  1
  Y  Y1  1  0.810037  0.614733  0.748401  1
  Y  Y2  1  0.615156  0.809017  0.250805  1
  Y  Y3  1  0.384844  0.190983  0.749195  1
  Y  Y4  1  0.191838  0.806037  0.250509  1
  Y  Y5  1  0.808162  0.193963  0.749491  1
  Al  Al6  1  0.327685  0.663517  0.026912  1
  Al  Al7  1  0.672315  0.336483  0.973088  1
  Al  Al8  1  0.669275  0.330414  0.524110  1
  Al  Al9  1  0.330725  0.669586  0.475890  1
  Al  Al10  1  0.157877  0.324902  0.576746  1
  Al  Al11  1  0.842123  0.675098  0.423254  1
  Al  Al12  1  0.675543  0.842179  0.576991  1
  Al  Al13  1  0.842002  0.675170  0.076719  1
  Al  Al14  1  0.324457  0.157821  0.423009  1
  Al  Al15  1  0.157998  0.324830  0.923281  1
  Al  Al16  1  0.162785  0.835773  0.575890  1
  Al  Al17  1  0.322354  0.161819  0.078431  1
  Al  Al18  1  0.837215  0.164227  0.424110  1
  Al  Al19  1  0.677646  0.838181  0.921569  1
  Al  Al20  1  0.842061  0.167659  0.076617  1
  Al  Al21  1  0.157939  0.832341  0.923383  1
  Al  Al22  1  0.562337  0.125458  0.253755  1
  Al  Al23  1  0.437663  0.874542  0.746245  1
  Al  Al24  1  0.877634  0.439328  0.249630  1
  Al  Al25  1  0.122366  0.560672  0.750370  1
  Al  Al26  1  0.563892  0.436552  0.249424  1
  Al  Al27  1  0.436108  0.563448  0.750576  1
  Al  Al28  1  0.997758  0.999944  0.250162  1
  Al  Al29  1  0.002242  0.000056  0.749838  1
  Ru  Ru30  1  0.000000  0.500000  0.000000  1
  Ru  Ru31  1  0.500000  0.000000  0.500000  1
  Ru  Ru32  1  0.000000  0.500000  0.500000  1
  Ru  Ru33  1  0.000000  0.000000  0.000000  1
  Ru  Ru34  1  0.000000  0.000000  0.500000  1
  Pt  Pt35  1  0.500000  0.000000  0.000000  1
  Pt  Pt36  1  0.500000  0.500000  0.000000  1
  Pt  Pt37  1  0.500000  0.500000  0.500000  1
