# generated using pymatgen
data_Sm8Nb9Si16Mo3
_symmetry_space_group_name_H-M   'P 1'
_cell_length_a   6.87892706
_cell_length_b   7.15565769
_cell_length_c   13.47075300
_cell_angle_alpha   90.00000000
_cell_angle_beta   90.00000000
_cell_angle_gamma   89.96824919
_symmetry_Int_Tables_number   1
_chemical_formula_structural   Sm8Nb9Si16Mo3
_chemical_formula_sum   'Sm8 Nb9 Si16 Mo3'
_cell_volume   663.07410435
_cell_formula_units_Z   1
loop_
 _symmetry_equiv_pos_site_id
 _symmetry_equiv_pos_as_xyz
  1  'x, y, z'
loop_
 _atom_site_type_symbol
 _atom_site_label
 _atom_site_symmetry_multiplicity
 _atom_site_fract_x
 _atom_site_fract_y
 _atom_site_fract_z
 _atom_site_occupancy
  Sm  Sm0  1  0.503726  0.330182  0.096078  1
  Sm  Sm1  1  0.003513  0.170234  0.403986  1
  Sm  Sm2  1  0.495625  0.670150  0.595821  1
  Sm  Sm3  1  0.996197  0.829649  0.904708  1
  Sm  Sm4  1  0.495625  0.670150  0.904179  1
  Sm  Sm5  1  0.996197  0.829649  0.595292  1
  Sm  Sm6  1  0.503726  0.330182  0.403922  1
  Sm  Sm7  1  0.003513  0.170234  0.096014  1
  Nb  Nb8  1  0.835252  0.328227  0.626294  1
  Nb  Nb9  1  0.335067  0.172441  0.873921  1
  Nb  Nb10  1  0.165154  0.671628  0.126870  1
  Nb  Nb11  1  0.665669  0.828477  0.372579  1
  Nb  Nb12  1  0.165154  0.671628  0.373130  1
  Nb  Nb13  1  0.665669  0.828477  0.127421  1
  Nb  Nb14  1  0.835252  0.328227  0.873706  1
  Nb  Nb15  1  0.335067  0.172441  0.626079  1
  Nb  Nb16  1  0.661142  0.010672  0.750000  1
  Si  Si17  1  0.660299  0.039833  0.541965  1
  Si  Si18  1  0.159828  0.458960  0.956634  1
  Si  Si19  1  0.340682  0.959702  0.044029  1
  Si  Si20  1  0.840288  0.540561  0.456308  1
  Si  Si21  1  0.340682  0.959702  0.455971  1
  Si  Si22  1  0.840288  0.540561  0.043692  1
  Si  Si23  1  0.660299  0.039833  0.958035  1
  Si  Si24  1  0.159828  0.458960  0.543366  1
  Si  Si25  1  0.535161  0.375531  0.750000  1
  Si  Si26  1  0.039774  0.127272  0.750000  1
  Si  Si27  1  0.463179  0.627028  0.250000  1
  Si  Si28  1  0.964202  0.873674  0.250000  1
  Si  Si29  1  0.799959  0.620611  0.750000  1
  Si  Si30  1  0.295552  0.876196  0.750000  1
  Si  Si31  1  0.199265  0.378329  0.250000  1
  Si  Si32  1  0.699215  0.122200  0.250000  1
  Mo  Mo33  1  0.160447  0.487988  0.750000  1
  Mo  Mo34  1  0.339953  0.987801  0.250000  1
  Mo  Mo35  1  0.839554  0.512609  0.250000  1
