# generated using pymatgen
data_Cs6HoTmI12
_symmetry_space_group_name_H-M   'P 1'
_cell_length_a   10.67696908
_cell_length_b   10.68041008
_cell_length_c   8.85534300
_cell_angle_alpha   90.00000000
_cell_angle_beta   90.00000000
_cell_angle_gamma   89.98578697
_symmetry_Int_Tables_number   1
_chemical_formula_structural   Cs6HoTmI12
_chemical_formula_sum   'Cs6 Ho1 Tm1 I12'
_cell_volume   1009.81376762
_cell_formula_units_Z   1
loop_
 _symmetry_equiv_pos_site_id
 _symmetry_equiv_pos_as_xyz
  1  'x, y, z'
loop_
 _atom_site_type_symbol
 _atom_site_label
 _atom_site_symmetry_multiplicity
 _atom_site_fract_x
 _atom_site_fract_y
 _atom_site_fract_z
 _atom_site_occupancy
  Cs  Cs0  1  0.000000  0.000000  0.500000  1
  Cs  Cs1  1  0.000000  0.000000  0.000000  1
  Cs  Cs2  1  0.233239  0.586950  0.500000  1
  Cs  Cs3  1  0.766761  0.413050  0.500000  1
  Cs  Cs4  1  0.413036  0.233221  0.000000  1
  Cs  Cs5  1  0.586964  0.766779  0.000000  1
  Ho  Ho6  1  0.500000  0.000000  0.500000  1
  Tm  Tm7  1  0.000000  0.500000  0.000000  1
  I  I8  1  0.693346  0.058872  0.742680  1
  I  I9  1  0.306654  0.941128  0.742680  1
  I  I10  1  0.941313  0.692643  0.241823  1
  I  I11  1  0.058687  0.307357  0.241823  1
  I  I12  1  0.306654  0.941128  0.257320  1
  I  I13  1  0.693346  0.058872  0.257320  1
  I  I14  1  0.058687  0.307357  0.758177  1
  I  I15  1  0.941313  0.692643  0.758177  1
  I  I16  1  0.571524  0.727092  0.500000  1
  I  I17  1  0.428476  0.272908  0.500000  1
  I  I18  1  0.271851  0.571245  0.000000  1
  I  I19  1  0.728149  0.428755  0.000000  1
