# generated using pymatgen
data_Tb16In4Ni3Os
_symmetry_space_group_name_H-M   'P 1'
_cell_length_a   9.64620338
_cell_length_b   9.69253608
_cell_length_c   9.64620300
_cell_angle_alpha   60.15800156
_cell_angle_beta   59.99999788
_cell_angle_gamma   60.15800226
_symmetry_Int_Tables_number   1
_chemical_formula_structural   Tb16In4Ni3Os
_chemical_formula_sum   'Tb16 In4 Ni3 Os1'
_cell_volume   639.24640852
_cell_formula_units_Z   1
loop_
 _symmetry_equiv_pos_site_id
 _symmetry_equiv_pos_as_xyz
  1  'x, y, z'
loop_
 _atom_site_type_symbol
 _atom_site_label
 _atom_site_symmetry_multiplicity
 _atom_site_fract_x
 _atom_site_fract_y
 _atom_site_fract_z
 _atom_site_occupancy
  Tb  Tb0  1  0.097366  0.707902  0.097366  1
  Tb  Tb1  1  0.937330  0.940037  0.561316  1
  Tb  Tb2  1  0.938817  0.561148  0.938817  1
  Tb  Tb3  1  0.312714  0.687808  0.312714  1
  Tb  Tb4  1  0.938817  0.561148  0.561218  1
  Tb  Tb5  1  0.304718  0.315176  0.690053  1
  Tb  Tb6  1  0.098413  0.096454  0.098413  1
  Tb  Tb7  1  0.561218  0.561148  0.938817  1
  Tb  Tb8  1  0.098413  0.096454  0.706720  1
  Tb  Tb9  1  0.690053  0.315176  0.690053  1
  Tb  Tb10  1  0.686765  0.687808  0.312714  1
  Tb  Tb11  1  0.690053  0.315176  0.304718  1
  Tb  Tb12  1  0.312714  0.687808  0.686765  1
  Tb  Tb13  1  0.561316  0.940037  0.561316  1
  Tb  Tb14  1  0.706720  0.096454  0.098413  1
  Tb  Tb15  1  0.561316  0.940037  0.937330  1
  In  In16  1  0.331815  0.333003  0.331815  1
  In  In17  1  0.003364  0.333003  0.331815  1
  In  In18  1  0.333304  0.000088  0.333304  1
  In  In19  1  0.331815  0.333003  0.003364  1
  Ni  Ni20  1  0.892861  0.889215  0.892861  1
  Ni  Ni21  1  0.892861  0.889215  0.325062  1
  Ni  Ni22  1  0.325062  0.889215  0.892861  1
  Os  Os23  1  0.892171  0.323485  0.892171  1
