# generated using pymatgen
data_Tm5Th3(P7Ir8)2
_symmetry_space_group_name_H-M   'P 1'
_cell_length_a   3.95770500
_cell_length_b   12.72764291
_cell_length_c   13.08744512
_cell_angle_alpha   81.84717966
_cell_angle_beta   90.00000000
_cell_angle_gamma   90.00000000
_symmetry_Int_Tables_number   1
_chemical_formula_structural   Tm5Th3(P7Ir8)2
_chemical_formula_sum   'Tm5 Th3 P14 Ir16'
_cell_volume   652.58138078
_cell_formula_units_Z   1
loop_
 _symmetry_equiv_pos_site_id
 _symmetry_equiv_pos_as_xyz
  1  'x, y, z'
loop_
 _atom_site_type_symbol
 _atom_site_label
 _atom_site_symmetry_multiplicity
 _atom_site_fract_x
 _atom_site_fract_y
 _atom_site_fract_z
 _atom_site_occupancy
  Tm  Tm0  1  0.750000  0.792288  0.559178  1
  Tm  Tm1  1  0.250000  0.207086  0.441678  1
  Tm  Tm2  1  0.750000  0.481785  0.708612  1
  Tm  Tm3  1  0.250000  0.520089  0.292919  1
  Tm  Tm4  1  0.750000  0.716355  0.900852  1
  Th  Th5  1  0.250000  0.108634  0.790279  1
  Th  Th6  1  0.750000  0.891826  0.211529  1
  Th  Th7  1  0.250000  0.282266  0.100119  1
  P  P8  1  0.250000  0.905275  0.413085  1
  P  P9  1  0.750000  0.473488  0.128373  1
  P  P10  1  0.250000  0.529276  0.869652  1
  P  P11  1  0.750000  0.094594  0.588243  1
  P  P12  1  0.250000  0.744094  0.082249  1
  P  P13  1  0.750000  0.254085  0.915714  1
  P  P14  1  0.750000  0.158518  0.284880  1
  P  P15  1  0.250000  0.841643  0.716253  1
  P  P16  1  0.250000  0.052572  0.099938  1
  P  P17  1  0.750000  0.940944  0.899802  1
  P  P18  1  0.250000  0.319023  0.685782  1
  P  P19  1  0.750000  0.680755  0.313888  1
  P  P20  1  0.250000  0.608623  0.567667  1
  P  P21  1  0.750000  0.391394  0.433622  1
  Ir  Ir22  1  0.250000  0.992487  0.576179  1
  Ir  Ir23  1  0.750000  0.007249  0.423952  1
  Ir  Ir24  1  0.250000  0.662375  0.730109  1
  Ir  Ir25  1  0.750000  0.340042  0.269562  1
  Ir  Ir26  1  0.250000  0.552424  0.048569  1
  Ir  Ir27  1  0.750000  0.452917  0.949703  1
  Ir  Ir28  1  0.250000  0.062783  0.275613  1
  Ir  Ir29  1  0.750000  0.936915  0.724666  1
  Ir  Ir30  1  0.250000  0.424346  0.522136  1
  Ir  Ir31  1  0.750000  0.577381  0.478555  1
  Ir  Ir32  1  0.250000  0.915035  0.995443  1
  Ir  Ir33  1  0.750000  0.081203  0.001910  1
  Ir  Ir34  1  0.250000  0.727263  0.398300  1
  Ir  Ir35  1  0.750000  0.273134  0.600864  1
  Ir  Ir36  1  0.250000  0.340978  0.858082  1
  Ir  Ir37  1  0.750000  0.658856  0.142042  1
