# generated using pymatgen
data_LaSm4(B3Os)2
_symmetry_space_group_name_H-M   'P 1'
_cell_length_a   5.57397035
_cell_length_b   5.57397100
_cell_length_c   8.68826123
_cell_angle_alpha   71.29013117
_cell_angle_beta   71.29013123
_cell_angle_gamma   59.99999904
_symmetry_Int_Tables_number   1
_chemical_formula_structural   LaSm4(B3Os)2
_chemical_formula_sum   'La1 Sm4 B6 Os2'
_cell_volume   217.14449400
_cell_formula_units_Z   1
loop_
 _symmetry_equiv_pos_site_id
 _symmetry_equiv_pos_as_xyz
  1  'x, y, z'
loop_
 _atom_site_type_symbol
 _atom_site_label
 _atom_site_symmetry_multiplicity
 _atom_site_fract_x
 _atom_site_fract_y
 _atom_site_fract_z
 _atom_site_occupancy
  La  La0  1  0.000000  0.000000  0.000000  1
  Sm  Sm1  1  0.750758  0.750758  0.747729  1
  Sm  Sm2  1  0.249242  0.249242  0.252271  1
  Sm  Sm3  1  0.582133  0.582133  0.253602  1
  Sm  Sm4  1  0.417867  0.417867  0.746398  1
  B  B5  1  0.500000  0.173224  0.500000  1
  B  B6  1  0.826776  0.500000  0.500000  1
  B  B7  1  0.173224  0.826777  0.500000  1
  B  B8  1  0.173224  0.500000  0.500000  1
  B  B9  1  0.826776  0.173224  0.500000  1
  B  B10  1  0.500000  0.826776  0.500000  1
  Os  Os11  1  0.885352  0.885352  0.343946  1
  Os  Os12  1  0.114648  0.114648  0.656054  1
