# generated using pymatgen
data_La4Ir2Pt
_symmetry_space_group_name_H-M   'P 1'
_cell_length_a   7.86412848
_cell_length_b   7.85723510
_cell_length_c   7.86638956
_cell_angle_alpha   109.10166038
_cell_angle_beta   109.67378894
_cell_angle_gamma   109.62677987
_symmetry_Int_Tables_number   1
_chemical_formula_structural   La4Ir2Pt
_chemical_formula_sum   'La8 Ir4 Pt2'
_cell_volume   374.21843127
_cell_formula_units_Z   2
loop_
 _symmetry_equiv_pos_site_id
 _symmetry_equiv_pos_as_xyz
  1  'x, y, z'
loop_
 _atom_site_type_symbol
 _atom_site_label
 _atom_site_symmetry_multiplicity
 _atom_site_fract_x
 _atom_site_fract_y
 _atom_site_fract_z
 _atom_site_occupancy
  La  La0  1  0.116960  0.496873  0.992679  1
  La  La1  1  0.504819  0.001420  0.616645  1
  La  La2  1  0.391147  0.390645  0.389201  1
  La  La3  1  0.997485  0.115566  0.505849  1
  La  La4  1  0.883040  0.879914  0.875719  1
  La  La5  1  0.002515  0.618080  0.508364  1
  La  La6  1  0.608853  0.499498  0.998054  1
  La  La7  1  0.495181  0.996601  0.111826  1
  Ir  Ir8  1  0.375678  0.627457  0.751111  1
  Ir  Ir9  1  0.247459  0.123433  0.874410  1
  Ir  Ir10  1  0.752541  0.375974  0.626952  1
  Ir  Ir11  1  0.624322  0.751779  0.375432  1
  Pt  Pt12  1  0.876410  0.249587  0.125084  1
  Pt  Pt13  1  0.123590  0.873176  0.248675  1
