# generated using pymatgen
data_MnAl3(CuPd2)4
_symmetry_space_group_name_H-M   'P 1'
_cell_length_a   6.78989500
_cell_length_b   4.07387900
_cell_length_c   8.12201700
_cell_angle_alpha   90.00000000
_cell_angle_beta   89.99899422
_cell_angle_gamma   90.00000000
_symmetry_Int_Tables_number   1
_chemical_formula_structural   MnAl3(CuPd2)4
_chemical_formula_sum   'Mn1 Al3 Cu4 Pd8'
_cell_volume   224.66482314
_cell_formula_units_Z   1
loop_
 _symmetry_equiv_pos_site_id
 _symmetry_equiv_pos_as_xyz
  1  'x, y, z'
loop_
 _atom_site_type_symbol
 _atom_site_label
 _atom_site_symmetry_multiplicity
 _atom_site_fract_x
 _atom_site_fract_y
 _atom_site_fract_z
 _atom_site_occupancy
  Mn  Mn0  1  0.249945  0.750000  0.874304  1
  Al  Al1  1  0.749976  0.250001  0.130218  1
  Al  Al2  1  0.249965  0.750000  0.374974  1
  Al  Al3  1  0.749968  0.250001  0.620226  1
  Cu  Cu4  1  0.249798  0.250001  0.115104  1
  Cu  Cu5  1  0.750086  0.750000  0.374320  1
  Cu  Cu6  1  0.250250  0.250001  0.635535  1
  Cu  Cu7  1  0.749862  0.750000  0.875453  1
  Pd  Pd8  1  0.996679  0.750000  0.127987  1
  Pd  Pd9  1  0.503322  0.750000  0.127969  1
  Pd  Pd10  1  0.006901  0.250001  0.375063  1
  Pd  Pd11  1  0.493122  0.250001  0.375032  1
  Pd  Pd12  1  0.504162  0.750000  0.621747  1
  Pd  Pd13  1  0.995936  0.750000  0.621721  1
  Pd  Pd14  1  0.513255  0.250001  0.875196  1
  Pd  Pd15  1  0.986775  0.250001  0.875155  1
