# generated using pymatgen
data_Li3Ho4ScPt4
_symmetry_space_group_name_H-M   'P 1'
_cell_length_a   4.05065800
_cell_length_b   7.05203452
_cell_length_c   8.59622167
_cell_angle_alpha   91.42452386
_cell_angle_beta   90.00000000
_cell_angle_gamma   90.00000000
_symmetry_Int_Tables_number   1
_chemical_formula_structural   Li3Ho4ScPt4
_chemical_formula_sum   'Li3 Ho4 Sc1 Pt4'
_cell_volume   245.47844826
_cell_formula_units_Z   1
loop_
 _symmetry_equiv_pos_site_id
 _symmetry_equiv_pos_as_xyz
  1  'x, y, z'
loop_
 _atom_site_type_symbol
 _atom_site_label
 _atom_site_symmetry_multiplicity
 _atom_site_fract_x
 _atom_site_fract_y
 _atom_site_fract_z
 _atom_site_occupancy
  Li  Li0  1  0.250000  0.128318  0.058847  1
  Li  Li1  1  0.250000  0.638337  0.433056  1
  Li  Li2  1  0.750000  0.874041  0.944558  1
  Ho  Ho3  1  0.250000  0.029922  0.688563  1
  Ho  Ho4  1  0.250000  0.552375  0.830973  1
  Ho  Ho5  1  0.750000  0.948531  0.318829  1
  Ho  Ho6  1  0.750000  0.459205  0.173537  1
  Sc  Sc7  1  0.750000  0.374699  0.556598  1
  Pt  Pt8  1  0.250000  0.242977  0.381903  1
  Pt  Pt9  1  0.250000  0.746533  0.125094  1
  Pt  Pt10  1  0.750000  0.747265  0.622322  1
  Pt  Pt11  1  0.750000  0.257796  0.865721  1
