# generated using pymatgen
data_Tm2Hf3(ReTc)12
_symmetry_space_group_name_H-M   'P 1'
_cell_length_a   8.47711720
_cell_length_b   8.47927468
_cell_length_c   8.47927503
_cell_angle_alpha   109.47637181
_cell_angle_beta   109.46605967
_cell_angle_gamma   109.46607181
_symmetry_Int_Tables_number   1
_chemical_formula_structural   Tm2Hf3(ReTc)12
_chemical_formula_sum   'Tm2 Hf3 Re12 Tc12'
_cell_volume   469.21443642
_cell_formula_units_Z   1
loop_
 _symmetry_equiv_pos_site_id
 _symmetry_equiv_pos_as_xyz
  1  'x, y, z'
loop_
 _atom_site_type_symbol
 _atom_site_label
 _atom_site_symmetry_multiplicity
 _atom_site_fract_x
 _atom_site_fract_y
 _atom_site_fract_z
 _atom_site_occupancy
  Tm  Tm0  1  0.999690  0.000000  0.000000  1
  Tm  Tm1  1  0.625732  0.000000  0.000000  1
  Hf  Hf2  1  0.000150  0.625790  0.000000  1
  Hf  Hf3  1  0.000150  0.000000  0.625790  1
  Hf  Hf4  1  0.374360  0.374210  0.374210  1
  Re  Re5  1  0.376571  0.194905  0.000000  1
  Re  Re6  1  0.181667  0.805095  0.805095  1
  Re  Re7  1  0.376571  0.000000  0.194905  1
  Re  Re8  1  0.195380  0.377935  0.000000  1
  Re  Re9  1  0.001952  0.379029  0.194780  1
  Re  Re10  1  0.807172  0.184250  0.805220  1
  Re  Re11  1  0.807172  0.805220  0.184250  1
  Re  Re12  1  0.001952  0.194780  0.379029  1
  Re  Re13  1  0.195380  0.000000  0.377935  1
  Re  Re14  1  0.622923  0.620971  0.815750  1
  Re  Re15  1  0.817443  0.622065  0.622065  1
  Re  Re16  1  0.622923  0.815750  0.620971  1
  Tc  Tc17  1  0.394108  0.672877  0.000000  1
  Tc  Tc18  1  0.721231  0.327123  0.327123  1
  Tc  Tc19  1  0.394108  0.000000  0.672877  1
  Tc  Tc20  1  0.676062  0.396740  0.000000  1
  Tc  Tc21  1  0.999531  0.396458  0.676177  1
  Tc  Tc22  1  0.323354  0.720282  0.323823  1
  Tc  Tc23  1  0.323354  0.323823  0.720282  1
  Tc  Tc24  1  0.999531  0.676177  0.396458  1
  Tc  Tc25  1  0.676062  0.000000  0.396740  1
  Tc  Tc26  1  0.603074  0.603542  0.279718  1
  Tc  Tc27  1  0.279321  0.603260  0.603260  1
  Tc  Tc28  1  0.603074  0.279718  0.603542  1
