# generated using pymatgen
data_Tm4Ta2B4Ir7Ru3
_symmetry_space_group_name_H-M   'P 1'
_cell_length_a   9.65411234
_cell_length_b   9.66169934
_cell_length_c   3.15699800
_cell_angle_alpha   90.00000000
_cell_angle_beta   90.00000000
_cell_angle_gamma   90.03039234
_symmetry_Int_Tables_number   1
_chemical_formula_structural   Tm4Ta2B4Ir7Ru3
_chemical_formula_sum   'Tm4 Ta2 B4 Ir7 Ru3'
_cell_volume   294.46936001
_cell_formula_units_Z   1
loop_
 _symmetry_equiv_pos_site_id
 _symmetry_equiv_pos_as_xyz
  1  'x, y, z'
loop_
 _atom_site_type_symbol
 _atom_site_label
 _atom_site_symmetry_multiplicity
 _atom_site_fract_x
 _atom_site_fract_y
 _atom_site_fract_z
 _atom_site_occupancy
  Tm  Tm0  1  0.825663  0.675965  0.000000  1
  Tm  Tm1  1  0.173662  0.326215  0.000000  1
  Tm  Tm2  1  0.326588  0.826110  0.000000  1
  Tm  Tm3  1  0.674646  0.172051  0.000000  1
  Ta  Ta4  1  0.500166  0.499443  0.000000  1
  Ta  Ta5  1  0.996184  0.998892  0.000000  1
  B  B6  1  0.622791  0.884109  0.000000  1
  B  B7  1  0.380457  0.117150  0.000000  1
  B  B8  1  0.118447  0.618869  0.000000  1
  B  B9  1  0.882324  0.381672  0.000000  1
  Ir  Ir10  1  0.570711  0.720231  0.500000  1
  Ir  Ir11  1  0.427968  0.278624  0.500000  1
  Ir  Ir12  1  0.071777  0.779477  0.500000  1
  Ir  Ir13  1  0.929412  0.221065  0.500000  1
  Ir  Ir14  1  0.279174  0.571227  0.500000  1
  Ir  Ir15  1  0.721278  0.428292  0.500000  1
  Ir  Ir16  1  0.218782  0.070719  0.500000  1
  Ru  Ru17  1  0.780901  0.929360  0.500000  1
  Ru  Ru18  1  0.499109  0.999952  0.500000  1
  Ru  Ru19  1  0.999959  0.500577  0.500000  1
