# generated using pymatgen
data_TbSm2Sn3Hg2
_symmetry_space_group_name_H-M   'P 1'
_cell_length_a   6.50595027
_cell_length_b   6.50595045
_cell_length_c   10.31375700
_cell_angle_alpha   90.00000000
_cell_angle_beta   90.00000000
_cell_angle_gamma   102.95614094
_symmetry_Int_Tables_number   1
_chemical_formula_structural   TbSm2Sn3Hg2
_chemical_formula_sum   'Tb2 Sm4 Sn6 Hg4'
_cell_volume   425.44060323
_cell_formula_units_Z   2
loop_
 _symmetry_equiv_pos_site_id
 _symmetry_equiv_pos_as_xyz
  1  'x, y, z'
loop_
 _atom_site_type_symbol
 _atom_site_label
 _atom_site_symmetry_multiplicity
 _atom_site_fract_x
 _atom_site_fract_y
 _atom_site_fract_z
 _atom_site_occupancy
  Tb  Tb0  1  0.625643  0.625643  0.250000  1
  Tb  Tb1  1  0.374357  0.374357  0.750000  1
  Sm  Sm2  1  0.795473  0.204527  0.000000  1
  Sm  Sm3  1  0.204527  0.795473  0.000000  1
  Sm  Sm4  1  0.204527  0.795473  0.500000  1
  Sm  Sm5  1  0.795473  0.204527  0.500000  1
  Sn  Sn6  1  0.065958  0.494912  0.250000  1
  Sn  Sn7  1  0.934042  0.505088  0.750000  1
  Sn  Sn8  1  0.494912  0.065958  0.250000  1
  Sn  Sn9  1  0.505088  0.934042  0.750000  1
  Sn  Sn10  1  0.014212  0.014212  0.250000  1
  Sn  Sn11  1  0.985788  0.985788  0.750000  1
  Hg  Hg12  1  0.313774  0.313774  0.039767  1
  Hg  Hg13  1  0.686226  0.686226  0.960233  1
  Hg  Hg14  1  0.686226  0.686226  0.539767  1
  Hg  Hg15  1  0.313774  0.313774  0.460233  1
