# generated using pymatgen
data_Zr4Ti12Bi11Sb7
_symmetry_space_group_name_H-M   'P 1'
_cell_length_a   10.25086290
_cell_length_b   10.23323800
_cell_length_c   7.51235854
_cell_angle_alpha   90.00000000
_cell_angle_beta   90.14072544
_cell_angle_gamma   90.00000000
_symmetry_Int_Tables_number   1
_chemical_formula_structural   Zr4Ti12Bi11Sb7
_chemical_formula_sum   'Zr4 Ti12 Bi11 Sb7'
_cell_volume   788.04042633
_cell_formula_units_Z   1
loop_
 _symmetry_equiv_pos_site_id
 _symmetry_equiv_pos_as_xyz
  1  'x, y, z'
loop_
 _atom_site_type_symbol
 _atom_site_label
 _atom_site_symmetry_multiplicity
 _atom_site_fract_x
 _atom_site_fract_y
 _atom_site_fract_z
 _atom_site_occupancy
  Zr  Zr0  1  0.503506  0.000000  0.073446  1
  Zr  Zr1  1  0.999879  0.500000  0.930577  1
  Zr  Zr2  1  0.504199  0.000000  0.594267  1
  Zr  Zr3  1  0.999976  0.500000  0.401407  1
  Ti  Ti4  1  0.139394  0.000000  0.150940  1
  Ti  Ti5  1  0.359666  0.500000  0.851061  1
  Ti  Ti6  1  0.996844  0.142129  0.851261  1
  Ti  Ti7  1  0.500268  0.640244  0.149933  1
  Ti  Ti8  1  0.996844  0.857871  0.851261  1
  Ti  Ti9  1  0.859654  0.000000  0.149844  1
  Ti  Ti10  1  0.249659  0.747465  0.001919  1
  Ti  Ti11  1  0.249659  0.252535  0.001919  1
  Ti  Ti12  1  0.749859  0.749807  0.999669  1
  Ti  Ti13  1  0.640092  0.500000  0.850345  1
  Ti  Ti14  1  0.500268  0.359756  0.149933  1
  Ti  Ti15  1  0.749859  0.250193  0.999669  1
  Bi  Bi16  1  0.830817  0.667902  0.650652  1
  Bi  Bi17  1  0.255661  0.000000  0.810005  1
  Bi  Bi18  1  0.670055  0.169714  0.348864  1
  Bi  Bi19  1  0.168240  0.331645  0.651224  1
  Bi  Bi20  1  0.830817  0.332098  0.650652  1
  Bi  Bi21  1  0.332138  0.831341  0.348695  1
  Bi  Bi22  1  0.670055  0.830286  0.348864  1
  Bi  Bi23  1  0.997591  0.000000  0.499969  1
  Bi  Bi24  1  0.168240  0.668355  0.651224  1
  Bi  Bi25  1  0.332138  0.168659  0.348695  1
  Bi  Bi26  1  0.499914  0.500000  0.500242  1
  Sb  Sb27  1  0.245101  0.500000  0.181464  1
  Sb  Sb28  1  0.754847  0.500000  0.179722  1
  Sb  Sb29  1  0.999953  0.255254  0.180787  1
  Sb  Sb30  1  0.499821  0.755427  0.820423  1
  Sb  Sb31  1  0.999953  0.744746  0.180787  1
  Sb  Sb32  1  0.745213  0.000000  0.819854  1
  Sb  Sb33  1  0.499821  0.244573  0.820423  1
