# generated using pymatgen
data_Dy4Tm6Sn5Bi
_symmetry_space_group_name_H-M   'P 1'
_cell_length_a   8.93351300
_cell_length_b   8.93930691
_cell_length_c   6.46335000
_cell_angle_alpha   90.00000000
_cell_angle_beta   90.00000000
_cell_angle_gamma   119.97855836
_symmetry_Int_Tables_number   1
_chemical_formula_structural   Dy4Tm6Sn5Bi
_chemical_formula_sum   'Dy4 Tm6 Sn5 Bi1'
_cell_volume   447.10365573
_cell_formula_units_Z   1
loop_
 _symmetry_equiv_pos_site_id
 _symmetry_equiv_pos_as_xyz
  1  'x, y, z'
loop_
 _atom_site_type_symbol
 _atom_site_label
 _atom_site_symmetry_multiplicity
 _atom_site_fract_x
 _atom_site_fract_y
 _atom_site_fract_z
 _atom_site_occupancy
  Dy  Dy0  1  0.994682  0.757264  0.750000  1
  Dy  Dy1  1  0.764491  0.000000  0.750000  1
  Dy  Dy2  1  0.237418  0.242736  0.750000  1
  Dy  Dy3  1  0.237832  0.000000  0.250000  1
  Tm  Tm4  1  0.000244  0.239375  0.250000  1
  Tm  Tm5  1  0.760869  0.760625  0.250000  1
  Tm  Tm6  1  0.332565  0.662694  0.498241  1
  Tm  Tm7  1  0.669872  0.337306  0.001759  1
  Tm  Tm8  1  0.669872  0.337306  0.498241  1
  Tm  Tm9  1  0.332565  0.662694  0.001759  1
  Sn  Sn10  1  0.395731  0.394866  0.250000  1
  Sn  Sn11  1  0.000865  0.605134  0.250000  1
  Sn  Sn12  1  0.999550  0.396227  0.750000  1
  Sn  Sn13  1  0.603322  0.603773  0.750000  1
  Sn  Sn14  1  0.605651  0.000000  0.250000  1
  Bi  Bi15  1  0.394472  0.000000  0.750000  1
