# generated using pymatgen
data_Fe4Br7F
_symmetry_space_group_name_H-M   'P 1'
_cell_length_a   7.75493823
_cell_length_b   7.75493774
_cell_length_c   7.75493791
_cell_angle_alpha   57.84047608
_cell_angle_beta   57.84048069
_cell_angle_gamma   57.84047407
_symmetry_Int_Tables_number   1
_chemical_formula_structural   Fe4Br7F
_chemical_formula_sum   'Fe4 Br7 F1'
_cell_volume   313.42661107
_cell_formula_units_Z   1
loop_
 _symmetry_equiv_pos_site_id
 _symmetry_equiv_pos_as_xyz
  1  'x, y, z'
loop_
 _atom_site_type_symbol
 _atom_site_label
 _atom_site_symmetry_multiplicity
 _atom_site_fract_x
 _atom_site_fract_y
 _atom_site_fract_z
 _atom_site_occupancy
  Fe  Fe0  1  0.613565  0.136836  0.136836  1
  Fe  Fe1  1  0.127256  0.127256  0.127256  1
  Fe  Fe2  1  0.136836  0.136836  0.613565  1
  Fe  Fe3  1  0.136836  0.613565  0.136836  1
  Br  Br4  1  0.375469  0.375469  0.882061  1
  Br  Br5  1  0.887805  0.887805  0.887805  1
  Br  Br6  1  0.879581  0.879581  0.371788  1
  Br  Br7  1  0.371788  0.879581  0.879581  1
  Br  Br8  1  0.375469  0.882061  0.375469  1
  Br  Br9  1  0.879581  0.371788  0.879581  1
  Br  Br10  1  0.882061  0.375469  0.375469  1
  F  F11  1  0.333752  0.333752  0.333752  1
