# generated using pymatgen
data_Tb3Er(ReN3)4
_symmetry_space_group_name_H-M   'P 1'
_cell_length_a   7.38787624
_cell_length_b   7.38787628
_cell_length_c   6.29674116
_cell_angle_alpha   73.17258064
_cell_angle_beta   73.17259538
_cell_angle_gamma   82.26356901
_symmetry_Int_Tables_number   1
_chemical_formula_structural   Tb3Er(ReN3)4
_chemical_formula_sum   'Tb3 Er1 Re4 N12'
_cell_volume   314.39409181
_cell_formula_units_Z   1
loop_
 _symmetry_equiv_pos_site_id
 _symmetry_equiv_pos_as_xyz
  1  'x, y, z'
loop_
 _atom_site_type_symbol
 _atom_site_label
 _atom_site_symmetry_multiplicity
 _atom_site_fract_x
 _atom_site_fract_y
 _atom_site_fract_z
 _atom_site_occupancy
  Tb  Tb0  1  0.707283  0.292717  0.250000  1
  Tb  Tb1  1  0.907726  0.092274  0.750000  1
  Tb  Tb2  1  0.292391  0.707609  0.750000  1
  Er  Er3  1  0.094292  0.905708  0.250000  1
  Re  Re4  1  0.621418  0.796715  0.278556  1
  Re  Re5  1  0.203285  0.378582  0.221444  1
  Re  Re6  1  0.377818  0.203741  0.722902  1
  Re  Re7  1  0.796259  0.622182  0.777098  1
  N  N8  1  0.336863  0.361321  0.922100  1
  N  N9  1  0.006005  0.219639  0.336610  1
  N  N10  1  0.780361  0.993995  0.163390  1
  N  N11  1  0.221368  0.003731  0.843648  1
  N  N12  1  0.664219  0.642380  0.075159  1
  N  N13  1  0.869240  0.372375  0.843842  1
  N  N14  1  0.129677  0.628399  0.158561  1
  N  N15  1  0.996269  0.778632  0.656352  1
  N  N16  1  0.371601  0.870323  0.341439  1
  N  N17  1  0.638679  0.663137  0.577900  1
  N  N18  1  0.627625  0.130760  0.656158  1
  N  N19  1  0.357620  0.335781  0.424841  1
