# generated using pymatgen
data_NdHoZn5Sn
_symmetry_space_group_name_H-M   'P 1'
_cell_length_a   8.45023660
_cell_length_b   8.45023546
_cell_length_c   9.02613800
_cell_angle_alpha   90.00000000
_cell_angle_beta   90.00000000
_cell_angle_gamma   149.75360328
_symmetry_Int_Tables_number   1
_chemical_formula_structural   NdHoZn5Sn
_chemical_formula_sum   'Nd2 Ho2 Zn10 Sn2'
_cell_volume   324.65981864
_cell_formula_units_Z   2
loop_
 _symmetry_equiv_pos_site_id
 _symmetry_equiv_pos_as_xyz
  1  'x, y, z'
loop_
 _atom_site_type_symbol
 _atom_site_label
 _atom_site_symmetry_multiplicity
 _atom_site_fract_x
 _atom_site_fract_y
 _atom_site_fract_z
 _atom_site_occupancy
  Nd  Nd0  1  0.000000  0.000000  0.500000  1
  Nd  Nd1  1  0.000000  0.000000  0.000000  1
  Ho  Ho2  1  0.204714  0.795286  0.250000  1
  Ho  Ho3  1  0.795286  0.204714  0.750000  1
  Zn  Zn4  1  0.812318  0.187682  0.390825  1
  Zn  Zn5  1  0.187682  0.812318  0.609175  1
  Zn  Zn6  1  0.812318  0.187682  0.109175  1
  Zn  Zn7  1  0.187682  0.812318  0.890825  1
  Zn  Zn8  1  0.657543  0.342457  0.482101  1
  Zn  Zn9  1  0.342457  0.657543  0.517899  1
  Zn  Zn10  1  0.657543  0.342457  0.017899  1
  Zn  Zn11  1  0.342457  0.657543  0.982101  1
  Zn  Zn12  1  0.393474  0.606526  0.250000  1
  Zn  Zn13  1  0.606526  0.393474  0.750000  1
  Sn  Sn14  1  0.556479  0.443521  0.250000  1
  Sn  Sn15  1  0.443521  0.556479  0.750000  1
