# generated using pymatgen
data_Yb3CuAs2H
_symmetry_space_group_name_H-M   'P 1'
_cell_length_a   4.16388300
_cell_length_b   11.11825700
_cell_length_c   11.49029100
_cell_angle_alpha   90.00000000
_cell_angle_beta   90.00000000
_cell_angle_gamma   90.00000000
_symmetry_Int_Tables_number   1
_chemical_formula_structural   Yb3CuAs2H
_chemical_formula_sum   'Yb12 Cu4 As8 H4'
_cell_volume   531.94441575
_cell_formula_units_Z   4
loop_
 _symmetry_equiv_pos_site_id
 _symmetry_equiv_pos_as_xyz
  1  'x, y, z'
loop_
 _atom_site_type_symbol
 _atom_site_label
 _atom_site_symmetry_multiplicity
 _atom_site_fract_x
 _atom_site_fract_y
 _atom_site_fract_z
 _atom_site_occupancy
  Yb  Yb0  1  0.250000  0.060215  0.623692  1
  Yb  Yb1  1  0.250000  0.560215  0.876308  1
  Yb  Yb2  1  0.750000  0.939785  0.376308  1
  Yb  Yb3  1  0.750000  0.439785  0.123692  1
  Yb  Yb4  1  0.250000  0.371332  0.556242  1
  Yb  Yb5  1  0.250000  0.871332  0.943758  1
  Yb  Yb6  1  0.750000  0.628668  0.443758  1
  Yb  Yb7  1  0.750000  0.128668  0.056242  1
  Yb  Yb8  1  0.250000  0.213695  0.295884  1
  Yb  Yb9  1  0.250000  0.713695  0.204116  1
  Yb  Yb10  1  0.750000  0.786305  0.704116  1
  Yb  Yb11  1  0.750000  0.286305  0.795884  1
  Cu  Cu12  1  0.250000  0.132798  0.860954  1
  Cu  Cu13  1  0.250000  0.632798  0.639046  1
  Cu  Cu14  1  0.750000  0.867202  0.139046  1
  Cu  Cu15  1  0.750000  0.367202  0.360954  1
  As  As16  1  0.250000  0.480618  0.318926  1
  As  As17  1  0.250000  0.980618  0.181074  1
  As  As18  1  0.750000  0.519382  0.681074  1
  As  As19  1  0.750000  0.019382  0.818926  1
  As  As20  1  0.250000  0.312145  0.991068  1
  As  As21  1  0.250000  0.812145  0.508932  1
  As  As22  1  0.750000  0.687855  0.008932  1
  As  As23  1  0.750000  0.187855  0.491068  1
  H  H24  1  0.250000  0.237329  0.724440  1
  H  H25  1  0.250000  0.737329  0.775560  1
  H  H26  1  0.750000  0.762671  0.275560  1
  H  H27  1  0.750000  0.262671  0.224440  1
