# generated using pymatgen
data_Lu3Hf(ZnRh2)4
_symmetry_space_group_name_H-M   'P 1'
_cell_length_a   6.07664900
_cell_length_b   6.07621900
_cell_length_c   6.92759700
_cell_angle_alpha   90.00000000
_cell_angle_beta   90.00000000
_cell_angle_gamma   90.00000000
_symmetry_Int_Tables_number   1
_chemical_formula_structural   Lu3Hf(ZnRh2)4
_chemical_formula_sum   'Lu3 Hf1 Zn4 Rh8'
_cell_volume   255.78801117
_cell_formula_units_Z   1
loop_
 _symmetry_equiv_pos_site_id
 _symmetry_equiv_pos_as_xyz
  1  'x, y, z'
loop_
 _atom_site_type_symbol
 _atom_site_label
 _atom_site_symmetry_multiplicity
 _atom_site_fract_x
 _atom_site_fract_y
 _atom_site_fract_z
 _atom_site_occupancy
  Lu  Lu0  1  0.749880  0.250000  0.000000  1
  Lu  Lu1  1  0.250109  0.750001  0.000000  1
  Lu  Lu2  1  0.750192  0.250000  0.500000  1
  Hf  Hf3  1  0.249835  0.750001  0.500000  1
  Zn  Zn4  1  0.249964  0.250000  0.000000  1
  Zn  Zn5  1  0.750032  0.750001  0.000000  1
  Zn  Zn6  1  0.749959  0.750001  0.499996  1
  Zn  Zn7  1  0.250055  0.250000  0.500003  1
  Rh  Rh8  1  0.002945  0.997051  0.253708  1
  Rh  Rh9  1  0.002945  0.502950  0.253708  1
  Rh  Rh10  1  0.497048  0.997055  0.253867  1
  Rh  Rh11  1  0.497048  0.502944  0.253867  1
  Rh  Rh12  1  0.497051  0.997055  0.746132  1
  Rh  Rh13  1  0.497051  0.502946  0.746132  1
  Rh  Rh14  1  0.002945  0.997051  0.746292  1
  Rh  Rh15  1  0.002945  0.502948  0.746292  1
