# generated using pymatgen
data_ErLu5Zr2(Co4P3)4
_symmetry_space_group_name_H-M   'P 1'
_cell_length_a   3.69179700
_cell_length_b   10.63794900
_cell_length_c   12.32689900
_cell_angle_alpha   90.00000000
_cell_angle_beta   90.00000000
_cell_angle_gamma   90.00000000
_symmetry_Int_Tables_number   1
_chemical_formula_structural   ErLu5Zr2(Co4P3)4
_chemical_formula_sum   'Er1 Lu5 Zr2 Co16 P12'
_cell_volume   484.11613133
_cell_formula_units_Z   1
loop_
 _symmetry_equiv_pos_site_id
 _symmetry_equiv_pos_as_xyz
  1  'x, y, z'
loop_
 _atom_site_type_symbol
 _atom_site_label
 _atom_site_symmetry_multiplicity
 _atom_site_fract_x
 _atom_site_fract_y
 _atom_site_fract_z
 _atom_site_occupancy
  Er  Er0  1  0.250000  0.750000  0.529799  1
  Lu  Lu1  1  0.750000  0.250000  0.470344  1
  Lu  Lu2  1  0.250000  0.927791  0.795254  1
  Lu  Lu3  1  0.250000  0.572209  0.795254  1
  Lu  Lu4  1  0.750000  0.072259  0.204835  1
  Lu  Lu5  1  0.750000  0.427741  0.204835  1
  Zr  Zr6  1  0.250000  0.250000  0.841103  1
  Zr  Zr7  1  0.750000  0.750000  0.158696  1
  Co  Co8  1  0.250000  0.250000  0.297283  1
  Co  Co9  1  0.750000  0.750000  0.703429  1
  Co  Co10  1  0.750000  0.250000  0.014951  1
  Co  Co11  1  0.250000  0.750000  0.985068  1
  Co  Co12  1  0.250000  0.418086  0.007605  1
  Co  Co13  1  0.250000  0.081914  0.007605  1
  Co  Co14  1  0.750000  0.581888  0.992396  1
  Co  Co15  1  0.750000  0.918112  0.992396  1
  Co  Co16  1  0.250000  0.454588  0.566444  1
  Co  Co17  1  0.250000  0.045412  0.566444  1
  Co  Co18  1  0.750000  0.544831  0.433425  1
  Co  Co19  1  0.750000  0.955169  0.433425  1
  Co  Co20  1  0.250000  0.873637  0.298604  1
  Co  Co21  1  0.250000  0.626363  0.298604  1
  Co  Co22  1  0.750000  0.126467  0.701234  1
  Co  Co23  1  0.750000  0.373533  0.701234  1
  P  P24  1  0.250000  0.250000  0.118157  1
  P  P25  1  0.750000  0.750000  0.881902  1
  P  P26  1  0.250000  0.250000  0.634907  1
  P  P27  1  0.750000  0.750000  0.364390  1
  P  P28  1  0.250000  0.438157  0.383644  1
  P  P29  1  0.250000  0.061843  0.383644  1
  P  P30  1  0.750000  0.561347  0.616552  1
  P  P31  1  0.750000  0.938653  0.616552  1
  P  P32  1  0.250000  0.913068  0.107374  1
  P  P33  1  0.250000  0.586932  0.107374  1
  P  P34  1  0.750000  0.086945  0.892617  1
  P  P35  1  0.750000  0.413055  0.892617  1
