# generated using pymatgen
data_Er4GaReRu6
_symmetry_space_group_name_H-M   'P 1'
_cell_length_a   5.17941082
_cell_length_b   5.40023570
_cell_length_c   8.82288500
_cell_angle_alpha   90.00000000
_cell_angle_beta   90.00000000
_cell_angle_gamma   119.87535998
_symmetry_Int_Tables_number   1
_chemical_formula_structural   Er4GaReRu6
_chemical_formula_sum   'Er4 Ga1 Re1 Ru6'
_cell_volume   213.98257574
_cell_formula_units_Z   1
loop_
 _symmetry_equiv_pos_site_id
 _symmetry_equiv_pos_as_xyz
  1  'x, y, z'
loop_
 _atom_site_type_symbol
 _atom_site_label
 _atom_site_symmetry_multiplicity
 _atom_site_fract_x
 _atom_site_fract_y
 _atom_site_fract_z
 _atom_site_occupancy
  Er  Er0  1  0.333711  0.669414  0.437315  1
  Er  Er1  1  0.658432  0.328275  0.565478  1
  Er  Er2  1  0.658432  0.328275  0.934522  1
  Er  Er3  1  0.333711  0.669414  0.062685  1
  Ga  Ga4  1  0.834278  0.169466  0.250000  1
  Re  Re5  1  0.667986  0.835846  0.750000  1
  Ru  Ru6  1  0.989849  0.988376  0.499994  1
  Ru  Ru7  1  0.989849  0.988376  0.000006  1
  Ru  Ru8  1  0.827253  0.658223  0.250000  1
  Ru  Ru9  1  0.348462  0.181708  0.250000  1
  Ru  Ru10  1  0.177691  0.832854  0.750000  1
  Ru  Ru11  1  0.180345  0.349770  0.750000  1
