# generated using pymatgen
data_Pm2PtS3
_symmetry_space_group_name_H-M   'P 1'
_cell_length_a   3.86723800
_cell_length_b   7.86826457
_cell_length_c   8.40821203
_cell_angle_alpha   91.13652551
_cell_angle_beta   90.00000000
_cell_angle_gamma   90.00000000
_symmetry_Int_Tables_number   1
_chemical_formula_structural   Pm2PtS3
_chemical_formula_sum   'Pm4 Pt2 S6'
_cell_volume   255.79854128
_cell_formula_units_Z   2
loop_
 _symmetry_equiv_pos_site_id
 _symmetry_equiv_pos_as_xyz
  1  'x, y, z'
loop_
 _atom_site_type_symbol
 _atom_site_label
 _atom_site_symmetry_multiplicity
 _atom_site_fract_x
 _atom_site_fract_y
 _atom_site_fract_z
 _atom_site_occupancy
  Pm  Pm0  1  0.250936  0.125681  0.207913  1
  Pm  Pm1  1  0.750936  0.374319  0.792087  1
  Pm  Pm2  1  0.750247  0.865267  0.763774  1
  Pm  Pm3  1  0.250247  0.634733  0.236226  1
  Pt  Pt4  1  0.748795  0.133166  0.499588  1
  Pt  Pt5  1  0.248795  0.366834  0.500412  1
  S  S6  1  0.248045  0.929435  0.494949  1
  S  S7  1  0.748045  0.570565  0.505051  1
  S  S8  1  0.251154  0.118848  0.864800  1
  S  S9  1  0.751154  0.381152  0.135200  1
  S  S10  1  0.750823  0.872574  0.127718  1
  S  S11  1  0.250823  0.627426  0.872282  1
