# generated using pymatgen
data_Na3SrZr6BBr18
_symmetry_space_group_name_H-M   'P 1'
_cell_length_a   10.27973524
_cell_length_b   10.24263010
_cell_length_c   10.29441752
_cell_angle_alpha   118.47217300
_cell_angle_beta   100.69165911
_cell_angle_gamma   102.62232958
_symmetry_Int_Tables_number   1
_chemical_formula_structural   Na3SrZr6BBr18
_chemical_formula_sum   'Na3 Sr1 Zr6 B1 Br18'
_cell_volume   875.15678521
_cell_formula_units_Z   1
loop_
 _symmetry_equiv_pos_site_id
 _symmetry_equiv_pos_as_xyz
  1  'x, y, z'
loop_
 _atom_site_type_symbol
 _atom_site_label
 _atom_site_symmetry_multiplicity
 _atom_site_fract_x
 _atom_site_fract_y
 _atom_site_fract_z
 _atom_site_occupancy
  Na  Na0  1  0.871996  0.985460  0.790686  1
  Na  Na1  1  0.117152  0.020427  0.212670  1
  Na  Na2  1  0.839966  0.271036  0.447153  1
  Sr  Sr3  1  0.181919  0.734969  0.573815  1
  Zr  Zr4  1  0.346605  0.446381  0.767754  1
  Zr  Zr5  1  0.368550  0.635224  0.140749  1
  Zr  Zr6  1  0.644739  0.737892  0.041942  1
  Zr  Zr7  1  0.653321  0.551791  0.230443  1
  Zr  Zr8  1  0.355594  0.263834  0.958008  1
  Zr  Zr9  1  0.632069  0.362940  0.855605  1
  B  B10  1  0.501109  0.499977  0.999059  1
  Br  Br11  1  0.824512  0.405660  0.102398  1
  Br  Br12  1  0.524298  0.714012  0.428397  1
  Br  Br13  1  0.163428  0.966263  0.899576  1
  Br  Br14  1  0.172841  0.590871  0.894601  1
  Br  Br15  1  0.837336  0.835742  0.317044  1
  Br  Br16  1  0.509508  0.289061  0.217367  1
  Br  Br17  1  0.793374  0.193003  0.683437  1
  Br  Br18  1  0.160048  0.162654  0.680994  1
  Br  Br19  1  0.513990  0.926956  0.208125  1
  Br  Br20  1  0.814717  0.616875  0.885900  1
  Br  Br21  1  0.202622  0.804194  0.318307  1
  Br  Br22  1  0.148605  0.388457  0.480637  1
  Br  Br23  1  0.487614  0.711028  0.779132  1
  Br  Br24  1  0.837002  0.031094  0.098311  1
  Br  Br25  1  0.473246  0.284274  0.569963  1
  Br  Br26  1  0.182616  0.381454  0.110327  1
  Br  Br27  1  0.859711  0.621107  0.520527  1
  Br  Br28  1  0.481513  0.067366  0.787073  1
