# generated using pymatgen
data_Nd2Si2Pt3Rh
_symmetry_space_group_name_H-M   'P 1'
_cell_length_a   9.50058382
_cell_length_b   9.50058370
_cell_length_c   4.11574900
_cell_angle_alpha   90.00000000
_cell_angle_beta   90.00000000
_cell_angle_gamma   155.42881274
_symmetry_Int_Tables_number   1
_chemical_formula_structural   Nd2Si2Pt3Rh
_chemical_formula_sum   'Nd2 Si2 Pt3 Rh1'
_cell_volume   154.47510501
_cell_formula_units_Z   1
loop_
 _symmetry_equiv_pos_site_id
 _symmetry_equiv_pos_as_xyz
  1  'x, y, z'
loop_
 _atom_site_type_symbol
 _atom_site_label
 _atom_site_symmetry_multiplicity
 _atom_site_fract_x
 _atom_site_fract_y
 _atom_site_fract_z
 _atom_site_occupancy
  Nd  Nd0  1  0.102463  0.897537  0.750000  1
  Nd  Nd1  1  0.897092  0.102908  0.250000  1
  Si  Si2  1  0.322609  0.677391  0.750000  1
  Si  Si3  1  0.677449  0.322551  0.250000  1
  Pt  Pt4  1  0.548737  0.451263  0.250000  1
  Pt  Pt5  1  0.451363  0.548637  0.750000  1
  Pt  Pt6  1  0.250172  0.749828  0.250000  1
  Rh  Rh7  1  0.750114  0.249886  0.750000  1
