# generated using pymatgen
data_Zr6Zn16Cu7Sb
_symmetry_space_group_name_H-M   'P 1'
_cell_length_a   8.70519610
_cell_length_b   8.70519630
_cell_length_c   8.70519600
_cell_angle_alpha   60.00000112
_cell_angle_beta   60.00000039
_cell_angle_gamma   59.99999880
_symmetry_Int_Tables_number   1
_chemical_formula_structural   Zr6Zn16Cu7Sb
_chemical_formula_sum   'Zr6 Zn16 Cu7 Sb1'
_cell_volume   466.46674152
_cell_formula_units_Z   1
loop_
 _symmetry_equiv_pos_site_id
 _symmetry_equiv_pos_as_xyz
  1  'x, y, z'
loop_
 _atom_site_type_symbol
 _atom_site_label
 _atom_site_symmetry_multiplicity
 _atom_site_fract_x
 _atom_site_fract_y
 _atom_site_fract_z
 _atom_site_occupancy
  Zr  Zr0  1  0.725878  0.274122  0.274122  1
  Zr  Zr1  1  0.274122  0.725878  0.725878  1
  Zr  Zr2  1  0.274122  0.725878  0.274122  1
  Zr  Zr3  1  0.725878  0.274122  0.725878  1
  Zr  Zr4  1  0.274122  0.274122  0.725878  1
  Zr  Zr5  1  0.725878  0.725878  0.274122  1
  Zn  Zn6  1  0.124987  0.124987  0.124987  1
  Zn  Zn7  1  0.875013  0.875013  0.875013  1
  Zn  Zn8  1  0.124987  0.124987  0.625040  1
  Zn  Zn9  1  0.124987  0.625040  0.124987  1
  Zn  Zn10  1  0.875013  0.875013  0.374960  1
  Zn  Zn11  1  0.875013  0.374960  0.875013  1
  Zn  Zn12  1  0.625040  0.124987  0.124987  1
  Zn  Zn13  1  0.374960  0.875013  0.875013  1
  Zn  Zn14  1  0.336475  0.336475  0.336475  1
  Zn  Zn15  1  0.663525  0.663525  0.663525  1
  Zn  Zn16  1  0.336475  0.336475  0.990574  1
  Zn  Zn17  1  0.336475  0.990574  0.336475  1
  Zn  Zn18  1  0.663525  0.663525  0.009426  1
  Zn  Zn19  1  0.663525  0.009426  0.663525  1
  Zn  Zn20  1  0.990574  0.336475  0.336475  1
  Zn  Zn21  1  0.009426  0.663525  0.663525  1
  Cu  Cu22  1  0.500000  0.000000  0.000000  1
  Cu  Cu23  1  0.000000  0.500000  0.500000  1
  Cu  Cu24  1  0.000000  0.500000  0.000000  1
  Cu  Cu25  1  0.500000  0.000000  0.500000  1
  Cu  Cu26  1  0.000000  0.000000  0.500000  1
  Cu  Cu27  1  0.500000  0.500000  0.000000  1
  Cu  Cu28  1  0.000000  0.000000  0.000000  1
  Sb  Sb29  1  0.500000  0.500000  0.500000  1
