# generated using pymatgen
data_Ti4MoIr2Ru
_symmetry_space_group_name_H-M   'P 1'
_cell_length_a   6.23008900
_cell_length_b   4.40328000
_cell_length_c   8.77765600
_cell_angle_alpha   90.00000000
_cell_angle_beta   89.99990832
_cell_angle_gamma   90.00000000
_symmetry_Int_Tables_number   1
_chemical_formula_structural   Ti4MoIr2Ru
_chemical_formula_sum   'Ti8 Mo2 Ir4 Ru2'
_cell_volume   240.79591230
_cell_formula_units_Z   2
loop_
 _symmetry_equiv_pos_site_id
 _symmetry_equiv_pos_as_xyz
  1  'x, y, z'
loop_
 _atom_site_type_symbol
 _atom_site_label
 _atom_site_symmetry_multiplicity
 _atom_site_fract_x
 _atom_site_fract_y
 _atom_site_fract_z
 _atom_site_occupancy
  Ti  Ti0  1  0.001006  0.749999  0.123399  1
  Ti  Ti1  1  0.498965  0.749999  0.123403  1
  Ti  Ti2  1  0.998985  0.249999  0.376600  1
  Ti  Ti3  1  0.501023  0.249999  0.376599  1
  Ti  Ti4  1  0.500521  0.749999  0.625935  1
  Ti  Ti5  1  0.999473  0.749999  0.625938  1
  Ti  Ti6  1  0.499489  0.249999  0.874062  1
  Ti  Ti7  1  0.000536  0.249999  0.874062  1
  Mo  Mo8  1  0.750008  0.249999  0.623419  1
  Mo  Mo9  1  0.250002  0.749999  0.876580  1
  Ir  Ir10  1  0.249995  0.249999  0.127675  1
  Ir  Ir11  1  0.749995  0.749999  0.372324  1
  Ir  Ir12  1  0.250007  0.249999  0.622575  1
  Ir  Ir13  1  0.750003  0.749999  0.877426  1
  Ru  Ru14  1  0.749997  0.249999  0.126522  1
  Ru  Ru15  1  0.249993  0.749999  0.373479  1
