# generated using pymatgen
data_LuZnGa5Cu6
_symmetry_space_group_name_H-M   'P 1'
_cell_length_a   5.15538101
_cell_length_b   6.61404833
_cell_length_c   6.61404700
_cell_angle_alpha   99.61840186
_cell_angle_beta   112.93769252
_cell_angle_gamma   67.06231782
_symmetry_Int_Tables_number   1
_chemical_formula_structural   LuZnGa5Cu6
_chemical_formula_sum   'Lu1 Zn1 Ga5 Cu6'
_cell_volume   191.23977346
_cell_formula_units_Z   1
loop_
 _symmetry_equiv_pos_site_id
 _symmetry_equiv_pos_as_xyz
  1  'x, y, z'
loop_
 _atom_site_type_symbol
 _atom_site_label
 _atom_site_symmetry_multiplicity
 _atom_site_fract_x
 _atom_site_fract_y
 _atom_site_fract_z
 _atom_site_occupancy
  Lu  Lu0  1  0.998922  0.001078  0.998922  1
  Zn  Zn1  1  0.303474  0.196526  0.803474  1
  Ga  Ga2  1  0.655091  0.344909  0.655091  1
  Ga  Ga3  1  0.349011  0.650989  0.349011  1
  Ga  Ga4  1  0.001718  0.345019  0.348455  1
  Ga  Ga5  1  0.001718  0.651545  0.654981  1
  Ga  Ga6  1  0.690132  0.809868  0.190132  1
  Cu  Cu7  1  0.501162  0.998123  0.498864  1
  Cu  Cu8  1  0.999579  0.998123  0.498864  1
  Cu  Cu9  1  0.501162  0.501136  0.001877  1
  Cu  Cu10  1  0.999579  0.501136  0.001877  1
  Cu  Cu11  1  0.499226  0.770226  0.768677  1
  Cu  Cu12  1  0.499226  0.231323  0.229774  1
