# generated using pymatgen
data_Sr4Li5Pt9
_symmetry_space_group_name_H-M   'P 1'
_cell_length_a   13.05668297
_cell_length_b   13.05668300
_cell_length_c   13.05668438
_cell_angle_alpha   24.50186969
_cell_angle_beta   24.50187032
_cell_angle_gamma   24.50186923
_symmetry_Int_Tables_number   1
_chemical_formula_structural   Sr4Li5Pt9
_chemical_formula_sum   'Sr4 Li5 Pt9'
_cell_volume   336.59662615
_cell_formula_units_Z   1
loop_
 _symmetry_equiv_pos_site_id
 _symmetry_equiv_pos_as_xyz
  1  'x, y, z'
loop_
 _atom_site_type_symbol
 _atom_site_label
 _atom_site_symmetry_multiplicity
 _atom_site_fract_x
 _atom_site_fract_y
 _atom_site_fract_z
 _atom_site_occupancy
  Sr  Sr0  1  0.949557  0.949557  0.949557  1
  Sr  Sr1  1  0.050443  0.050443  0.050443  1
  Sr  Sr2  1  0.852632  0.852632  0.852632  1
  Sr  Sr3  1  0.147368  0.147368  0.147368  1
  Li  Li4  1  0.500000  0.500000  0.500000  1
  Li  Li5  1  0.721387  0.721387  0.721387  1
  Li  Li6  1  0.278613  0.278613  0.278613  1
  Li  Li7  1  0.611721  0.611721  0.611721  1
  Li  Li8  1  0.388279  0.388279  0.388279  1
  Pt  Pt9  1  0.500000  0.500000  0.000000  1
  Pt  Pt10  1  0.000000  0.500000  0.500000  1
  Pt  Pt11  1  0.500000  0.000000  0.500000  1
  Pt  Pt12  1  0.390322  0.891884  0.390322  1
  Pt  Pt13  1  0.390322  0.390322  0.891884  1
  Pt  Pt14  1  0.891884  0.390322  0.390322  1
  Pt  Pt15  1  0.609678  0.108116  0.609678  1
  Pt  Pt16  1  0.609678  0.609678  0.108116  1
  Pt  Pt17  1  0.108116  0.609678  0.609678  1
