# generated using pymatgen
data_Sr3Ga4NiRu3
_symmetry_space_group_name_H-M   'P 1'
_cell_length_a   6.75458103
_cell_length_b   6.70219586
_cell_length_c   6.75457902
_cell_angle_alpha   109.31419443
_cell_angle_beta   109.62778507
_cell_angle_gamma   109.31419535
_symmetry_Int_Tables_number   1
_chemical_formula_structural   Sr3Ga4NiRu3
_chemical_formula_sum   'Sr3 Ga4 Ni1 Ru3'
_cell_volume   235.84675422
_cell_formula_units_Z   1
loop_
 _symmetry_equiv_pos_site_id
 _symmetry_equiv_pos_as_xyz
  1  'x, y, z'
loop_
 _atom_site_type_symbol
 _atom_site_label
 _atom_site_symmetry_multiplicity
 _atom_site_fract_x
 _atom_site_fract_y
 _atom_site_fract_z
 _atom_site_occupancy
  Sr  Sr0  1  0.506416  0.012088  0.506416  1
  Sr  Sr1  1  0.000000  0.505671  0.493584  1
  Sr  Sr2  1  0.493584  0.505671  0.000000  1
  Ga  Ga3  1  0.000000  0.003166  0.614272  1
  Ga  Ga4  1  0.385728  0.388894  0.385728  1
  Ga  Ga5  1  0.000000  0.598154  0.000000  1
  Ga  Ga6  1  0.614272  0.003166  0.000000  1
  Ni  Ni7  1  0.000000  0.236588  0.000000  1
  Ru  Ru8  1  0.000000  0.996027  0.241478  1
  Ru  Ru9  1  0.758522  0.754549  0.758522  1
  Ru  Ru10  1  0.241478  0.996027  0.000000  1
