# generated using pymatgen
data_ScTaCrB2Ru5
_symmetry_space_group_name_H-M   'P 1'
_cell_length_a   9.31815104
_cell_length_b   9.31806030
_cell_length_c   2.99479500
_cell_angle_alpha   90.00000000
_cell_angle_beta   90.00000000
_cell_angle_gamma   89.71586674
_symmetry_Int_Tables_number   1
_chemical_formula_structural   ScTaCrB2Ru5
_chemical_formula_sum   'Sc2 Ta2 Cr2 B4 Ru10'
_cell_volume   260.02614731
_cell_formula_units_Z   2
loop_
 _symmetry_equiv_pos_site_id
 _symmetry_equiv_pos_as_xyz
  1  'x, y, z'
loop_
 _atom_site_type_symbol
 _atom_site_label
 _atom_site_symmetry_multiplicity
 _atom_site_fract_x
 _atom_site_fract_y
 _atom_site_fract_z
 _atom_site_occupancy
  Sc  Sc0  1  0.824444  0.675550  0.000000  1
  Sc  Sc1  1  0.175556  0.324450  0.000000  1
  Ta  Ta2  1  0.322409  0.822438  0.000000  1
  Ta  Ta3  1  0.677591  0.177562  0.000000  1
  Cr  Cr4  1  0.500000  0.500000  0.000000  1
  Cr  Cr5  1  0.000000  0.000000  0.000000  1
  B  B6  1  0.624706  0.875298  0.000000  1
  B  B7  1  0.375294  0.124702  0.000000  1
  B  B8  1  0.121991  0.621993  0.000000  1
  B  B9  1  0.878009  0.378007  0.000000  1
  Ru  Ru10  1  0.565374  0.714182  0.500000  1
  Ru  Ru11  1  0.434626  0.285818  0.500000  1
  Ru  Ru12  1  0.074452  0.789574  0.500000  1
  Ru  Ru13  1  0.925548  0.210426  0.500000  1
  Ru  Ru14  1  0.289527  0.574468  0.500000  1
  Ru  Ru15  1  0.710473  0.425532  0.500000  1
  Ru  Ru16  1  0.214133  0.065350  0.500000  1
  Ru  Ru17  1  0.785867  0.934650  0.500000  1
  Ru  Ru18  1  0.500000  0.000000  0.500000  1
  Ru  Ru19  1  0.000000  0.500000  0.500000  1
