# generated using pymatgen
data_TbHoGa9RuPt2
_symmetry_space_group_name_H-M   'P 1'
_cell_length_a   7.62522789
_cell_length_b   7.62677377
_cell_length_c   9.52594152
_cell_angle_alpha   90.12194933
_cell_angle_beta   90.09305510
_cell_angle_gamma   119.73775433
_symmetry_Int_Tables_number   1
_chemical_formula_structural   TbHoGa9RuPt2
_chemical_formula_sum   'Tb2 Ho2 Ga18 Ru2 Pt4'
_cell_volume   481.02846584
_cell_formula_units_Z   2
loop_
 _symmetry_equiv_pos_site_id
 _symmetry_equiv_pos_as_xyz
  1  'x, y, z'
loop_
 _atom_site_type_symbol
 _atom_site_label
 _atom_site_symmetry_multiplicity
 _atom_site_fract_x
 _atom_site_fract_y
 _atom_site_fract_z
 _atom_site_occupancy
  Tb  Tb0  1  0.998235  0.670494  0.250119  1
  Tb  Tb1  1  0.003717  0.331651  0.750130  1
  Ho  Ho2  1  0.668509  0.996090  0.250312  1
  Ho  Ho3  1  0.329323  0.002140  0.749581  1
  Ga  Ga4  1  0.125323  0.127847  0.254295  1
  Ga  Ga5  1  0.871997  0.874741  0.745474  1
  Ga  Ga6  1  0.999480  0.334348  0.084600  1
  Ga  Ga7  1  0.000027  0.666380  0.914261  1
  Ga  Ga8  1  0.996041  0.665677  0.578262  1
  Ga  Ga9  1  0.335266  0.004093  0.422315  1
  Ga  Ga10  1  0.991849  0.328300  0.422279  1
  Ga  Ga11  1  0.670390  0.007382  0.577352  1
  Ga  Ga12  1  0.664466  0.000320  0.915954  1
  Ga  Ga13  1  0.334998  0.000684  0.085241  1
  Ga  Ga14  1  0.330869  0.324710  0.563868  1
  Ga  Ga15  1  0.674847  0.669387  0.436232  1
  Ga  Ga16  1  0.666686  0.667382  0.073485  1
  Ga  Ga17  1  0.333345  0.332827  0.926674  1
  Ga  Ga18  1  0.338872  0.541941  0.251301  1
  Ga  Ga19  1  0.659392  0.451083  0.744994  1
  Ga  Ga20  1  0.548413  0.339784  0.255049  1
  Ga  Ga21  1  0.458657  0.661916  0.748474  1
  Ru  Ru22  1  0.671298  0.328527  0.500000  1
  Ru  Ru23  1  0.000027  0.000056  0.499954  1
  Pt  Pt24  1  0.670904  0.329769  0.000078  1
  Pt  Pt25  1  0.328923  0.671053  0.999848  1
  Pt  Pt26  1  0.327872  0.671591  0.499998  1
  Pt  Pt27  1  0.000273  0.999828  0.999870  1
