# generated using pymatgen
data_Tb3Ti(P3Pd4)2
_symmetry_space_group_name_H-M   'P 1'
_cell_length_a   3.97755000
_cell_length_b   11.36864200
_cell_length_c   13.24503300
_cell_angle_alpha   90.00000000
_cell_angle_beta   90.00000000
_cell_angle_gamma   90.00000000
_symmetry_Int_Tables_number   1
_chemical_formula_structural   Tb3Ti(P3Pd4)2
_chemical_formula_sum   'Tb6 Ti2 P12 Pd16'
_cell_volume   598.93167686
_cell_formula_units_Z   2
loop_
 _symmetry_equiv_pos_site_id
 _symmetry_equiv_pos_as_xyz
  1  'x, y, z'
loop_
 _atom_site_type_symbol
 _atom_site_label
 _atom_site_symmetry_multiplicity
 _atom_site_fract_x
 _atom_site_fract_y
 _atom_site_fract_z
 _atom_site_occupancy
  Tb  Tb0  1  0.000000  0.500000  0.520395  1
  Tb  Tb1  1  0.500000  0.000000  0.479605  1
  Tb  Tb2  1  0.500000  0.814922  0.204535  1
  Tb  Tb3  1  0.500000  0.185078  0.204535  1
  Tb  Tb4  1  0.000000  0.685078  0.795465  1
  Tb  Tb5  1  0.000000  0.314922  0.795465  1
  Ti  Ti6  1  0.500000  0.500000  0.154951  1
  Ti  Ti7  1  0.000000  0.000000  0.845049  1
  P  P8  1  0.500000  0.500000  0.871957  1
  P  P9  1  0.000000  0.000000  0.128043  1
  P  P10  1  0.500000  0.500000  0.348638  1
  P  P11  1  0.000000  0.000000  0.651362  1
  P  P12  1  0.500000  0.318519  0.616653  1
  P  P13  1  0.500000  0.681481  0.616653  1
  P  P14  1  0.000000  0.181481  0.383347  1
  P  P15  1  0.000000  0.818519  0.383347  1
  P  P16  1  0.500000  0.849718  0.885081  1
  P  P17  1  0.500000  0.150282  0.885081  1
  P  P18  1  0.000000  0.650282  0.114919  1
  P  P19  1  0.000000  0.349718  0.114919  1
  Pd  Pd20  1  0.500000  0.500000  0.698467  1
  Pd  Pd21  1  0.000000  0.000000  0.301533  1
  Pd  Pd22  1  0.000000  0.500000  0.985465  1
  Pd  Pd23  1  0.500000  0.000000  0.014535  1
  Pd  Pd24  1  0.500000  0.330486  0.975977  1
  Pd  Pd25  1  0.500000  0.669514  0.975977  1
  Pd  Pd26  1  0.000000  0.169514  0.024023  1
  Pd  Pd27  1  0.000000  0.830486  0.024023  1
  Pd  Pd28  1  0.500000  0.303142  0.433434  1
  Pd  Pd29  1  0.500000  0.696858  0.433434  1
  Pd  Pd30  1  0.000000  0.196858  0.566566  1
  Pd  Pd31  1  0.000000  0.803142  0.566566  1
  Pd  Pd32  1  0.500000  0.874808  0.708001  1
  Pd  Pd33  1  0.500000  0.125192  0.708001  1
  Pd  Pd34  1  0.000000  0.625192  0.291999  1
  Pd  Pd35  1  0.000000  0.374808  0.291999  1
