# generated using pymatgen
data_Tm20Bi11Te
_symmetry_space_group_name_H-M   'P 1'
_cell_length_a   8.14243717
_cell_length_b   9.42962100
_cell_length_c   11.84855926
_cell_angle_alpha   90.00000000
_cell_angle_beta   90.02380357
_cell_angle_gamma   90.00000000
_symmetry_Int_Tables_number   1
_chemical_formula_structural   Tm20Bi11Te
_chemical_formula_sum   'Tm20 Bi11 Te1'
_cell_volume   909.73344551
_cell_formula_units_Z   1
loop_
 _symmetry_equiv_pos_site_id
 _symmetry_equiv_pos_as_xyz
  1  'x, y, z'
loop_
 _atom_site_type_symbol
 _atom_site_label
 _atom_site_symmetry_multiplicity
 _atom_site_fract_x
 _atom_site_fract_y
 _atom_site_fract_z
 _atom_site_occupancy
  Tm  Tm0  1  0.023264  0.250000  0.512177  1
  Tm  Tm1  1  0.978498  0.750000  0.490095  1
  Tm  Tm2  1  0.476342  0.750000  0.010494  1
  Tm  Tm3  1  0.523850  0.250000  0.988564  1
  Tm  Tm4  1  0.358340  0.250000  0.284800  1
  Tm  Tm5  1  0.644412  0.750000  0.716813  1
  Tm  Tm6  1  0.145170  0.750000  0.781250  1
  Tm  Tm7  1  0.854282  0.250000  0.217944  1
  Tm  Tm8  1  0.186051  0.250000  0.782330  1
  Tm  Tm9  1  0.812897  0.750000  0.217296  1
  Tm  Tm10  1  0.313652  0.750000  0.282506  1
  Tm  Tm11  1  0.681218  0.250000  0.714438  1
  Tm  Tm12  1  0.192565  0.067006  0.059715  1
  Tm  Tm13  1  0.807485  0.934240  0.940978  1
  Tm  Tm14  1  0.309835  0.936346  0.558298  1
  Tm  Tm15  1  0.807485  0.565760  0.940978  1
  Tm  Tm16  1  0.690572  0.068122  0.442200  1
  Tm  Tm17  1  0.192565  0.432994  0.059715  1
  Tm  Tm18  1  0.690572  0.431878  0.442200  1
  Tm  Tm19  1  0.309835  0.563654  0.558298  1
  Bi  Bi20  1  0.597360  0.750000  0.456671  1
  Bi  Bi21  1  0.095886  0.750000  0.042594  1
  Bi  Bi22  1  0.904129  0.250000  0.956701  1
  Bi  Bi23  1  0.067833  0.004490  0.326506  1
  Bi  Bi24  1  0.932637  0.996937  0.675307  1
  Bi  Bi25  1  0.433023  0.996517  0.824308  1
  Bi  Bi26  1  0.932637  0.503063  0.675307  1
  Bi  Bi27  1  0.567373  0.004010  0.174363  1
  Bi  Bi28  1  0.067833  0.495510  0.326506  1
  Bi  Bi29  1  0.567373  0.495990  0.174363  1
  Bi  Bi30  1  0.433023  0.503483  0.824308  1
  Te  Te31  1  0.402000  0.250000  0.541976  1
