# generated using pymatgen
data_YbDy5ErCoI12
_symmetry_space_group_name_H-M   'P 1'
_cell_length_a   9.76812995
_cell_length_b   9.68956701
_cell_length_c   9.75805146
_cell_angle_alpha   107.00014575
_cell_angle_beta   106.86982760
_cell_angle_gamma   106.89840732
_symmetry_Int_Tables_number   1
_chemical_formula_structural   YbDy5ErCoI12
_chemical_formula_sum   'Yb1 Dy5 Er1 Co1 I12'
_cell_volume   770.78739676
_cell_formula_units_Z   1
loop_
 _symmetry_equiv_pos_site_id
 _symmetry_equiv_pos_as_xyz
  1  'x, y, z'
loop_
 _atom_site_type_symbol
 _atom_site_label
 _atom_site_symmetry_multiplicity
 _atom_site_fract_x
 _atom_site_fract_y
 _atom_site_fract_z
 _atom_site_occupancy
  Yb  Yb0  1  0.499984  0.500154  0.499790  1
  Dy  Dy1  1  0.295089  0.095605  0.024153  1
  Dy  Dy2  1  0.022566  0.281565  0.090757  1
  Dy  Dy3  1  0.096042  0.023431  0.295934  1
  Dy  Dy4  1  0.704873  0.904344  0.975893  1
  Dy  Dy5  1  0.977174  0.718270  0.908382  1
  Er  Er6  1  0.904786  0.976670  0.707331  1
  Co  Co7  1  0.000055  0.999893  0.000314  1
  I  I8  1  0.457466  0.150048  0.378736  1
  I  I9  1  0.377414  0.457335  0.151135  1
  I  I10  1  0.150484  0.379474  0.455227  1
  I  I11  1  0.544619  0.851031  0.621059  1
  I  I12  1  0.622490  0.542540  0.848390  1
  I  I13  1  0.849539  0.622544  0.544546  1
  I  I14  1  0.319454  0.774488  0.927682  1
  I  I15  1  0.929179  0.319401  0.777334  1
  I  I16  1  0.776906  0.928950  0.322502  1
  I  I17  1  0.680415  0.225383  0.071839  1
  I  I18  1  0.070220  0.678310  0.220891  1
  I  I19  1  0.221247  0.070566  0.678105  1
