# generated using pymatgen
data_PrDy9Y2Fe2I17
_symmetry_space_group_name_H-M   'P 1'
_cell_length_a   9.75652519
_cell_length_b   11.75754639
_cell_length_c   11.72734142
_cell_angle_alpha   93.55319794
_cell_angle_beta   104.72222316
_cell_angle_gamma   114.31076797
_symmetry_Int_Tables_number   1
_chemical_formula_structural   PrDy9Y2Fe2I17
_chemical_formula_sum   'Pr1 Dy9 Y2 Fe2 I17'
_cell_volume   1164.36141169
_cell_formula_units_Z   1
loop_
 _symmetry_equiv_pos_site_id
 _symmetry_equiv_pos_as_xyz
  1  'x, y, z'
loop_
 _atom_site_type_symbol
 _atom_site_label
 _atom_site_symmetry_multiplicity
 _atom_site_fract_x
 _atom_site_fract_y
 _atom_site_fract_z
 _atom_site_occupancy
  Pr  Pr0  1  0.853838  0.712924  0.846843  1
  Dy  Dy1  1  0.655229  0.241427  0.281323  1
  Dy  Dy2  1  0.007398  0.192958  0.409104  1
  Dy  Dy3  1  0.219457  0.671118  0.985004  1
  Dy  Dy4  1  0.256577  0.979970  0.889145  1
  Dy  Dy5  1  0.337387  0.757700  0.720839  1
  Dy  Dy6  1  0.946975  0.494040  0.678741  1
  Dy  Dy7  1  0.748167  0.025445  0.112547  1
  Dy  Dy8  1  0.143624  0.287647  0.154428  1
  Dy  Dy9  1  0.783351  0.326631  0.019971  1
  Y  Y10  1  0.051725  0.500958  0.320698  1
  Y  Y11  1  0.990533  0.809925  0.584379  1
  Fe  Fe12  1  0.100963  0.737367  0.785964  1
  Fe  Fe13  1  0.896627  0.261965  0.214656  1
  I  I14  1  0.783482  0.528323  0.418593  1
  I  I15  1  0.644321  0.410323  0.759562  1
  I  I16  1  0.845895  0.897384  0.326580  1
  I  I17  1  0.328740  0.214435  0.368658  1
  I  I18  1  0.156628  0.102900  0.673202  1
  I  I19  1  0.584352  0.050396  0.842916  1
  I  I20  1  0.759369  0.188225  0.539029  1
  I  I21  1  0.546156  0.712086  0.954063  1
  I  I22  1  0.356489  0.581408  0.238221  1
  I  I23  1  0.217200  0.473024  0.584281  1
  I  I24  1  0.058735  0.369704  0.897042  1
  I  I25  1  0.449659  0.288836  0.045396  1
  I  I26  1  0.004448  0.004490  0.001174  1
  I  I27  1  0.241868  0.811044  0.462668  1
  I  I28  1  0.412615  0.946524  0.155558  1
  I  I29  1  0.671116  0.789848  0.622725  1
  I  I30  1  0.947070  0.630978  0.106689  1
