# generated using pymatgen
data_SrYRu2F14
_symmetry_space_group_name_H-M   'P 1'
_cell_length_a   5.63074261
_cell_length_b   9.09163247
_cell_length_c   12.18652500
_cell_angle_alpha   62.13521298
_cell_angle_beta   89.79912449
_cell_angle_gamma   89.93566372
_symmetry_Int_Tables_number   1
_chemical_formula_structural   SrYRu2F14
_chemical_formula_sum   'Sr2 Y2 Ru4 F28'
_cell_volume   551.52221622
_cell_formula_units_Z   2
loop_
 _symmetry_equiv_pos_site_id
 _symmetry_equiv_pos_as_xyz
  1  'x, y, z'
loop_
 _atom_site_type_symbol
 _atom_site_label
 _atom_site_symmetry_multiplicity
 _atom_site_fract_x
 _atom_site_fract_y
 _atom_site_fract_z
 _atom_site_occupancy
  Sr  Sr0  1  0.261320  0.821076  0.263839  1
  Sr  Sr1  1  0.738680  0.178924  0.736161  1
  Y  Y2  1  0.769228  0.187257  0.235331  1
  Y  Y3  1  0.230772  0.812743  0.764669  1
  Ru  Ru4  1  0.756793  0.717137  0.043616  1
  Ru  Ru5  1  0.243207  0.282863  0.956384  1
  Ru  Ru6  1  0.261077  0.271961  0.451448  1
  Ru  Ru7  1  0.738923  0.728039  0.548552  1
  F  F8  1  0.923925  0.707234  0.425133  1
  F  F9  1  0.076075  0.292766  0.574867  1
  F  F10  1  0.429435  0.299140  0.081160  1
  F  F11  1  0.570565  0.700860  0.918840  1
  F  F12  1  0.471485  0.718517  0.127623  1
  F  F13  1  0.528515  0.281483  0.872377  1
  F  F14  1  0.969965  0.269711  0.366513  1
  F  F15  1  0.030035  0.730289  0.633487  1
  F  F16  1  0.937586  0.726859  0.170837  1
  F  F17  1  0.062414  0.273141  0.829163  1
  F  F18  1  0.453344  0.252335  0.325171  1
  F  F19  1  0.546656  0.747665  0.674829  1
  F  F20  1  0.768960  0.475725  0.137017  1
  F  F21  1  0.231040  0.524275  0.862983  1
  F  F22  1  0.268842  0.506108  0.356709  1
  F  F23  1  0.731158  0.493892  0.643291  1
  F  F24  1  0.948271  0.286334  0.040710  1
  F  F25  1  0.051729  0.713666  0.959290  1
  F  F26  1  0.451793  0.716728  0.469585  1
  F  F27  1  0.548207  0.283272  0.530415  1
  F  F28  1  0.738510  0.965707  0.454353  1
  F  F29  1  0.261490  0.034293  0.545647  1
  F  F30  1  0.242134  0.046019  0.041609  1
  F  F31  1  0.757866  0.953981  0.958391  1
  F  F32  1  0.615368  0.983535  0.224665  1
  F  F33  1  0.384632  0.016465  0.775335  1
  F  F34  1  0.092938  0.054986  0.272179  1
  F  F35  1  0.907062  0.945014  0.727821  1
