# generated using pymatgen
data_La17Yb3Sn13Bi3
_symmetry_space_group_name_H-M   'P 1'
_cell_length_a   8.47635191
_cell_length_b   8.57066864
_cell_length_c   16.44390641
_cell_angle_alpha   90.04216630
_cell_angle_beta   89.60146454
_cell_angle_gamma   90.14444223
_symmetry_Int_Tables_number   1
_chemical_formula_structural   La17Yb3Sn13Bi3
_chemical_formula_sum   'La17 Yb3 Sn13 Bi3'
_cell_volume   1194.58396671
_cell_formula_units_Z   1
loop_
 _symmetry_equiv_pos_site_id
 _symmetry_equiv_pos_as_xyz
  1  'x, y, z'
loop_
 _atom_site_type_symbol
 _atom_site_label
 _atom_site_symmetry_multiplicity
 _atom_site_fract_x
 _atom_site_fract_y
 _atom_site_fract_z
 _atom_site_occupancy
  La  La0  1  0.626816  0.162227  0.619901  1
  La  La1  1  0.126344  0.339226  0.880045  1
  La  La2  1  0.376287  0.840995  0.121283  1
  La  La3  1  0.871289  0.655644  0.379274  1
  La  La4  1  0.366371  0.838095  0.379944  1
  La  La5  1  0.868663  0.660075  0.119692  1
  La  La6  1  0.629416  0.160044  0.881458  1
  La  La7  1  0.133359  0.338766  0.619362  1
  La  La8  1  0.482046  0.682819  0.598380  1
  La  La9  1  0.975012  0.820802  0.898283  1
  La  La10  1  0.524607  0.316000  0.102670  1
  La  La11  1  0.019012  0.184219  0.399558  1
  La  La12  1  0.510930  0.317564  0.401253  1
  La  La13  1  0.011706  0.182353  0.102792  1
  La  La14  1  0.484967  0.683680  0.898761  1
  La  La15  1  0.991472  0.817298  0.599519  1
  La  La16  1  0.803019  0.500163  0.747620  1
  Yb  Yb17  1  0.297974  0.004710  0.745821  1
  Yb  Yb18  1  0.201120  0.501765  0.253085  1
  Yb  Yb19  1  0.702541  0.995085  0.248675  1
  Sn  Sn20  1  0.788866  0.464726  0.542405  1
  Sn  Sn21  1  0.286547  0.038382  0.540260  1
  Sn  Sn22  1  0.783275  0.466113  0.956182  1
  Sn  Sn23  1  0.716094  0.963981  0.042777  1
  Sn  Sn24  1  0.210383  0.536969  0.458251  1
  Sn  Sn25  1  0.430868  0.390324  0.752380  1
  Sn  Sn26  1  0.931235  0.113147  0.749660  1
  Sn  Sn27  1  0.568367  0.609122  0.250403  1
  Sn  Sn28  1  0.070273  0.888293  0.249415  1
  Sn  Sn29  1  0.682322  0.861221  0.748950  1
  Sn  Sn30  1  0.181378  0.641388  0.751070  1
  Sn  Sn31  1  0.316935  0.141169  0.249914  1
  Sn  Sn32  1  0.816737  0.355856  0.251131  1
  Bi  Bi33  1  0.714830  0.961325  0.458382  1
  Bi  Bi34  1  0.217674  0.533090  0.043173  1
  Bi  Bi35  1  0.281262  0.033359  0.958269  1
