# generated using pymatgen
data_HoBr37
_symmetry_space_group_name_H-M   'P 1'
_cell_length_a   14.20848141
_cell_length_b   15.29732181
_cell_length_c   14.42416200
_cell_angle_alpha   103.00376457
_cell_angle_beta   48.80056783
_cell_angle_gamma   81.50743146
_symmetry_Int_Tables_number   1
_chemical_formula_structural   HoBr37
_chemical_formula_sum   'Ho1 Br37'
_cell_volume   2102.91272627
_cell_formula_units_Z   1
loop_
 _symmetry_equiv_pos_site_id
 _symmetry_equiv_pos_as_xyz
  1  'x, y, z'
loop_
 _atom_site_type_symbol
 _atom_site_label
 _atom_site_symmetry_multiplicity
 _atom_site_fract_x
 _atom_site_fract_y
 _atom_site_fract_z
 _atom_site_occupancy
  Ho  Ho0  1  0.500000  0.000000  0.000000  1
  Br  Br1  1  0.789899  0.301518  0.136225  1
  Br  Br2  1  0.210101  0.698482  0.863775  1
  Br  Br3  1  0.745650  0.083318  0.363149  1
  Br  Br4  1  0.254350  0.916682  0.636851  1
  Br  Br5  1  0.113022  0.350386  0.170400  1
  Br  Br6  1  0.886978  0.649614  0.829600  1
  Br  Br7  1  0.867192  0.533705  0.247390  1
  Br  Br8  1  0.132808  0.466295  0.752610  1
  Br  Br9  1  0.687285  0.275229  0.521987  1
  Br  Br10  1  0.312715  0.724771  0.478013  1
  Br  Br11  1  0.052950  0.143374  0.470692  1
  Br  Br12  1  0.947050  0.856626  0.529308  1
  Br  Br13  1  0.979660  0.006954  0.285149  1
  Br  Br14  1  0.020340  0.993046  0.714851  1
  Br  Br15  1  0.955199  0.338634  0.597811  1
  Br  Br16  1  0.044801  0.661366  0.402189  1
  Br  Br17  1  0.580637  0.429767  0.234821  1
  Br  Br18  1  0.419363  0.570233  0.765179  1
  Br  Br19  1  0.169767  0.480025  0.276205  1
  Br  Br20  1  0.830233  0.519975  0.723795  1
  Br  Br21  1  0.000000  0.500000  0.000000  1
  Br  Br22  1  0.577878  0.956454  0.128980  1
  Br  Br23  1  0.422122  0.043546  0.871020  1
  Br  Br24  1  0.315473  0.052474  0.300008  1
  Br  Br25  1  0.684527  0.947526  0.699992  1
  Br  Br26  1  0.533835  0.133228  0.412442  1
  Br  Br27  1  0.466165  0.866772  0.587558  1
  Br  Br28  1  0.091903  0.215903  0.068701  1
  Br  Br29  1  0.908097  0.784097  0.931299  1
  Br  Br30  1  0.663248  0.692217  0.402645  1
  Br  Br31  1  0.336752  0.307783  0.597355  1
  Br  Br32  1  0.900745  0.148516  0.922810  1
  Br  Br33  1  0.099255  0.851484  0.077190  1
  Br  Br34  1  0.504558  0.176239  0.054559  1
  Br  Br35  1  0.495442  0.823761  0.945441  1
  Br  Br36  1  0.649705  0.430808  0.650738  1
  Br  Br37  1  0.350295  0.569192  0.349262  1
