# generated using pymatgen
data_Sc9Ti3Ga20
_symmetry_space_group_name_H-M   'P 1'
_cell_length_a   5.70650639
_cell_length_b   9.08595600
_cell_length_c   10.95939835
_cell_angle_alpha   90.00000000
_cell_angle_beta   90.22485600
_cell_angle_gamma   90.00000000
_symmetry_Int_Tables_number   1
_chemical_formula_structural   Sc9Ti3Ga20
_chemical_formula_sum   'Sc9 Ti3 Ga20'
_cell_volume   568.23019156
_cell_formula_units_Z   1
loop_
 _symmetry_equiv_pos_site_id
 _symmetry_equiv_pos_as_xyz
  1  'x, y, z'
loop_
 _atom_site_type_symbol
 _atom_site_label
 _atom_site_symmetry_multiplicity
 _atom_site_fract_x
 _atom_site_fract_y
 _atom_site_fract_z
 _atom_site_occupancy
  Sc  Sc0  1  0.350778  0.250000  0.433981  1
  Sc  Sc1  1  0.887790  0.503656  0.354505  1
  Sc  Sc2  1  0.616021  0.993270  0.855670  1
  Sc  Sc3  1  0.111131  0.005319  0.646180  1
  Sc  Sc4  1  0.388846  0.494883  0.146551  1
  Sc  Sc5  1  0.111131  0.494681  0.646180  1
  Sc  Sc6  1  0.388846  0.005117  0.146551  1
  Sc  Sc7  1  0.887790  0.996344  0.354505  1
  Sc  Sc8  1  0.616021  0.506730  0.855670  1
  Ti  Ti9  1  0.859980  0.750000  0.065105  1
  Ti  Ti10  1  0.641309  0.750000  0.567433  1
  Ti  Ti11  1  0.141516  0.250000  0.934676  1
  Ga  Ga12  1  0.874887  0.046153  0.091623  1
  Ga  Ga13  1  0.622759  0.454988  0.596535  1
  Ga  Ga14  1  0.127217  0.548154  0.907003  1
  Ga  Ga15  1  0.376224  0.943546  0.407021  1
  Ga  Ga16  1  0.127217  0.951846  0.907003  1
  Ga  Ga17  1  0.376224  0.556454  0.407021  1
  Ga  Ga18  1  0.874887  0.453847  0.091623  1
  Ga  Ga19  1  0.622759  0.045012  0.596535  1
  Ga  Ga20  1  0.146415  0.750000  0.247723  1
  Ga  Ga21  1  0.352392  0.750000  0.747963  1
  Ga  Ga22  1  0.853205  0.250000  0.752904  1
  Ga  Ga23  1  0.655863  0.250000  0.248419  1
  Ga  Ga24  1  0.403642  0.750000  0.002090  1
  Ga  Ga25  1  0.091407  0.750000  0.502537  1
  Ga  Ga26  1  0.598417  0.250000  0.996167  1
  Ga  Ga27  1  0.886068  0.250000  0.500445  1
  Ga  Ga28  1  0.623573  0.750000  0.282193  1
  Ga  Ga29  1  0.882362  0.750000  0.784855  1
  Ga  Ga30  1  0.381857  0.250000  0.719835  1
  Ga  Ga31  1  0.121467  0.250000  0.203498  1
