# generated using pymatgen
data_Ac3Mg3Ag2Ir
_symmetry_space_group_name_H-M   'P 1'
_cell_length_a   8.15917700
_cell_length_b   8.15917627
_cell_length_c   4.25651000
_cell_angle_alpha   90.00000000
_cell_angle_beta   90.00000000
_cell_angle_gamma   120.00000593
_symmetry_Int_Tables_number   1
_chemical_formula_structural   Ac3Mg3Ag2Ir
_chemical_formula_sum   'Ac3 Mg3 Ag2 Ir1'
_cell_volume   245.40134230
_cell_formula_units_Z   1
loop_
 _symmetry_equiv_pos_site_id
 _symmetry_equiv_pos_as_xyz
  1  'x, y, z'
loop_
 _atom_site_type_symbol
 _atom_site_label
 _atom_site_symmetry_multiplicity
 _atom_site_fract_x
 _atom_site_fract_y
 _atom_site_fract_z
 _atom_site_occupancy
  Ac  Ac0  1  0.569340  0.975407  0.000000  1
  Ac  Ac1  1  0.024593  0.593932  0.000000  1
  Ac  Ac2  1  0.406068  0.430660  0.000000  1
  Mg  Mg3  1  0.240866  0.997687  0.500000  1
  Mg  Mg4  1  0.002313  0.243179  0.500000  1
  Mg  Mg5  1  0.756821  0.759134  0.500000  1
  Ag  Ag6  1  0.666667  0.333333  0.500000  1
  Ag  Ag7  1  0.000000  0.000000  0.000000  1
  Ir  Ir8  1  0.333333  0.666667  0.500000  1
