# generated using pymatgen
data_Pr4Ni3Sb8
_symmetry_space_group_name_H-M   'P 1'
_cell_length_a   10.80082845
_cell_length_b   10.80082828
_cell_length_c   10.80082868
_cell_angle_alpha   146.45165780
_cell_angle_beta   146.45165639
_cell_angle_gamma   48.17639077
_symmetry_Int_Tables_number   1
_chemical_formula_structural   Pr4Ni3Sb8
_chemical_formula_sum   'Pr4 Ni3 Sb8'
_cell_volume   383.22726848
_cell_formula_units_Z   1
loop_
 _symmetry_equiv_pos_site_id
 _symmetry_equiv_pos_as_xyz
  1  'x, y, z'
loop_
 _atom_site_type_symbol
 _atom_site_label
 _atom_site_symmetry_multiplicity
 _atom_site_fract_x
 _atom_site_fract_y
 _atom_site_fract_z
 _atom_site_occupancy
  Pr  Pr0  1  0.633668  0.633668  0.502959  1
  Pr  Pr1  1  0.130707  0.130707  0.497041  1
  Pr  Pr2  1  0.366332  0.869293  0.000000  1
  Pr  Pr3  1  0.869293  0.366332  0.000000  1
  Ni  Ni4  1  0.000000  0.000000  0.000000  1
  Ni  Ni5  1  0.000000  0.500000  0.500000  1
  Ni  Ni6  1  0.500000  0.000000  0.500000  1
  Sb  Sb7  1  0.319144  0.319144  0.512698  1
  Sb  Sb8  1  0.806446  0.806446  0.487302  1
  Sb  Sb9  1  0.680856  0.193554  0.000000  1
  Sb  Sb10  1  0.193554  0.680856  0.000000  1
  Sb  Sb11  1  0.249742  0.249742  0.000000  1
  Sb  Sb12  1  0.750258  0.750258  0.000000  1
  Sb  Sb13  1  0.750000  0.250000  0.500000  1
  Sb  Sb14  1  0.250000  0.750000  0.500000  1
