# generated using pymatgen
data_CeTc3P4Rh3
_symmetry_space_group_name_H-M   'P 1'
_cell_length_a   6.95383500
_cell_length_b   6.95383495
_cell_length_c   3.83287300
_cell_angle_alpha   90.00000000
_cell_angle_beta   90.00000000
_cell_angle_gamma   119.99999546
_symmetry_Int_Tables_number   1
_chemical_formula_structural   CeTc3P4Rh3
_chemical_formula_sum   'Ce1 Tc3 P4 Rh3'
_cell_volume   160.51064550
_cell_formula_units_Z   1
loop_
 _symmetry_equiv_pos_site_id
 _symmetry_equiv_pos_as_xyz
  1  'x, y, z'
loop_
 _atom_site_type_symbol
 _atom_site_label
 _atom_site_symmetry_multiplicity
 _atom_site_fract_x
 _atom_site_fract_y
 _atom_site_fract_z
 _atom_site_occupancy
  Ce  Ce0  1  0.333333  0.666667  0.000000  1
  Tc  Tc1  1  0.267021  0.133510  0.000000  1
  Tc  Tc2  1  0.866490  0.732979  0.000000  1
  Tc  Tc3  1  0.866490  0.133510  0.000000  1
  P  P4  1  0.666667  0.333333  0.000000  1
  P  P5  1  0.725413  0.862707  0.500000  1
  P  P6  1  0.137293  0.274587  0.500000  1
  P  P7  1  0.137293  0.862707  0.500000  1
  Rh  Rh8  1  0.941633  0.470816  0.500000  1
  Rh  Rh9  1  0.529184  0.058367  0.500000  1
  Rh  Rh10  1  0.529184  0.470816  0.500000  1
