# generated using pymatgen
data_Ta8Co7Si14Pt
_symmetry_space_group_name_H-M   'P 1'
_cell_length_a   9.28661115
_cell_length_b   9.30349935
_cell_length_c   9.26572805
_cell_angle_alpha   94.26031804
_cell_angle_beta   94.16326051
_cell_angle_gamma   148.60285272
_symmetry_Int_Tables_number   1
_chemical_formula_structural   Ta8Co7Si14Pt
_chemical_formula_sum   'Ta8 Co7 Si14 Pt1'
_cell_volume   401.39760679
_cell_formula_units_Z   1
loop_
 _symmetry_equiv_pos_site_id
 _symmetry_equiv_pos_as_xyz
  1  'x, y, z'
loop_
 _atom_site_type_symbol
 _atom_site_label
 _atom_site_symmetry_multiplicity
 _atom_site_fract_x
 _atom_site_fract_y
 _atom_site_fract_z
 _atom_site_occupancy
  Ta  Ta0  1  0.133269  0.133269  0.266537  1
  Ta  Ta1  1  0.867015  0.867015  0.734031  1
  Ta  Ta2  1  0.868630  0.132390  0.002492  1
  Ta  Ta3  1  0.133862  0.870101  0.002492  1
  Ta  Ta4  1  0.498416  0.311847  0.810985  1
  Ta  Ta5  1  0.500536  0.687992  0.190606  1
  Ta  Ta6  1  0.690070  0.502614  0.190606  1
  Ta  Ta7  1  0.312569  0.499138  0.810985  1
  Co  Co8  1  0.104579  0.604579  0.209157  1
  Co  Co9  1  0.103786  0.899885  0.502452  1
  Co  Co10  1  0.398666  0.602566  0.502452  1
  Co  Co11  1  0.596871  0.398947  0.494873  1
  Co  Co12  1  0.898003  0.095926  0.494873  1
  Co  Co13  1  0.898199  0.398199  0.796397  1
  Co  Co14  1  0.599124  0.099124  0.198250  1
  Si  Si15  1  0.519359  0.117802  0.585173  1
  Si  Si16  1  0.502394  0.906865  0.406520  1
  Si  Si17  1  0.904124  0.499655  0.406520  1
  Si  Si18  1  0.065812  0.467369  0.585173  1
  Si  Si19  1  0.751778  0.752098  0.000693  1
  Si  Si20  1  0.248915  0.248596  0.000693  1
  Si  Si21  1  0.291289  0.291289  0.582578  1
  Si  Si22  1  0.708054  0.708054  0.416108  1
  Si  Si23  1  0.728646  0.316851  0.007325  1
  Si  Si24  1  0.278679  0.690472  0.007325  1
  Si  Si25  1  0.998167  0.294578  0.296435  1
  Si  Si26  1  0.979845  0.691912  0.701673  1
  Si  Si27  1  0.721828  0.009761  0.701673  1
  Si  Si28  1  0.298267  0.001857  0.296435  1
  Pt  Pt29  1  0.399246  0.899246  0.798491  1
