# generated using pymatgen
data_Ta3MnBe(FeB)2
_symmetry_space_group_name_H-M   'P 1'
_cell_length_a   6.11833400
_cell_length_b   6.09831891
_cell_length_c   3.15334100
_cell_angle_alpha   90.00000000
_cell_angle_beta   90.00000000
_cell_angle_gamma   120.10864028
_symmetry_Int_Tables_number   1
_chemical_formula_structural   Ta3MnBe(FeB)2
_chemical_formula_sum   'Ta3 Mn1 Be1 Fe2 B2'
_cell_volume   101.78139641
_cell_formula_units_Z   1
loop_
 _symmetry_equiv_pos_site_id
 _symmetry_equiv_pos_as_xyz
  1  'x, y, z'
loop_
 _atom_site_type_symbol
 _atom_site_label
 _atom_site_symmetry_multiplicity
 _atom_site_fract_x
 _atom_site_fract_y
 _atom_site_fract_z
 _atom_site_occupancy
  Ta  Ta0  1  0.417159  0.000000  0.500000  1
  Ta  Ta1  1  0.998553  0.415685  0.500000  1
  Ta  Ta2  1  0.582868  0.584315  0.500000  1
  Mn  Mn3  1  0.749474  0.000000  0.000000  1
  Be  Be4  1  0.001525  0.000000  0.500000  1
  Fe  Fe5  1  0.999688  0.749778  0.000000  1
  Fe  Fe6  1  0.249910  0.250222  0.000000  1
  B  B7  1  0.333579  0.666337  0.000000  1
  B  B8  1  0.667243  0.333663  0.000000  1
