# generated using pymatgen
data_ErTm9(Sn3P)2
_symmetry_space_group_name_H-M   'P 1'
_cell_length_a   8.94351475
_cell_length_b   8.94351506
_cell_length_c   6.60230400
_cell_angle_alpha   90.00000000
_cell_angle_beta   90.00000000
_cell_angle_gamma   119.95317681
_symmetry_Int_Tables_number   1
_chemical_formula_structural   ErTm9(Sn3P)2
_chemical_formula_sum   'Er1 Tm9 Sn6 P2'
_cell_volume   457.55924566
_cell_formula_units_Z   1
loop_
 _symmetry_equiv_pos_site_id
 _symmetry_equiv_pos_as_xyz
  1  'x, y, z'
loop_
 _atom_site_type_symbol
 _atom_site_label
 _atom_site_symmetry_multiplicity
 _atom_site_fract_x
 _atom_site_fract_y
 _atom_site_fract_z
 _atom_site_occupancy
  Er  Er0  1  0.757563  0.757563  0.750000  1
  Tm  Tm1  1  0.666590  0.333234  0.000032  1
  Tm  Tm2  1  0.333234  0.666590  0.000032  1
  Tm  Tm3  1  0.333234  0.666590  0.499968  1
  Tm  Tm4  1  0.666590  0.333234  0.499968  1
  Tm  Tm5  1  0.241789  0.000119  0.750000  1
  Tm  Tm6  1  0.000119  0.241789  0.750000  1
  Tm  Tm7  1  0.241786  0.241786  0.250000  1
  Tm  Tm8  1  0.758301  0.000030  0.250000  1
  Tm  Tm9  1  0.000030  0.758301  0.250000  1
  Sn  Sn10  1  0.398230  0.398230  0.750000  1
  Sn  Sn11  1  0.601204  0.000308  0.750000  1
  Sn  Sn12  1  0.000308  0.601204  0.750000  1
  Sn  Sn13  1  0.601472  0.601472  0.250000  1
  Sn  Sn14  1  0.398552  0.999970  0.250000  1
  Sn  Sn15  1  0.999970  0.398552  0.250000  1
  P  P16  1  0.000514  0.000514  0.000465  1
  P  P17  1  0.000514  0.000514  0.499535  1
