# generated using pymatgen
data_Lu8Ta2Si16Mo9W
_symmetry_space_group_name_H-M   'P 1'
_cell_length_a   6.70466758
_cell_length_b   6.91621447
_cell_length_c   12.88229300
_cell_angle_alpha   90.00000000
_cell_angle_beta   90.00000000
_cell_angle_gamma   89.93881370
_symmetry_Int_Tables_number   1
_chemical_formula_structural   Lu8Ta2Si16Mo9W
_chemical_formula_sum   'Lu8 Ta2 Si16 Mo9 W1'
_cell_volume   597.36342384
_cell_formula_units_Z   1
loop_
 _symmetry_equiv_pos_site_id
 _symmetry_equiv_pos_as_xyz
  1  'x, y, z'
loop_
 _atom_site_type_symbol
 _atom_site_label
 _atom_site_symmetry_multiplicity
 _atom_site_fract_x
 _atom_site_fract_y
 _atom_site_fract_z
 _atom_site_occupancy
  Lu  Lu0  1  0.495826  0.331279  0.093722  1
  Lu  Lu1  1  0.996398  0.168234  0.406117  1
  Lu  Lu2  1  0.501705  0.670955  0.594003  1
  Lu  Lu3  1  0.001988  0.829137  0.905905  1
  Lu  Lu4  1  0.501705  0.670955  0.905997  1
  Lu  Lu5  1  0.001988  0.829137  0.594095  1
  Lu  Lu6  1  0.495826  0.331279  0.406278  1
  Lu  Lu7  1  0.996398  0.168234  0.093883  1
  Ta  Ta8  1  0.661303  0.005810  0.750000  1
  Ta  Ta9  1  0.161711  0.494707  0.750000  1
  Si  Si10  1  0.663928  0.040865  0.542422  1
  Si  Si11  1  0.163708  0.459399  0.957447  1
  Si  Si12  1  0.337620  0.959616  0.046761  1
  Si  Si13  1  0.838041  0.540503  0.452698  1
  Si  Si14  1  0.337620  0.959616  0.453239  1
  Si  Si15  1  0.838041  0.540503  0.047302  1
  Si  Si16  1  0.663928  0.040865  0.957578  1
  Si  Si17  1  0.163708  0.459399  0.542553  1
  Si  Si18  1  0.536596  0.376444  0.750000  1
  Si  Si19  1  0.036292  0.123765  0.750000  1
  Si  Si20  1  0.467343  0.628787  0.250000  1
  Si  Si21  1  0.966560  0.870291  0.250000  1
  Si  Si22  1  0.796095  0.632659  0.750000  1
  Si  Si23  1  0.296211  0.867290  0.750000  1
  Si  Si24  1  0.197558  0.365973  0.250000  1
  Si  Si25  1  0.697816  0.134717  0.250000  1
  Mo  Mo26  1  0.833096  0.333638  0.623658  1
  Mo  Mo27  1  0.332857  0.165768  0.876143  1
  Mo  Mo28  1  0.171059  0.664679  0.126059  1
  Mo  Mo29  1  0.670260  0.836303  0.373984  1
  Mo  Mo30  1  0.171059  0.664679  0.373941  1
  Mo  Mo31  1  0.670260  0.836303  0.126016  1
  Mo  Mo32  1  0.833096  0.333638  0.876342  1
  Mo  Mo33  1  0.332857  0.165768  0.623857  1
  Mo  Mo34  1  0.834328  0.495767  0.250000  1
  W  W35  1  0.335216  0.003042  0.250000  1
