# generated using pymatgen
data_Tb7Ho13Si15Ag
_symmetry_space_group_name_H-M   'P 1'
_cell_length_a   7.37742818
_cell_length_b   7.76097255
_cell_length_c   14.54103200
_cell_angle_alpha   89.97199060
_cell_angle_beta   89.98751946
_cell_angle_gamma   89.94460261
_symmetry_Int_Tables_number   1
_chemical_formula_structural   Tb7Ho13Si15Ag
_chemical_formula_sum   'Tb7 Ho13 Si15 Ag1'
_cell_volume   832.56107562
_cell_formula_units_Z   1
loop_
 _symmetry_equiv_pos_site_id
 _symmetry_equiv_pos_as_xyz
  1  'x, y, z'
loop_
 _atom_site_type_symbol
 _atom_site_label
 _atom_site_symmetry_multiplicity
 _atom_site_fract_x
 _atom_site_fract_y
 _atom_site_fract_z
 _atom_site_occupancy
  Tb  Tb0  1  0.023996  0.819051  0.905232  1
  Tb  Tb1  1  0.474643  0.316551  0.097044  1
  Tb  Tb2  1  0.974831  0.182481  0.403050  1
  Tb  Tb3  1  0.474820  0.316629  0.403328  1
  Tb  Tb4  1  0.975122  0.182403  0.097144  1
  Tb  Tb5  1  0.524625  0.685921  0.909603  1
  Tb  Tb6  1  0.024178  0.819117  0.594531  1
  Ho  Ho7  1  0.686058  0.174333  0.621114  1
  Ho  Ho8  1  0.181672  0.321804  0.878497  1
  Ho  Ho9  1  0.318248  0.820138  0.124096  1
  Ho  Ho10  1  0.818042  0.676752  0.375939  1
  Ho  Ho11  1  0.318530  0.819791  0.376157  1
  Ho  Ho12  1  0.818173  0.676943  0.124116  1
  Ho  Ho13  1  0.686109  0.174304  0.878708  1
  Ho  Ho14  1  0.181636  0.322001  0.621098  1
  Ho  Ho15  1  0.525569  0.686824  0.590752  1
  Ho  Ho16  1  0.851073  0.512504  0.749808  1
  Ho  Ho17  1  0.354032  0.978368  0.749920  1
  Ho  Ho18  1  0.149396  0.485101  0.250038  1
  Ho  Ho19  1  0.648830  0.013580  0.250042  1
  Si  Si20  1  0.648939  0.969131  0.459113  1
  Si  Si21  1  0.147603  0.530204  0.040336  1
  Si  Si22  1  0.351542  0.028871  0.960701  1
  Si  Si23  1  0.848253  0.472380  0.540505  1
  Si  Si24  1  0.351871  0.027886  0.539649  1
  Si  Si25  1  0.849455  0.471582  0.959635  1
  Si  Si26  1  0.648853  0.970059  0.041219  1
  Si  Si27  1  0.147053  0.529994  0.459466  1
  Si  Si28  1  0.980268  0.105250  0.749803  1
  Si  Si29  1  0.521255  0.603477  0.250129  1
  Si  Si30  1  0.021142  0.893764  0.250163  1
  Si  Si31  1  0.736952  0.874779  0.749678  1
  Si  Si32  1  0.221824  0.632544  0.749560  1
  Si  Si33  1  0.267620  0.126866  0.250254  1
  Si  Si34  1  0.768324  0.372085  0.250155  1
  Ag  Ag35  1  0.479466  0.406535  0.749417  1
