# generated using pymatgen
data_CeDy18ErPb16
_symmetry_space_group_name_H-M   'P 1'
_cell_length_a   8.20932101
_cell_length_b   8.27586902
_cell_length_c   15.63282700
_cell_angle_alpha   89.99936306
_cell_angle_beta   89.99773869
_cell_angle_gamma   90.00429930
_symmetry_Int_Tables_number   1
_chemical_formula_structural   CeDy18ErPb16
_chemical_formula_sum   'Ce1 Dy18 Er1 Pb16'
_cell_volume   1062.08277899
_cell_formula_units_Z   1
loop_
 _symmetry_equiv_pos_site_id
 _symmetry_equiv_pos_as_xyz
  1  'x, y, z'
loop_
 _atom_site_type_symbol
 _atom_site_label
 _atom_site_symmetry_multiplicity
 _atom_site_fract_x
 _atom_site_fract_y
 _atom_site_fract_z
 _atom_site_occupancy
  Ce  Ce0  1  0.033752  0.178351  0.902210  1
  Dy  Dy1  1  0.377973  0.840724  0.879505  1
  Dy  Dy2  1  0.877718  0.658427  0.620243  1
  Dy  Dy3  1  0.622356  0.157796  0.379127  1
  Dy  Dy4  1  0.122636  0.341970  0.121216  1
  Dy  Dy5  1  0.622500  0.157407  0.121008  1
  Dy  Dy6  1  0.122731  0.341828  0.379158  1
  Dy  Dy7  1  0.377411  0.841842  0.620456  1
  Dy  Dy8  1  0.876717  0.658434  0.879364  1
  Dy  Dy9  1  0.537138  0.325006  0.899657  1
  Dy  Dy10  1  0.035808  0.176308  0.599950  1
  Dy  Dy11  1  0.463912  0.675766  0.399961  1
  Dy  Dy12  1  0.963520  0.823785  0.100670  1
  Dy  Dy13  1  0.464418  0.676423  0.099831  1
  Dy  Dy14  1  0.964289  0.823995  0.399954  1
  Dy  Dy15  1  0.535927  0.324604  0.599494  1
  Dy  Dy16  1  0.209670  0.503693  0.749428  1
  Dy  Dy17  1  0.709348  0.995376  0.749068  1
  Dy  Dy18  1  0.790536  0.496428  0.250105  1
  Er  Er19  1  0.290534  0.004402  0.250362  1
  Pb  Pb20  1  0.282009  0.031811  0.043994  1
  Pb  Pb21  1  0.781290  0.466130  0.456916  1
  Pb  Pb22  1  0.718978  0.966568  0.542807  1
  Pb  Pb23  1  0.219864  0.532596  0.956813  1
  Pb  Pb24  1  0.718116  0.965731  0.957222  1
  Pb  Pb25  1  0.218999  0.533705  0.542651  1
  Pb  Pb26  1  0.281317  0.033315  0.456638  1
  Pb  Pb27  1  0.781024  0.466325  0.043034  1
  Pb  Pb28  1  0.572626  0.625400  0.749949  1
  Pb  Pb29  1  0.072902  0.874528  0.750430  1
  Pb  Pb30  1  0.426824  0.374592  0.249903  1
  Pb  Pb31  1  0.927672  0.124679  0.249981  1
  Pb  Pb32  1  0.348570  0.153120  0.749938  1
  Pb  Pb33  1  0.846563  0.347939  0.748978  1
  Pb  Pb34  1  0.651731  0.846588  0.250007  1
  Pb  Pb35  1  0.152618  0.654407  0.249970  1
