# generated using pymatgen
data_Dy6ZrCo16P12Ru
_symmetry_space_group_name_H-M   'P 1'
_cell_length_a   3.71237600
_cell_length_b   10.59838300
_cell_length_c   12.33375500
_cell_angle_alpha   90.00000000
_cell_angle_beta   90.00000000
_cell_angle_gamma   90.00000000
_symmetry_Int_Tables_number   1
_chemical_formula_structural   Dy6ZrCo16P12Ru
_chemical_formula_sum   'Dy6 Zr1 Co16 P12 Ru1'
_cell_volume   485.27384370
_cell_formula_units_Z   1
loop_
 _symmetry_equiv_pos_site_id
 _symmetry_equiv_pos_as_xyz
  1  'x, y, z'
loop_
 _atom_site_type_symbol
 _atom_site_label
 _atom_site_symmetry_multiplicity
 _atom_site_fract_x
 _atom_site_fract_y
 _atom_site_fract_z
 _atom_site_occupancy
  Dy  Dy0  1  0.000000  0.500000  0.528828  1
  Dy  Dy1  1  0.500000  0.000000  0.474849  1
  Dy  Dy2  1  0.500000  0.820972  0.207317  1
  Dy  Dy3  1  0.500000  0.179028  0.207317  1
  Dy  Dy4  1  0.000000  0.682678  0.795388  1
  Dy  Dy5  1  0.000000  0.317322  0.795388  1
  Zr  Zr6  1  0.500000  0.500000  0.154684  1
  Co  Co7  1  0.500000  0.500000  0.703341  1
  Co  Co8  1  0.000000  0.000000  0.296759  1
  Co  Co9  1  0.000000  0.500000  0.983496  1
  Co  Co10  1  0.500000  0.000000  0.013268  1
  Co  Co11  1  0.500000  0.327173  0.988136  1
  Co  Co12  1  0.500000  0.672827  0.988136  1
  Co  Co13  1  0.000000  0.162108  0.005403  1
  Co  Co14  1  0.000000  0.837892  0.005403  1
  Co  Co15  1  0.500000  0.294295  0.434906  1
  Co  Co16  1  0.500000  0.705705  0.434906  1
  Co  Co17  1  0.000000  0.201808  0.570299  1
  Co  Co18  1  0.000000  0.798192  0.570299  1
  Co  Co19  1  0.500000  0.879967  0.706298  1
  Co  Co20  1  0.500000  0.120033  0.706298  1
  Co  Co21  1  0.000000  0.622927  0.297569  1
  Co  Co22  1  0.000000  0.377073  0.297569  1
  P  P23  1  0.500000  0.500000  0.881792  1
  P  P24  1  0.000000  0.000000  0.117744  1
  P  P25  1  0.500000  0.500000  0.361689  1
  P  P26  1  0.000000  0.000000  0.648696  1
  P  P27  1  0.500000  0.310171  0.617476  1
  P  P28  1  0.500000  0.689829  0.617476  1
  P  P29  1  0.000000  0.188519  0.386024  1
  P  P30  1  0.000000  0.811481  0.386024  1
  P  P31  1  0.500000  0.849855  0.890029  1
  P  P32  1  0.500000  0.150145  0.890029  1
  P  P33  1  0.000000  0.664167  0.100274  1
  P  P34  1  0.000000  0.335833  0.100274  1
  Ru  Ru35  1  0.000000  0.000000  0.836611  1
