# generated using pymatgen
data_La15PrCd4Ru3Pt
_symmetry_space_group_name_H-M   'P 1'
_cell_length_a   10.08561568
_cell_length_b   10.13419834
_cell_length_c   10.13618100
_cell_angle_alpha   59.99352479
_cell_angle_beta   59.83400887
_cell_angle_gamma   59.73324315
_symmetry_Int_Tables_number   1
_chemical_formula_structural   La15PrCd4Ru3Pt
_chemical_formula_sum   'La15 Pr1 Cd4 Ru3 Pt1'
_cell_volume   730.13179245
_cell_formula_units_Z   1
loop_
 _symmetry_equiv_pos_site_id
 _symmetry_equiv_pos_as_xyz
  1  'x, y, z'
loop_
 _atom_site_type_symbol
 _atom_site_label
 _atom_site_symmetry_multiplicity
 _atom_site_fract_x
 _atom_site_fract_y
 _atom_site_fract_z
 _atom_site_occupancy
  La  La0  1  0.342522  0.349586  0.350470  1
  La  La1  1  0.342522  0.349586  0.957423  1
  La  La2  1  0.342297  0.956548  0.350578  1
  La  La3  1  0.961208  0.345206  0.346793  1
  La  La4  1  0.816666  0.190460  0.191229  1
  La  La5  1  0.189602  0.810971  0.810598  1
  La  La6  1  0.189602  0.810971  0.188829  1
  La  La7  1  0.816666  0.190460  0.801645  1
  La  La8  1  0.190158  0.188522  0.810660  1
  La  La9  1  0.816529  0.802025  0.190723  1
  La  La10  1  0.938989  0.561227  0.560984  1
  La  La11  1  0.558812  0.939654  0.938447  1
  La  La12  1  0.558812  0.939654  0.563087  1
  La  La13  1  0.938989  0.561227  0.938798  1
  La  La14  1  0.558869  0.563588  0.938772  1
  Pr  Pr15  1  0.938405  0.939754  0.560920  1
  Cd  Cd16  1  0.579347  0.579480  0.579441  1
  Cd  Cd17  1  0.579347  0.579480  0.261732  1
  Cd  Cd18  1  0.580040  0.260711  0.579624  1
  Cd  Cd19  1  0.261004  0.579995  0.579500  1
  Ru  Ru20  1  0.140910  0.137793  0.137171  1
  Ru  Ru21  1  0.140910  0.137793  0.584126  1
  Ru  Ru22  1  0.140642  0.584197  0.137581  1
  Pt  Pt23  1  0.577154  0.141111  0.140868  1
