# generated using pymatgen
data_K4Ge8PdPt7
_symmetry_space_group_name_H-M   'P 1'
_cell_length_a   6.92591304
_cell_length_b   8.06107599
_cell_length_c   8.38841700
_cell_angle_alpha   88.19080884
_cell_angle_beta   91.80644606
_cell_angle_gamma   85.54033117
_symmetry_Int_Tables_number   1
_chemical_formula_structural   K4Ge8PdPt7
_chemical_formula_sum   'K4 Ge8 Pd1 Pt7'
_cell_volume   466.40585260
_cell_formula_units_Z   1
loop_
 _symmetry_equiv_pos_site_id
 _symmetry_equiv_pos_as_xyz
  1  'x, y, z'
loop_
 _atom_site_type_symbol
 _atom_site_label
 _atom_site_symmetry_multiplicity
 _atom_site_fract_x
 _atom_site_fract_y
 _atom_site_fract_z
 _atom_site_occupancy
  K  K0  1  0.380906  0.004189  0.247304  1
  K  K1  1  0.872222  0.509331  0.759513  1
  K  K2  1  0.128067  0.492975  0.238183  1
  K  K3  1  0.618781  0.995258  0.757154  1
  Ge  Ge4  1  0.408393  0.354351  0.939568  1
  Ge  Ge5  1  0.133306  0.184138  0.570127  1
  Ge  Ge6  1  0.624400  0.332310  0.450006  1
  Ge  Ge7  1  0.865830  0.812573  0.430831  1
  Ge  Ge8  1  0.916366  0.140865  0.074778  1
  Ge  Ge9  1  0.595455  0.646486  0.059686  1
  Ge  Ge10  1  0.084335  0.860593  0.923900  1
  Ge  Ge11  1  0.372543  0.667351  0.548663  1
  Pd  Pd12  1  0.882965  0.114643  0.376734  1
  Pt  Pt13  1  0.367953  0.372029  0.644223  1
  Pt  Pt14  1  0.630074  0.627032  0.355929  1
  Pt  Pt15  1  0.114747  0.882490  0.621614  1
  Pt  Pt16  1  0.160006  0.157161  0.869442  1
  Pt  Pt17  1  0.661629  0.343437  0.150434  1
  Pt  Pt18  1  0.841708  0.845882  0.131972  1
  Pt  Pt19  1  0.340313  0.656903  0.849940  1
