# generated using pymatgen
data_K3Li2HfBi3
_symmetry_space_group_name_H-M   'P 1'
_cell_length_a   13.84895804
_cell_length_b   13.84895717
_cell_length_c   13.84895670
_cell_angle_alpha   150.60600249
_cell_angle_beta   106.55493321
_cell_angle_gamma   81.01361924
_symmetry_Int_Tables_number   1
_chemical_formula_structural   K3Li2HfBi3
_chemical_formula_sum   'K12 Li8 Hf4 Bi12'
_cell_volume   1225.47226205
_cell_formula_units_Z   4
loop_
 _symmetry_equiv_pos_site_id
 _symmetry_equiv_pos_as_xyz
  1  'x, y, z'
loop_
 _atom_site_type_symbol
 _atom_site_label
 _atom_site_symmetry_multiplicity
 _atom_site_fract_x
 _atom_site_fract_y
 _atom_site_fract_z
 _atom_site_occupancy
  K  K0  1  0.589900  0.948258  0.197072  1
  K  K1  1  0.073403  0.750000  0.823403  1
  K  K2  1  0.910100  0.107172  0.358357  1
  K  K3  1  0.410100  0.051742  0.802928  1
  K  K4  1  0.748815  0.607172  0.697072  1
  K  K5  1  0.251185  0.392828  0.302928  1
  K  K6  1  0.089900  0.892828  0.641643  1
  K  K7  1  0.426597  0.250000  0.676597  1
  K  K8  1  0.751185  0.448258  0.858357  1
  K  K9  1  0.248815  0.551742  0.141643  1
  K  K10  1  0.926597  0.250000  0.176597  1
  K  K11  1  0.573403  0.750000  0.323403  1
  Li  Li12  1  0.999005  0.249005  0.750000  1
  Li  Li13  1  0.664936  0.914936  0.750000  1
  Li  Li14  1  0.000995  0.750995  0.250000  1
  Li  Li15  1  0.500995  0.250995  0.250000  1
  Li  Li16  1  0.499005  0.749005  0.750000  1
  Li  Li17  1  0.164936  0.414936  0.750000  1
  Li  Li18  1  0.335064  0.085064  0.250000  1
  Li  Li19  1  0.835064  0.585064  0.250000  1
  Hf  Hf20  1  0.666202  0.416202  0.250000  1
  Hf  Hf21  1  0.166202  0.916202  0.250000  1
  Hf  Hf22  1  0.833798  0.083798  0.750000  1
  Hf  Hf23  1  0.333798  0.583798  0.750000  1
  Bi  Bi24  1  0.345583  0.750000  0.095583  1
  Bi  Bi25  1  0.487064  0.567213  0.380135  1
  Bi  Bi26  1  0.987064  0.606929  0.919851  1
  Bi  Bi27  1  0.512936  0.432787  0.619865  1
  Bi  Bi28  1  0.312922  0.893071  0.880135  1
  Bi  Bi29  1  0.687078  0.106929  0.119865  1
  Bi  Bi30  1  0.012936  0.393071  0.080149  1
  Bi  Bi31  1  0.654417  0.250000  0.904417  1
  Bi  Bi32  1  0.812922  0.932787  0.419851  1
  Bi  Bi33  1  0.154417  0.250000  0.404417  1
  Bi  Bi34  1  0.187078  0.067213  0.580149  1
  Bi  Bi35  1  0.845583  0.750000  0.595583  1
