# generated using pymatgen
data_Ca3NdHgPb11
_symmetry_space_group_name_H-M   'P 1'
_cell_length_a   9.77711000
_cell_length_b   6.87283125
_cell_length_c   6.85872800
_cell_angle_alpha   88.86005008
_cell_angle_beta   90.00000000
_cell_angle_gamma   90.00000000
_symmetry_Int_Tables_number   1
_chemical_formula_structural   Ca3NdHgPb11
_chemical_formula_sum   'Ca3 Nd1 Hg1 Pb11'
_cell_volume   460.79079997
_cell_formula_units_Z   1
loop_
 _symmetry_equiv_pos_site_id
 _symmetry_equiv_pos_as_xyz
  1  'x, y, z'
loop_
 _atom_site_type_symbol
 _atom_site_label
 _atom_site_symmetry_multiplicity
 _atom_site_fract_x
 _atom_site_fract_y
 _atom_site_fract_z
 _atom_site_occupancy
  Ca  Ca0  1  0.250000  0.498547  0.504029  1
  Ca  Ca1  1  0.750000  0.997180  0.000910  1
  Ca  Ca2  1  0.750000  0.506673  0.498795  1
  Nd  Nd3  1  0.250000  0.005221  0.001828  1
  Hg  Hg4  1  0.750000  0.494196  0.998048  1
  Pb  Pb5  1  0.997549  0.245297  0.745864  1
  Pb  Pb6  1  0.502905  0.254872  0.246961  1
  Pb  Pb7  1  0.501002  0.749540  0.248753  1
  Pb  Pb8  1  0.997534  0.745684  0.754454  1
  Pb  Pb9  1  0.998998  0.749540  0.248753  1
  Pb  Pb10  1  0.502466  0.745684  0.754454  1
  Pb  Pb11  1  0.502451  0.245297  0.745864  1
  Pb  Pb12  1  0.997095  0.254872  0.246961  1
  Pb  Pb13  1  0.250000  0.998508  0.501198  1
  Pb  Pb14  1  0.250000  0.505131  0.003301  1
  Pb  Pb15  1  0.750000  0.003756  0.499826  1
