# generated using pymatgen
data_Th3Si2Se
_symmetry_space_group_name_H-M   'P 1'
_cell_length_a   7.37811920
_cell_length_b   7.37811996
_cell_length_c   7.37811935
_cell_angle_alpha   146.42136046
_cell_angle_beta   132.03186263
_cell_angle_gamma   59.82311060
_symmetry_Int_Tables_number   1
_chemical_formula_structural   Th3Si2Se
_chemical_formula_sum   'Th3 Si2 Se1'
_cell_volume   163.50589493
_cell_formula_units_Z   1
loop_
 _symmetry_equiv_pos_site_id
 _symmetry_equiv_pos_as_xyz
  1  'x, y, z'
loop_
 _atom_site_type_symbol
 _atom_site_label
 _atom_site_symmetry_multiplicity
 _atom_site_fract_x
 _atom_site_fract_y
 _atom_site_fract_z
 _atom_site_occupancy
  Th  Th0  1  0.500000  0.000000  0.500000  1
  Th  Th1  1  0.175535  0.675535  0.500000  1
  Th  Th2  1  0.824465  0.324465  0.500000  1
  Si  Si3  1  0.663375  0.663375  0.000000  1
  Si  Si4  1  0.336625  0.336625  0.000000  1
  Se  Se5  1  0.000000  0.000000  0.000000  1
