# generated using pymatgen
data_Na8Th(UBr8)3
_symmetry_space_group_name_H-M   'P 1'
_cell_length_a   7.54208300
_cell_length_b   7.54208370
_cell_length_c   28.03541700
_cell_angle_alpha   90.00000000
_cell_angle_beta   90.00000000
_cell_angle_gamma   120.00000130
_symmetry_Int_Tables_number   1
_chemical_formula_structural   Na8Th(UBr8)3
_chemical_formula_sum   'Na8 Th1 U3 Br24'
_cell_volume   1381.08466070
_cell_formula_units_Z   1
loop_
 _symmetry_equiv_pos_site_id
 _symmetry_equiv_pos_as_xyz
  1  'x, y, z'
loop_
 _atom_site_type_symbol
 _atom_site_label
 _atom_site_symmetry_multiplicity
 _atom_site_fract_x
 _atom_site_fract_y
 _atom_site_fract_z
 _atom_site_occupancy
  Na  Na0  1  0.000000  0.000000  0.250171  1
  Na  Na1  1  0.000000  0.000000  0.749829  1
  Na  Na2  1  0.333333  0.666667  0.000337  1
  Na  Na3  1  0.333333  0.666667  0.499605  1
  Na  Na4  1  0.333333  0.666667  0.250229  1
  Na  Na5  1  0.666667  0.333333  0.749771  1
  Na  Na6  1  0.666667  0.333333  0.999663  1
  Na  Na7  1  0.666667  0.333333  0.500395  1
  Th  Th8  1  0.000000  0.000000  0.000000  1
  U  U9  1  0.000000  0.000000  0.500000  1
  U  U10  1  0.333333  0.666667  0.749849  1
  U  U11  1  0.666667  0.333333  0.250151  1
  Br  Br12  1  0.359889  0.025876  0.306602  1
  Br  Br13  1  0.333239  0.973576  0.806143  1
  Br  Br14  1  0.999404  0.314563  0.057038  1
  Br  Br15  1  0.000844  0.306993  0.556412  1
  Br  Br16  1  0.974124  0.334014  0.306602  1
  Br  Br17  1  0.026424  0.359663  0.806143  1
  Br  Br18  1  0.359663  0.333239  0.193857  1
  Br  Br19  1  0.334014  0.359889  0.693398  1
  Br  Br20  1  0.306993  0.306150  0.443588  1
  Br  Br21  1  0.314563  0.315159  0.942962  1
  Br  Br22  1  0.693850  0.000844  0.443588  1
  Br  Br23  1  0.315159  0.000596  0.057038  1
  Br  Br24  1  0.306150  0.999156  0.556412  1
  Br  Br25  1  0.685437  0.684841  0.057038  1
  Br  Br26  1  0.693007  0.693850  0.556412  1
  Br  Br27  1  0.665986  0.640111  0.306602  1
  Br  Br28  1  0.640337  0.666761  0.806143  1
  Br  Br29  1  0.973576  0.640337  0.193857  1
  Br  Br30  1  0.025876  0.665986  0.693398  1
  Br  Br31  1  0.999156  0.693007  0.443588  1
  Br  Br32  1  0.000596  0.685437  0.942962  1
  Br  Br33  1  0.684841  0.999404  0.942962  1
  Br  Br34  1  0.666761  0.026424  0.193857  1
  Br  Br35  1  0.640111  0.974124  0.693398  1
