# generated using pymatgen
data_DyTm9(In2Au)4
_symmetry_space_group_name_H-M   'P 1'
_cell_length_a   3.61372000
_cell_length_b   8.16680008
_cell_length_c   18.28325200
_cell_angle_alpha   90.00784355
_cell_angle_beta   90.00000000
_cell_angle_gamma   90.00000000
_symmetry_Int_Tables_number   1
_chemical_formula_structural   DyTm9(In2Au)4
_chemical_formula_sum   'Dy1 Tm9 In8 Au4'
_cell_volume   539.58499565
_cell_formula_units_Z   1
loop_
 _symmetry_equiv_pos_site_id
 _symmetry_equiv_pos_as_xyz
  1  'x, y, z'
loop_
 _atom_site_type_symbol
 _atom_site_label
 _atom_site_symmetry_multiplicity
 _atom_site_fract_x
 _atom_site_fract_y
 _atom_site_fract_z
 _atom_site_occupancy
  Dy  Dy0  1  0.000000  0.000000  0.000000  1
  Tm  Tm1  1  0.000000  0.500000  0.500000  1
  Tm  Tm2  1  0.000000  0.736998  0.281329  1
  Tm  Tm3  1  0.000000  0.263002  0.718671  1
  Tm  Tm4  1  0.000000  0.763083  0.781194  1
  Tm  Tm5  1  0.000000  0.236917  0.218806  1
  Tm  Tm6  1  0.000000  0.618550  0.079691  1
  Tm  Tm7  1  0.000000  0.381450  0.920309  1
  Tm  Tm8  1  0.000000  0.881352  0.579546  1
  Tm  Tm9  1  0.000000  0.118648  0.420454  1
  In  In10  1  0.500000  0.711094  0.932831  1
  In  In11  1  0.500000  0.288906  0.067169  1
  In  In12  1  0.500000  0.787612  0.433202  1
  In  In13  1  0.500000  0.212388  0.566798  1
  In  In14  1  0.500000  0.581000  0.646079  1
  In  In15  1  0.500000  0.419000  0.353921  1
  In  In16  1  0.500000  0.918456  0.146724  1
  In  In17  1  0.500000  0.081544  0.853276  1
  Au  Au18  1  0.500000  0.526115  0.196460  1
  Au  Au19  1  0.500000  0.473885  0.803540  1
  Au  Au20  1  0.500000  0.973809  0.696270  1
  Au  Au21  1  0.500000  0.026191  0.303730  1
