# generated using pymatgen
data_TbFe2Co2P3Ru
_symmetry_space_group_name_H-M   'P 1'
_cell_length_a   3.71926900
_cell_length_b   10.27197900
_cell_length_c   11.87237000
_cell_angle_alpha   90.00000000
_cell_angle_beta   90.00000000
_cell_angle_gamma   90.00000000
_symmetry_Int_Tables_number   1
_chemical_formula_structural   TbFe2Co2P3Ru
_chemical_formula_sum   'Tb4 Fe8 Co8 P12 Ru4'
_cell_volume   453.57502794
_cell_formula_units_Z   4
loop_
 _symmetry_equiv_pos_site_id
 _symmetry_equiv_pos_as_xyz
  1  'x, y, z'
loop_
 _atom_site_type_symbol
 _atom_site_label
 _atom_site_symmetry_multiplicity
 _atom_site_fract_x
 _atom_site_fract_y
 _atom_site_fract_z
 _atom_site_occupancy
  Tb  Tb0  1  0.250000  0.581520  0.704612  1
  Tb  Tb1  1  0.250000  0.918480  0.204612  1
  Tb  Tb2  1  0.750000  0.418480  0.295388  1
  Tb  Tb3  1  0.750000  0.081520  0.795388  1
  Fe  Fe4  1  0.250000  0.880261  0.702857  1
  Fe  Fe5  1  0.250000  0.619739  0.202857  1
  Fe  Fe6  1  0.750000  0.119739  0.297143  1
  Fe  Fe7  1  0.750000  0.380261  0.797143  1
  Fe  Fe8  1  0.250000  0.462760  0.934159  1
  Fe  Fe9  1  0.250000  0.037240  0.434159  1
  Fe  Fe10  1  0.750000  0.537240  0.065841  1
  Fe  Fe11  1  0.750000  0.962760  0.565841  1
  Co  Co12  1  0.250000  0.406246  0.487478  1
  Co  Co13  1  0.250000  0.093754  0.987478  1
  Co  Co14  1  0.750000  0.593754  0.512522  1
  Co  Co15  1  0.750000  0.906246  0.012522  1
  Co  Co16  1  0.250000  0.225007  0.171245  1
  Co  Co17  1  0.250000  0.274993  0.671245  1
  Co  Co18  1  0.750000  0.774993  0.828755  1
  Co  Co19  1  0.750000  0.725007  0.328755  1
  P  P20  1  0.250000  0.427729  0.114028  1
  P  P21  1  0.250000  0.072271  0.614028  1
  P  P22  1  0.750000  0.572271  0.885972  1
  P  P23  1  0.750000  0.927729  0.385972  1
  P  P24  1  0.250000  0.272019  0.860082  1
  P  P25  1  0.250000  0.227981  0.360082  1
  P  P26  1  0.750000  0.727981  0.139918  1
  P  P27  1  0.750000  0.772019  0.639918  1
  P  P28  1  0.250000  0.598595  0.390663  1
  P  P29  1  0.250000  0.901405  0.890663  1
  P  P30  1  0.750000  0.401405  0.609337  1
  P  P31  1  0.750000  0.098595  0.109337  1
  Ru  Ru32  1  0.250000  0.709138  0.989438  1
  Ru  Ru33  1  0.250000  0.790862  0.489438  1
  Ru  Ru34  1  0.750000  0.290862  0.010562  1
  Ru  Ru35  1  0.750000  0.209138  0.510562  1
