# generated using pymatgen
data_LiHo3(Ni4P3)2
_symmetry_space_group_name_H-M   'P 1'
_cell_length_a   3.77267000
_cell_length_b   10.58997500
_cell_length_c   12.29424700
_cell_angle_alpha   90.00000000
_cell_angle_beta   90.00000000
_cell_angle_gamma   90.00000000
_symmetry_Int_Tables_number   1
_chemical_formula_structural   LiHo3(Ni4P3)2
_chemical_formula_sum   'Li2 Ho6 Ni16 P12'
_cell_volume   491.18566947
_cell_formula_units_Z   2
loop_
 _symmetry_equiv_pos_site_id
 _symmetry_equiv_pos_as_xyz
  1  'x, y, z'
loop_
 _atom_site_type_symbol
 _atom_site_label
 _atom_site_symmetry_multiplicity
 _atom_site_fract_x
 _atom_site_fract_y
 _atom_site_fract_z
 _atom_site_occupancy
  Li  Li0  1  0.500000  0.500000  0.152524  1
  Li  Li1  1  0.000000  0.000000  0.847476  1
  Ho  Ho2  1  0.000000  0.500000  0.523780  1
  Ho  Ho3  1  0.500000  0.000000  0.476220  1
  Ho  Ho4  1  0.500000  0.818359  0.204620  1
  Ho  Ho5  1  0.500000  0.181641  0.204620  1
  Ho  Ho6  1  0.000000  0.681641  0.795380  1
  Ho  Ho7  1  0.000000  0.318359  0.795380  1
  Ni  Ni8  1  0.500000  0.500000  0.701990  1
  Ni  Ni9  1  0.000000  0.000000  0.298010  1
  Ni  Ni10  1  0.000000  0.500000  0.986847  1
  Ni  Ni11  1  0.500000  0.000000  0.013153  1
  Ni  Ni12  1  0.500000  0.332660  0.997402  1
  Ni  Ni13  1  0.500000  0.667340  0.997402  1
  Ni  Ni14  1  0.000000  0.167340  0.002598  1
  Ni  Ni15  1  0.000000  0.832660  0.002598  1
  Ni  Ni16  1  0.500000  0.300212  0.430486  1
  Ni  Ni17  1  0.500000  0.699788  0.430486  1
  Ni  Ni18  1  0.000000  0.199788  0.569514  1
  Ni  Ni19  1  0.000000  0.800212  0.569514  1
  Ni  Ni20  1  0.500000  0.879947  0.709656  1
  Ni  Ni21  1  0.500000  0.120053  0.709656  1
  Ni  Ni22  1  0.000000  0.620053  0.290344  1
  Ni  Ni23  1  0.000000  0.379947  0.290344  1
  P  P24  1  0.500000  0.500000  0.880661  1
  P  P25  1  0.000000  0.000000  0.119339  1
  P  P26  1  0.500000  0.500000  0.349961  1
  P  P27  1  0.000000  0.000000  0.650039  1
  P  P28  1  0.500000  0.313535  0.615831  1
  P  P29  1  0.500000  0.686465  0.615831  1
  P  P30  1  0.000000  0.186465  0.384169  1
  P  P31  1  0.000000  0.813535  0.384169  1
  P  P32  1  0.500000  0.842275  0.893290  1
  P  P33  1  0.500000  0.157725  0.893290  1
  P  P34  1  0.000000  0.657725  0.106710  1
  P  P35  1  0.000000  0.342275  0.106710  1
