# generated using pymatgen
data_DyY2Ho2Si3
_symmetry_space_group_name_H-M   'P 1'
_cell_length_a   8.44269900
_cell_length_b   8.44310885
_cell_length_c   6.35133100
_cell_angle_alpha   90.00000000
_cell_angle_beta   90.00000000
_cell_angle_gamma   120.00159825
_symmetry_Int_Tables_number   1
_chemical_formula_structural   DyY2Ho2Si3
_chemical_formula_sum   'Dy2 Y4 Ho4 Si6'
_cell_volume   392.07764272
_cell_formula_units_Z   2
loop_
 _symmetry_equiv_pos_site_id
 _symmetry_equiv_pos_as_xyz
  1  'x, y, z'
loop_
 _atom_site_type_symbol
 _atom_site_label
 _atom_site_symmetry_multiplicity
 _atom_site_fract_x
 _atom_site_fract_y
 _atom_site_fract_z
 _atom_site_occupancy
  Dy  Dy0  1  0.243297  0.243254  0.750000  1
  Dy  Dy1  1  0.243297  0.000043  0.250000  1
  Y  Y2  1  0.000060  0.756812  0.750000  1
  Y  Y3  1  0.000060  0.243248  0.250000  1
  Y  Y4  1  0.756778  0.756758  0.250000  1
  Y  Y5  1  0.756778  0.000020  0.750000  1
  Ho  Ho6  1  0.333345  0.666673  0.500000  1
  Ho  Ho7  1  0.666614  0.333306  0.000000  1
  Ho  Ho8  1  0.666614  0.333306  0.500000  1
  Ho  Ho9  1  0.333345  0.666673  0.000000  1
  Si  Si10  1  0.394622  0.000013  0.750000  1
  Si  Si11  1  0.394622  0.394609  0.250000  1
  Si  Si12  1  0.999995  0.605349  0.250000  1
  Si  Si13  1  0.999995  0.394646  0.750000  1
  Si  Si14  1  0.605289  0.605309  0.750000  1
  Si  Si15  1  0.605289  0.999980  0.250000  1
