# generated using pymatgen
data_ThInCu3Ni2
_symmetry_space_group_name_H-M   'P 1'
_cell_length_a   4.95767100
_cell_length_b   8.25257100
_cell_length_c   10.81934100
_cell_angle_alpha   90.00000000
_cell_angle_beta   90.00000000
_cell_angle_gamma   90.00000000
_symmetry_Int_Tables_number   1
_chemical_formula_structural   ThInCu3Ni2
_chemical_formula_sum   'Th4 In4 Cu12 Ni8'
_cell_volume   442.65745338
_cell_formula_units_Z   4
loop_
 _symmetry_equiv_pos_site_id
 _symmetry_equiv_pos_as_xyz
  1  'x, y, z'
loop_
 _atom_site_type_symbol
 _atom_site_label
 _atom_site_symmetry_multiplicity
 _atom_site_fract_x
 _atom_site_fract_y
 _atom_site_fract_z
 _atom_site_occupancy
  Th  Th0  1  0.750000  0.754700  0.440145  1
  Th  Th1  1  0.250000  0.245300  0.559855  1
  Th  Th2  1  0.250000  0.745300  0.940145  1
  Th  Th3  1  0.750000  0.254700  0.059855  1
  In  In4  1  0.750000  0.864872  0.133492  1
  In  In5  1  0.250000  0.135128  0.866508  1
  In  In6  1  0.250000  0.635128  0.633492  1
  In  In7  1  0.750000  0.364872  0.366508  1
  Cu  Cu8  1  0.500014  0.931364  0.687096  1
  Cu  Cu9  1  0.499986  0.068636  0.312904  1
  Cu  Cu10  1  0.499986  0.568636  0.187096  1
  Cu  Cu11  1  0.000014  0.068636  0.312904  1
  Cu  Cu12  1  0.500014  0.431364  0.812904  1
  Cu  Cu13  1  0.999986  0.931364  0.687096  1
  Cu  Cu14  1  0.999986  0.431364  0.812904  1
  Cu  Cu15  1  0.000014  0.568636  0.187096  1
  Cu  Cu16  1  0.750000  0.682960  0.761199  1
  Cu  Cu17  1  0.250000  0.317040  0.238801  1
  Cu  Cu18  1  0.250000  0.817040  0.261199  1
  Cu  Cu19  1  0.750000  0.182960  0.738801  1
  Ni  Ni20  1  0.750000  0.587973  0.985276  1
  Ni  Ni21  1  0.250000  0.412027  0.014724  1
  Ni  Ni22  1  0.250000  0.912027  0.485276  1
  Ni  Ni23  1  0.750000  0.087973  0.514724  1
  Ni  Ni24  1  0.750000  0.947593  0.895228  1
  Ni  Ni25  1  0.250000  0.052407  0.104772  1
  Ni  Ni26  1  0.250000  0.552407  0.395228  1
  Ni  Ni27  1  0.750000  0.447593  0.604772  1
