# generated using pymatgen
data_Tb3Cd(Mo2O7)2
_symmetry_space_group_name_H-M   'P 1'
_cell_length_a   7.38570958
_cell_length_b   7.39951694
_cell_length_c   7.38571000
_cell_angle_alpha   60.06170511
_cell_angle_beta   59.99999812
_cell_angle_gamma   60.06170316
_symmetry_Int_Tables_number   1
_chemical_formula_structural   Tb3Cd(Mo2O7)2
_chemical_formula_sum   'Tb3 Cd1 Mo4 O14'
_cell_volume   285.67830556
_cell_formula_units_Z   1
loop_
 _symmetry_equiv_pos_site_id
 _symmetry_equiv_pos_as_xyz
  1  'x, y, z'
loop_
 _atom_site_type_symbol
 _atom_site_label
 _atom_site_symmetry_multiplicity
 _atom_site_fract_x
 _atom_site_fract_y
 _atom_site_fract_z
 _atom_site_occupancy
  Tb  Tb0  1  0.125000  0.125000  0.125000  1
  Tb  Tb1  1  0.625000  0.125000  0.125000  1
  Tb  Tb2  1  0.125000  0.125000  0.625000  1
  Cd  Cd3  1  0.125000  0.625000  0.125000  1
  Mo  Mo4  1  0.625000  0.625000  0.625000  1
  Mo  Mo5  1  0.125000  0.625000  0.625000  1
  Mo  Mo6  1  0.625000  0.625000  0.125000  1
  Mo  Mo7  1  0.625000  0.125000  0.625000  1
  O  O8  1  0.000622  0.998135  0.000622  1
  O  O9  1  0.249378  0.251865  0.249378  1
  O  O10  1  0.297853  0.283792  0.709177  1
  O  O11  1  0.559852  0.524350  0.957899  1
  O  O12  1  0.709177  0.283792  0.709177  1
  O  O13  1  0.709177  0.283792  0.297853  1
  O  O14  1  0.292101  0.725650  0.690148  1
  O  O15  1  0.292101  0.725650  0.292101  1
  O  O16  1  0.690148  0.725650  0.292101  1
  O  O17  1  0.957899  0.524350  0.559852  1
  O  O18  1  0.540823  0.966208  0.952147  1
  O  O19  1  0.952147  0.966208  0.540823  1
  O  O20  1  0.957899  0.524350  0.957899  1
  O  O21  1  0.540823  0.966208  0.540823  1
