# generated using pymatgen
data_Sr10NbRe3N14
_symmetry_space_group_name_H-M   'P 1'
_cell_length_a   6.49995694
_cell_length_b   9.35293839
_cell_length_c   9.38594414
_cell_angle_alpha   114.87368967
_cell_angle_beta   97.66956157
_cell_angle_gamma   89.58496570
_symmetry_Int_Tables_number   1
_chemical_formula_structural   Sr10NbRe3N14
_chemical_formula_sum   'Sr10 Nb1 Re3 N14'
_cell_volume   512.28516633
_cell_formula_units_Z   1
loop_
 _symmetry_equiv_pos_site_id
 _symmetry_equiv_pos_as_xyz
  1  'x, y, z'
loop_
 _atom_site_type_symbol
 _atom_site_label
 _atom_site_symmetry_multiplicity
 _atom_site_fract_x
 _atom_site_fract_y
 _atom_site_fract_z
 _atom_site_occupancy
  Sr  Sr0  1  0.852107  0.591314  0.328534  1
  Sr  Sr1  1  0.262296  0.987899  0.559724  1
  Sr  Sr2  1  0.701421  0.414332  0.854805  1
  Sr  Sr3  1  0.299324  0.583997  0.147435  1
  Sr  Sr4  1  0.403339  0.790135  0.912568  1
  Sr  Sr5  1  0.597155  0.208877  0.085292  1
  Sr  Sr6  1  0.150787  0.403684  0.668123  1
  Sr  Sr7  1  0.887918  0.848904  0.759782  1
  Sr  Sr8  1  0.110542  0.149862  0.242060  1
  Sr  Sr9  1  0.734056  0.016542  0.440499  1
  Nb  Nb10  1  0.582655  0.357802  0.476907  1
  Re  Re11  1  0.418505  0.647725  0.523231  1
  Re  Re12  1  0.120724  0.217745  0.915999  1
  Re  Re13  1  0.879299  0.781182  0.083630  1
  N  N14  1  0.531874  0.556780  0.676885  1
  N  N15  1  0.466261  0.451015  0.323459  1
  N  N16  1  0.157119  0.713788  0.569292  1
  N  N17  1  0.859251  0.287520  0.437479  1
  N  N18  1  0.408456  0.185450  0.469787  1
  N  N19  1  0.583228  0.808240  0.526287  1
  N  N20  1  0.951296  0.140804  0.721148  1
  N  N21  1  0.044467  0.855592  0.280146  1
  N  N22  1  0.225349  0.053748  0.960557  1
  N  N23  1  0.773928  0.945820  0.039575  1
  N  N24  1  0.349986  0.328060  0.904453  1
  N  N25  1  0.974583  0.350109  0.074909  1
  N  N26  1  0.025620  0.652770  0.923401  1
  N  N27  1  0.648457  0.670306  0.094034  1
