# generated using pymatgen
data_Dy3CdIn3CuIr
_symmetry_space_group_name_H-M   'P 1'
_cell_length_a   7.97396600
_cell_length_b   7.97396466
_cell_length_c   3.69142800
_cell_angle_alpha   90.00000000
_cell_angle_beta   90.00000000
_cell_angle_gamma   120.00000667
_symmetry_Int_Tables_number   1
_chemical_formula_structural   Dy3CdIn3CuIr
_chemical_formula_sum   'Dy3 Cd1 In3 Cu1 Ir1'
_cell_volume   203.27018887
_cell_formula_units_Z   1
loop_
 _symmetry_equiv_pos_site_id
 _symmetry_equiv_pos_as_xyz
  1  'x, y, z'
loop_
 _atom_site_type_symbol
 _atom_site_label
 _atom_site_symmetry_multiplicity
 _atom_site_fract_x
 _atom_site_fract_y
 _atom_site_fract_z
 _atom_site_occupancy
  Dy  Dy0  1  0.581721  0.617345  0.000000  1
  Dy  Dy1  1  0.382655  0.964377  0.000000  1
  Dy  Dy2  1  0.035623  0.418279  0.000000  1
  Cd  Cd3  1  0.666667  0.333333  0.500000  1
  In  In4  1  0.994620  0.738182  0.500000  1
  In  In5  1  0.261818  0.256437  0.500000  1
  In  In6  1  0.743563  0.005380  0.500000  1
  Cu  Cu7  1  0.000000  0.000000  0.000000  1
  Ir  Ir8  1  0.333333  0.666667  0.500000  1
