# generated using pymatgen
data_Er3Al2Ga3Pt
_symmetry_space_group_name_H-M   'P 1'
_cell_length_a   6.92399903
_cell_length_b   6.92399806
_cell_length_c   4.26778100
_cell_angle_alpha   90.00000000
_cell_angle_beta   90.00000000
_cell_angle_gamma   119.78637021
_symmetry_Int_Tables_number   1
_chemical_formula_structural   Er3Al2Ga3Pt
_chemical_formula_sum   'Er3 Al2 Ga3 Pt1'
_cell_volume   177.57326047
_cell_formula_units_Z   1
loop_
 _symmetry_equiv_pos_site_id
 _symmetry_equiv_pos_as_xyz
  1  'x, y, z'
loop_
 _atom_site_type_symbol
 _atom_site_label
 _atom_site_symmetry_multiplicity
 _atom_site_fract_x
 _atom_site_fract_y
 _atom_site_fract_z
 _atom_site_occupancy
  Er  Er0  1  0.584028  0.999475  0.000000  1
  Er  Er1  1  0.418296  0.418296  0.000000  1
  Er  Er2  1  0.999475  0.584027  0.000000  1
  Al  Al3  1  0.235424  0.000999  0.499999  1
  Al  Al4  1  0.000999  0.235424  0.499999  1
  Ga  Ga5  1  0.666924  0.330929  0.499999  1
  Ga  Ga6  1  0.330929  0.666924  0.499999  1
  Ga  Ga7  1  0.756344  0.756344  0.499999  1
  Pt  Pt8  1  0.007582  0.007582  0.000000  1
