# generated using pymatgen
data_CsMgScF6
_symmetry_space_group_name_H-M   'P 1'
_cell_length_a   7.57979047
_cell_length_b   7.57979026
_cell_length_c   7.57978990
_cell_angle_alpha   120.92950156
_cell_angle_beta   119.03534113
_cell_angle_gamma   90.03827134
_symmetry_Int_Tables_number   1
_chemical_formula_structural   CsMgScF6
_chemical_formula_sum   'Cs2 Mg2 Sc2 F12'
_cell_volume   307.90986031
_cell_formula_units_Z   2
loop_
 _symmetry_equiv_pos_site_id
 _symmetry_equiv_pos_as_xyz
  1  'x, y, z'
loop_
 _atom_site_type_symbol
 _atom_site_label
 _atom_site_symmetry_multiplicity
 _atom_site_fract_x
 _atom_site_fract_y
 _atom_site_fract_z
 _atom_site_occupancy
  Cs  Cs0  1  0.357452  0.607452  0.750000  1
  Cs  Cs1  1  0.642548  0.392548  0.250000  1
  Mg  Mg2  1  0.000000  0.000000  0.500000  1
  Mg  Mg3  1  0.000000  0.500000  0.000000  1
  Sc  Sc4  1  0.000000  0.000000  0.000000  1
  Sc  Sc5  1  0.500000  0.000000  0.500000  1
  F  F6  1  0.320899  0.070899  0.250000  1
  F  F7  1  0.940632  0.690632  0.250000  1
  F  F8  1  0.316898  0.682326  0.243685  1
  F  F9  1  0.938642  0.073214  0.256315  1
  F  F10  1  0.316898  0.073214  0.634572  1
  F  F11  1  0.938642  0.682326  0.865428  1
  F  F12  1  0.679101  0.929101  0.750000  1
  F  F13  1  0.059368  0.309368  0.750000  1
  F  F14  1  0.683102  0.317674  0.756315  1
  F  F15  1  0.061358  0.926786  0.743685  1
  F  F16  1  0.683102  0.926786  0.365428  1
  F  F17  1  0.061358  0.317674  0.134572  1
