# generated using pymatgen
data_TmLuFeB6
_symmetry_space_group_name_H-M   'P 1'
_cell_length_a   3.48973800
_cell_length_b   8.98764400
_cell_length_c   11.34716700
_cell_angle_alpha   90.00000000
_cell_angle_beta   90.00000000
_cell_angle_gamma   90.00000000
_symmetry_Int_Tables_number   1
_chemical_formula_structural   TmLuFeB6
_chemical_formula_sum   'Tm4 Lu4 Fe4 B24'
_cell_volume   355.89847806
_cell_formula_units_Z   4
loop_
 _symmetry_equiv_pos_site_id
 _symmetry_equiv_pos_as_xyz
  1  'x, y, z'
loop_
 _atom_site_type_symbol
 _atom_site_label
 _atom_site_symmetry_multiplicity
 _atom_site_fract_x
 _atom_site_fract_y
 _atom_site_fract_z
 _atom_site_occupancy
  Tm  Tm0  1  0.000000  0.823150  0.085473  1
  Tm  Tm1  1  0.000000  0.176850  0.914527  1
  Tm  Tm2  1  0.000000  0.323150  0.414527  1
  Tm  Tm3  1  0.000000  0.676850  0.585473  1
  Lu  Lu4  1  0.000000  0.443483  0.129159  1
  Lu  Lu5  1  0.000000  0.556517  0.870841  1
  Lu  Lu6  1  0.000000  0.943483  0.370841  1
  Lu  Lu7  1  0.000000  0.056517  0.629159  1
  Fe  Fe8  1  0.000000  0.139102  0.179977  1
  Fe  Fe9  1  0.000000  0.860898  0.820023  1
  Fe  Fe10  1  0.000000  0.639102  0.320023  1
  Fe  Fe11  1  0.000000  0.360898  0.679977  1
  B  B12  1  0.500000  0.054321  0.067684  1
  B  B13  1  0.500000  0.945679  0.932316  1
  B  B14  1  0.500000  0.554321  0.432316  1
  B  B15  1  0.500000  0.445679  0.567684  1
  B  B16  1  0.500000  0.247705  0.081325  1
  B  B17  1  0.500000  0.752295  0.918675  1
  B  B18  1  0.500000  0.747705  0.418675  1
  B  B19  1  0.500000  0.252295  0.581325  1
  B  B20  1  0.500000  0.290545  0.234047  1
  B  B21  1  0.500000  0.709455  0.765953  1
  B  B22  1  0.500000  0.790545  0.265953  1
  B  B23  1  0.500000  0.209455  0.734047  1
  B  B24  1  0.500000  0.131720  0.314590  1
  B  B25  1  0.500000  0.868280  0.685410  1
  B  B26  1  0.500000  0.631720  0.185410  1
  B  B27  1  0.500000  0.368280  0.814590  1
  B  B28  1  0.500000  0.485171  0.288124  1
  B  B29  1  0.500000  0.514829  0.711876  1
  B  B30  1  0.500000  0.985171  0.211876  1
  B  B31  1  0.500000  0.014829  0.788124  1
  B  B32  1  0.500000  0.106888  0.470698  1
  B  B33  1  0.500000  0.893112  0.529302  1
  B  B34  1  0.500000  0.606888  0.029302  1
  B  B35  1  0.500000  0.393112  0.970698  1
