# generated using pymatgen
data_HoScP7(Ru5Rh)2
_symmetry_space_group_name_H-M   'P 1'
_cell_length_a   9.37800410
_cell_length_b   9.44957710
_cell_length_c   3.91684600
_cell_angle_alpha   90.00000000
_cell_angle_beta   90.00000000
_cell_angle_gamma   120.18055124
_symmetry_Int_Tables_number   1
_chemical_formula_structural   HoScP7(Ru5Rh)2
_chemical_formula_sum   'Ho1 Sc1 P7 Ru10 Rh2'
_cell_volume   300.05226206
_cell_formula_units_Z   1
loop_
 _symmetry_equiv_pos_site_id
 _symmetry_equiv_pos_as_xyz
  1  'x, y, z'
loop_
 _atom_site_type_symbol
 _atom_site_label
 _atom_site_symmetry_multiplicity
 _atom_site_fract_x
 _atom_site_fract_y
 _atom_site_fract_z
 _atom_site_occupancy
  Ho  Ho0  1  0.329439  0.665068  0.000000  1
  Sc  Sc1  1  0.668986  0.333272  0.500000  1
  P  P2  1  0.600769  0.716007  0.500000  1
  P  P3  1  0.000361  0.002150  0.000000  1
  P  P4  1  0.278668  0.880239  0.500000  1
  P  P5  1  0.114367  0.402224  0.500000  1
  P  P6  1  0.882475  0.574244  0.000000  1
  P  P7  1  0.427042  0.302810  0.000000  1
  P  P8  1  0.697278  0.120673  0.000000  1
  Ru  Ru9  1  0.913690  0.125661  0.500000  1
  Ru  Ru10  1  0.214346  0.088269  0.500000  1
  Ru  Ru11  1  0.875858  0.791419  0.500000  1
  Ru  Ru12  1  0.724278  0.889575  0.000000  1
  Ru  Ru13  1  0.109348  0.838532  0.000000  1
  Ru  Ru14  1  0.166788  0.274846  0.000000  1
  Ru  Ru15  1  0.432563  0.067403  0.000000  1
  Ru  Ru16  1  0.932930  0.361499  0.000000  1
  Ru  Ru17  1  0.638190  0.568490  0.000000  1
  Ru  Ru18  1  0.048525  0.608000  0.500000  1
  Rh  Rh19  1  0.551800  0.943890  0.500000  1
  Rh  Rh20  1  0.392300  0.445727  0.500000  1
