# generated using pymatgen
data_Tb3Th(InCu2)2
_symmetry_space_group_name_H-M   'P 1'
_cell_length_a   7.62599741
_cell_length_b   7.62599741
_cell_length_c   3.74543700
_cell_angle_alpha   90.00000000
_cell_angle_beta   90.00000000
_cell_angle_gamma   91.15356889
_symmetry_Int_Tables_number   1
_chemical_formula_structural   Tb3Th(InCu2)2
_chemical_formula_sum   'Tb3 Th1 In2 Cu4'
_cell_volume   217.77487544
_cell_formula_units_Z   1
loop_
 _symmetry_equiv_pos_site_id
 _symmetry_equiv_pos_as_xyz
  1  'x, y, z'
loop_
 _atom_site_type_symbol
 _atom_site_label
 _atom_site_symmetry_multiplicity
 _atom_site_fract_x
 _atom_site_fract_y
 _atom_site_fract_z
 _atom_site_occupancy
  Tb  Tb0  1  0.324099  0.824099  0.500000  1
  Tb  Tb1  1  0.174906  0.326630  0.500000  1
  Tb  Tb2  1  0.826630  0.674906  0.500000  1
  Th  Th3  1  0.674456  0.174456  0.500000  1
  In  In4  1  0.496026  0.504690  0.000000  1
  In  In5  1  0.004690  0.996026  0.000000  1
  Cu  Cu6  1  0.119515  0.619515  0.000000  1
  Cu  Cu7  1  0.882929  0.382929  0.000000  1
  Cu  Cu8  1  0.618869  0.877880  0.000000  1
  Cu  Cu9  1  0.377880  0.118869  0.000000  1
