# generated using pymatgen
data_TbZn(GaNi)2
_symmetry_space_group_name_H-M   'P 1'
_cell_length_a   4.13041800
_cell_length_b   8.90661106
_cell_length_c   8.90660941
_cell_angle_alpha   60.14622509
_cell_angle_beta   90.00000000
_cell_angle_gamma   90.00000000
_symmetry_Int_Tables_number   1
_chemical_formula_structural   TbZn(GaNi)2
_chemical_formula_sum   'Tb3 Zn3 Ga6 Ni6'
_cell_volume   284.17610881
_cell_formula_units_Z   3
loop_
 _symmetry_equiv_pos_site_id
 _symmetry_equiv_pos_as_xyz
  1  'x, y, z'
loop_
 _atom_site_type_symbol
 _atom_site_label
 _atom_site_symmetry_multiplicity
 _atom_site_fract_x
 _atom_site_fract_y
 _atom_site_fract_z
 _atom_site_occupancy
  Tb  Tb0  1  0.500000  0.333325  0.333477  1
  Tb  Tb1  1  0.500000  0.666523  0.666675  1
  Tb  Tb2  1  0.000000  0.999319  0.000681  1
  Zn  Zn3  1  0.500000  0.291018  0.708982  1
  Zn  Zn4  1  0.500000  0.709160  0.999802  1
  Zn  Zn5  1  0.500000  0.000198  0.290840  1
  Ga  Ga6  1  0.500000  0.712659  0.287341  1
  Ga  Ga7  1  0.500000  0.287293  0.000069  1
  Ga  Ga8  1  0.500000  0.999931  0.712707  1
  Ga  Ga9  1  0.000000  0.488013  0.511987  1
  Ga  Ga10  1  0.000000  0.512382  0.999421  1
  Ga  Ga11  1  0.000000  0.000579  0.487618  1
  Ni  Ni12  1  0.000000  0.195348  0.175609  1
  Ni  Ni13  1  0.000000  0.175900  0.630127  1
  Ni  Ni14  1  0.000000  0.629048  0.195057  1
  Ni  Ni15  1  0.000000  0.824390  0.804652  1
  Ni  Ni16  1  0.000000  0.369873  0.824100  1
  Ni  Ni17  1  0.000000  0.804943  0.370952  1
