# generated using pymatgen
data_Dy12GaCo4Os
_symmetry_space_group_name_H-M   'P 1'
_cell_length_a   8.23758185
_cell_length_b   8.23758162
_cell_length_c   8.23758138
_cell_angle_alpha   106.91749566
_cell_angle_beta   110.17700892
_cell_angle_gamma   111.35122100
_symmetry_Int_Tables_number   1
_chemical_formula_structural   Dy12GaCo4Os
_chemical_formula_sum   'Dy12 Ga1 Co4 Os1'
_cell_volume   429.62105924
_cell_formula_units_Z   1
loop_
 _symmetry_equiv_pos_site_id
 _symmetry_equiv_pos_as_xyz
  1  'x, y, z'
loop_
 _atom_site_type_symbol
 _atom_site_label
 _atom_site_symmetry_multiplicity
 _atom_site_fract_x
 _atom_site_fract_y
 _atom_site_fract_z
 _atom_site_occupancy
  Dy  Dy0  1  0.308318  0.273042  0.581359  1
  Dy  Dy1  1  0.691682  0.726958  0.418641  1
  Dy  Dy2  1  0.308318  0.726958  0.035275  1
  Dy  Dy3  1  0.691682  0.273042  0.964725  1
  Dy  Dy4  1  0.194586  0.514837  0.320251  1
  Dy  Dy5  1  0.194586  0.874335  0.679749  1
  Dy  Dy6  1  0.805414  0.485163  0.679749  1
  Dy  Dy7  1  0.805414  0.125665  0.320251  1
  Dy  Dy8  1  0.401592  0.222166  0.179426  1
  Dy  Dy9  1  0.042739  0.222166  0.820574  1
  Dy  Dy10  1  0.957261  0.777834  0.179426  1
  Dy  Dy11  1  0.598408  0.777834  0.820574  1
  Ga  Ga12  1  0.500000  0.000000  0.500000  1
  Co  Co13  1  0.134898  0.500000  0.634898  1
  Co  Co14  1  0.865102  0.500000  0.365102  1
  Co  Co15  1  0.000000  0.112637  0.112637  1
  Co  Co16  1  0.000000  0.887363  0.887363  1
  Os  Os17  1  0.500000  0.500000  0.000000  1
