# generated using pymatgen
data_Dy8ZnSI12
_symmetry_space_group_name_H-M   'P 1'
_cell_length_a   4.17340800
_cell_length_b   14.09194036
_cell_length_c   14.76176800
_cell_angle_alpha   90.13193710
_cell_angle_beta   90.00000000
_cell_angle_gamma   90.00000000
_symmetry_Int_Tables_number   1
_chemical_formula_structural   Dy8ZnSI12
_chemical_formula_sum   'Dy8 Zn1 S1 I12'
_cell_volume   868.15818647
_cell_formula_units_Z   1
loop_
 _symmetry_equiv_pos_site_id
 _symmetry_equiv_pos_as_xyz
  1  'x, y, z'
loop_
 _atom_site_type_symbol
 _atom_site_label
 _atom_site_symmetry_multiplicity
 _atom_site_fract_x
 _atom_site_fract_y
 _atom_site_fract_z
 _atom_site_occupancy
  Dy  Dy0  1  0.500000  0.111180  0.353781  1
  Dy  Dy1  1  0.500000  0.888820  0.646219  1
  Dy  Dy2  1  0.500000  0.617283  0.152371  1
  Dy  Dy3  1  0.500000  0.382717  0.847629  1
  Dy  Dy4  1  0.000000  0.102483  0.570784  1
  Dy  Dy5  1  0.000000  0.897517  0.429216  1
  Dy  Dy6  1  0.000000  0.613438  0.920307  1
  Dy  Dy7  1  0.000000  0.386562  0.079693  1
  Zn  Zn8  1  0.500000  0.500000  0.000000  1
  S  S9  1  0.500000  0.000000  0.500000  1
  I  I10  1  0.500000  0.247876  0.172115  1
  I  I11  1  0.500000  0.752124  0.827885  1
  I  I12  1  0.500000  0.757393  0.336671  1
  I  I13  1  0.500000  0.242607  0.663329  1
  I  I14  1  0.000000  0.255464  0.420801  1
  I  I15  1  0.000000  0.744536  0.579199  1
  I  I16  1  0.000000  0.763342  0.081388  1
  I  I17  1  0.000000  0.236658  0.918612  1
  I  I18  1  0.000000  0.999340  0.243738  1
  I  I19  1  0.000000  0.000660  0.756262  1
  I  I20  1  0.000000  0.503878  0.265666  1
  I  I21  1  0.000000  0.496122  0.734334  1
