# generated using pymatgen
data_La2CuRu3
_symmetry_space_group_name_H-M   'P 1'
_cell_length_a   5.46146366
_cell_length_b   5.39079729
_cell_length_c   5.39079700
_cell_angle_alpha   60.00000793
_cell_angle_beta   60.42711432
_cell_angle_gamma   60.42711745
_symmetry_Int_Tables_number   1
_chemical_formula_structural   La2CuRu3
_chemical_formula_sum   'La2 Cu1 Ru3'
_cell_volume   112.94677539
_cell_formula_units_Z   1
loop_
 _symmetry_equiv_pos_site_id
 _symmetry_equiv_pos_as_xyz
  1  'x, y, z'
loop_
 _atom_site_type_symbol
 _atom_site_label
 _atom_site_symmetry_multiplicity
 _atom_site_fract_x
 _atom_site_fract_y
 _atom_site_fract_z
 _atom_site_occupancy
  La  La0  1  0.490936  0.503021  0.503021  1
  La  La1  1  0.759064  0.746979  0.746979  1
  Cu  Cu2  1  0.625000  0.125000  0.125000  1
  Ru  Ru3  1  0.125000  0.125000  0.125000  1
  Ru  Ru4  1  0.125000  0.625000  0.125000  1
  Ru  Ru5  1  0.125000  0.125000  0.625000  1
