# generated using pymatgen
data_Hg2IrRhO7
_symmetry_space_group_name_H-M   'P 1'
_cell_length_a   7.31473552
_cell_length_b   7.29952579
_cell_length_c   7.31473502
_cell_angle_alpha   60.06875911
_cell_angle_beta   60.18965569
_cell_angle_gamma   60.06876245
_symmetry_Int_Tables_number   1
_chemical_formula_structural   Hg2IrRhO7
_chemical_formula_sum   'Hg4 Ir2 Rh2 O14'
_cell_volume   276.85181805
_cell_formula_units_Z   2
loop_
 _symmetry_equiv_pos_site_id
 _symmetry_equiv_pos_as_xyz
  1  'x, y, z'
loop_
 _atom_site_type_symbol
 _atom_site_label
 _atom_site_symmetry_multiplicity
 _atom_site_fract_x
 _atom_site_fract_y
 _atom_site_fract_z
 _atom_site_occupancy
  Hg  Hg0  1  0.625000  0.125000  0.125000  1
  Hg  Hg1  1  0.125000  0.625000  0.125000  1
  Hg  Hg2  1  0.125000  0.125000  0.625000  1
  Hg  Hg3  1  0.125000  0.125000  0.125000  1
  Ir  Ir4  1  0.125000  0.625000  0.625000  1
  Ir  Ir5  1  0.625000  0.625000  0.125000  1
  Rh  Rh6  1  0.625000  0.125000  0.625000  1
  Rh  Rh7  1  0.625000  0.625000  0.625000  1
  O  O8  1  0.699460  0.692793  0.299499  1
  O  O9  1  0.299499  0.308249  0.699460  1
  O  O10  1  0.700532  0.299468  0.700532  1
  O  O11  1  0.306237  0.693763  0.306237  1
  O  O12  1  0.299499  0.692793  0.699460  1
  O  O13  1  0.699460  0.308249  0.299499  1
  O  O14  1  0.550540  0.557207  0.950501  1
  O  O15  1  0.950501  0.941751  0.550540  1
  O  O16  1  0.549468  0.950532  0.549468  1
  O  O17  1  0.943763  0.556237  0.943763  1
  O  O18  1  0.950501  0.557207  0.550540  1
  O  O19  1  0.550540  0.941751  0.950501  1
  O  O20  1  0.248774  0.251226  0.248774  1
  O  O21  1  0.001226  0.998774  0.001226  1
