# generated using pymatgen
data_K2ZnSb4Au3
_symmetry_space_group_name_H-M   'P 1'
_cell_length_a   4.83237700
_cell_length_b   4.83237700
_cell_length_c   11.50707900
_cell_angle_alpha   90.00000000
_cell_angle_beta   90.00000000
_cell_angle_gamma   90.00000000
_symmetry_Int_Tables_number   1
_chemical_formula_structural   K2ZnSb4Au3
_chemical_formula_sum   'K2 Zn1 Sb4 Au3'
_cell_volume   268.71178378
_cell_formula_units_Z   1
loop_
 _symmetry_equiv_pos_site_id
 _symmetry_equiv_pos_as_xyz
  1  'x, y, z'
loop_
 _atom_site_type_symbol
 _atom_site_label
 _atom_site_symmetry_multiplicity
 _atom_site_fract_x
 _atom_site_fract_y
 _atom_site_fract_z
 _atom_site_occupancy
  K  K0  1  0.000000  0.500000  0.757943  1
  K  K1  1  0.500000  0.000000  0.242057  1
  Zn  Zn2  1  0.500000  0.500000  0.000000  1
  Sb  Sb3  1  0.000000  0.000000  0.500000  1
  Sb  Sb4  1  0.500000  0.500000  0.500000  1
  Sb  Sb5  1  0.000000  0.500000  0.129028  1
  Sb  Sb6  1  0.500000  0.000000  0.870972  1
  Au  Au7  1  0.000000  0.000000  0.000000  1
  Au  Au8  1  0.000000  0.500000  0.367574  1
  Au  Au9  1  0.500000  0.000000  0.632426  1
