# generated using pymatgen
data_K2PtPb4Au
_symmetry_space_group_name_H-M   'P 1'
_cell_length_a   6.62184557
_cell_length_b   6.62184632
_cell_length_c   8.35779100
_cell_angle_alpha   90.00000000
_cell_angle_beta   90.00000000
_cell_angle_gamma   138.70719680
_symmetry_Int_Tables_number   1
_chemical_formula_structural   K2PtPb4Au
_chemical_formula_sum   'K2 Pt1 Pb4 Au1'
_cell_volume   241.84247771
_cell_formula_units_Z   1
loop_
 _symmetry_equiv_pos_site_id
 _symmetry_equiv_pos_as_xyz
  1  'x, y, z'
loop_
 _atom_site_type_symbol
 _atom_site_label
 _atom_site_symmetry_multiplicity
 _atom_site_fract_x
 _atom_site_fract_y
 _atom_site_fract_z
 _atom_site_occupancy
  K  K0  1  0.556238  0.443760  0.250001  1
  K  K1  1  0.440656  0.559342  0.750000  1
  Pt  Pt2  1  0.281363  0.718635  0.250001  1
  Pb  Pb3  1  0.847543  0.152455  0.058771  1
  Pb  Pb4  1  0.847543  0.152455  0.441229  1
  Pb  Pb5  1  0.154660  0.845338  0.543402  1
  Pb  Pb6  1  0.154660  0.845338  0.956599  1
  Au  Au7  1  0.717329  0.282669  0.750000  1
