# generated using pymatgen
data_YbSm4Nb3(Co4P3)4
_symmetry_space_group_name_H-M   'P 1'
_cell_length_a   12.23553900
_cell_length_b   12.24209512
_cell_length_c   3.72365000
_cell_angle_alpha   90.00000000
_cell_angle_beta   90.00000000
_cell_angle_gamma   119.98228878
_symmetry_Int_Tables_number   1
_chemical_formula_structural   YbSm4Nb3(Co4P3)4
_chemical_formula_sum   'Yb1 Sm4 Nb3 Co16 P12'
_cell_volume   483.12089511
_cell_formula_units_Z   1
loop_
 _symmetry_equiv_pos_site_id
 _symmetry_equiv_pos_as_xyz
  1  'x, y, z'
loop_
 _atom_site_type_symbol
 _atom_site_label
 _atom_site_symmetry_multiplicity
 _atom_site_fract_x
 _atom_site_fract_y
 _atom_site_fract_z
 _atom_site_occupancy
  Yb  Yb0  1  0.815921  0.000000  0.500000  1
  Sm  Sm1  1  0.999354  0.816625  0.500000  1
  Sm  Sm2  1  0.182729  0.183375  0.500000  1
  Sm  Sm3  1  0.333215  0.666155  0.000000  1
  Sm  Sm4  1  0.667060  0.333845  0.000000  1
  Nb  Nb5  1  0.444290  0.000000  0.000000  1
  Nb  Nb6  1  0.999622  0.442241  0.000000  1
  Nb  Nb7  1  0.557381  0.557759  0.000000  1
  Co  Co8  1  0.280189  0.000000  0.500000  1
  Co  Co9  1  0.999521  0.278473  0.500000  1
  Co  Co10  1  0.721047  0.721527  0.500000  1
  Co  Co11  1  0.625561  0.803935  0.000000  1
  Co  Co12  1  0.197691  0.823091  0.000000  1
  Co  Co13  1  0.176367  0.373742  0.000000  1
  Co  Co14  1  0.374599  0.176909  0.000000  1
  Co  Co15  1  0.802625  0.626258  0.000000  1
  Co  Co16  1  0.821626  0.196065  0.000000  1
  Co  Co17  1  0.520683  0.875106  0.500000  1
  Co  Co18  1  0.125769  0.645605  0.500000  1
  Co  Co19  1  0.354329  0.479507  0.500000  1
  Co  Co20  1  0.480165  0.354395  0.500000  1
  Co  Co21  1  0.874824  0.520493  0.500000  1
  Co  Co22  1  0.645579  0.124894  0.500000  1
  Co  Co23  1  0.999301  0.000000  0.000000  1
  P  P24  1  0.180462  0.000000  0.000000  1
  P  P25  1  0.996490  0.177962  0.000000  1
  P  P26  1  0.818528  0.822038  0.000000  1
  P  P27  1  0.523502  0.690722  0.500000  1
  P  P28  1  0.311016  0.833229  0.500000  1
  P  P29  1  0.166462  0.476319  0.500000  1
  P  P30  1  0.477789  0.166771  0.500000  1
  P  P31  1  0.690144  0.523681  0.500000  1
  P  P32  1  0.832780  0.309278  0.500000  1
  P  P33  1  0.644724  0.000000  0.000000  1
  P  P34  1  0.999973  0.641292  0.000000  1
  P  P35  1  0.358681  0.358708  0.000000  1
