# generated using pymatgen
data_Rb4GaSbAu7
_symmetry_space_group_name_H-M   'P 1'
_cell_length_a   10.50735676
_cell_length_b   10.50735654
_cell_length_c   10.50735878
_cell_angle_alpha   38.12740329
_cell_angle_beta   38.12740475
_cell_angle_gamma   38.12740157
_symmetry_Int_Tables_number   1
_chemical_formula_structural   Rb4GaSbAu7
_chemical_formula_sum   'Rb4 Ga1 Sb1 Au7'
_cell_volume   397.04284420
_cell_formula_units_Z   1
loop_
 _symmetry_equiv_pos_site_id
 _symmetry_equiv_pos_as_xyz
  1  'x, y, z'
loop_
 _atom_site_type_symbol
 _atom_site_label
 _atom_site_symmetry_multiplicity
 _atom_site_fract_x
 _atom_site_fract_y
 _atom_site_fract_z
 _atom_site_occupancy
  Rb  Rb0  1  0.810870  0.810870  0.810870  1
  Rb  Rb1  1  0.685967  0.685967  0.685967  1
  Rb  Rb2  1  0.317539  0.317539  0.317539  1
  Rb  Rb3  1  0.187214  0.187214  0.187214  1
  Ga  Ga4  1  0.445318  0.445318  0.445318  1
  Sb  Sb5  1  0.545550  0.545550  0.545550  1
  Au  Au6  1  0.785139  0.785139  0.195358  1
  Au  Au7  1  0.218590  0.803482  0.218590  1
  Au  Au8  1  0.785139  0.195358  0.785139  1
  Au  Au9  1  0.803482  0.218590  0.218590  1
  Au  Au10  1  0.195358  0.785139  0.785139  1
  Au  Au11  1  0.001240  0.001240  0.001240  1
  Au  Au12  1  0.218590  0.218590  0.803482  1
