# generated using pymatgen
data_Pr4Sm2IrBr10
_symmetry_space_group_name_H-M   'P 1'
_cell_length_a   7.57436301
_cell_length_b   9.53978218
_cell_length_c   9.62413300
_cell_angle_alpha   108.86642359
_cell_angle_beta   95.96275019
_cell_angle_gamma   105.44449389
_symmetry_Int_Tables_number   1
_chemical_formula_structural   Pr4Sm2IrBr10
_chemical_formula_sum   'Pr4 Sm2 Ir1 Br10'
_cell_volume   620.38011369
_cell_formula_units_Z   1
loop_
 _symmetry_equiv_pos_site_id
 _symmetry_equiv_pos_as_xyz
  1  'x, y, z'
loop_
 _atom_site_type_symbol
 _atom_site_label
 _atom_site_symmetry_multiplicity
 _atom_site_fract_x
 _atom_site_fract_y
 _atom_site_fract_z
 _atom_site_occupancy
  Pr  Pr0  1  0.029399  0.701020  0.403580  1
  Pr  Pr1  1  0.970601  0.298980  0.596420  1
  Pr  Pr2  1  0.868644  0.952241  0.751392  1
  Pr  Pr3  1  0.131356  0.047759  0.248608  1
  Sm  Sm4  1  0.363948  0.135219  0.678499  1
  Sm  Sm5  1  0.636052  0.864781  0.321501  1
  Ir  Ir6  1  0.000000  0.000000  0.500000  1
  Br  Br7  1  0.450617  0.825118  0.580776  1
  Br  Br8  1  0.549383  0.174882  0.419224  1
  Br  Br9  1  0.913438  0.632218  0.672374  1
  Br  Br10  1  0.086562  0.367782  0.327626  1
  Br  Br11  1  0.254619  0.084460  0.948917  1
  Br  Br12  1  0.745381  0.915540  0.051083  1
  Br  Br13  1  0.358755  0.449725  0.771075  1
  Br  Br14  1  0.641245  0.550275  0.228925  1
  Br  Br15  1  0.776019  0.254778  0.847359  1
  Br  Br16  1  0.223981  0.745222  0.152641  1
