# generated using pymatgen
data_Rb8Ce3SmF20
_symmetry_space_group_name_H-M   'P 1'
_cell_length_a   7.14538620
_cell_length_b   7.71018800
_cell_length_c   11.79955100
_cell_angle_alpha   90.00000000
_cell_angle_beta   90.25216079
_cell_angle_gamma   90.00000000
_symmetry_Int_Tables_number   1
_chemical_formula_structural   Rb8Ce3SmF20
_chemical_formula_sum   'Rb8 Ce3 Sm1 F20'
_cell_volume   650.05776501
_cell_formula_units_Z   1
loop_
 _symmetry_equiv_pos_site_id
 _symmetry_equiv_pos_as_xyz
  1  'x, y, z'
loop_
 _atom_site_type_symbol
 _atom_site_label
 _atom_site_symmetry_multiplicity
 _atom_site_fract_x
 _atom_site_fract_y
 _atom_site_fract_z
 _atom_site_occupancy
  Rb  Rb0  1  0.968981  0.502794  0.671480  1
  Rb  Rb1  1  0.032808  0.002752  0.328493  1
  Rb  Rb2  1  0.532110  0.501661  0.170431  1
  Rb  Rb3  1  0.468465  0.003631  0.829462  1
  Rb  Rb4  1  0.968981  0.997206  0.671480  1
  Rb  Rb5  1  0.032808  0.497248  0.328493  1
  Rb  Rb6  1  0.532110  0.998339  0.170431  1
  Rb  Rb7  1  0.468465  0.496369  0.829462  1
  Ce  Ce8  1  0.060526  0.750000  0.001993  1
  Ce  Ce9  1  0.562068  0.250000  0.498029  1
  Ce  Ce10  1  0.440421  0.750000  0.502022  1
  Sm  Sm11  1  0.937805  0.250000  0.998088  1
  F  F12  1  0.856435  0.527543  0.926235  1
  F  F13  1  0.140894  0.039032  0.072597  1
  F  F14  1  0.644775  0.534866  0.425930  1
  F  F15  1  0.354782  0.033556  0.574882  1
  F  F16  1  0.856435  0.972457  0.926235  1
  F  F17  1  0.140894  0.460968  0.072597  1
  F  F18  1  0.644775  0.965134  0.425930  1
  F  F19  1  0.354782  0.466444  0.574882  1
  F  F20  1  0.625509  0.750000  0.664780  1
  F  F21  1  0.375857  0.250000  0.335934  1
  F  F22  1  0.875497  0.750000  0.163319  1
  F  F23  1  0.120075  0.250000  0.839701  1
  F  F24  1  0.112185  0.750000  0.513144  1
  F  F25  1  0.886177  0.250000  0.486227  1
  F  F26  1  0.384621  0.750000  0.014440  1
  F  F27  1  0.620168  0.250000  0.986261  1
  F  F28  1  0.156457  0.750000  0.813820  1
  F  F29  1  0.845619  0.250000  0.183904  1
  F  F30  1  0.341368  0.750000  0.312793  1
  F  F31  1  0.657144  0.250000  0.686523  1
