# generated using pymatgen
data_K8Rb4Sb(AsS4)3
_symmetry_space_group_name_H-M   'P 1'
_cell_length_a   9.64523843
_cell_length_b   9.64523739
_cell_length_c   9.64523829
_cell_angle_alpha   90.29038971
_cell_angle_beta   90.29039156
_cell_angle_gamma   90.29038699
_symmetry_Int_Tables_number   1
_chemical_formula_structural   K8Rb4Sb(AsS4)3
_chemical_formula_sum   'K8 Rb4 Sb1 As3 S12'
_cell_volume   897.26775223
_cell_formula_units_Z   1
loop_
 _symmetry_equiv_pos_site_id
 _symmetry_equiv_pos_as_xyz
  1  'x, y, z'
loop_
 _atom_site_type_symbol
 _atom_site_label
 _atom_site_symmetry_multiplicity
 _atom_site_fract_x
 _atom_site_fract_y
 _atom_site_fract_z
 _atom_site_occupancy
  K  K0  1  0.186361  0.685146  0.813788  1
  K  K1  1  0.685146  0.813788  0.186361  1
  K  K2  1  0.813788  0.186361  0.685146  1
  K  K3  1  0.312986  0.312986  0.312986  1
  K  K4  1  0.690063  0.193336  0.308655  1
  K  K5  1  0.193336  0.308655  0.690063  1
  K  K6  1  0.308655  0.690063  0.193336  1
  K  K7  1  0.807380  0.807380  0.807380  1
  Rb  Rb8  1  0.924549  0.430375  0.074110  1
  Rb  Rb9  1  0.430375  0.074110  0.924549  1
  Rb  Rb10  1  0.074110  0.924549  0.430375  1
  Rb  Rb11  1  0.572687  0.572687  0.572687  1
  Sb  Sb12  1  0.025678  0.025678  0.025678  1
  As  As13  1  0.481627  0.982119  0.517464  1
  As  As14  1  0.982119  0.517464  0.481627  1
  As  As15  1  0.517464  0.481627  0.982119  1
  S  S16  1  0.003553  0.782196  0.092710  1
  S  S17  1  0.912912  0.503507  0.707655  1
  S  S18  1  0.291301  0.411494  0.995807  1
  S  S19  1  0.503507  0.707655  0.912912  1
  S  S20  1  0.411494  0.995807  0.291301  1
  S  S21  1  0.782196  0.092710  0.003553  1
  S  S22  1  0.995807  0.291301  0.411494  1
  S  S23  1  0.092710  0.003553  0.782196  1
  S  S24  1  0.707655  0.912912  0.503507  1
  S  S25  1  0.496917  0.208743  0.586886  1
  S  S26  1  0.586886  0.496917  0.208743  1
  S  S27  1  0.208743  0.586886  0.496917  1
