# generated using pymatgen
data_Sc2Ni4BIr2
_symmetry_space_group_name_H-M   'P 1'
_cell_length_a   5.46309311
_cell_length_b   5.46309431
_cell_length_c   5.46094500
_cell_angle_alpha   60.01300747
_cell_angle_beta   60.01300020
_cell_angle_gamma   61.34080910
_symmetry_Int_Tables_number   1
_chemical_formula_structural   Sc2Ni4BIr2
_chemical_formula_sum   'Sc2 Ni4 B1 Ir2'
_cell_volume   116.39263902
_cell_formula_units_Z   1
loop_
 _symmetry_equiv_pos_site_id
 _symmetry_equiv_pos_as_xyz
  1  'x, y, z'
loop_
 _atom_site_type_symbol
 _atom_site_label
 _atom_site_symmetry_multiplicity
 _atom_site_fract_x
 _atom_site_fract_y
 _atom_site_fract_z
 _atom_site_occupancy
  Sc  Sc0  1  0.249150  0.249150  0.253375  1
  Sc  Sc1  1  0.750850  0.750850  0.751675  1
  Ni  Ni2  1  0.739683  0.739683  0.265363  1
  Ni  Ni3  1  0.260317  0.260317  0.744729  1
  Ni  Ni4  1  0.736395  0.263606  0.741753  1
  Ni  Ni5  1  0.263606  0.736395  0.741753  1
  B  B6  1  0.000000  0.000000  0.981504  1
  Ir  Ir7  1  0.741880  0.258121  0.259925  1
  Ir  Ir8  1  0.258121  0.741880  0.259925  1
