# generated using pymatgen
data_Cs10Al5GaSe14
_symmetry_space_group_name_H-M   'P 1'
_cell_length_a   11.33022044
_cell_length_b   11.33022083
_cell_length_c   9.75884379
_cell_angle_alpha   76.37002311
_cell_angle_beta   76.37002256
_cell_angle_gamma   72.41210295
_symmetry_Int_Tables_number   1
_chemical_formula_structural   Cs10Al5GaSe14
_chemical_formula_sum   'Cs10 Al5 Ga1 Se14'
_cell_volume   1142.15646178
_cell_formula_units_Z   1
loop_
 _symmetry_equiv_pos_site_id
 _symmetry_equiv_pos_as_xyz
  1  'x, y, z'
loop_
 _atom_site_type_symbol
 _atom_site_label
 _atom_site_symmetry_multiplicity
 _atom_site_fract_x
 _atom_site_fract_y
 _atom_site_fract_z
 _atom_site_occupancy
  Cs  Cs0  1  0.026337  0.437538  0.718960  1
  Cs  Cs1  1  0.437538  0.026337  0.718960  1
  Cs  Cs2  1  0.973573  0.563302  0.280879  1
  Cs  Cs3  1  0.563302  0.973573  0.280879  1
  Cs  Cs4  1  0.289557  0.710573  0.000424  1
  Cs  Cs5  1  0.710573  0.289557  0.000424  1
  Cs  Cs6  1  0.846068  0.152868  0.499540  1
  Cs  Cs7  1  0.152868  0.846068  0.499540  1
  Cs  Cs8  1  0.426415  0.426415  0.691418  1
  Cs  Cs9  1  0.573446  0.573446  0.308955  1
  Al  Al10  1  0.212454  0.212454  0.182301  1
  Al  Al11  1  0.787995  0.787995  0.818192  1
  Al  Al12  1  0.071329  0.071329  0.057130  1
  Al  Al13  1  0.929022  0.929022  0.942940  1
  Al  Al14  1  0.345006  0.345006  0.332711  1
  Ga  Ga15  1  0.653665  0.653665  0.665689  1
  Se  Se16  1  0.004811  0.281738  0.113809  1
  Se  Se17  1  0.281738  0.004811  0.113809  1
  Se  Se18  1  0.995882  0.718584  0.886624  1
  Se  Se19  1  0.718584  0.995882  0.886624  1
  Se  Se20  1  0.203857  0.203857  0.431995  1
  Se  Se21  1  0.797151  0.797151  0.568131  1
  Se  Se22  1  0.063887  0.063887  0.813539  1
  Se  Se23  1  0.936468  0.936468  0.186636  1
  Se  Se24  1  0.348906  0.348906  0.075039  1
  Se  Se25  1  0.651750  0.651750  0.926515  1
  Se  Se26  1  0.252938  0.548457  0.393860  1
  Se  Se27  1  0.548457  0.252938  0.393860  1
  Se  Se28  1  0.748320  0.448105  0.605309  1
  Se  Se29  1  0.448105  0.748320  0.605309  1
