# generated using pymatgen
data_Ho3Mg3Sn2Au
_symmetry_space_group_name_H-M   'P 1'
_cell_length_a   7.53057300
_cell_length_b   7.53057193
_cell_length_c   4.44956700
_cell_angle_alpha   90.00000000
_cell_angle_beta   90.00000000
_cell_angle_gamma   120.00000909
_symmetry_Int_Tables_number   1
_chemical_formula_structural   Ho3Mg3Sn2Au
_chemical_formula_sum   'Ho3 Mg3 Sn2 Au1'
_cell_volume   218.52660899
_cell_formula_units_Z   1
loop_
 _symmetry_equiv_pos_site_id
 _symmetry_equiv_pos_as_xyz
  1  'x, y, z'
loop_
 _atom_site_type_symbol
 _atom_site_label
 _atom_site_symmetry_multiplicity
 _atom_site_fract_x
 _atom_site_fract_y
 _atom_site_fract_z
 _atom_site_occupancy
  Ho  Ho0  1  0.594145  0.000000  0.000000  1
  Ho  Ho1  1  0.000000  0.594145  0.000000  1
  Ho  Ho2  1  0.405855  0.405855  0.000000  1
  Mg  Mg3  1  0.236272  0.000000  0.500000  1
  Mg  Mg4  1  0.000000  0.236272  0.500000  1
  Mg  Mg5  1  0.763728  0.763728  0.500000  1
  Sn  Sn6  1  0.333333  0.666667  0.500000  1
  Sn  Sn7  1  0.666667  0.333333  0.500000  1
  Au  Au8  1  0.000000  0.000000  0.000000  1
