# generated using pymatgen
data_Ho3Zr(Ni4P3)2
_symmetry_space_group_name_H-M   'P 1'
_cell_length_a   3.80224900
_cell_length_b   10.75221400
_cell_length_c   12.36658000
_cell_angle_alpha   90.00000000
_cell_angle_beta   90.00000000
_cell_angle_gamma   90.00000000
_symmetry_Int_Tables_number   1
_chemical_formula_structural   Ho3Zr(Ni4P3)2
_chemical_formula_sum   'Ho6 Zr2 Ni16 P12'
_cell_volume   505.57788080
_cell_formula_units_Z   2
loop_
 _symmetry_equiv_pos_site_id
 _symmetry_equiv_pos_as_xyz
  1  'x, y, z'
loop_
 _atom_site_type_symbol
 _atom_site_label
 _atom_site_symmetry_multiplicity
 _atom_site_fract_x
 _atom_site_fract_y
 _atom_site_fract_z
 _atom_site_occupancy
  Ho  Ho0  1  0.000000  0.500000  0.527919  1
  Ho  Ho1  1  0.500000  0.000000  0.472081  1
  Ho  Ho2  1  0.500000  0.820871  0.205492  1
  Ho  Ho3  1  0.500000  0.179129  0.205492  1
  Ho  Ho4  1  0.000000  0.679129  0.794508  1
  Ho  Ho5  1  0.000000  0.320871  0.794508  1
  Zr  Zr6  1  0.500000  0.500000  0.155229  1
  Zr  Zr7  1  0.000000  0.000000  0.844771  1
  Ni  Ni8  1  0.000000  0.500000  0.982821  1
  Ni  Ni9  1  0.500000  0.000000  0.017179  1
  Ni  Ni10  1  0.500000  0.299498  0.430614  1
  Ni  Ni11  1  0.500000  0.700502  0.430614  1
  Ni  Ni12  1  0.000000  0.200502  0.569386  1
  Ni  Ni13  1  0.000000  0.799498  0.569386  1
  Ni  Ni14  1  0.500000  0.877168  0.704477  1
  Ni  Ni15  1  0.500000  0.122832  0.704477  1
  Ni  Ni16  1  0.000000  0.622832  0.295523  1
  Ni  Ni17  1  0.000000  0.377168  0.295523  1
  Ni  Ni18  1  0.500000  0.334263  0.988235  1
  Ni  Ni19  1  0.500000  0.665737  0.988235  1
  Ni  Ni20  1  0.000000  0.165737  0.011765  1
  Ni  Ni21  1  0.000000  0.834263  0.011765  1
  Ni  Ni22  1  0.500000  0.500000  0.701240  1
  Ni  Ni23  1  0.000000  0.000000  0.298760  1
  P  P24  1  0.500000  0.314009  0.614951  1
  P  P25  1  0.500000  0.685991  0.614951  1
  P  P26  1  0.000000  0.185991  0.385049  1
  P  P27  1  0.000000  0.814009  0.385049  1
  P  P28  1  0.500000  0.500000  0.879004  1
  P  P29  1  0.000000  0.000000  0.120996  1
  P  P30  1  0.500000  0.838380  0.893700  1
  P  P31  1  0.500000  0.161620  0.893700  1
  P  P32  1  0.000000  0.661620  0.106300  1
  P  P33  1  0.000000  0.338380  0.106300  1
  P  P34  1  0.500000  0.500000  0.361454  1
  P  P35  1  0.000000  0.000000  0.638546  1
