# generated using pymatgen
data_Zr6Nb5Al3Ga8Os7
_symmetry_space_group_name_H-M   'P 1'
_cell_length_a   8.91235813
_cell_length_b   8.91235859
_cell_length_c   8.88291472
_cell_angle_alpha   59.89029470
_cell_angle_beta   59.89029205
_cell_angle_gamma   59.99999971
_symmetry_Int_Tables_number   1
_chemical_formula_structural   Zr6Nb5Al3Ga8Os7
_chemical_formula_sum   'Zr6 Nb5 Al3 Ga8 Os7'
_cell_volume   498.08518943
_cell_formula_units_Z   1
loop_
 _symmetry_equiv_pos_site_id
 _symmetry_equiv_pos_as_xyz
  1  'x, y, z'
loop_
 _atom_site_type_symbol
 _atom_site_label
 _atom_site_symmetry_multiplicity
 _atom_site_fract_x
 _atom_site_fract_y
 _atom_site_fract_z
 _atom_site_occupancy
  Zr  Zr0  1  0.702642  0.702642  0.300846  1
  Zr  Zr1  1  0.293869  0.702642  0.300846  1
  Zr  Zr2  1  0.702642  0.293869  0.300846  1
  Zr  Zr3  1  0.305883  0.305883  0.702550  1
  Zr  Zr4  1  0.685685  0.305883  0.702550  1
  Zr  Zr5  1  0.305883  0.685685  0.702550  1
  Nb  Nb6  1  0.878141  0.878141  0.365579  1
  Nb  Nb7  1  0.873919  0.371403  0.880760  1
  Nb  Nb8  1  0.371403  0.873919  0.880760  1
  Nb  Nb9  1  0.873919  0.873919  0.880760  1
  Nb  Nb10  1  0.126729  0.126729  0.619814  1
  Al  Al11  1  0.120840  0.639127  0.119192  1
  Al  Al12  1  0.639127  0.120840  0.119192  1
  Al  Al13  1  0.120840  0.120840  0.119192  1
  Ga  Ga14  1  0.653703  0.653703  0.038892  1
  Ga  Ga15  1  0.657595  0.029248  0.655560  1
  Ga  Ga16  1  0.029248  0.657595  0.655560  1
  Ga  Ga17  1  0.657595  0.657595  0.655560  1
  Ga  Ga18  1  0.337160  0.337160  0.988519  1
  Ga  Ga19  1  0.341960  0.979024  0.337055  1
  Ga  Ga20  1  0.979024  0.341960  0.337055  1
  Ga  Ga21  1  0.341960  0.341960  0.337055  1
  Os  Os22  1  0.004351  0.004351  0.986945  1
  Os  Os23  1  0.999111  0.999111  0.504078  1
  Os  Os24  1  0.497701  0.999111  0.504078  1
  Os  Os25  1  0.999111  0.497701  0.504078  1
  Os  Os26  1  0.501054  0.501054  0.000043  1
  Os  Os27  1  0.997849  0.501054  0.000043  1
  Os  Os28  1  0.501054  0.997849  0.000043  1
