# generated using pymatgen
data_Dy11TmTh4Mg3AlRh4
_symmetry_space_group_name_H-M   'P 1'
_cell_length_a   9.79047016
_cell_length_b   9.79047079
_cell_length_c   9.80250700
_cell_angle_alpha   59.95932073
_cell_angle_beta   59.95931859
_cell_angle_gamma   59.96885809
_symmetry_Int_Tables_number   1
_chemical_formula_structural   Dy11TmTh4Mg3AlRh4
_chemical_formula_sum   'Dy11 Tm1 Th4 Mg3 Al1 Rh4'
_cell_volume   663.83444251
_cell_formula_units_Z   1
loop_
 _symmetry_equiv_pos_site_id
 _symmetry_equiv_pos_as_xyz
  1  'x, y, z'
loop_
 _atom_site_type_symbol
 _atom_site_label
 _atom_site_symmetry_multiplicity
 _atom_site_fract_x
 _atom_site_fract_y
 _atom_site_fract_z
 _atom_site_occupancy
  Dy  Dy0  1  0.063794  0.436535  0.437214  1
  Dy  Dy1  1  0.439410  0.060980  0.060432  1
  Dy  Dy2  1  0.436535  0.063794  0.437214  1
  Dy  Dy3  1  0.060980  0.439410  0.060432  1
  Dy  Dy4  1  0.437287  0.437287  0.062723  1
  Dy  Dy5  1  0.061577  0.061577  0.438965  1
  Dy  Dy6  1  0.181562  0.817650  0.815635  1
  Dy  Dy7  1  0.817618  0.185067  0.181890  1
  Dy  Dy8  1  0.817650  0.181562  0.815635  1
  Dy  Dy9  1  0.185067  0.817618  0.181890  1
  Dy  Dy10  1  0.816677  0.816677  0.179890  1
  Tm  Tm11  1  0.185509  0.185509  0.814427  1
  Th  Th12  1  0.597293  0.597293  0.597652  1
  Th  Th13  1  0.599126  0.599126  0.204925  1
  Th  Th14  1  0.600592  0.200952  0.600431  1
  Th  Th15  1  0.200952  0.600592  0.600431  1
  Mg  Mg16  1  0.830005  0.830005  0.511165  1
  Mg  Mg17  1  0.829275  0.511164  0.831327  1
  Mg  Mg18  1  0.511164  0.829275  0.831327  1
  Al  Al19  1  0.831237  0.831237  0.833384  1
  Rh  Rh20  1  0.393152  0.393152  0.396723  1
  Rh  Rh21  1  0.393038  0.393038  0.817125  1
  Rh  Rh22  1  0.392785  0.817715  0.394581  1
  Rh  Rh23  1  0.817715  0.392785  0.394581  1
