# generated using pymatgen
data_Ce2Dy11Er3(CdIr)4
_symmetry_space_group_name_H-M   'P 1'
_cell_length_a   9.63072047
_cell_length_b   9.63574685
_cell_length_c   9.66408752
_cell_angle_alpha   59.92112289
_cell_angle_beta   59.92227798
_cell_angle_gamma   59.89427624
_symmetry_Int_Tables_number   1
_chemical_formula_structural   Ce2Dy11Er3(CdIr)4
_chemical_formula_sum   'Ce2 Dy11 Er3 Cd4 Ir4'
_cell_volume   632.88912087
_cell_formula_units_Z   1
loop_
 _symmetry_equiv_pos_site_id
 _symmetry_equiv_pos_as_xyz
  1  'x, y, z'
loop_
 _atom_site_type_symbol
 _atom_site_label
 _atom_site_symmetry_multiplicity
 _atom_site_fract_x
 _atom_site_fract_y
 _atom_site_fract_z
 _atom_site_occupancy
  Ce  Ce0  1  0.596607  0.595719  0.598792  1
  Ce  Ce1  1  0.595799  0.595914  0.209358  1
  Dy  Dy2  1  0.439269  0.061370  0.059556  1
  Dy  Dy3  1  0.438513  0.061845  0.439850  1
  Dy  Dy4  1  0.061560  0.439168  0.060054  1
  Dy  Dy5  1  0.437016  0.437637  0.062803  1
  Dy  Dy6  1  0.061532  0.061764  0.438648  1
  Dy  Dy7  1  0.189446  0.812541  0.812444  1
  Dy  Dy8  1  0.812743  0.189320  0.185260  1
  Dy  Dy9  1  0.813138  0.189468  0.812205  1
  Dy  Dy10  1  0.189092  0.812354  0.185661  1
  Dy  Dy11  1  0.813629  0.812865  0.186967  1
  Dy  Dy12  1  0.190352  0.190774  0.809088  1
  Er  Er13  1  0.602230  0.198186  0.599707  1
  Er  Er14  1  0.197684  0.602061  0.599645  1
  Er  Er15  1  0.061612  0.439102  0.439809  1
  Cd  Cd16  1  0.830426  0.830575  0.830890  1
  Cd  Cd17  1  0.830632  0.830331  0.508072  1
  Cd  Cd18  1  0.830308  0.505414  0.832037  1
  Cd  Cd19  1  0.505364  0.830341  0.832219  1
  Ir  Ir20  1  0.391997  0.393013  0.393245  1
  Ir  Ir21  1  0.392899  0.392770  0.820958  1
  Ir  Ir22  1  0.395449  0.821824  0.391114  1
  Ir  Ir23  1  0.822701  0.395645  0.391620  1
