# generated using pymatgen
data_Ho4CoB16Ru15
_symmetry_space_group_name_H-M   'P 1'
_cell_length_a   9.17470446
_cell_length_b   7.46558305
_cell_length_c   7.47523600
_cell_angle_alpha   89.88584710
_cell_angle_beta   113.71403627
_cell_angle_gamma   114.36546065
_symmetry_Int_Tables_number   1
_chemical_formula_structural   Ho4CoB16Ru15
_chemical_formula_sum   'Ho4 Co1 B16 Ru15'
_cell_volume   418.69768048
_cell_formula_units_Z   1
loop_
 _symmetry_equiv_pos_site_id
 _symmetry_equiv_pos_as_xyz
  1  'x, y, z'
loop_
 _atom_site_type_symbol
 _atom_site_label
 _atom_site_symmetry_multiplicity
 _atom_site_fract_x
 _atom_site_fract_y
 _atom_site_fract_z
 _atom_site_occupancy
  Ho  Ho0  1  0.750457  0.873928  0.124212  1
  Ho  Ho1  1  0.247837  0.624395  0.372067  1
  Ho  Ho2  1  0.752103  0.375705  0.634403  1
  Ho  Ho3  1  0.248590  0.124227  0.875529  1
  Co  Co4  1  0.875581  0.547359  0.039866  1
  B  B5  1  0.914594  0.291603  0.068333  1
  B  B6  1  0.414104  0.567514  0.124152  1
  B  B7  1  0.086570  0.209351  0.151535  1
  B  B8  1  0.585472  0.156649  0.209790  1
  B  B9  1  0.409720  0.062127  0.286391  1
  B  B10  1  0.916999  0.628526  0.339852  1
  B  B11  1  0.586330  0.653838  0.373248  1
  B  B12  1  0.087934  0.876852  0.438202  1
  B  B13  1  0.913944  0.124285  0.565664  1
  B  B14  1  0.415488  0.347179  0.624529  1
  B  B15  1  0.087101  0.375047  0.655027  1
  B  B16  1  0.587997  0.937113  0.710829  1
  B  B17  1  0.415088  0.849596  0.790380  1
  B  B18  1  0.906081  0.780846  0.850685  1
  B  B19  1  0.593175  0.438375  0.876626  1
  B  B20  1  0.079146  0.704614  0.934856  1
  Ru  Ru21  1  0.371017  0.835399  0.051127  1
  Ru  Ru22  1  0.120806  0.939714  0.164990  1
  Ru  Ru23  1  0.631283  0.465438  0.176260  1
  Ru  Ru24  1  0.374085  0.333223  0.318395  1
  Ru  Ru25  1  0.874112  0.324405  0.335384  1
  Ru  Ru26  1  0.627242  0.963858  0.446171  1
  Ru  Ru27  1  0.127039  0.179614  0.461007  1
  Ru  Ru28  1  0.873484  0.819957  0.539393  1
  Ru  Ru29  1  0.373846  0.037935  0.552905  1
  Ru  Ru30  1  0.126354  0.678994  0.665326  1
  Ru  Ru31  1  0.621478  0.664410  0.673469  1
  Ru  Ru32  1  0.374511  0.538774  0.821640  1
  Ru  Ru33  1  0.873222  0.049889  0.834911  1
  Ru  Ru34  1  0.631089  0.171835  0.949502  1
  Ru  Ru35  1  0.126125  0.447427  0.963344  1
