# generated using pymatgen
data_ErTm4VMoO12
_symmetry_space_group_name_H-M   'P 1'
_cell_length_a   6.72919433
_cell_length_b   6.72919392
_cell_length_c   7.22827323
_cell_angle_alpha   74.32865377
_cell_angle_beta   74.32865288
_cell_angle_gamma   51.83586983
_symmetry_Int_Tables_number   1
_chemical_formula_structural   ErTm4VMoO12
_chemical_formula_sum   'Er1 Tm4 V1 Mo1 O12'
_cell_volume   245.46639052
_cell_formula_units_Z   1
loop_
 _symmetry_equiv_pos_site_id
 _symmetry_equiv_pos_as_xyz
  1  'x, y, z'
loop_
 _atom_site_type_symbol
 _atom_site_label
 _atom_site_symmetry_multiplicity
 _atom_site_fract_x
 _atom_site_fract_y
 _atom_site_fract_z
 _atom_site_occupancy
  Er  Er0  1  0.999691  0.000309  0.500000  1
  Tm  Tm1  1  0.309935  0.295923  0.362008  1
  Tm  Tm2  1  0.704077  0.690065  0.637992  1
  Tm  Tm3  1  0.311696  0.308414  0.824793  1
  Tm  Tm4  1  0.691586  0.688304  0.175207  1
  V  V5  1  0.747610  0.252390  0.000000  1
  Mo  Mo6  1  0.235478  0.764522  0.000000  1
  O  O7  1  0.898548  0.426724  0.917254  1
  O  O8  1  0.433485  0.898356  0.916425  1
  O  O9  1  0.101644  0.566515  0.083575  1
  O  O10  1  0.573276  0.101452  0.082746  1
  O  O11  1  0.099824  0.592789  0.574890  1
  O  O12  1  0.595655  0.093881  0.575722  1
  O  O13  1  0.906119  0.404345  0.424278  1
  O  O14  1  0.407211  0.900176  0.425110  1
  O  O15  1  0.993614  0.007813  0.811955  1
  O  O16  1  0.992187  0.006386  0.188045  1
  O  O17  1  0.498706  0.500341  0.807178  1
  O  O18  1  0.499659  0.501294  0.192822  1
