# generated using pymatgen
data_Sc9TiTc3
_symmetry_space_group_name_H-M   'P 1'
_cell_length_a   8.77819500
_cell_length_b   8.77819436
_cell_length_c   8.03741900
_cell_angle_alpha   90.00000000
_cell_angle_beta   90.00000000
_cell_angle_gamma   119.99999109
_symmetry_Int_Tables_number   1
_chemical_formula_structural   Sc9TiTc3
_chemical_formula_sum   'Sc18 Ti2 Tc6'
_cell_volume   536.36162335
_cell_formula_units_Z   2
loop_
 _symmetry_equiv_pos_site_id
 _symmetry_equiv_pos_as_xyz
  1  'x, y, z'
loop_
 _atom_site_type_symbol
 _atom_site_label
 _atom_site_symmetry_multiplicity
 _atom_site_fract_x
 _atom_site_fract_y
 _atom_site_fract_z
 _atom_site_occupancy
  Sc  Sc0  1  0.403122  0.201561  0.055055  1
  Sc  Sc1  1  0.798439  0.201561  0.055055  1
  Sc  Sc2  1  0.798438  0.596877  0.055055  1
  Sc  Sc3  1  0.094513  0.547257  0.250000  1
  Sc  Sc4  1  0.452743  0.547257  0.250000  1
  Sc  Sc5  1  0.452743  0.905488  0.250000  1
  Sc  Sc6  1  0.403122  0.201561  0.444945  1
  Sc  Sc7  1  0.798439  0.201561  0.444945  1
  Sc  Sc8  1  0.798438  0.596877  0.444945  1
  Sc  Sc9  1  0.201561  0.403123  0.555056  1
  Sc  Sc10  1  0.201560  0.798439  0.555056  1
  Sc  Sc11  1  0.596878  0.798439  0.555056  1
  Sc  Sc12  1  0.547256  0.094512  0.750001  1
  Sc  Sc13  1  0.547257  0.452743  0.750001  1
  Sc  Sc14  1  0.905488  0.452743  0.750001  1
  Sc  Sc15  1  0.201561  0.403123  0.944944  1
  Sc  Sc16  1  0.201560  0.798439  0.944944  1
  Sc  Sc17  1  0.596878  0.798439  0.944944  1
  Ti  Ti18  1  0.000000  0.000000  0.000000  1
  Ti  Ti19  1  0.000000  0.000000  0.500000  1
  Tc  Tc20  1  0.113552  0.227104  0.250000  1
  Tc  Tc21  1  0.113551  0.886448  0.250000  1
  Tc  Tc22  1  0.772897  0.886448  0.250000  1
  Tc  Tc23  1  0.227104  0.113552  0.750001  1
  Tc  Tc24  1  0.886448  0.113552  0.750001  1
  Tc  Tc25  1  0.886447  0.772896  0.750001  1
