# generated using pymatgen
data_Ca2Dy2Ru3RhO14
_symmetry_space_group_name_H-M   'P 1'
_cell_length_a   7.17698184
_cell_length_b   7.22230914
_cell_length_c   7.22230947
_cell_angle_alpha   60.74692545
_cell_angle_beta   60.72618855
_cell_angle_gamma   60.72618750
_symmetry_Int_Tables_number   1
_chemical_formula_structural   Ca2Dy2Ru3RhO14
_chemical_formula_sum   'Ca2 Dy2 Ru3 Rh1 O14'
_cell_volume   269.09433300
_cell_formula_units_Z   1
loop_
 _symmetry_equiv_pos_site_id
 _symmetry_equiv_pos_as_xyz
  1  'x, y, z'
loop_
 _atom_site_type_symbol
 _atom_site_label
 _atom_site_symmetry_multiplicity
 _atom_site_fract_x
 _atom_site_fract_y
 _atom_site_fract_z
 _atom_site_occupancy
  Ca  Ca0  1  0.125000  0.625000  0.625000  1
  Ca  Ca1  1  0.625000  0.625000  0.625000  1
  Dy  Dy2  1  0.625000  0.125000  0.625000  1
  Dy  Dy3  1  0.625000  0.625000  0.125000  1
  Ru  Ru4  1  0.625000  0.125000  0.125000  1
  Ru  Ru5  1  0.125000  0.625000  0.125000  1
  Ru  Ru6  1  0.125000  0.125000  0.625000  1
  Rh  Rh7  1  0.125000  0.125000  0.125000  1
  O  O8  1  0.211451  0.200057  0.792289  1
  O  O9  1  0.211451  0.792289  0.200057  1
  O  O10  1  0.461004  0.041241  0.041241  1
  O  O11  1  0.197286  0.806822  0.806822  1
  O  O12  1  0.052714  0.443178  0.443178  1
  O  O13  1  0.800414  0.802492  0.198608  1
  O  O14  1  0.449586  0.447508  0.051392  1
  O  O15  1  0.506409  0.494160  0.494160  1
  O  O16  1  0.038549  0.049943  0.457711  1
  O  O17  1  0.449586  0.051392  0.447508  1
  O  O18  1  0.038549  0.457711  0.049943  1
  O  O19  1  0.743591  0.755840  0.755840  1
  O  O20  1  0.800414  0.198608  0.802492  1
  O  O21  1  0.788996  0.208759  0.208759  1
