# generated using pymatgen
data_Sr6Li2Cd3Ag19
_symmetry_space_group_name_H-M   'P 1'
_cell_length_a   9.76774200
_cell_length_b   9.76774139
_cell_length_c   8.30764300
_cell_angle_alpha   90.00000000
_cell_angle_beta   90.00000000
_cell_angle_gamma   120.00000208
_symmetry_Int_Tables_number   1
_chemical_formula_structural   Sr6Li2Cd3Ag19
_chemical_formula_sum   'Sr6 Li2 Cd3 Ag19'
_cell_volume   686.43082935
_cell_formula_units_Z   1
loop_
 _symmetry_equiv_pos_site_id
 _symmetry_equiv_pos_as_xyz
  1  'x, y, z'
loop_
 _atom_site_type_symbol
 _atom_site_label
 _atom_site_symmetry_multiplicity
 _atom_site_fract_x
 _atom_site_fract_y
 _atom_site_fract_z
 _atom_site_occupancy
  Sr  Sr0  1  0.521894  0.043787  0.248115  1
  Sr  Sr1  1  0.474845  0.949690  0.752836  1
  Sr  Sr2  1  0.956213  0.478106  0.248115  1
  Sr  Sr3  1  0.050310  0.525155  0.752836  1
  Sr  Sr4  1  0.521894  0.478106  0.248115  1
  Sr  Sr5  1  0.474845  0.525155  0.752836  1
  Li  Li6  1  0.000000  0.000000  0.001437  1
  Li  Li7  1  0.000000  0.000000  0.500668  1
  Cd  Cd8  1  0.666667  0.333333  0.938041  1
  Cd  Cd9  1  0.666667  0.333333  0.559377  1
  Cd  Cd10  1  0.333333  0.666667  0.430025  1
  Ag  Ag11  1  0.167580  0.335161  0.068005  1
  Ag  Ag12  1  0.832726  0.665451  0.932572  1
  Ag  Ag13  1  0.664839  0.832420  0.068005  1
  Ag  Ag14  1  0.832885  0.665768  0.568428  1
  Ag  Ag15  1  0.334549  0.167274  0.932572  1
  Ag  Ag16  1  0.166720  0.333441  0.433185  1
  Ag  Ag17  1  0.167580  0.832420  0.068005  1
  Ag  Ag18  1  0.334232  0.167115  0.568428  1
  Ag  Ag19  1  0.832726  0.167274  0.932572  1
  Ag  Ag20  1  0.666559  0.833280  0.433185  1
  Ag  Ag21  1  0.832885  0.167115  0.568428  1
  Ag  Ag22  1  0.166720  0.833280  0.433185  1
  Ag  Ag23  1  0.895169  0.790337  0.250295  1
  Ag  Ag24  1  0.104779  0.209560  0.749908  1
  Ag  Ag25  1  0.209663  0.104831  0.250295  1
  Ag  Ag26  1  0.790440  0.895221  0.749908  1
  Ag  Ag27  1  0.895169  0.104831  0.250295  1
  Ag  Ag28  1  0.104779  0.895221  0.749908  1
  Ag  Ag29  1  0.333333  0.666667  0.060420  1
