# generated using pymatgen
data_Sc5TcBi2
_symmetry_space_group_name_H-M   'P 1'
_cell_length_a   5.63257838
_cell_length_b   8.56383760
_cell_length_c   8.56383700
_cell_angle_alpha   83.79143924
_cell_angle_beta   70.80049725
_cell_angle_gamma   70.80049103
_symmetry_Int_Tables_number   1
_chemical_formula_structural   Sc5TcBi2
_chemical_formula_sum   'Sc10 Tc2 Bi4'
_cell_volume   368.41464976
_cell_formula_units_Z   2
loop_
 _symmetry_equiv_pos_site_id
 _symmetry_equiv_pos_as_xyz
  1  'x, y, z'
loop_
 _atom_site_type_symbol
 _atom_site_label
 _atom_site_symmetry_multiplicity
 _atom_site_fract_x
 _atom_site_fract_y
 _atom_site_fract_z
 _atom_site_occupancy
  Sc  Sc0  1  0.073010  0.121555  0.732424  1
  Sc  Sc1  1  0.926990  0.878445  0.267576  1
  Sc  Sc2  1  0.805435  0.267576  0.121555  1
  Sc  Sc3  1  0.426990  0.267576  0.878445  1
  Sc  Sc4  1  0.194565  0.732424  0.878445  1
  Sc  Sc5  1  0.573010  0.732424  0.121555  1
  Sc  Sc6  1  0.694565  0.878445  0.732424  1
  Sc  Sc7  1  0.305435  0.121555  0.267576  1
  Sc  Sc8  1  0.250000  0.500000  0.500000  1
  Sc  Sc9  1  0.750000  0.500000  0.500000  1
  Tc  Tc10  1  0.250000  0.000000  0.000000  1
  Tc  Tc11  1  0.750000  0.000000  0.000000  1
  Bi  Bi12  1  0.161535  0.500000  0.176929  1
  Bi  Bi13  1  0.838465  0.500000  0.823071  1
  Bi  Bi14  1  0.338465  0.823071  0.500000  1
  Bi  Bi15  1  0.661535  0.176929  0.500000  1
