# generated using pymatgen
data_LiY4Co18P12Ru
_symmetry_space_group_name_H-M   'P 1'
_cell_length_a   3.67852800
_cell_length_b   10.32987150
_cell_length_c   11.81429226
_cell_angle_alpha   89.84133990
_cell_angle_beta   90.00000000
_cell_angle_gamma   90.00000000
_symmetry_Int_Tables_number   1
_chemical_formula_structural   LiY4Co18P12Ru
_chemical_formula_sum   'Li1 Y4 Co18 P12 Ru1'
_cell_volume   448.92628073
_cell_formula_units_Z   1
loop_
 _symmetry_equiv_pos_site_id
 _symmetry_equiv_pos_as_xyz
  1  'x, y, z'
loop_
 _atom_site_type_symbol
 _atom_site_label
 _atom_site_symmetry_multiplicity
 _atom_site_fract_x
 _atom_site_fract_y
 _atom_site_fract_z
 _atom_site_occupancy
  Li  Li0  1  0.750000  0.202305  0.509014  1
  Y  Y1  1  0.250000  0.916950  0.202979  1
  Y  Y2  1  0.750000  0.082830  0.798771  1
  Y  Y3  1  0.750000  0.417019  0.295104  1
  Y  Y4  1  0.250000  0.579643  0.701848  1
  Co  Co5  1  0.750000  0.283647  0.007104  1
  Co  Co6  1  0.250000  0.717141  0.994070  1
  Co  Co7  1  0.250000  0.093288  0.987098  1
  Co  Co8  1  0.750000  0.906243  0.011544  1
  Co  Co9  1  0.750000  0.594131  0.510886  1
  Co  Co10  1  0.250000  0.408102  0.486638  1
  Co  Co11  1  0.250000  0.280510  0.679619  1
  Co  Co12  1  0.750000  0.722769  0.323635  1
  Co  Co13  1  0.750000  0.777570  0.824851  1
  Co  Co14  1  0.250000  0.220907  0.171334  1
  Co  Co15  1  0.250000  0.617386  0.199458  1
  Co  Co16  1  0.750000  0.384532  0.803329  1
  Co  Co17  1  0.750000  0.118760  0.298185  1
  Co  Co18  1  0.250000  0.882860  0.701986  1
  Co  Co19  1  0.250000  0.037467  0.433219  1
  Co  Co20  1  0.750000  0.965071  0.569213  1
  Co  Co21  1  0.750000  0.533176  0.068794  1
  Co  Co22  1  0.250000  0.468760  0.933060  1
  P  P23  1  0.250000  0.080133  0.615990  1
  P  P24  1  0.750000  0.924012  0.387021  1
  P  P25  1  0.750000  0.580766  0.888896  1
  P  P26  1  0.250000  0.419426  0.111443  1
  P  P27  1  0.250000  0.230165  0.361740  1
  P  P28  1  0.750000  0.769452  0.634417  1
  P  P29  1  0.750000  0.729295  0.130470  1
  P  P30  1  0.250000  0.272601  0.870110  1
  P  P31  1  0.250000  0.897568  0.893211  1
  P  P32  1  0.750000  0.101334  0.105689  1
  P  P33  1  0.750000  0.396461  0.608635  1
  P  P34  1  0.250000  0.597870  0.390503  1
  Ru  Ru35  1  0.250000  0.789850  0.490140  1
