# generated using pymatgen
data_CeBe11Cu2
_symmetry_space_group_name_H-M   'P 1'
_cell_length_a   7.40544603
_cell_length_b   7.42056511
_cell_length_c   7.36685857
_cell_angle_alpha   60.10370975
_cell_angle_beta   60.30781077
_cell_angle_gamma   59.58846920
_symmetry_Int_Tables_number   1
_chemical_formula_structural   CeBe11Cu2
_chemical_formula_sum   'Ce2 Be22 Cu4'
_cell_volume   286.23269663
_cell_formula_units_Z   2
loop_
 _symmetry_equiv_pos_site_id
 _symmetry_equiv_pos_as_xyz
  1  'x, y, z'
loop_
 _atom_site_type_symbol
 _atom_site_label
 _atom_site_symmetry_multiplicity
 _atom_site_fract_x
 _atom_site_fract_y
 _atom_site_fract_z
 _atom_site_occupancy
  Ce  Ce0  1  0.500000  0.500000  0.500000  1
  Ce  Ce1  1  0.000000  0.000000  0.000000  1
  Be  Be2  1  0.029116  0.682780  0.470333  1
  Be  Be3  1  0.470333  0.817771  0.029116  1
  Be  Be4  1  0.682780  0.029116  0.817771  1
  Be  Be5  1  0.817771  0.470333  0.682780  1
  Be  Be6  1  0.951298  0.548676  0.309053  1
  Be  Be7  1  0.548676  0.951298  0.190973  1
  Be  Be8  1  0.190973  0.309053  0.548676  1
  Be  Be9  1  0.309053  0.190973  0.951298  1
  Be  Be10  1  0.464071  0.035767  0.685679  1
  Be  Be11  1  0.035767  0.464071  0.814483  1
  Be  Be12  1  0.814483  0.685679  0.035767  1
  Be  Be13  1  0.685679  0.814483  0.464071  1
  Be  Be14  1  0.316879  0.956383  0.544061  1
  Be  Be15  1  0.182678  0.544061  0.956383  1
  Be  Be16  1  0.544061  0.182678  0.316879  1
  Be  Be17  1  0.956383  0.316879  0.182678  1
  Be  Be18  1  0.690704  0.463661  0.035843  1
  Be  Be19  1  0.809792  0.035843  0.463661  1
  Be  Be20  1  0.035843  0.809792  0.690704  1
  Be  Be21  1  0.463661  0.690704  0.809792  1
  Be  Be22  1  0.250000  0.250000  0.250000  1
  Be  Be23  1  0.750000  0.750000  0.750000  1
  Cu  Cu24  1  0.553696  0.306703  0.946676  1
  Cu  Cu25  1  0.946676  0.192925  0.553696  1
  Cu  Cu26  1  0.306703  0.553696  0.192925  1
  Cu  Cu27  1  0.192925  0.946676  0.306703  1
