# generated using pymatgen
data_LiYGe2Pd
_symmetry_space_group_name_H-M   'P 1'
_cell_length_a   4.04146288
_cell_length_b   4.04146233
_cell_length_c   6.19112001
_cell_angle_alpha   109.04992760
_cell_angle_beta   109.04992382
_cell_angle_gamma   89.99998378
_symmetry_Int_Tables_number   1
_chemical_formula_structural   LiYGe2Pd
_chemical_formula_sum   'Li1 Y1 Ge2 Pd1'
_cell_volume   89.70491658
_cell_formula_units_Z   1
loop_
 _symmetry_equiv_pos_site_id
 _symmetry_equiv_pos_as_xyz
  1  'x, y, z'
loop_
 _atom_site_type_symbol
 _atom_site_label
 _atom_site_symmetry_multiplicity
 _atom_site_fract_x
 _atom_site_fract_y
 _atom_site_fract_z
 _atom_site_occupancy
  Li  Li0  1  0.250000  0.750000  0.499999  1
  Y  Y1  1  0.000000  0.000000  0.000000  1
  Ge  Ge2  1  0.611144  0.611144  0.222289  1
  Ge  Ge3  1  0.388855  0.388855  0.777709  1
  Pd  Pd4  1  0.750000  0.250000  0.499999  1
