# generated using pymatgen
data_La4Y8CoTc3
_symmetry_space_group_name_H-M   'P 1'
_cell_length_a   6.51366602
_cell_length_b   7.35212912
_cell_length_c   9.48489400
_cell_angle_alpha   90.00000000
_cell_angle_beta   90.00000000
_cell_angle_gamma   89.68334073
_symmetry_Int_Tables_number   1
_chemical_formula_structural   La4Y8CoTc3
_chemical_formula_sum   'La4 Y8 Co1 Tc3'
_cell_volume   454.21812611
_cell_formula_units_Z   1
loop_
 _symmetry_equiv_pos_site_id
 _symmetry_equiv_pos_as_xyz
  1  'x, y, z'
loop_
 _atom_site_type_symbol
 _atom_site_label
 _atom_site_symmetry_multiplicity
 _atom_site_fract_x
 _atom_site_fract_y
 _atom_site_fract_z
 _atom_site_occupancy
  La  La0  1  0.867904  0.554656  0.250000  1
  La  La1  1  0.631376  0.054168  0.250000  1
  La  La2  1  0.137866  0.443106  0.750000  1
  La  La3  1  0.373216  0.935072  0.750000  1
  Y  Y4  1  0.328875  0.675139  0.068840  1
  Y  Y5  1  0.165426  0.174349  0.434820  1
  Y  Y6  1  0.665028  0.330410  0.568168  1
  Y  Y7  1  0.832076  0.826053  0.933249  1
  Y  Y8  1  0.665028  0.330410  0.931832  1
  Y  Y9  1  0.832076  0.826053  0.566751  1
  Y  Y10  1  0.328875  0.675139  0.431160  1
  Y  Y11  1  0.165426  0.174349  0.065180  1
  Co  Co12  1  0.536883  0.625591  0.750000  1
  Tc  Tc13  1  0.016676  0.874695  0.250000  1
  Tc  Tc14  1  0.473669  0.376128  0.250000  1
  Tc  Tc15  1  0.979601  0.124681  0.750000  1
