# generated using pymatgen
data_Mg3Ta(GaRh2)4
_symmetry_space_group_name_H-M   'P 1'
_cell_length_a   6.13529103
_cell_length_b   6.13515500
_cell_length_c   6.21518903
_cell_angle_alpha   90.00310813
_cell_angle_beta   90.01065120
_cell_angle_gamma   90.00188630
_symmetry_Int_Tables_number   1
_chemical_formula_structural   Mg3Ta(GaRh2)4
_chemical_formula_sum   'Mg3 Ta1 Ga4 Rh8'
_cell_volume   233.94568609
_cell_formula_units_Z   1
loop_
 _symmetry_equiv_pos_site_id
 _symmetry_equiv_pos_as_xyz
  1  'x, y, z'
loop_
 _atom_site_type_symbol
 _atom_site_label
 _atom_site_symmetry_multiplicity
 _atom_site_fract_x
 _atom_site_fract_y
 _atom_site_fract_z
 _atom_site_occupancy
  Mg  Mg0  1  0.250114  0.750002  0.999999  1
  Mg  Mg1  1  0.750077  0.249996  0.499997  1
  Mg  Mg2  1  0.249905  0.750003  0.500002  1
  Ta  Ta3  1  0.749900  0.250086  0.999985  1
  Ga  Ga4  1  0.250089  0.250037  0.999995  1
  Ga  Ga5  1  0.749913  0.749963  0.999995  1
  Ga  Ga6  1  0.750076  0.749981  0.499997  1
  Ga  Ga7  1  0.249940  0.250036  0.500008  1
  Rh  Rh8  1  0.998159  0.001826  0.249021  1
  Rh  Rh9  1  0.998154  0.498157  0.248989  1
  Rh  Rh10  1  0.501829  0.001846  0.249133  1
  Rh  Rh11  1  0.501850  0.498118  0.249091  1
  Rh  Rh12  1  0.501844  0.001855  0.750880  1
  Rh  Rh13  1  0.501854  0.498114  0.750911  1
  Rh  Rh14  1  0.998154  0.001827  0.750987  1
  Rh  Rh15  1  0.998141  0.498153  0.751014  1
