# generated using pymatgen
data_Cs14NaTa2(InP2)5
_symmetry_space_group_name_H-M   'P 1'
_cell_length_a   8.87338168
_cell_length_b   9.75805503
_cell_length_c   14.91338082
_cell_angle_alpha   85.37027287
_cell_angle_beta   84.72359710
_cell_angle_gamma   84.92015106
_symmetry_Int_Tables_number   1
_chemical_formula_structural   Cs14NaTa2(InP2)5
_chemical_formula_sum   'Cs14 Na1 Ta2 In5 P10'
_cell_volume   1277.34887153
_cell_formula_units_Z   1
loop_
 _symmetry_equiv_pos_site_id
 _symmetry_equiv_pos_as_xyz
  1  'x, y, z'
loop_
 _atom_site_type_symbol
 _atom_site_label
 _atom_site_symmetry_multiplicity
 _atom_site_fract_x
 _atom_site_fract_y
 _atom_site_fract_z
 _atom_site_occupancy
  Cs  Cs0  1  0.818917  0.806963  0.131663  1
  Cs  Cs1  1  0.179746  0.192428  0.866753  1
  Cs  Cs2  1  0.271431  0.260494  0.253820  1
  Cs  Cs3  1  0.725043  0.751706  0.749557  1
  Cs  Cs4  1  0.741732  0.501621  0.977821  1
  Cs  Cs5  1  0.258272  0.502203  0.029312  1
  Cs  Cs6  1  0.677591  0.085340  0.894529  1
  Cs  Cs7  1  0.324382  0.922039  0.116164  1
  Cs  Cs8  1  0.662257  0.660828  0.397713  1
  Cs  Cs9  1  0.340268  0.342567  0.600576  1
  Cs  Cs10  1  0.762746  0.987748  0.529773  1
  Cs  Cs11  1  0.264074  0.993204  0.466710  1
  Cs  Cs12  1  0.830385  0.368426  0.656943  1
  Cs  Cs13  1  0.156148  0.649863  0.342188  1
  Na  Na14  1  0.896819  0.256630  0.358551  1
  Ta  Ta15  1  0.648793  0.395202  0.230558  1
  Ta  Ta16  1  0.351388  0.606380  0.774143  1
  In  In17  1  0.098516  0.720417  0.626249  1
  In  In18  1  0.938276  0.187070  0.136207  1
  In  In19  1  0.058729  0.814690  0.862677  1
  In  In20  1  0.644385  0.055240  0.295785  1
  In  In21  1  0.356848  0.945780  0.705687  1
  P  P22  1  0.489467  0.593185  0.193332  1
  P  P23  1  0.510256  0.408159  0.810564  1
  P  P24  1  0.912515  0.448292  0.206387  1
  P  P25  1  0.087861  0.556259  0.786674  1
  P  P26  1  0.581907  0.295554  0.385340  1
  P  P27  1  0.410258  0.701347  0.619820  1
  P  P28  1  0.626088  0.210406  0.132144  1
  P  P29  1  0.367017  0.794293  0.871147  1
  P  P30  1  0.967351  0.999330  0.294378  1
  P  P31  1  0.040531  0.986333  0.696829  1
