# generated using pymatgen
data_La3Tl3Ag2Ir
_symmetry_space_group_name_H-M   'P 1'
_cell_length_a   8.01204900
_cell_length_b   8.01204878
_cell_length_c   4.12732600
_cell_angle_alpha   90.00000000
_cell_angle_beta   90.00000000
_cell_angle_gamma   119.99999680
_symmetry_Int_Tables_number   1
_chemical_formula_structural   La3Tl3Ag2Ir
_chemical_formula_sum   'La3 Tl3 Ag2 Ir1'
_cell_volume   229.44922769
_cell_formula_units_Z   1
loop_
 _symmetry_equiv_pos_site_id
 _symmetry_equiv_pos_as_xyz
  1  'x, y, z'
loop_
 _atom_site_type_symbol
 _atom_site_label
 _atom_site_symmetry_multiplicity
 _atom_site_fract_x
 _atom_site_fract_y
 _atom_site_fract_z
 _atom_site_occupancy
  La  La0  1  0.429158  0.402254  0.500000  1
  La  La1  1  0.597746  0.026905  0.500000  1
  La  La2  1  0.973095  0.570842  0.500000  1
  Tl  Tl3  1  0.738365  0.744725  0.000000  1
  Tl  Tl4  1  0.255275  0.993641  0.000000  1
  Tl  Tl5  1  0.006359  0.261635  0.000000  1
  Ag  Ag6  1  0.333333  0.666667  0.000000  1
  Ag  Ag7  1  0.000000  0.000000  0.500000  1
  Ir  Ir8  1  0.666667  0.333333  0.000000  1
