# generated using pymatgen
data_Tb16Y3HoPb16
_symmetry_space_group_name_H-M   'P 1'
_cell_length_a   8.23967925
_cell_length_b   15.71666500
_cell_length_c   8.31537300
_cell_angle_alpha   90.00000000
_cell_angle_beta   90.01248168
_cell_angle_gamma   90.00000000
_symmetry_Int_Tables_number   1
_chemical_formula_structural   Tb16Y3HoPb16
_chemical_formula_sum   'Tb16 Y3 Ho1 Pb16'
_cell_volume   1076.84309338
_cell_formula_units_Z   1
loop_
 _symmetry_equiv_pos_site_id
 _symmetry_equiv_pos_as_xyz
  1  'x, y, z'
loop_
 _atom_site_type_symbol
 _atom_site_label
 _atom_site_symmetry_multiplicity
 _atom_site_fract_x
 _atom_site_fract_y
 _atom_site_fract_z
 _atom_site_occupancy
  Tb  Tb0  1  0.623037  0.620581  0.158732  1
  Tb  Tb1  1  0.123009  0.879320  0.341165  1
  Tb  Tb2  1  0.377189  0.120786  0.841390  1
  Tb  Tb3  1  0.876855  0.379224  0.658927  1
  Tb  Tb4  1  0.377189  0.379214  0.841390  1
  Tb  Tb5  1  0.876855  0.120776  0.658927  1
  Tb  Tb6  1  0.623037  0.879419  0.158732  1
  Tb  Tb7  1  0.123009  0.620680  0.341165  1
  Tb  Tb8  1  0.465240  0.600075  0.675948  1
  Tb  Tb9  1  0.965174  0.899939  0.824044  1
  Tb  Tb10  1  0.534946  0.100164  0.323855  1
  Tb  Tb11  1  0.034679  0.399815  0.175827  1
  Tb  Tb12  1  0.534946  0.399836  0.323855  1
  Tb  Tb13  1  0.034679  0.100185  0.175827  1
  Tb  Tb14  1  0.465240  0.899925  0.675948  1
  Tb  Tb15  1  0.965174  0.600061  0.824044  1
  Y  Y16  1  0.790882  0.750000  0.496426  1
  Y  Y17  1  0.290895  0.750000  0.003580  1
  Y  Y18  1  0.209105  0.250000  0.503516  1
  Ho  Ho19  1  0.709094  0.250000  0.996307  1
  Pb  Pb20  1  0.718931  0.456996  0.967108  1
  Pb  Pb21  1  0.218853  0.042654  0.533194  1
  Pb  Pb22  1  0.281101  0.957432  0.033071  1
  Pb  Pb23  1  0.781190  0.542558  0.466841  1
  Pb  Pb24  1  0.281101  0.542568  0.033071  1
  Pb  Pb25  1  0.781190  0.957442  0.466841  1
  Pb  Pb26  1  0.718931  0.043004  0.967108  1
  Pb  Pb27  1  0.218853  0.457346  0.533194  1
  Pb  Pb28  1  0.427606  0.750000  0.373839  1
  Pb  Pb29  1  0.927612  0.750000  0.126079  1
  Pb  Pb30  1  0.572578  0.250000  0.626577  1
  Pb  Pb31  1  0.071843  0.250000  0.874156  1
  Pb  Pb32  1  0.653443  0.750000  0.847911  1
  Pb  Pb33  1  0.153380  0.750000  0.652030  1
  Pb  Pb34  1  0.346895  0.250000  0.152073  1
  Pb  Pb35  1  0.846257  0.250000  0.347302  1
