# generated using pymatgen
data_Tb3DyAl18HgIr5
_symmetry_space_group_name_H-M   'P 1'
_cell_length_a   7.63370006
_cell_length_b   7.63334836
_cell_length_c   9.49688407
_cell_angle_alpha   90.00193639
_cell_angle_beta   90.00240536
_cell_angle_gamma   119.77547926
_symmetry_Int_Tables_number   1
_chemical_formula_structural   Tb3DyAl18HgIr5
_chemical_formula_sum   'Tb3 Dy1 Al18 Hg1 Ir5'
_cell_volume   480.33038302
_cell_formula_units_Z   1
loop_
 _symmetry_equiv_pos_site_id
 _symmetry_equiv_pos_as_xyz
  1  'x, y, z'
loop_
 _atom_site_type_symbol
 _atom_site_label
 _atom_site_symmetry_multiplicity
 _atom_site_fract_x
 _atom_site_fract_y
 _atom_site_fract_z
 _atom_site_occupancy
  Tb  Tb0  1  0.000241  0.328964  0.749235  1
  Tb  Tb1  1  0.671069  0.999761  0.250769  1
  Tb  Tb2  1  0.335738  0.009884  0.748850  1
  Dy  Dy3  1  0.990120  0.664295  0.251235  1
  Al  Al4  1  0.125815  0.122336  0.252410  1
  Al  Al5  1  0.877533  0.874126  0.747587  1
  Al  Al6  1  0.019772  0.335243  0.080864  1
  Al  Al7  1  0.013928  0.681056  0.920256  1
  Al  Al8  1  0.003258  0.666424  0.571591  1
  Al  Al9  1  0.333463  0.996627  0.428180  1
  Al  Al10  1  0.000297  0.334281  0.426694  1
  Al  Al11  1  0.665874  0.999700  0.573195  1
  Al  Al12  1  0.664879  0.980185  0.919234  1
  Al  Al13  1  0.318773  0.985899  0.079965  1
  Al  Al14  1  0.330263  0.331453  0.548488  1
  Al  Al15  1  0.668665  0.669737  0.451391  1
  Al  Al16  1  0.665291  0.676460  0.063275  1
  Al  Al17  1  0.323516  0.334844  0.936853  1
  Al  Al18  1  0.341405  0.552980  0.252670  1
  Al  Al19  1  0.660437  0.463468  0.736558  1
  Al  Al20  1  0.536714  0.339712  0.263410  1
  Al  Al21  1  0.447061  0.658500  0.747330  1
  Hg  Hg22  1  0.675310  0.324747  0.000031  1
  Ir  Ir23  1  0.329146  0.670809  0.000065  1
  Ir  Ir24  1  0.328675  0.671276  0.499938  1
  Ir  Ir25  1  0.672676  0.327499  0.499930  1
  Ir  Ir26  1  0.999730  0.000186  0.000074  1
  Ir  Ir27  1  0.000351  0.999553  0.499924  1
