# generated using pymatgen
data_Y2Co9Mo3As7
_symmetry_space_group_name_H-M   'P 1'
_cell_length_a   3.85622800
_cell_length_b   9.39810503
_cell_length_c   9.39810500
_cell_angle_alpha   119.99999638
_cell_angle_beta   90.00000000
_cell_angle_gamma   90.00000000
_symmetry_Int_Tables_number   1
_chemical_formula_structural   Y2Co9Mo3As7
_chemical_formula_sum   'Y2 Co9 Mo3 As7'
_cell_volume   294.96734446
_cell_formula_units_Z   1
loop_
 _symmetry_equiv_pos_site_id
 _symmetry_equiv_pos_as_xyz
  1  'x, y, z'
loop_
 _atom_site_type_symbol
 _atom_site_label
 _atom_site_symmetry_multiplicity
 _atom_site_fract_x
 _atom_site_fract_y
 _atom_site_fract_z
 _atom_site_occupancy
  Y  Y0  1  0.000000  0.666667  0.333333  1
  Y  Y1  1  0.500000  0.333333  0.666667  1
  Co  Co2  1  0.000000  0.569955  0.940792  1
  Co  Co3  1  0.000000  0.370837  0.430045  1
  Co  Co4  1  0.000000  0.059208  0.629163  1
  Co  Co5  1  0.000000  0.876355  0.158296  1
  Co  Co6  1  0.000000  0.281941  0.123645  1
  Co  Co7  1  0.000000  0.841704  0.718059  1
  Co  Co8  1  0.500000  0.949434  0.382841  1
  Co  Co9  1  0.500000  0.433406  0.050566  1
  Co  Co10  1  0.500000  0.617159  0.566594  1
  Mo  Mo11  1  0.500000  0.781346  0.902343  1
  Mo  Mo12  1  0.500000  0.120997  0.218654  1
  Mo  Mo13  1  0.500000  0.097657  0.879003  1
  As  As14  1  0.000000  0.000000  0.000000  1
  As  As15  1  0.500000  0.707804  0.119806  1
  As  As16  1  0.500000  0.412003  0.292196  1
  As  As17  1  0.500000  0.880194  0.587997  1
  As  As18  1  0.000000  0.586073  0.699710  1
  As  As19  1  0.000000  0.113638  0.413927  1
  As  As20  1  0.000000  0.300290  0.886362  1
