# generated using pymatgen
data_K4Hf5Cr3Se16
_symmetry_space_group_name_H-M   'P 1'
_cell_length_a   6.44829400
_cell_length_b   7.46331998
_cell_length_c   16.56222300
_cell_angle_alpha   90.02753734
_cell_angle_beta   89.99968012
_cell_angle_gamma   89.98992028
_symmetry_Int_Tables_number   1
_chemical_formula_structural   K4Hf5Cr3Se16
_chemical_formula_sum   'K4 Hf5 Cr3 Se16'
_cell_volume   797.06816349
_cell_formula_units_Z   1
loop_
 _symmetry_equiv_pos_site_id
 _symmetry_equiv_pos_as_xyz
  1  'x, y, z'
loop_
 _atom_site_type_symbol
 _atom_site_label
 _atom_site_symmetry_multiplicity
 _atom_site_fract_x
 _atom_site_fract_y
 _atom_site_fract_z
 _atom_site_occupancy
  K  K0  1  0.349005  0.999949  0.998707  1
  K  K1  1  0.650995  0.500051  0.501293  1
  K  K2  1  0.032304  0.999038  0.501937  1
  K  K3  1  0.967696  0.500962  0.998063  1
  Hf  Hf4  1  0.001357  0.994606  0.249109  1
  Hf  Hf5  1  0.001591  0.000056  0.751370  1
  Hf  Hf6  1  0.998643  0.505394  0.250891  1
  Hf  Hf7  1  0.998409  0.499944  0.748630  1
  Hf  Hf8  1  0.500000  0.250000  0.250000  1
  Cr  Cr9  1  0.500000  0.750000  0.750000  1
  Cr  Cr10  1  0.500000  0.750000  0.250000  1
  Cr  Cr11  1  0.500000  0.250000  0.750000  1
  Se  Se12  1  0.836106  0.249072  0.347162  1
  Se  Se13  1  0.823435  0.751491  0.656346  1
  Se  Se14  1  0.180313  0.748299  0.155258  1
  Se  Se15  1  0.176543  0.251665  0.843708  1
  Se  Se16  1  0.163894  0.250928  0.152838  1
  Se  Se17  1  0.176565  0.748509  0.843654  1
  Se  Se18  1  0.819687  0.751701  0.344742  1
  Se  Se19  1  0.823457  0.248335  0.656292  1
  Se  Se20  1  0.663055  0.990706  0.157010  1
  Se  Se21  1  0.656138  0.000114  0.838659  1
  Se  Se22  1  0.336945  0.509294  0.342990  1
  Se  Se23  1  0.343862  0.499886  0.661341  1
  Se  Se24  1  0.341146  0.990581  0.342352  1
  Se  Se25  1  0.346733  0.999985  0.662058  1
  Se  Se26  1  0.658854  0.509419  0.157648  1
  Se  Se27  1  0.653267  0.500015  0.837942  1
