# generated using pymatgen
data_Th2V3Ni9P7
_symmetry_space_group_name_H-M   'P 1'
_cell_length_a   9.20473400
_cell_length_b   9.20473445
_cell_length_c   3.74628900
_cell_angle_alpha   90.00000000
_cell_angle_beta   90.00000000
_cell_angle_gamma   119.99999838
_symmetry_Int_Tables_number   1
_chemical_formula_structural   Th2V3Ni9P7
_chemical_formula_sum   'Th2 V3 Ni9 P7'
_cell_volume   274.88713988
_cell_formula_units_Z   1
loop_
 _symmetry_equiv_pos_site_id
 _symmetry_equiv_pos_as_xyz
  1  'x, y, z'
loop_
 _atom_site_type_symbol
 _atom_site_label
 _atom_site_symmetry_multiplicity
 _atom_site_fract_x
 _atom_site_fract_y
 _atom_site_fract_z
 _atom_site_occupancy
  Th  Th0  1  0.333333  0.666667  0.000000  1
  Th  Th1  1  0.000000  0.000000  0.500000  1
  V  V2  1  0.777516  0.230555  0.500000  1
  V  V3  1  0.769445  0.546961  0.500000  1
  V  V4  1  0.453039  0.222484  0.500000  1
  Ni  Ni5  1  0.034098  0.269095  0.000000  1
  Ni  Ni6  1  0.730905  0.765002  0.000000  1
  Ni  Ni7  1  0.234998  0.965902  0.000000  1
  Ni  Ni8  1  0.538013  0.055339  0.000000  1
  Ni  Ni9  1  0.944661  0.482674  0.000000  1
  Ni  Ni10  1  0.517326  0.461987  0.000000  1
  Ni  Ni11  1  0.610422  0.896861  0.500000  1
  Ni  Ni12  1  0.103139  0.713559  0.500000  1
  Ni  Ni13  1  0.286441  0.389578  0.500000  1
  P  P14  1  0.771171  0.036285  0.000000  1
  P  P15  1  0.963715  0.734887  0.000000  1
  P  P16  1  0.265113  0.228829  0.000000  1
  P  P17  1  0.374063  0.937139  0.500000  1
  P  P18  1  0.062861  0.436924  0.500000  1
  P  P19  1  0.563076  0.625937  0.500000  1
  P  P20  1  0.666667  0.333333  0.000000  1
