# generated using pymatgen
data_La10Bi4OsRu
_symmetry_space_group_name_H-M   'P 1'
_cell_length_a   8.34423977
_cell_length_b   9.45861900
_cell_length_c   13.07759500
_cell_angle_alpha   90.00000000
_cell_angle_beta   89.87846274
_cell_angle_gamma   90.00000000
_symmetry_Int_Tables_number   1
_chemical_formula_structural   La10Bi4OsRu
_chemical_formula_sum   'La20 Bi8 Os2 Ru2'
_cell_volume   1032.14666520
_cell_formula_units_Z   2
loop_
 _symmetry_equiv_pos_site_id
 _symmetry_equiv_pos_as_xyz
  1  'x, y, z'
loop_
 _atom_site_type_symbol
 _atom_site_label
 _atom_site_symmetry_multiplicity
 _atom_site_fract_x
 _atom_site_fract_y
 _atom_site_fract_z
 _atom_site_occupancy
  La  La0  1  0.846281  0.750000  0.794210  1
  La  La1  1  0.153719  0.250000  0.205790  1
  La  La2  1  0.345675  0.250000  0.706002  1
  La  La3  1  0.654325  0.750000  0.293998  1
  La  La4  1  0.375312  0.750000  0.692985  1
  La  La5  1  0.624688  0.250000  0.307015  1
  La  La6  1  0.875292  0.250000  0.805982  1
  La  La7  1  0.124708  0.750000  0.194018  1
  La  La8  1  0.941370  0.750000  0.502792  1
  La  La9  1  0.058630  0.250000  0.497208  1
  La  La10  1  0.441040  0.250000  0.997057  1
  La  La11  1  0.558960  0.750000  0.002943  1
  La  La12  1  0.677886  0.037283  0.564762  1
  La  La13  1  0.322114  0.962717  0.435238  1
  La  La14  1  0.177484  0.962351  0.934982  1
  La  La15  1  0.322114  0.537283  0.435238  1
  La  La16  1  0.822516  0.037649  0.065018  1
  La  La17  1  0.677886  0.462717  0.564762  1
  La  La18  1  0.822516  0.462351  0.065018  1
  La  La19  1  0.177484  0.537649  0.934982  1
  Bi  Bi20  1  0.570240  0.493537  0.827292  1
  Bi  Bi21  1  0.429760  0.506463  0.172708  1
  Bi  Bi22  1  0.070964  0.506699  0.671733  1
  Bi  Bi23  1  0.429760  0.993537  0.172708  1
  Bi  Bi24  1  0.929036  0.493301  0.328267  1
  Bi  Bi25  1  0.570240  0.006463  0.827292  1
  Bi  Bi26  1  0.929036  0.006699  0.328267  1
  Bi  Bi27  1  0.070964  0.993301  0.671733  1
  Os  Os28  1  0.082246  0.250000  0.987317  1
  Os  Os29  1  0.917754  0.750000  0.012683  1
  Ru  Ru30  1  0.582183  0.750000  0.512860  1
  Ru  Ru31  1  0.417817  0.250000  0.487140  1
