# generated using pymatgen
data_Pr9Lu(Sn3Cl)2
_symmetry_space_group_name_H-M   'P 1'
_cell_length_a   9.48438700
_cell_length_b   9.48438618
_cell_length_c   6.77852900
_cell_angle_alpha   90.00000000
_cell_angle_beta   90.00000000
_cell_angle_gamma   119.99999240
_symmetry_Int_Tables_number   1
_chemical_formula_structural   Pr9Lu(Sn3Cl)2
_chemical_formula_sum   'Pr9 Lu1 Sn6 Cl2'
_cell_volume   528.06163852
_cell_formula_units_Z   1
loop_
 _symmetry_equiv_pos_site_id
 _symmetry_equiv_pos_as_xyz
  1  'x, y, z'
loop_
 _atom_site_type_symbol
 _atom_site_label
 _atom_site_symmetry_multiplicity
 _atom_site_fract_x
 _atom_site_fract_y
 _atom_site_fract_z
 _atom_site_occupancy
  Pr  Pr0  1  0.333333  0.666667  0.500000  1
  Pr  Pr1  1  0.666667  0.333333  0.500000  1
  Pr  Pr2  1  0.333333  0.666667  0.000000  1
  Pr  Pr3  1  0.738812  0.000226  0.751052  1
  Pr  Pr4  1  0.738812  0.738586  0.248948  1
  Pr  Pr5  1  0.999774  0.261188  0.248948  1
  Pr  Pr6  1  0.999774  0.738586  0.751052  1
  Pr  Pr7  1  0.261414  0.261188  0.751052  1
  Pr  Pr8  1  0.261414  0.000226  0.248948  1
  Lu  Lu9  1  0.666667  0.333333  0.000000  1
  Sn  Sn10  1  0.612744  0.608196  0.754060  1
  Sn  Sn11  1  0.995452  0.608196  0.245940  1
  Sn  Sn12  1  0.612744  0.004548  0.245940  1
  Sn  Sn13  1  0.391804  0.004548  0.754060  1
  Sn  Sn14  1  0.995452  0.387256  0.754060  1
  Sn  Sn15  1  0.391804  0.387256  0.245940  1
  Cl  Cl16  1  0.000000  0.000000  0.500000  1
  Cl  Cl17  1  0.000000  0.000000  0.000000  1
