# generated using pymatgen
data_Nd2Ta3Ni9P7
_symmetry_space_group_name_H-M   'P 1'
_cell_length_a   3.75950600
_cell_length_b   9.36183084
_cell_length_c   9.36183100
_cell_angle_alpha   120.00000409
_cell_angle_beta   90.00000000
_cell_angle_gamma   90.00000000
_symmetry_Int_Tables_number   1
_chemical_formula_structural   Nd2Ta3Ni9P7
_chemical_formula_sum   'Nd2 Ta3 Ni9 P7'
_cell_volume   285.35335471
_cell_formula_units_Z   1
loop_
 _symmetry_equiv_pos_site_id
 _symmetry_equiv_pos_as_xyz
  1  'x, y, z'
loop_
 _atom_site_type_symbol
 _atom_site_label
 _atom_site_symmetry_multiplicity
 _atom_site_fract_x
 _atom_site_fract_y
 _atom_site_fract_z
 _atom_site_occupancy
  Nd  Nd0  1  0.000000  0.666667  0.333333  1
  Nd  Nd1  1  0.500000  0.333333  0.666667  1
  Ta  Ta2  1  0.500000  0.776824  0.893229  1
  Ta  Ta3  1  0.500000  0.116405  0.223176  1
  Ta  Ta4  1  0.500000  0.106771  0.883595  1
  Ni  Ni5  1  0.000000  0.570703  0.936259  1
  Ni  Ni6  1  0.000000  0.365556  0.429297  1
  Ni  Ni7  1  0.000000  0.063741  0.634444  1
  Ni  Ni8  1  0.000000  0.871035  0.151124  1
  Ni  Ni9  1  0.000000  0.280090  0.128965  1
  Ni  Ni10  1  0.000000  0.848876  0.719910  1
  Ni  Ni11  1  0.500000  0.942522  0.381636  1
  Ni  Ni12  1  0.500000  0.439114  0.057478  1
  Ni  Ni13  1  0.500000  0.618364  0.560886  1
  P  P14  1  0.500000  0.705817  0.112496  1
  P  P15  1  0.500000  0.406679  0.294183  1
  P  P16  1  0.500000  0.887504  0.593321  1
  P  P17  1  0.000000  0.000000  0.000000  1
  P  P18  1  0.000000  0.588592  0.693328  1
  P  P19  1  0.000000  0.104737  0.411408  1
  P  P20  1  0.000000  0.306672  0.895263  1
