# generated using pymatgen
data_Y3SiP2Rh3
_symmetry_space_group_name_H-M   'P 1'
_cell_length_a   6.81875300
_cell_length_b   6.81875247
_cell_length_c   3.91699200
_cell_angle_alpha   90.00000000
_cell_angle_beta   90.00000000
_cell_angle_gamma   119.99999771
_symmetry_Int_Tables_number   1
_chemical_formula_structural   Y3SiP2Rh3
_chemical_formula_sum   'Y3 Si1 P2 Rh3'
_cell_volume   157.72233963
_cell_formula_units_Z   1
loop_
 _symmetry_equiv_pos_site_id
 _symmetry_equiv_pos_as_xyz
  1  'x, y, z'
loop_
 _atom_site_type_symbol
 _atom_site_label
 _atom_site_symmetry_multiplicity
 _atom_site_fract_x
 _atom_site_fract_y
 _atom_site_fract_z
 _atom_site_occupancy
  Y  Y0  1  0.581175  0.000000  0.500001  1
  Y  Y1  1  0.418825  0.418825  0.500001  1
  Y  Y2  1  0.000000  0.581176  0.500001  1
  Si  Si3  1  0.000000  0.000000  0.500001  1
  P  P4  1  0.666667  0.333333  0.000000  1
  P  P5  1  0.333333  0.666666  0.000000  1
  Rh  Rh6  1  0.239341  0.000000  0.000000  1
  Rh  Rh7  1  0.000000  0.239342  0.000000  1
  Rh  Rh8  1  0.760659  0.760659  0.000000  1
