# generated using pymatgen
data_Y4ErLu3Pt4
_symmetry_space_group_name_H-M   'P 1'
_cell_length_a   4.73236000
_cell_length_b   7.13018056
_cell_length_c   8.70296112
_cell_angle_alpha   89.85636202
_cell_angle_beta   90.00000000
_cell_angle_gamma   90.00000000
_symmetry_Int_Tables_number   1
_chemical_formula_structural   Y4ErLu3Pt4
_chemical_formula_sum   'Y4 Er1 Lu3 Pt4'
_cell_volume   293.65945003
_cell_formula_units_Z   1
loop_
 _symmetry_equiv_pos_site_id
 _symmetry_equiv_pos_as_xyz
  1  'x, y, z'
loop_
 _atom_site_type_symbol
 _atom_site_label
 _atom_site_symmetry_multiplicity
 _atom_site_fract_x
 _atom_site_fract_y
 _atom_site_fract_z
 _atom_site_occupancy
  Y  Y0  1  0.250000  0.990784  0.330686  1
  Y  Y1  1  0.250000  0.487721  0.167981  1
  Y  Y2  1  0.750000  0.012420  0.672046  1
  Y  Y3  1  0.750000  0.511308  0.829852  1
  Er  Er4  1  0.750000  0.643861  0.421300  1
  Lu  Lu5  1  0.250000  0.857716  0.922771  1
  Lu  Lu6  1  0.250000  0.356485  0.578511  1
  Lu  Lu7  1  0.750000  0.142567  0.077415  1
  Pt  Pt8  1  0.250000  0.251706  0.905079  1
  Pt  Pt9  1  0.250000  0.753465  0.597696  1
  Pt  Pt10  1  0.750000  0.747962  0.090965  1
  Pt  Pt11  1  0.750000  0.244003  0.405697  1
