# generated using pymatgen
data_Th2GaPdI2
_symmetry_space_group_name_H-M   'P 1'
_cell_length_a   4.41062800
_cell_length_b   4.41062859
_cell_length_c   12.02859000
_cell_angle_alpha   90.00000000
_cell_angle_beta   90.00000000
_cell_angle_gamma   120.00001057
_symmetry_Int_Tables_number   1
_chemical_formula_structural   Th2GaPdI2
_chemical_formula_sum   'Th2 Ga1 Pd1 I2'
_cell_volume   202.64982173
_cell_formula_units_Z   1
loop_
 _symmetry_equiv_pos_site_id
 _symmetry_equiv_pos_as_xyz
  1  'x, y, z'
loop_
 _atom_site_type_symbol
 _atom_site_label
 _atom_site_symmetry_multiplicity
 _atom_site_fract_x
 _atom_site_fract_y
 _atom_site_fract_z
 _atom_site_occupancy
  Th  Th0  1  0.000000  0.000000  0.849856  1
  Th  Th1  1  0.000000  0.000000  0.154558  1
  Ga  Ga2  1  0.666667  0.333333  0.016597  1
  Pd  Pd3  1  0.333333  0.666667  0.981162  1
  I  I4  1  0.666667  0.333333  0.666391  1
  I  I5  1  0.333333  0.666667  0.331435  1
