# generated using pymatgen
data_Cu4AsO8
_symmetry_space_group_name_H-M   'P 1'
_cell_length_a   5.51455265
_cell_length_b   5.73580196
_cell_length_c   6.28963940
_cell_angle_alpha   117.10305201
_cell_angle_beta   104.44280005
_cell_angle_gamma   90.83178080
_symmetry_Int_Tables_number   1
_chemical_formula_structural   Cu4AsO8
_chemical_formula_sum   'Cu4 As1 O8'
_cell_volume   169.59512688
_cell_formula_units_Z   1
loop_
 _symmetry_equiv_pos_site_id
 _symmetry_equiv_pos_as_xyz
  1  'x, y, z'
loop_
 _atom_site_type_symbol
 _atom_site_label
 _atom_site_symmetry_multiplicity
 _atom_site_fract_x
 _atom_site_fract_y
 _atom_site_fract_z
 _atom_site_occupancy
  Cu  Cu0  1  0.500000  0.500000  0.000000  1
  Cu  Cu1  1  0.000000  0.000000  0.000000  1
  Cu  Cu2  1  0.000000  0.500000  0.500000  1
  Cu  Cu3  1  0.000000  0.000000  0.500000  1
  As  As4  1  0.000000  0.500000  0.000000  1
  O  O5  1  0.862745  0.316458  0.636638  1
  O  O6  1  0.768024  0.726063  0.015936  1
  O  O7  1  0.761640  0.291050  0.015956  1
  O  O8  1  0.875572  0.820317  0.643950  1
  O  O9  1  0.124428  0.179683  0.356050  1
  O  O10  1  0.238360  0.708950  0.984044  1
  O  O11  1  0.231976  0.273937  0.984064  1
  O  O12  1  0.137255  0.683542  0.363362  1
