# generated using pymatgen
data_Mn7Co5(Mo3N)4
_symmetry_space_group_name_H-M   'P 1'
_cell_length_a   7.80682274
_cell_length_b   7.79736711
_cell_length_c   7.80682236
_cell_angle_alpha   60.17139557
_cell_angle_beta   60.08555730
_cell_angle_gamma   60.17139640
_symmetry_Int_Tables_number   1
_chemical_formula_structural   Mn7Co5(Mo3N)4
_chemical_formula_sum   'Mn7 Co5 Mo12 N4'
_cell_volume   337.11908183
_cell_formula_units_Z   1
loop_
 _symmetry_equiv_pos_site_id
 _symmetry_equiv_pos_as_xyz
  1  'x, y, z'
loop_
 _atom_site_type_symbol
 _atom_site_label
 _atom_site_symmetry_multiplicity
 _atom_site_fract_x
 _atom_site_fract_y
 _atom_site_fract_z
 _atom_site_occupancy
  Mn  Mn0  1  0.626619  0.127183  0.626619  1
  Mn  Mn1  1  0.630075  0.620788  0.123506  1
  Mn  Mn2  1  0.123506  0.620788  0.630075  1
  Mn  Mn3  1  0.628217  0.617997  0.628217  1
  Mn  Mn4  1  0.824580  0.527353  0.824580  1
  Mn  Mn5  1  0.421616  0.425367  0.725847  1
  Mn  Mn6  1  0.725847  0.425367  0.421616  1
  Co  Co7  1  0.418948  0.420676  0.418948  1
  Co  Co8  1  0.506662  0.832713  0.829997  1
  Co  Co9  1  0.829940  0.832252  0.829940  1
  Co  Co10  1  0.829997  0.832713  0.506662  1
  Co  Co11  1  0.418629  0.742335  0.418629  1
  Mo  Mo12  1  0.199704  0.201465  0.800229  1
  Mo  Mo13  1  0.452248  0.047519  0.047749  1
  Mo  Mo14  1  0.048523  0.450096  0.451354  1
  Mo  Mo15  1  0.451354  0.450096  0.048523  1
  Mo  Mo16  1  0.453973  0.045563  0.453973  1
  Mo  Mo17  1  0.051992  0.447530  0.051992  1
  Mo  Mo18  1  0.801518  0.199431  0.801518  1
  Mo  Mo19  1  0.800229  0.201465  0.199704  1
  Mo  Mo20  1  0.202821  0.796418  0.797871  1
  Mo  Mo21  1  0.204988  0.794847  0.204988  1
  Mo  Mo22  1  0.047749  0.047519  0.452248  1
  Mo  Mo23  1  0.797871  0.796418  0.202821  1
  N  N24  1  0.125317  0.626156  0.125317  1
  N  N25  1  0.126552  0.123894  0.624268  1
  N  N26  1  0.624268  0.123894  0.126552  1
  N  N27  1  0.126256  0.122161  0.126256  1
