# generated using pymatgen
data_La3Nd5TiPd24
_symmetry_space_group_name_H-M   'P 1'
_cell_length_a   8.52712927
_cell_length_b   8.52712927
_cell_length_c   8.52705905
_cell_angle_alpha   89.99091448
_cell_angle_beta   90.00908552
_cell_angle_gamma   90.02732077
_symmetry_Int_Tables_number   1
_chemical_formula_structural   La3Nd5TiPd24
_chemical_formula_sum   'La3 Nd5 Ti1 Pd24'
_cell_volume   620.01886540
_cell_formula_units_Z   1
loop_
 _symmetry_equiv_pos_site_id
 _symmetry_equiv_pos_as_xyz
  1  'x, y, z'
loop_
 _atom_site_type_symbol
 _atom_site_label
 _atom_site_symmetry_multiplicity
 _atom_site_fract_x
 _atom_site_fract_y
 _atom_site_fract_z
 _atom_site_occupancy
  La  La0  1  0.253217  0.746783  0.253202  1
  La  La1  1  0.253221  0.746779  0.746838  1
  La  La2  1  0.746768  0.253232  0.253290  1
  Nd  Nd3  1  0.252636  0.252628  0.252684  1
  Nd  Nd4  1  0.747317  0.747252  0.747278  1
  Nd  Nd5  1  0.747372  0.747364  0.252684  1
  Nd  Nd6  1  0.747293  0.252707  0.747338  1
  Nd  Nd7  1  0.252748  0.252683  0.747278  1
  Ti  Ti8  1  0.999573  0.000427  0.999562  1
  Pd  Pd9  1  0.263200  0.499523  0.999944  1
  Pd  Pd10  1  0.736789  0.500153  0.999691  1
  Pd  Pd11  1  0.000215  0.263203  0.500271  1
  Pd  Pd12  1  0.499847  0.263211  0.999691  1
  Pd  Pd13  1  0.999416  0.736804  0.500060  1
  Pd  Pd14  1  0.500477  0.736800  0.999944  1
  Pd  Pd15  1  0.500054  0.000057  0.263197  1
  Pd  Pd16  1  0.263196  0.000584  0.500060  1
  Pd  Pd17  1  0.500266  0.000307  0.736788  1
  Pd  Pd18  1  0.736797  0.999785  0.500271  1
  Pd  Pd19  1  0.999943  0.499946  0.263197  1
  Pd  Pd20  1  0.999693  0.499734  0.736788  1
  Pd  Pd21  1  0.254670  0.499477  0.500056  1
  Pd  Pd22  1  0.745365  0.500181  0.500281  1
  Pd  Pd23  1  0.499819  0.254635  0.500281  1
  Pd  Pd24  1  0.500523  0.745330  0.500056  1
  Pd  Pd25  1  0.500060  0.499940  0.254663  1
  Pd  Pd26  1  0.500290  0.499710  0.745367  1
  Pd  Pd27  1  0.297494  0.000843  0.000000  1
  Pd  Pd28  1  0.702591  0.999578  0.999572  1
  Pd  Pd29  1  0.000422  0.297409  0.999572  1
  Pd  Pd30  1  0.999157  0.702506  0.000000  1
  Pd  Pd31  1  0.000000  0.000000  0.297500  1
  Pd  Pd32  1  0.999575  0.000425  0.702598  1
