# generated using pymatgen
data_LaY2Cd(Ir2O7)2
_symmetry_space_group_name_H-M   'P 1'
_cell_length_a   7.23779477
_cell_length_b   7.23779613
_cell_length_c   7.26953587
_cell_angle_alpha   61.27286520
_cell_angle_beta   61.27285743
_cell_angle_gamma   60.91850974
_symmetry_Int_Tables_number   1
_chemical_formula_structural   LaY2Cd(Ir2O7)2
_chemical_formula_sum   'La1 Y2 Cd1 Ir4 O14'
_cell_volume   276.27006217
_cell_formula_units_Z   1
loop_
 _symmetry_equiv_pos_site_id
 _symmetry_equiv_pos_as_xyz
  1  'x, y, z'
loop_
 _atom_site_type_symbol
 _atom_site_label
 _atom_site_symmetry_multiplicity
 _atom_site_fract_x
 _atom_site_fract_y
 _atom_site_fract_z
 _atom_site_occupancy
  La  La0  1  0.125000  0.125000  0.625000  1
  Y  Y1  1  0.625000  0.125000  0.125000  1
  Y  Y2  1  0.125000  0.625000  0.125000  1
  Cd  Cd3  1  0.125000  0.125000  0.125000  1
  Ir  Ir4  1  0.125000  0.625000  0.625000  1
  Ir  Ir5  1  0.625000  0.125000  0.625000  1
  Ir  Ir6  1  0.625000  0.625000  0.125000  1
  Ir  Ir7  1  0.625000  0.625000  0.625000  1
  O  O8  1  0.709985  0.709985  0.291335  1
  O  O9  1  0.298733  0.298733  0.706227  1
  O  O10  1  0.699440  0.292382  0.719850  1
  O  O11  1  0.298308  0.694823  0.296492  1
  O  O12  1  0.292382  0.699440  0.719850  1
  O  O13  1  0.694823  0.298308  0.296492  1
  O  O14  1  0.540015  0.540015  0.958665  1
  O  O15  1  0.951267  0.951267  0.543773  1
  O  O16  1  0.550560  0.957618  0.530150  1
  O  O17  1  0.951692  0.555177  0.953508  1
  O  O18  1  0.957618  0.550560  0.530150  1
  O  O19  1  0.555177  0.951692  0.953508  1
  O  O20  1  0.255203  0.255203  0.238623  1
  O  O21  1  0.994797  0.994797  0.011377  1
