# generated using pymatgen
data_Dy2Er2Al15(SiIr2)3
_symmetry_space_group_name_H-M   'P 1'
_cell_length_a   7.53528351
_cell_length_b   7.51746483
_cell_length_c   9.31225200
_cell_angle_alpha   89.99816995
_cell_angle_beta   89.91414824
_cell_angle_gamma   119.74273412
_symmetry_Int_Tables_number   1
_chemical_formula_structural   Dy2Er2Al15(SiIr2)3
_chemical_formula_sum   'Dy2 Er2 Al15 Si3 Ir6'
_cell_volume   458.01080453
_cell_formula_units_Z   1
loop_
 _symmetry_equiv_pos_site_id
 _symmetry_equiv_pos_as_xyz
  1  'x, y, z'
loop_
 _atom_site_type_symbol
 _atom_site_label
 _atom_site_symmetry_multiplicity
 _atom_site_fract_x
 _atom_site_fract_y
 _atom_site_fract_z
 _atom_site_occupancy
  Dy  Dy0  1  0.679079  0.000009  0.748046  1
  Dy  Dy1  1  0.325665  0.005605  0.249602  1
  Er  Er2  1  0.993723  0.668958  0.748433  1
  Er  Er3  1  0.005090  0.325452  0.253188  1
  Al  Al4  1  0.998121  0.668167  0.422225  1
  Al  Al5  1  0.999082  0.663895  0.075156  1
  Al  Al6  1  0.335802  0.999945  0.924354  1
  Al  Al7  1  0.001643  0.336512  0.928632  1
  Al  Al8  1  0.663633  0.999183  0.075433  1
  Al  Al9  1  0.659473  0.994282  0.422292  1
  Al  Al10  1  0.335486  0.000026  0.576167  1
  Al  Al11  1  0.335624  0.335378  0.057981  1
  Al  Al12  1  0.665198  0.665554  0.942026  1
  Al  Al13  1  0.664665  0.665139  0.559220  1
  Al  Al14  1  0.338571  0.335432  0.441846  1
  Al  Al15  1  0.334416  0.546578  0.750362  1
  Al  Al16  1  0.665589  0.451350  0.250171  1
  Al  Al17  1  0.546382  0.335882  0.750295  1
  Al  Al18  1  0.450325  0.663018  0.249402  1
  Si  Si19  1  0.131892  0.127518  0.750838  1
  Si  Si20  1  0.871096  0.872668  0.249736  1
  Si  Si21  1  0.001159  0.338201  0.572921  1
  Ir  Ir22  1  0.679495  0.328697  0.501684  1
  Ir  Ir23  1  0.319833  0.663768  0.500208  1
  Ir  Ir24  1  0.327690  0.671119  0.999370  1
  Ir  Ir25  1  0.672311  0.328707  0.999156  1
  Ir  Ir26  1  0.999276  0.008351  0.501796  1
  Ir  Ir27  1  0.999683  0.000611  0.999460  1
