# generated using pymatgen
data_Y20ZnIn5Ru2
_symmetry_space_group_name_H-M   'P 1'
_cell_length_a   9.73100189
_cell_length_b   9.83236817
_cell_length_c   9.68223500
_cell_angle_alpha   90.00000000
_cell_angle_beta   90.00000000
_cell_angle_gamma   120.34519588
_symmetry_Int_Tables_number   1
_chemical_formula_structural   Y20ZnIn5Ru2
_chemical_formula_sum   'Y20 Zn1 In5 Ru2'
_cell_volume   799.46737666
_cell_formula_units_Z   1
loop_
 _symmetry_equiv_pos_site_id
 _symmetry_equiv_pos_as_xyz
  1  'x, y, z'
loop_
 _atom_site_type_symbol
 _atom_site_label
 _atom_site_symmetry_multiplicity
 _atom_site_fract_x
 _atom_site_fract_y
 _atom_site_fract_z
 _atom_site_occupancy
  Y  Y0  1  0.989745  0.994873  0.508376  1
  Y  Y1  1  0.989745  0.994873  0.991624  1
  Y  Y2  1  0.210658  0.791040  0.440779  1
  Y  Y3  1  0.210658  0.419618  0.440779  1
  Y  Y4  1  0.579227  0.789615  0.438952  1
  Y  Y5  1  0.790541  0.211237  0.559876  1
  Y  Y6  1  0.790541  0.579303  0.559876  1
  Y  Y7  1  0.418606  0.209302  0.562010  1
  Y  Y8  1  0.790541  0.211237  0.940124  1
  Y  Y9  1  0.790541  0.579303  0.940124  1
  Y  Y10  1  0.418606  0.209302  0.937990  1
  Y  Y11  1  0.210658  0.791040  0.059221  1
  Y  Y12  1  0.210658  0.419618  0.059221  1
  Y  Y13  1  0.579227  0.789615  0.061048  1
  Y  Y14  1  0.542104  0.460016  0.250000  1
  Y  Y15  1  0.542104  0.082089  0.250000  1
  Y  Y16  1  0.922180  0.461090  0.250000  1
  Y  Y17  1  0.467321  0.548444  0.750000  1
  Y  Y18  1  0.467321  0.918876  0.750000  1
  Y  Y19  1  0.083232  0.541616  0.750000  1
  Zn  Zn20  1  0.762557  0.881278  0.750000  1
  In  In21  1  0.885623  0.118407  0.250000  1
  In  In22  1  0.885623  0.767215  0.250000  1
  In  In23  1  0.227885  0.113943  0.250000  1
  In  In24  1  0.117825  0.881275  0.750000  1
  In  In25  1  0.117825  0.236549  0.750000  1
  Ru  Ru26  1  0.329872  0.664936  0.250000  1
  Ru  Ru27  1  0.668580  0.334290  0.750000  1
