# generated using pymatgen
data_Cs6Fe(SiO4)2
_symmetry_space_group_name_H-M   'P 1'
_cell_length_a   7.08219532
_cell_length_b   7.29543819
_cell_length_c   8.19586813
_cell_angle_alpha   86.61306116
_cell_angle_beta   88.79102025
_cell_angle_gamma   68.72791739
_symmetry_Int_Tables_number   1
_chemical_formula_structural   Cs6Fe(SiO4)2
_chemical_formula_sum   'Cs6 Fe1 Si2 O8'
_cell_volume   393.92126928
_cell_formula_units_Z   1
loop_
 _symmetry_equiv_pos_site_id
 _symmetry_equiv_pos_as_xyz
  1  'x, y, z'
loop_
 _atom_site_type_symbol
 _atom_site_label
 _atom_site_symmetry_multiplicity
 _atom_site_fract_x
 _atom_site_fract_y
 _atom_site_fract_z
 _atom_site_occupancy
  Cs  Cs0  1  0.199916  0.699290  0.009529  1
  Cs  Cs1  1  0.708336  0.193781  0.475756  1
  Cs  Cs2  1  0.800084  0.300710  0.990471  1
  Cs  Cs3  1  0.658128  0.831314  0.162787  1
  Cs  Cs4  1  0.341872  0.168686  0.837213  1
  Cs  Cs5  1  0.291664  0.806219  0.524244  1
  Fe  Fe6  1  0.000000  0.500000  0.500000  1
  Si  Si7  1  0.775069  0.741558  0.726655  1
  Si  Si8  1  0.224931  0.258442  0.273345  1
  O  O9  1  0.013351  0.464214  0.254472  1
  O  O10  1  0.754330  0.756095  0.519846  1
  O  O11  1  0.986649  0.535786  0.745528  1
  O  O12  1  0.422585  0.290723  0.185096  1
  O  O13  1  0.811298  0.934460  0.794204  1
  O  O14  1  0.245670  0.243905  0.480154  1
  O  O15  1  0.577415  0.709277  0.814904  1
  O  O16  1  0.188702  0.065540  0.205796  1
