# generated using pymatgen
data_Nd3Sm(CI)2
_symmetry_space_group_name_H-M   'P 1'
_cell_length_a   3.87533400
_cell_length_b   3.87533340
_cell_length_c   15.48648000
_cell_angle_alpha   90.00000000
_cell_angle_beta   90.00000000
_cell_angle_gamma   120.00000512
_symmetry_Int_Tables_number   1
_chemical_formula_structural   Nd3Sm(CI)2
_chemical_formula_sum   'Nd3 Sm1 C2 I2'
_cell_volume   201.41951011
_cell_formula_units_Z   1
loop_
 _symmetry_equiv_pos_site_id
 _symmetry_equiv_pos_as_xyz
  1  'x, y, z'
loop_
 _atom_site_type_symbol
 _atom_site_label
 _atom_site_symmetry_multiplicity
 _atom_site_fract_x
 _atom_site_fract_y
 _atom_site_fract_z
 _atom_site_occupancy
  Nd  Nd0  1  0.333333  0.666667  0.587957  1
  Nd  Nd1  1  0.666667  0.333333  0.412913  1
  Nd  Nd2  1  0.666667  0.333333  0.085988  1
  Sm  Sm3  1  0.333333  0.666667  0.913459  1
  C  C4  1  0.000000  0.000000  0.996622  1
  C  C5  1  0.000000  0.000000  0.500447  1
  I  I6  1  0.333333  0.666667  0.249080  1
  I  I7  1  0.666667  0.333333  0.753535  1
