# generated using pymatgen
data_Tb15Ho4LuSn16
_symmetry_space_group_name_H-M   'P 1'
_cell_length_a   8.04084552
_cell_length_b   8.19360008
_cell_length_c   15.50974422
_cell_angle_alpha   90.01548680
_cell_angle_beta   89.94888570
_cell_angle_gamma   90.05622892
_symmetry_Int_Tables_number   1
_chemical_formula_structural   Tb15Ho4LuSn16
_chemical_formula_sum   'Tb15 Ho4 Lu1 Sn16'
_cell_volume   1021.83487114
_cell_formula_units_Z   1
loop_
 _symmetry_equiv_pos_site_id
 _symmetry_equiv_pos_as_xyz
  1  'x, y, z'
loop_
 _atom_site_type_symbol
 _atom_site_label
 _atom_site_symmetry_multiplicity
 _atom_site_fract_x
 _atom_site_fract_y
 _atom_site_fract_z
 _atom_site_occupancy
  Tb  Tb0  1  0.865164  0.662357  0.623098  1
  Tb  Tb1  1  0.634268  0.161990  0.377557  1
  Tb  Tb2  1  0.135799  0.337431  0.121073  1
  Tb  Tb3  1  0.634200  0.162714  0.122697  1
  Tb  Tb4  1  0.134427  0.337187  0.377640  1
  Tb  Tb5  1  0.365806  0.837596  0.622739  1
  Tb  Tb6  1  0.865822  0.662168  0.878100  1
  Tb  Tb7  1  0.518817  0.320242  0.903399  1
  Tb  Tb8  1  0.019755  0.179035  0.597435  1
  Tb  Tb9  1  0.480841  0.679764  0.403566  1
  Tb  Tb10  1  0.980373  0.820503  0.096588  1
  Tb  Tb11  1  0.481404  0.680430  0.095373  1
  Tb  Tb12  1  0.981104  0.820652  0.403196  1
  Tb  Tb13  1  0.519212  0.320798  0.597467  1
  Tb  Tb14  1  0.018678  0.178574  0.903020  1
  Ho  Ho15  1  0.364490  0.838433  0.876234  1
  Ho  Ho16  1  0.197119  0.503232  0.750612  1
  Ho  Ho17  1  0.696500  0.996579  0.750396  1
  Ho  Ho18  1  0.803785  0.496817  0.250070  1
  Lu  Lu19  1  0.303141  0.002957  0.249519  1
  Sn  Sn20  1  0.294952  0.035747  0.041145  1
  Sn  Sn21  1  0.794221  0.463430  0.457990  1
  Sn  Sn22  1  0.706324  0.963373  0.542468  1
  Sn  Sn23  1  0.207383  0.539173  0.957187  1
  Sn  Sn24  1  0.701995  0.962427  0.957658  1
  Sn  Sn25  1  0.205621  0.536408  0.542717  1
  Sn  Sn26  1  0.294033  0.036332  0.457257  1
  Sn  Sn27  1  0.794229  0.463282  0.042523  1
  Sn  Sn28  1  0.562427  0.618265  0.750753  1
  Sn  Sn29  1  0.062896  0.882332  0.750716  1
  Sn  Sn30  1  0.436924  0.382857  0.250056  1
  Sn  Sn31  1  0.938669  0.116964  0.249387  1
  Sn  Sn32  1  0.328237  0.148811  0.750444  1
  Sn  Sn33  1  0.828116  0.350599  0.750469  1
  Sn  Sn34  1  0.671330  0.850655  0.249804  1
  Sn  Sn35  1  0.171938  0.649886  0.249643  1
