# generated using pymatgen
data_Hf7Zr3Ga3Sb5
_symmetry_space_group_name_H-M   'P 1'
_cell_length_a   8.60697119
_cell_length_b   8.61143627
_cell_length_c   5.80382300
_cell_angle_alpha   90.00000000
_cell_angle_beta   90.00000000
_cell_angle_gamma   120.27771068
_symmetry_Int_Tables_number   1
_chemical_formula_structural   Hf7Zr3Ga3Sb5
_chemical_formula_sum   'Hf7 Zr3 Ga3 Sb5'
_cell_volume   371.49124988
_cell_formula_units_Z   1
loop_
 _symmetry_equiv_pos_site_id
 _symmetry_equiv_pos_as_xyz
  1  'x, y, z'
loop_
 _atom_site_type_symbol
 _atom_site_label
 _atom_site_symmetry_multiplicity
 _atom_site_fract_x
 _atom_site_fract_y
 _atom_site_fract_z
 _atom_site_occupancy
  Hf  Hf0  1  0.277469  0.277168  0.750000  1
  Hf  Hf1  1  0.733676  0.734422  0.250000  1
  Hf  Hf2  1  0.723665  0.987216  0.750000  1
  Hf  Hf3  1  0.337278  0.665695  0.502593  1
  Hf  Hf4  1  0.665449  0.336588  0.502518  1
  Hf  Hf5  1  0.337278  0.665695  0.997407  1
  Hf  Hf6  1  0.665449  0.336588  0.997482  1
  Zr  Zr7  1  0.001052  0.268132  0.250000  1
  Zr  Zr8  1  0.989343  0.724363  0.750000  1
  Zr  Zr9  1  0.268177  0.001564  0.250000  1
  Ga  Ga10  1  0.000289  0.001038  0.506200  1
  Ga  Ga11  1  0.610580  0.611179  0.750000  1
  Ga  Ga12  1  0.000289  0.001038  0.993800  1
  Sb  Sb13  1  0.385838  0.999076  0.750000  1
  Sb  Sb14  1  0.611195  0.000422  0.250000  1
  Sb  Sb15  1  0.394609  0.394580  0.250000  1
  Sb  Sb16  1  0.998145  0.383784  0.750000  1
  Sb  Sb17  1  0.000216  0.611450  0.250000  1
