# generated using pymatgen
data_TmLu5Al14(Si5Os4)2
_symmetry_space_group_name_H-M   'P 1'
_cell_length_a   8.65559900
_cell_length_b   8.67152227
_cell_length_c   9.26813700
_cell_angle_alpha   90.00087892
_cell_angle_beta   89.99997539
_cell_angle_gamma   119.93663530
_symmetry_Int_Tables_number   1
_chemical_formula_structural   TmLu5Al14(Si5Os4)2
_chemical_formula_sum   'Tm1 Lu5 Al14 Si10 Os8'
_cell_volume   602.82671933
_cell_formula_units_Z   1
loop_
 _symmetry_equiv_pos_site_id
 _symmetry_equiv_pos_as_xyz
  1  'x, y, z'
loop_
 _atom_site_type_symbol
 _atom_site_label
 _atom_site_symmetry_multiplicity
 _atom_site_fract_x
 _atom_site_fract_y
 _atom_site_fract_z
 _atom_site_occupancy
  Tm  Tm0  1  0.192388  0.384741  0.250013  1
  Lu  Lu1  1  0.807768  0.196358  0.750019  1
  Lu  Lu2  1  0.193487  0.804739  0.250014  1
  Lu  Lu3  1  0.388520  0.196352  0.750022  1
  Lu  Lu4  1  0.611063  0.804646  0.250020  1
  Lu  Lu5  1  0.803912  0.607885  0.750025  1
  Al  Al6  1  0.834353  0.166066  0.418796  1
  Al  Al7  1  0.163885  0.837218  0.581799  1
  Al  Al8  1  0.331733  0.165958  0.418747  1
  Al  Al9  1  0.163932  0.837154  0.918208  1
  Al  Al10  1  0.673345  0.837124  0.581732  1
  Al  Al11  1  0.834420  0.165989  0.081252  1
  Al  Al12  1  0.835414  0.670985  0.418774  1
  Al  Al13  1  0.673297  0.836996  0.918196  1
  Al  Al14  1  0.164374  0.328882  0.581643  1
  Al  Al15  1  0.331673  0.165817  0.081197  1
  Al  Al16  1  0.164428  0.328853  0.918327  1
  Al  Al17  1  0.835466  0.670948  0.081218  1
  Al  Al18  1  0.435294  0.870483  0.750016  1
  Al  Al19  1  0.998399  0.996821  0.749862  1
  Si  Si20  1  0.665785  0.331481  0.955764  1
  Si  Si21  1  0.334180  0.668305  0.043099  1
  Si  Si22  1  0.334082  0.668380  0.456967  1
  Si  Si23  1  0.665688  0.331565  0.544338  1
  Si  Si24  1  0.436933  0.561540  0.749989  1
  Si  Si25  1  0.563589  0.437764  0.249990  1
  Si  Si26  1  0.124608  0.561586  0.750083  1
  Si  Si27  1  0.874238  0.437831  0.250087  1
  Si  Si28  1  0.561779  0.123495  0.250024  1
  Si  Si29  1  0.995744  0.991811  0.249859  1
  Os  Os30  1  0.501257  0.499848  0.000357  1
  Os  Os31  1  0.998688  0.500000  0.000409  1
  Os  Os32  1  0.501203  0.499951  0.499607  1
  Os  Os33  1  0.500426  0.000627  0.006300  1
  Os  Os34  1  0.998595  0.500042  0.499759  1
  Os  Os35  1  0.500388  0.000708  0.493774  1
  Os  Os36  1  0.002824  0.005474  0.007539  1
  Os  Os37  1  0.002845  0.005577  0.492175  1
