# generated using pymatgen
data_SrBeH4
_symmetry_space_group_name_H-M   'P 1'
_cell_length_a   4.58058900
_cell_length_b   4.58175468
_cell_length_c   6.22931400
_cell_angle_alpha   89.75120238
_cell_angle_beta   90.00000000
_cell_angle_gamma   90.00000000
_symmetry_Int_Tables_number   1
_chemical_formula_structural   SrBeH4
_chemical_formula_sum   'Sr2 Be2 H8'
_cell_volume   130.73422177
_cell_formula_units_Z   2
loop_
 _symmetry_equiv_pos_site_id
 _symmetry_equiv_pos_as_xyz
  1  'x, y, z'
loop_
 _atom_site_type_symbol
 _atom_site_label
 _atom_site_symmetry_multiplicity
 _atom_site_fract_x
 _atom_site_fract_y
 _atom_site_fract_z
 _atom_site_occupancy
  Sr  Sr0  1  0.182287  0.748523  0.249985  1
  Sr  Sr1  1  0.682287  0.251477  0.750015  1
  Be  Be2  1  0.681673  0.245584  0.249648  1
  Be  Be3  1  0.181673  0.754416  0.750352  1
  H  H4  1  0.427640  0.254353  0.120025  1
  H  H5  1  0.927640  0.745647  0.879975  1
  H  H6  1  0.676368  0.989576  0.379540  1
  H  H7  1  0.176368  0.010424  0.620460  1
  H  H8  1  0.689210  0.495433  0.382340  1
  H  H9  1  0.189210  0.504567  0.617660  1
  H  H10  1  0.933434  0.240976  0.117618  1
  H  H11  1  0.433434  0.759024  0.882382  1
