# generated using pymatgen
data_LiDy4Bi3C
_symmetry_space_group_name_H-M   'P 1'
_cell_length_a   8.99462100
_cell_length_b   8.99461877
_cell_length_c   6.46711600
_cell_angle_alpha   90.00000000
_cell_angle_beta   90.00000000
_cell_angle_gamma   120.00000451
_symmetry_Int_Tables_number   1
_chemical_formula_structural   LiDy4Bi3C
_chemical_formula_sum   'Li2 Dy8 Bi6 C2'
_cell_volume   453.11338589
_cell_formula_units_Z   2
loop_
 _symmetry_equiv_pos_site_id
 _symmetry_equiv_pos_as_xyz
  1  'x, y, z'
loop_
 _atom_site_type_symbol
 _atom_site_label
 _atom_site_symmetry_multiplicity
 _atom_site_fract_x
 _atom_site_fract_y
 _atom_site_fract_z
 _atom_site_occupancy
  Li  Li0  1  0.666667  0.333333  0.000000  1
  Li  Li1  1  0.333333  0.666667  0.000000  1
  Dy  Dy2  1  0.333333  0.666667  0.500000  1
  Dy  Dy3  1  0.666667  0.333333  0.500000  1
  Dy  Dy4  1  0.788653  0.788653  0.751144  1
  Dy  Dy5  1  0.211347  0.000000  0.751144  1
  Dy  Dy6  1  0.000000  0.211347  0.751144  1
  Dy  Dy7  1  0.211347  0.211347  0.248856  1
  Dy  Dy8  1  0.788653  0.000000  0.248856  1
  Dy  Dy9  1  0.000000  0.788653  0.248856  1
  Bi  Bi10  1  0.406042  0.406042  0.760006  1
  Bi  Bi11  1  0.593958  0.000000  0.760006  1
  Bi  Bi12  1  0.000000  0.593958  0.760006  1
  Bi  Bi13  1  0.593958  0.593958  0.239994  1
  Bi  Bi14  1  0.406042  0.000000  0.239994  1
  Bi  Bi15  1  0.000000  0.406042  0.239994  1
  C  C16  1  0.000000  0.000000  0.000000  1
  C  C17  1  0.000000  0.000000  0.500000  1
