# generated using pymatgen
data_Yb2CdSnPd2
_symmetry_space_group_name_H-M   'P 1'
_cell_length_a   4.43907500
_cell_length_b   7.26503000
_cell_length_c   8.37855900
_cell_angle_alpha   90.00000000
_cell_angle_beta   90.00000000
_cell_angle_gamma   90.00000000
_symmetry_Int_Tables_number   1
_chemical_formula_structural   Yb2CdSnPd2
_chemical_formula_sum   'Yb4 Cd2 Sn2 Pd4'
_cell_volume   270.20863707
_cell_formula_units_Z   2
loop_
 _symmetry_equiv_pos_site_id
 _symmetry_equiv_pos_as_xyz
  1  'x, y, z'
loop_
 _atom_site_type_symbol
 _atom_site_label
 _atom_site_symmetry_multiplicity
 _atom_site_fract_x
 _atom_site_fract_y
 _atom_site_fract_z
 _atom_site_occupancy
  Yb  Yb0  1  0.250000  0.529465  0.182290  1
  Yb  Yb1  1  0.750000  0.471535  0.817577  1
  Yb  Yb2  1  0.250000  0.028465  0.317577  1
  Yb  Yb3  1  0.750000  0.970535  0.682290  1
  Cd  Cd4  1  0.250000  0.148728  0.933464  1
  Cd  Cd5  1  0.750000  0.351272  0.433464  1
  Sn  Sn6  1  0.250000  0.654912  0.563861  1
  Sn  Sn7  1  0.750000  0.845088  0.063861  1
  Pd  Pd8  1  0.750000  0.226729  0.123144  1
  Pd  Pd9  1  0.250000  0.273271  0.623144  1
  Pd  Pd10  1  0.750000  0.740625  0.379665  1
  Pd  Pd11  1  0.250000  0.759375  0.879665  1
