# generated using pymatgen
data_Er3Sc2In2Sb
_symmetry_space_group_name_H-M   'P 1'
_cell_length_a   8.77524479
_cell_length_b   8.73429977
_cell_length_c   6.27760400
_cell_angle_alpha   90.00000000
_cell_angle_beta   90.00000000
_cell_angle_gamma   119.84575912
_symmetry_Int_Tables_number   1
_chemical_formula_structural   Er3Sc2In2Sb
_chemical_formula_sum   'Er6 Sc4 In4 Sb2'
_cell_volume   417.33497332
_cell_formula_units_Z   2
loop_
 _symmetry_equiv_pos_site_id
 _symmetry_equiv_pos_as_xyz
  1  'x, y, z'
loop_
 _atom_site_type_symbol
 _atom_site_label
 _atom_site_symmetry_multiplicity
 _atom_site_fract_x
 _atom_site_fract_y
 _atom_site_fract_z
 _atom_site_occupancy
  Er  Er0  1  0.002595  0.765734  0.750000  1
  Er  Er1  1  0.002595  0.236861  0.250000  1
  Er  Er2  1  0.763478  0.760096  0.250000  1
  Er  Er3  1  0.763478  0.003382  0.750000  1
  Er  Er4  1  0.234843  0.236388  0.750000  1
  Er  Er5  1  0.234843  0.998456  0.250000  1
  Sc  Sc6  1  0.332704  0.666352  0.500000  1
  Sc  Sc7  1  0.666563  0.333281  0.000000  1
  Sc  Sc8  1  0.666563  0.333281  0.500000  1
  Sc  Sc9  1  0.332704  0.666352  0.000000  1
  In  In10  1  0.401661  0.000086  0.750000  1
  In  In11  1  0.401661  0.401575  0.250000  1
  In  In12  1  0.997894  0.592719  0.250000  1
  In  In13  1  0.997894  0.405176  0.750000  1
  Sb  Sb14  1  0.600262  0.601161  0.750000  1
  Sb  Sb15  1  0.600262  0.999101  0.250000  1
