# generated using pymatgen
data_Dy2ReB2Ru5
_symmetry_space_group_name_H-M   'P 1'
_cell_length_a   9.64030000
_cell_length_b   9.64030000
_cell_length_c   3.09443400
_cell_angle_alpha   90.00000000
_cell_angle_beta   90.00000000
_cell_angle_gamma   90.00000000
_symmetry_Int_Tables_number   1
_chemical_formula_structural   Dy2ReB2Ru5
_chemical_formula_sum   'Dy4 Re2 B4 Ru10'
_cell_volume   287.58241233
_cell_formula_units_Z   2
loop_
 _symmetry_equiv_pos_site_id
 _symmetry_equiv_pos_as_xyz
  1  'x, y, z'
loop_
 _atom_site_type_symbol
 _atom_site_label
 _atom_site_symmetry_multiplicity
 _atom_site_fract_x
 _atom_site_fract_y
 _atom_site_fract_z
 _atom_site_occupancy
  Dy  Dy0  1  0.675455  0.175455  0.000000  1
  Dy  Dy1  1  0.324545  0.824545  0.000000  1
  Dy  Dy2  1  0.175455  0.324545  0.000000  1
  Dy  Dy3  1  0.824545  0.675455  0.000000  1
  Re  Re4  1  0.000000  0.000000  0.000000  1
  Re  Re5  1  0.500000  0.500000  0.000000  1
  B  B6  1  0.119972  0.619972  0.000000  1
  B  B7  1  0.880028  0.380028  0.000000  1
  B  B8  1  0.619972  0.880028  0.000000  1
  B  B9  1  0.380028  0.119972  0.000000  1
  Ru  Ru10  1  0.216458  0.069646  0.500000  1
  Ru  Ru11  1  0.783542  0.930354  0.500000  1
  Ru  Ru12  1  0.069646  0.783542  0.500000  1
  Ru  Ru13  1  0.716458  0.430354  0.500000  1
  Ru  Ru14  1  0.930354  0.216458  0.500000  1
  Ru  Ru15  1  0.283542  0.569646  0.500000  1
  Ru  Ru16  1  0.569646  0.716458  0.500000  1
  Ru  Ru17  1  0.430354  0.283542  0.500000  1
  Ru  Ru18  1  0.500000  0.000000  0.500000  1
  Ru  Ru19  1  0.000000  0.500000  0.500000  1
