# generated using pymatgen
data_Dy8YTh3Co4
_symmetry_space_group_name_H-M   'P 1'
_cell_length_a   6.31644203
_cell_length_b   6.90069677
_cell_length_c   9.60163509
_cell_angle_alpha   90.01447371
_cell_angle_beta   90.00493118
_cell_angle_gamma   91.13751164
_symmetry_Int_Tables_number   1
_chemical_formula_structural   Dy8YTh3Co4
_chemical_formula_sum   'Dy8 Y1 Th3 Co4'
_cell_volume   418.43214833
_cell_formula_units_Z   1
loop_
 _symmetry_equiv_pos_site_id
 _symmetry_equiv_pos_as_xyz
  1  'x, y, z'
loop_
 _atom_site_type_symbol
 _atom_site_label
 _atom_site_symmetry_multiplicity
 _atom_site_fract_x
 _atom_site_fract_y
 _atom_site_fract_z
 _atom_site_occupancy
  Dy  Dy0  1  0.644226  0.045118  0.250043  1
  Dy  Dy1  1  0.175593  0.172957  0.428049  1
  Dy  Dy2  1  0.829600  0.827606  0.569494  1
  Dy  Dy3  1  0.175639  0.172859  0.072011  1
  Dy  Dy4  1  0.829682  0.827623  0.930527  1
  Dy  Dy5  1  0.671424  0.326789  0.568966  1
  Dy  Dy6  1  0.324744  0.672431  0.069821  1
  Dy  Dy7  1  0.324856  0.672342  0.430187  1
  Y  Y8  1  0.671380  0.326610  0.931217  1
  Th  Th9  1  0.156444  0.445051  0.749936  1
  Th  Th10  1  0.346534  0.944626  0.749978  1
  Th  Th11  1  0.843144  0.553131  0.250121  1
  Co  Co12  1  0.533717  0.627293  0.749782  1
  Co  Co13  1  0.967222  0.126072  0.749838  1
  Co  Co14  1  0.039055  0.868798  0.250006  1
  Co  Co15  1  0.466744  0.390693  0.250023  1
