# generated using pymatgen
data_Tb14Dy6Si15Os
_symmetry_space_group_name_H-M   'P 1'
_cell_length_a   7.41317575
_cell_length_b   7.77184005
_cell_length_c   14.64977730
_cell_angle_alpha   90.01150474
_cell_angle_beta   90.02001576
_cell_angle_gamma   90.05852215
_symmetry_Int_Tables_number   1
_chemical_formula_structural   Tb14Dy6Si15Os
_chemical_formula_sum   'Tb14 Dy6 Si15 Os1'
_cell_volume   844.03199777
_cell_formula_units_Z   1
loop_
 _symmetry_equiv_pos_site_id
 _symmetry_equiv_pos_as_xyz
  1  'x, y, z'
loop_
 _atom_site_type_symbol
 _atom_site_label
 _atom_site_symmetry_multiplicity
 _atom_site_fract_x
 _atom_site_fract_y
 _atom_site_fract_z
 _atom_site_occupancy
  Tb  Tb0  1  0.318913  0.819115  0.123371  1
  Tb  Tb1  1  0.817583  0.679335  0.377172  1
  Tb  Tb2  1  0.318901  0.819179  0.376641  1
  Tb  Tb3  1  0.817529  0.679338  0.122829  1
  Tb  Tb4  1  0.672042  0.185154  0.874939  1
  Tb  Tb5  1  0.190775  0.323496  0.626377  1
  Tb  Tb6  1  0.522764  0.674218  0.597409  1
  Tb  Tb7  1  0.027095  0.816046  0.903170  1
  Tb  Tb8  1  0.473027  0.315466  0.097361  1
  Tb  Tb9  1  0.973077  0.183779  0.402656  1
  Tb  Tb10  1  0.473149  0.315425  0.402681  1
  Tb  Tb11  1  0.973086  0.183841  0.097335  1
  Tb  Tb12  1  0.522542  0.674199  0.902540  1
  Tb  Tb13  1  0.027083  0.815967  0.596841  1
  Dy  Dy14  1  0.672140  0.185054  0.625004  1
  Dy  Dy15  1  0.190743  0.323709  0.873673  1
  Dy  Dy16  1  0.840154  0.512196  0.749961  1
  Dy  Dy17  1  0.354479  0.986295  0.749994  1
  Dy  Dy18  1  0.150562  0.484119  0.250031  1
  Dy  Dy19  1  0.650092  0.014859  0.250020  1
  Si  Si20  1  0.645473  0.971987  0.460428  1
  Si  Si21  1  0.148053  0.528136  0.039285  1
  Si  Si22  1  0.349856  0.025429  0.960938  1
  Si  Si23  1  0.856654  0.471362  0.539153  1
  Si  Si24  1  0.350282  0.025357  0.539097  1
  Si  Si25  1  0.857177  0.471389  0.960810  1
  Si  Si26  1  0.645340  0.971809  0.039714  1
  Si  Si27  1  0.147964  0.528286  0.460601  1
  Si  Si28  1  0.978519  0.100164  0.749953  1
  Si  Si29  1  0.524520  0.602647  0.250003  1
  Si  Si30  1  0.021635  0.895864  0.250007  1
  Si  Si31  1  0.741420  0.876348  0.749920  1
  Si  Si32  1  0.232209  0.632497  0.750133  1
  Si  Si33  1  0.266791  0.127161  0.250000  1
  Si  Si34  1  0.767764  0.373624  0.249996  1
  Os  Os35  1  0.480602  0.407149  0.749959  1
