# generated using pymatgen
data_DyYCdIn
_symmetry_space_group_name_H-M   'P 1'
_cell_length_a   5.30658439
_cell_length_b   5.30658429
_cell_length_c   5.30658500
_cell_angle_alpha   60.00000183
_cell_angle_beta   60.00000242
_cell_angle_gamma   60.00000103
_symmetry_Int_Tables_number   1
_chemical_formula_structural   DyYCdIn
_chemical_formula_sum   'Dy1 Y1 Cd1 In1'
_cell_volume   105.66478823
_cell_formula_units_Z   1
loop_
 _symmetry_equiv_pos_site_id
 _symmetry_equiv_pos_as_xyz
  1  'x, y, z'
loop_
 _atom_site_type_symbol
 _atom_site_label
 _atom_site_symmetry_multiplicity
 _atom_site_fract_x
 _atom_site_fract_y
 _atom_site_fract_z
 _atom_site_occupancy
  Dy  Dy0  1  0.250000  0.250000  0.250000  1
  Y  Y1  1  0.750000  0.750000  0.750000  1
  Cd  Cd2  1  0.500000  0.500000  0.500000  1
  In  In3  1  0.000000  0.000000  0.000000  1
