# generated using pymatgen
data_NaLa6Cd22Ge
_symmetry_space_group_name_H-M   'P 1'
_cell_length_a   10.24735903
_cell_length_b   10.24712152
_cell_length_c   10.24713000
_cell_angle_alpha   60.06372200
_cell_angle_beta   60.06356408
_cell_angle_gamma   60.06148233
_symmetry_Int_Tables_number   1
_chemical_formula_structural   NaLa6Cd22Ge
_chemical_formula_sum   'Na1 La6 Cd22 Ge1'
_cell_volume   761.93859232
_cell_formula_units_Z   1
loop_
 _symmetry_equiv_pos_site_id
 _symmetry_equiv_pos_as_xyz
  1  'x, y, z'
loop_
 _atom_site_type_symbol
 _atom_site_label
 _atom_site_symmetry_multiplicity
 _atom_site_fract_x
 _atom_site_fract_y
 _atom_site_fract_z
 _atom_site_occupancy
  Na  Na0  1  0.500000  0.500000  0.500000  1
  La  La1  1  0.790785  0.790801  0.209316  1
  La  La2  1  0.209165  0.790720  0.209203  1
  La  La3  1  0.790683  0.209208  0.209200  1
  La  La4  1  0.209215  0.209199  0.790684  1
  La  La5  1  0.790835  0.209280  0.790797  1
  La  La6  1  0.209317  0.790792  0.790800  1
  Cd  Cd7  1  0.831772  0.831785  0.503577  1
  Cd  Cd8  1  0.831782  0.503569  0.831781  1
  Cd  Cd9  1  0.503573  0.831781  0.831783  1
  Cd  Cd10  1  0.832666  0.832657  0.832667  1
  Cd  Cd11  1  0.168228  0.168215  0.496423  1
  Cd  Cd12  1  0.168218  0.496431  0.168219  1
  Cd  Cd13  1  0.496427  0.168219  0.168217  1
  Cd  Cd14  1  0.167334  0.167343  0.167333  1
  Cd  Cd15  1  0.624210  0.624250  0.127883  1
  Cd  Cd16  1  0.624238  0.127882  0.624238  1
  Cd  Cd17  1  0.127870  0.624241  0.624232  1
  Cd  Cd18  1  0.623797  0.623774  0.623797  1
  Cd  Cd19  1  0.375790  0.375750  0.872117  1
  Cd  Cd20  1  0.375762  0.872118  0.375762  1
  Cd  Cd21  1  0.872130  0.375759  0.375768  1
  Cd  Cd22  1  0.376203  0.376226  0.376203  1
  Cd  Cd23  1  0.000000  0.000000  0.500000  1
  Cd  Cd24  1  0.500000  0.000000  0.500000  1
  Cd  Cd25  1  0.000000  0.500000  0.500000  1
  Cd  Cd26  1  0.500000  0.500000  0.000000  1
  Cd  Cd27  1  0.000000  0.500000  0.000000  1
  Cd  Cd28  1  0.500000  0.000000  0.000000  1
  Ge  Ge29  1  0.000000  0.000000  0.000000  1
