# generated using pymatgen
data_SrNd2Hg(Ir2O7)2
_symmetry_space_group_name_H-M   'P 1'
_cell_length_a   7.32734446
_cell_length_b   7.32734505
_cell_length_c   7.30359400
_cell_angle_alpha   61.56467426
_cell_angle_beta   61.56467175
_cell_angle_gamma   61.84732467
_symmetry_Int_Tables_number   1
_chemical_formula_structural   SrNd2Hg(Ir2O7)2
_chemical_formula_sum   'Sr1 Nd2 Hg1 Ir4 O14'
_cell_volume   287.58687353
_cell_formula_units_Z   1
loop_
 _symmetry_equiv_pos_site_id
 _symmetry_equiv_pos_as_xyz
  1  'x, y, z'
loop_
 _atom_site_type_symbol
 _atom_site_label
 _atom_site_symmetry_multiplicity
 _atom_site_fract_x
 _atom_site_fract_y
 _atom_site_fract_z
 _atom_site_occupancy
  Sr  Sr0  1  0.125000  0.125000  0.625000  1
  Nd  Nd1  1  0.625000  0.125000  0.125000  1
  Nd  Nd2  1  0.125000  0.625000  0.125000  1
  Hg  Hg3  1  0.125000  0.125000  0.125000  1
  Ir  Ir4  1  0.625000  0.625000  0.625000  1
  Ir  Ir5  1  0.125000  0.625000  0.625000  1
  Ir  Ir6  1  0.625000  0.125000  0.625000  1
  Ir  Ir7  1  0.625000  0.625000  0.125000  1
  O  O8  1  0.951547  0.552412  0.539338  1
  O  O9  1  0.307739  0.307739  0.693389  1
  O  O10  1  0.944859  0.560980  0.947010  1
  O  O11  1  0.689020  0.305141  0.302990  1
  O  O12  1  0.542413  0.542413  0.956172  1
  O  O13  1  0.552412  0.951547  0.539338  1
  O  O14  1  0.560980  0.944859  0.947010  1
  O  O15  1  0.249337  0.249337  0.230998  1
  O  O16  1  0.298453  0.697588  0.710662  1
  O  O17  1  0.697588  0.298453  0.710662  1
  O  O18  1  0.000663  0.000663  0.019002  1
  O  O19  1  0.942261  0.942261  0.556611  1
  O  O20  1  0.305141  0.689020  0.302990  1
  O  O21  1  0.707587  0.707587  0.293828  1
