# generated using pymatgen
data_SrTbHo(Si3Pd10)2
_symmetry_space_group_name_H-M   'P 1'
_cell_length_a   8.74339955
_cell_length_b   8.74340089
_cell_length_c   8.74340000
_cell_angle_alpha   60.00000336
_cell_angle_beta   59.99999831
_cell_angle_gamma   59.99999737
_symmetry_Int_Tables_number   1
_chemical_formula_structural   SrTbHo(Si3Pd10)2
_chemical_formula_sum   'Sr1 Tb1 Ho1 Si6 Pd20'
_cell_volume   472.63519974
_cell_formula_units_Z   1
loop_
 _symmetry_equiv_pos_site_id
 _symmetry_equiv_pos_as_xyz
  1  'x, y, z'
loop_
 _atom_site_type_symbol
 _atom_site_label
 _atom_site_symmetry_multiplicity
 _atom_site_fract_x
 _atom_site_fract_y
 _atom_site_fract_z
 _atom_site_occupancy
  Sr  Sr0  1  0.250000  0.250000  0.250000  1
  Tb  Tb1  1  0.750000  0.750000  0.750000  1
  Ho  Ho2  1  0.000000  0.000000  0.000000  1
  Si  Si3  1  0.732394  0.267606  0.267606  1
  Si  Si4  1  0.267606  0.732394  0.732394  1
  Si  Si5  1  0.267606  0.732394  0.267606  1
  Si  Si6  1  0.732394  0.267606  0.732394  1
  Si  Si7  1  0.267606  0.267606  0.732394  1
  Si  Si8  1  0.732394  0.732394  0.267606  1
  Pd  Pd9  1  0.386850  0.386850  0.386850  1
  Pd  Pd10  1  0.616828  0.616828  0.616828  1
  Pd  Pd11  1  0.386850  0.386850  0.839450  1
  Pd  Pd12  1  0.386850  0.839450  0.386850  1
  Pd  Pd13  1  0.616828  0.616828  0.149516  1
  Pd  Pd14  1  0.616828  0.149516  0.616828  1
  Pd  Pd15  1  0.839450  0.386850  0.386850  1
  Pd  Pd16  1  0.149516  0.616828  0.616828  1
  Pd  Pd17  1  0.346359  0.997878  0.997878  1
  Pd  Pd18  1  0.657886  0.997878  0.997878  1
  Pd  Pd19  1  0.997878  0.346359  0.657886  1
  Pd  Pd20  1  0.997878  0.657886  0.346359  1
  Pd  Pd21  1  0.997878  0.346359  0.997878  1
  Pd  Pd22  1  0.657886  0.997878  0.346359  1
  Pd  Pd23  1  0.997878  0.657886  0.997878  1
  Pd  Pd24  1  0.346359  0.997878  0.657886  1
  Pd  Pd25  1  0.997878  0.997878  0.346359  1
  Pd  Pd26  1  0.997878  0.997878  0.657886  1
  Pd  Pd27  1  0.657886  0.346359  0.997878  1
  Pd  Pd28  1  0.346359  0.657886  0.997878  1
