# generated using pymatgen
data_SrTc12Br25
_symmetry_space_group_name_H-M   'P 1'
_cell_length_a   9.88367740
_cell_length_b   10.92942387
_cell_length_c   11.73671515
_cell_angle_alpha   85.91982370
_cell_angle_beta   75.03453896
_cell_angle_gamma   87.50610517
_symmetry_Int_Tables_number   1
_chemical_formula_structural   SrTc12Br25
_chemical_formula_sum   'Sr1 Tc12 Br25'
_cell_volume   1221.31101221
_cell_formula_units_Z   1
loop_
 _symmetry_equiv_pos_site_id
 _symmetry_equiv_pos_as_xyz
  1  'x, y, z'
loop_
 _atom_site_type_symbol
 _atom_site_label
 _atom_site_symmetry_multiplicity
 _atom_site_fract_x
 _atom_site_fract_y
 _atom_site_fract_z
 _atom_site_occupancy
  Sr  Sr0  1  0.500000  0.000000  0.000000  1
  Tc  Tc1  1  0.827399  0.251570  0.124935  1
  Tc  Tc2  1  0.172601  0.748430  0.875065  1
  Tc  Tc3  1  0.754497  0.120799  0.278999  1
  Tc  Tc4  1  0.245503  0.879201  0.721001  1
  Tc  Tc5  1  0.065512  0.272888  0.187820  1
  Tc  Tc6  1  0.934488  0.727112  0.812180  1
  Tc  Tc7  1  0.848088  0.426123  0.266061  1
  Tc  Tc8  1  0.151912  0.573877  0.733939  1
  Tc  Tc9  1  0.771525  0.296818  0.422464  1
  Tc  Tc10  1  0.228475  0.703182  0.577536  1
  Tc  Tc11  1  0.990156  0.145908  0.345203  1
  Tc  Tc12  1  0.009844  0.854092  0.654797  1
  Br  Br13  1  0.940458  0.956970  0.258820  1
  Br  Br14  1  0.059542  0.043030  0.741180  1
  Br  Br15  1  0.972589  0.277673  0.513119  1
  Br  Br16  1  0.027411  0.722327  0.486881  1
  Br  Br17  1  0.648807  0.422106  0.170110  1
  Br  Br18  1  0.351193  0.577894  0.829890  1
  Br  Br19  1  0.092303  0.465694  0.280065  1
  Br  Br20  1  0.907697  0.534306  0.719935  1
  Br  Br21  1  0.000000  0.500000  0.000000  1
  Br  Br22  1  0.595656  0.957811  0.233374  1
  Br  Br23  1  0.404344  0.042189  0.766626  1
  Br  Br24  1  0.197882  0.035339  0.399449  1
  Br  Br25  1  0.802118  0.964661  0.600551  1
  Br  Br26  1  0.543601  0.221819  0.403169  1
  Br  Br27  1  0.456399  0.778181  0.596831  1
  Br  Br28  1  0.053727  0.154071  0.018713  1
  Br  Br29  1  0.946273  0.845929  0.981287  1
  Br  Br30  1  0.776761  0.641399  0.319174  1
  Br  Br31  1  0.223239  0.358601  0.680826  1
  Br  Br32  1  0.726382  0.200414  0.949903  1
  Br  Br33  1  0.273618  0.799586  0.050097  1
  Br  Br34  1  0.334365  0.243493  0.114625  1
  Br  Br35  1  0.665635  0.756507  0.885375  1
  Br  Br36  1  0.639931  0.408186  0.597390  1
  Br  Br37  1  0.360069  0.591814  0.402610  1
