# generated using pymatgen
data_Pr3Y(Rh2O7)2
_symmetry_space_group_name_H-M   'P 1'
_cell_length_a   7.37149214
_cell_length_b   7.37149282
_cell_length_c   7.37149130
_cell_angle_alpha   60.14456288
_cell_angle_beta   60.14455913
_cell_angle_gamma   60.14457146
_symmetry_Int_Tables_number   1
_chemical_formula_structural   Pr3Y(Rh2O7)2
_chemical_formula_sum   'Pr3 Y1 Rh4 O14'
_cell_volume   284.16530208
_cell_formula_units_Z   1
loop_
 _symmetry_equiv_pos_site_id
 _symmetry_equiv_pos_as_xyz
  1  'x, y, z'
loop_
 _atom_site_type_symbol
 _atom_site_label
 _atom_site_symmetry_multiplicity
 _atom_site_fract_x
 _atom_site_fract_y
 _atom_site_fract_z
 _atom_site_occupancy
  Pr  Pr0  1  0.500000  0.000000  0.500000  1
  Pr  Pr1  1  0.000000  0.500000  0.500000  1
  Pr  Pr2  1  0.500000  0.500000  0.000000  1
  Y  Y3  1  0.500000  0.500000  0.500000  1
  Rh  Rh4  1  0.000000  0.000000  0.000000  1
  Rh  Rh5  1  0.000000  0.500000  0.000000  1
  Rh  Rh6  1  0.500000  0.000000  0.000000  1
  Rh  Rh7  1  0.000000  0.000000  0.500000  1
  O  O8  1  0.620582  0.620582  0.620582  1
  O  O9  1  0.379418  0.379418  0.379418  1
  O  O10  1  0.918278  0.918278  0.332062  1
  O  O11  1  0.332062  0.918278  0.918278  1
  O  O12  1  0.918278  0.332062  0.918278  1
  O  O13  1  0.332094  0.332094  0.911990  1
  O  O14  1  0.911990  0.332094  0.332094  1
  O  O15  1  0.332094  0.911990  0.332094  1
  O  O16  1  0.081722  0.081722  0.667938  1
  O  O17  1  0.667938  0.081722  0.081722  1
  O  O18  1  0.081722  0.667938  0.081722  1
  O  O19  1  0.667906  0.667906  0.088010  1
  O  O20  1  0.088010  0.667906  0.667906  1
  O  O21  1  0.667906  0.088010  0.667906  1
