# generated using pymatgen
data_Ho6Th2GaPd24
_symmetry_space_group_name_H-M   'P 1'
_cell_length_a   8.37222500
_cell_length_b   8.38097607
_cell_length_c   8.38097607
_cell_angle_alpha   90.01479399
_cell_angle_beta   90.00000000
_cell_angle_gamma   90.00000000
_symmetry_Int_Tables_number   1
_chemical_formula_structural   Ho6Th2GaPd24
_chemical_formula_sum   'Ho6 Th2 Ga1 Pd24'
_cell_volume   588.07142631
_cell_formula_units_Z   1
loop_
 _symmetry_equiv_pos_site_id
 _symmetry_equiv_pos_as_xyz
  1  'x, y, z'
loop_
 _atom_site_type_symbol
 _atom_site_label
 _atom_site_symmetry_multiplicity
 _atom_site_fract_x
 _atom_site_fract_y
 _atom_site_fract_z
 _atom_site_occupancy
  Ho  Ho0  1  0.747166  0.252741  0.252741  1
  Ho  Ho1  1  0.747166  0.747259  0.747259  1
  Ho  Ho2  1  0.747550  0.747334  0.252666  1
  Ho  Ho3  1  0.747550  0.252666  0.747334  1
  Ho  Ho4  1  0.252519  0.747680  0.747680  1
  Ho  Ho5  1  0.252519  0.252320  0.252320  1
  Th  Th6  1  0.253794  0.253811  0.746189  1
  Th  Th7  1  0.253794  0.746189  0.253811  1
  Ga  Ga8  1  0.998610  0.000000  0.000000  1
  Pd  Pd9  1  0.500771  0.500642  0.746876  1
  Pd  Pd10  1  0.500771  0.253124  0.499358  1
  Pd  Pd11  1  0.253241  0.500000  0.500000  1
  Pd  Pd12  1  0.500771  0.499358  0.253124  1
  Pd  Pd13  1  0.500771  0.746876  0.500642  1
  Pd  Pd14  1  0.746983  0.500000  0.500000  1
  Pd  Pd15  1  0.998726  0.999031  0.709302  1
  Pd  Pd16  1  0.998726  0.290698  0.000969  1
  Pd  Pd17  1  0.291169  0.000000  0.000000  1
  Pd  Pd18  1  0.998726  0.000969  0.290698  1
  Pd  Pd19  1  0.998726  0.709302  0.999031  1
  Pd  Pd20  1  0.709746  0.000000  0.000000  1
  Pd  Pd21  1  0.999420  0.500351  0.740106  1
  Pd  Pd22  1  0.500595  0.259930  0.000519  1
  Pd  Pd23  1  0.259956  0.000000  0.500000  1
  Pd  Pd24  1  0.999420  0.259894  0.499649  1
  Pd  Pd25  1  0.500595  0.999481  0.740070  1
  Pd  Pd26  1  0.259956  0.500000  0.000000  1
  Pd  Pd27  1  0.999420  0.499649  0.259894  1
  Pd  Pd28  1  0.500595  0.740070  0.999481  1
  Pd  Pd29  1  0.999420  0.740106  0.500351  1
  Pd  Pd30  1  0.500595  0.000519  0.259930  1
  Pd  Pd31  1  0.740116  0.000000  0.500000  1
  Pd  Pd32  1  0.740116  0.500000  0.000000  1
