# generated using pymatgen
data_Zr2Mn3Be
_symmetry_space_group_name_H-M   'P 1'
_cell_length_a   4.84050300
_cell_length_b   4.84050276
_cell_length_c   8.21748200
_cell_angle_alpha   90.00000000
_cell_angle_beta   90.00000000
_cell_angle_gamma   120.00000847
_symmetry_Int_Tables_number   1
_chemical_formula_structural   Zr2Mn3Be
_chemical_formula_sum   'Zr4 Mn6 Be2'
_cell_volume   166.74404082
_cell_formula_units_Z   2
loop_
 _symmetry_equiv_pos_site_id
 _symmetry_equiv_pos_as_xyz
  1  'x, y, z'
loop_
 _atom_site_type_symbol
 _atom_site_label
 _atom_site_symmetry_multiplicity
 _atom_site_fract_x
 _atom_site_fract_y
 _atom_site_fract_z
 _atom_site_occupancy
  Zr  Zr0  1  0.333333  0.666667  0.064932  1
  Zr  Zr1  1  0.666667  0.333333  0.564932  1
  Zr  Zr2  1  0.666667  0.333333  0.935068  1
  Zr  Zr3  1  0.333333  0.666667  0.435068  1
  Mn  Mn4  1  0.166695  0.333389  0.750000  1
  Mn  Mn5  1  0.833305  0.166695  0.250000  1
  Mn  Mn6  1  0.833305  0.666611  0.250000  1
  Mn  Mn7  1  0.166695  0.833305  0.750000  1
  Mn  Mn8  1  0.666611  0.833305  0.750000  1
  Mn  Mn9  1  0.333389  0.166695  0.250000  1
  Be  Be10  1  0.000000  0.000000  0.500000  1
  Be  Be11  1  0.000000  0.000000  0.000000  1
