# generated using pymatgen
data_Hf2Co12Si6P
_symmetry_space_group_name_H-M   'P 1'
_cell_length_a   9.00929354
_cell_length_b   9.03130744
_cell_length_c   3.56436100
_cell_angle_alpha   90.00000000
_cell_angle_beta   90.00000000
_cell_angle_gamma   120.02890858
_symmetry_Int_Tables_number   1
_chemical_formula_structural   Hf2Co12Si6P
_chemical_formula_sum   'Hf2 Co12 Si6 P1'
_cell_volume   251.08865711
_cell_formula_units_Z   1
loop_
 _symmetry_equiv_pos_site_id
 _symmetry_equiv_pos_as_xyz
  1  'x, y, z'
loop_
 _atom_site_type_symbol
 _atom_site_label
 _atom_site_symmetry_multiplicity
 _atom_site_fract_x
 _atom_site_fract_y
 _atom_site_fract_z
 _atom_site_occupancy
  Hf  Hf0  1  0.668195  0.333731  0.000000  1
  Hf  Hf1  1  0.000442  0.003057  0.500000  1
  Co  Co2  1  0.773583  0.047169  0.000000  1
  Co  Co3  1  0.953644  0.725086  0.000000  1
  Co  Co4  1  0.272872  0.227871  0.000000  1
  Co  Co5  1  0.488583  0.539369  0.000000  1
  Co  Co6  1  0.459094  0.944163  0.000000  1
  Co  Co7  1  0.050217  0.514691  0.000000  1
  Co  Co8  1  0.718303  0.608890  0.500000  1
  Co  Co9  1  0.387931  0.101588  0.500000  1
  Co  Co10  1  0.896055  0.290737  0.500000  1
  Co  Co11  1  0.569475  0.793047  0.500000  1
  Co  Co12  1  0.199465  0.770475  0.500000  1
  Co  Co13  1  0.227613  0.433761  0.500000  1
  Si  Si14  1  0.738439  0.783957  0.000000  1
  Si  Si15  1  0.216018  0.954157  0.000000  1
  Si  Si16  1  0.046741  0.265279  0.000000  1
  Si  Si17  1  0.447170  0.373303  0.500000  1
  Si  Si18  1  0.625662  0.071962  0.500000  1
  Si  Si19  1  0.332859  0.664328  0.000000  1
  P  P20  1  0.927639  0.553380  0.500000  1
