# generated using pymatgen
data_Y11TmPb10
_symmetry_space_group_name_H-M   'P 1'
_cell_length_a   11.75192055
_cell_length_b   11.75192057
_cell_length_c   11.75024895
_cell_angle_alpha   146.87022757
_cell_angle_beta   132.64340304
_cell_angle_gamma   59.02575205
_symmetry_Int_Tables_number   1
_chemical_formula_structural   Y11TmPb10
_chemical_formula_sum   'Y11 Tm1 Pb10'
_cell_volume   646.78462706
_cell_formula_units_Z   1
loop_
 _symmetry_equiv_pos_site_id
 _symmetry_equiv_pos_as_xyz
  1  'x, y, z'
loop_
 _atom_site_type_symbol
 _atom_site_label
 _atom_site_symmetry_multiplicity
 _atom_site_fract_x
 _atom_site_fract_y
 _atom_site_fract_z
 _atom_site_occupancy
  Y  Y0  1  0.250650  0.637609  0.613170  1
  Y  Y1  1  0.680998  0.941260  0.739639  1
  Y  Y2  1  0.024440  0.137479  0.886830  1
  Y  Y3  1  0.975339  0.862461  0.113180  1
  Y  Y4  1  0.798331  0.558979  0.239650  1
  Y  Y5  1  0.201621  0.441358  0.760361  1
  Y  Y6  1  0.303759  0.053759  0.750000  1
  Y  Y7  1  0.319328  0.058681  0.260350  1
  Y  Y8  1  0.303741  0.553741  0.250000  1
  Y  Y9  1  0.749281  0.362160  0.386820  1
  Y  Y10  1  0.696230  0.446230  0.750000  1
  Tm  Tm11  1  0.696150  0.946150  0.250000  1
  Pb  Pb12  1  0.480475  0.575736  0.906670  1
  Pb  Pb13  1  0.598842  0.795033  0.805770  1
  Pb  Pb14  1  0.669066  0.073806  0.593330  1
  Pb  Pb15  1  0.999972  0.749972  0.750000  1
  Pb  Pb16  1  0.989263  0.293071  0.694230  1
  Pb  Pb17  1  0.520131  0.425621  0.094692  1
  Pb  Pb18  1  0.009530  0.706400  0.304509  1
  Pb  Pb19  1  0.401891  0.205021  0.195491  1
  Pb  Pb20  1  0.330928  0.925438  0.405308  1
  Pb  Pb21  1  0.000035  0.250035  0.250000  1
