# generated using pymatgen
data_Tb2TmCo8P6Os
_symmetry_space_group_name_H-M   'P 1'
_cell_length_a   3.71298600
_cell_length_b   10.48020200
_cell_length_c   12.23192000
_cell_angle_alpha   90.00000000
_cell_angle_beta   90.00000000
_cell_angle_gamma   90.00000000
_symmetry_Int_Tables_number   1
_chemical_formula_structural   Tb2TmCo8P6Os
_chemical_formula_sum   'Tb4 Tm2 Co16 P12 Os2'
_cell_volume   475.97878626
_cell_formula_units_Z   2
loop_
 _symmetry_equiv_pos_site_id
 _symmetry_equiv_pos_as_xyz
  1  'x, y, z'
loop_
 _atom_site_type_symbol
 _atom_site_label
 _atom_site_symmetry_multiplicity
 _atom_site_fract_x
 _atom_site_fract_y
 _atom_site_fract_z
 _atom_site_occupancy
  Tb  Tb0  1  0.000000  0.500000  0.524119  1
  Tb  Tb1  1  0.500000  0.000000  0.474689  1
  Tb  Tb2  1  0.000000  0.683152  0.793229  1
  Tb  Tb3  1  0.000000  0.316848  0.793229  1
  Tm  Tm4  1  0.500000  0.817818  0.207029  1
  Tm  Tm5  1  0.500000  0.182182  0.207029  1
  Co  Co6  1  0.500000  0.500000  0.703964  1
  Co  Co7  1  0.000000  0.000000  0.295418  1
  Co  Co8  1  0.000000  0.500000  0.988250  1
  Co  Co9  1  0.500000  0.000000  0.014686  1
  Co  Co10  1  0.500000  0.331946  0.991403  1
  Co  Co11  1  0.500000  0.668054  0.991403  1
  Co  Co12  1  0.000000  0.166886  0.011356  1
  Co  Co13  1  0.000000  0.833114  0.011356  1
  Co  Co14  1  0.500000  0.297291  0.429346  1
  Co  Co15  1  0.500000  0.702709  0.429346  1
  Co  Co16  1  0.000000  0.202248  0.568246  1
  Co  Co17  1  0.000000  0.797752  0.568246  1
  Co  Co18  1  0.500000  0.879819  0.708579  1
  Co  Co19  1  0.500000  0.120181  0.708579  1
  Co  Co20  1  0.000000  0.621243  0.290259  1
  Co  Co21  1  0.000000  0.378757  0.290259  1
  P  P22  1  0.500000  0.500000  0.882134  1
  P  P23  1  0.000000  0.000000  0.120353  1
  P  P24  1  0.500000  0.500000  0.349910  1
  P  P25  1  0.000000  0.000000  0.649479  1
  P  P26  1  0.500000  0.310996  0.615117  1
  P  P27  1  0.500000  0.689004  0.615117  1
  P  P28  1  0.000000  0.188289  0.382185  1
  P  P29  1  0.000000  0.811711  0.382185  1
  P  P30  1  0.500000  0.847185  0.893723  1
  P  P31  1  0.500000  0.152815  0.893723  1
  P  P32  1  0.000000  0.654758  0.107931  1
  P  P33  1  0.000000  0.345242  0.107931  1
  Os  Os34  1  0.500000  0.500000  0.158682  1
  Os  Os35  1  0.000000  0.000000  0.841511  1
