# generated using pymatgen
data_SmTh3(GePd14)2
_symmetry_space_group_name_H-M   'P 1'
_cell_length_a   9.05515300
_cell_length_b   9.05515300
_cell_length_c   7.11536700
_cell_angle_alpha   90.00000000
_cell_angle_beta   90.00000000
_cell_angle_gamma   90.00000000
_symmetry_Int_Tables_number   1
_chemical_formula_structural   SmTh3(GePd14)2
_chemical_formula_sum   'Sm1 Th3 Ge2 Pd28'
_cell_volume   583.43017995
_cell_formula_units_Z   1
loop_
 _symmetry_equiv_pos_site_id
 _symmetry_equiv_pos_as_xyz
  1  'x, y, z'
loop_
 _atom_site_type_symbol
 _atom_site_label
 _atom_site_symmetry_multiplicity
 _atom_site_fract_x
 _atom_site_fract_y
 _atom_site_fract_z
 _atom_site_occupancy
  Sm  Sm0  1  0.000000  0.500000  0.067435  1
  Th  Th1  1  0.500000  0.000000  0.931572  1
  Th  Th2  1  0.000000  0.000000  0.499834  1
  Th  Th3  1  0.500000  0.500000  0.499834  1
  Ge  Ge4  1  0.500000  0.000000  0.448208  1
  Ge  Ge5  1  0.000000  0.500000  0.550627  1
  Pd  Pd6  1  0.331775  0.831775  0.621208  1
  Pd  Pd7  1  0.331775  0.168225  0.621208  1
  Pd  Pd8  1  0.668225  0.831775  0.621208  1
  Pd  Pd9  1  0.668225  0.168225  0.621208  1
  Pd  Pd10  1  0.168498  0.668498  0.379535  1
  Pd  Pd11  1  0.168498  0.331502  0.379535  1
  Pd  Pd12  1  0.831502  0.668498  0.379535  1
  Pd  Pd13  1  0.831502  0.331502  0.379535  1
  Pd  Pd14  1  0.500000  0.766869  0.254012  1
  Pd  Pd15  1  0.500000  0.233131  0.254012  1
  Pd  Pd16  1  0.266869  0.000000  0.254012  1
  Pd  Pd17  1  0.733131  0.000000  0.254012  1
  Pd  Pd18  1  0.000000  0.734253  0.744646  1
  Pd  Pd19  1  0.000000  0.265747  0.744646  1
  Pd  Pd20  1  0.234253  0.500000  0.744646  1
  Pd  Pd21  1  0.765747  0.500000  0.744646  1
  Pd  Pd22  1  0.500000  0.349371  0.853654  1
  Pd  Pd23  1  0.500000  0.650629  0.853654  1
  Pd  Pd24  1  0.849371  0.000000  0.853654  1
  Pd  Pd25  1  0.150629  0.000000  0.853654  1
  Pd  Pd26  1  0.000000  0.150472  0.147123  1
  Pd  Pd27  1  0.000000  0.849528  0.147123  1
  Pd  Pd28  1  0.650472  0.500000  0.147123  1
  Pd  Pd29  1  0.349528  0.500000  0.147123  1
  Pd  Pd30  1  0.250530  0.750530  0.000445  1
  Pd  Pd31  1  0.250530  0.249470  0.000445  1
  Pd  Pd32  1  0.749470  0.750530  0.000445  1
  Pd  Pd33  1  0.749470  0.249470  0.000445  1
