# generated using pymatgen
data_NbCrF7
_symmetry_space_group_name_H-M   'P 1'
_cell_length_a   7.93067039
_cell_length_b   7.93067177
_cell_length_c   7.93067155
_cell_angle_alpha   124.03167695
_cell_angle_beta   123.00967832
_cell_angle_gamma   84.00556684
_symmetry_Int_Tables_number   1
_chemical_formula_structural   NbCrF7
_chemical_formula_sum   'Nb2 Cr2 F14'
_cell_volume   331.91207953
_cell_formula_units_Z   2
loop_
 _symmetry_equiv_pos_site_id
 _symmetry_equiv_pos_as_xyz
  1  'x, y, z'
loop_
 _atom_site_type_symbol
 _atom_site_label
 _atom_site_symmetry_multiplicity
 _atom_site_fract_x
 _atom_site_fract_y
 _atom_site_fract_z
 _atom_site_occupancy
  Nb  Nb0  1  0.000000  0.500000  0.500000  1
  Nb  Nb1  1  0.500000  0.000000  0.500000  1
  Cr  Cr2  1  0.500000  0.500000  0.500000  1
  Cr  Cr3  1  0.000000  0.500000  0.000000  1
  F  F4  1  0.049005  0.792742  0.743738  1
  F  F5  1  0.567721  0.828837  0.624095  1
  F  F6  1  0.204741  0.828837  0.261115  1
  F  F7  1  0.549005  0.805267  0.256262  1
  F  F8  1  0.250000  0.422020  0.172020  1
  F  F9  1  0.067721  0.443626  0.738885  1
  F  F10  1  0.704741  0.443626  0.375905  1
  F  F11  1  0.295259  0.556374  0.624095  1
  F  F12  1  0.932279  0.556374  0.261115  1
  F  F13  1  0.750000  0.577980  0.827980  1
  F  F14  1  0.450995  0.194733  0.743738  1
  F  F15  1  0.795259  0.171163  0.738885  1
  F  F16  1  0.432279  0.171163  0.375905  1
  F  F17  1  0.950995  0.207258  0.256262  1
