# generated using pymatgen
data_Nd4Al3ZnPd4
_symmetry_space_group_name_H-M   'P 1'
_cell_length_a   4.54979900
_cell_length_b   7.11045755
_cell_length_c   7.92610479
_cell_angle_alpha   89.75228367
_cell_angle_beta   90.00000000
_cell_angle_gamma   90.00000000
_symmetry_Int_Tables_number   1
_chemical_formula_structural   Nd4Al3ZnPd4
_chemical_formula_sum   'Nd4 Al3 Zn1 Pd4'
_cell_volume   256.41622935
_cell_formula_units_Z   1
loop_
 _symmetry_equiv_pos_site_id
 _symmetry_equiv_pos_as_xyz
  1  'x, y, z'
loop_
 _atom_site_type_symbol
 _atom_site_label
 _atom_site_symmetry_multiplicity
 _atom_site_fract_x
 _atom_site_fract_y
 _atom_site_fract_z
 _atom_site_occupancy
  Nd  Nd0  1  0.750000  0.469021  0.181779  1
  Nd  Nd1  1  0.250000  0.031000  0.685080  1
  Nd  Nd2  1  0.750000  0.968690  0.312454  1
  Nd  Nd3  1  0.250000  0.536110  0.820090  1
  Al  Al4  1  0.250000  0.645040  0.435790  1
  Al  Al5  1  0.750000  0.350808  0.565878  1
  Al  Al6  1  0.250000  0.149258  0.065767  1
  Zn  Zn7  1  0.750000  0.846773  0.931711  1
  Pd  Pd8  1  0.750000  0.716168  0.604659  1
  Pd  Pd9  1  0.750000  0.226747  0.887358  1
  Pd  Pd10  1  0.250000  0.279861  0.388207  1
  Pd  Pd11  1  0.250000  0.780524  0.121227  1
