# generated using pymatgen
data_Yb7Ta(Si4W3)4
_symmetry_space_group_name_H-M   'P 1'
_cell_length_a   6.69380049
_cell_length_b   6.86824809
_cell_length_c   12.96473100
_cell_angle_alpha   89.64013507
_cell_angle_beta   89.97810472
_cell_angle_gamma   90.24057517
_symmetry_Int_Tables_number   1
_chemical_formula_structural   Yb7Ta(Si4W3)4
_chemical_formula_sum   'Yb7 Ta1 Si16 W12'
_cell_volume   596.03232955
_cell_formula_units_Z   1
loop_
 _symmetry_equiv_pos_site_id
 _symmetry_equiv_pos_as_xyz
  1  'x, y, z'
loop_
 _atom_site_type_symbol
 _atom_site_label
 _atom_site_symmetry_multiplicity
 _atom_site_fract_x
 _atom_site_fract_y
 _atom_site_fract_z
 _atom_site_occupancy
  Yb  Yb0  1  0.998614  0.166659  0.090158  1
  Yb  Yb1  1  0.002344  0.835731  0.908835  1
  Yb  Yb2  1  0.503126  0.664574  0.910470  1
  Yb  Yb3  1  0.002587  0.834615  0.589549  1
  Yb  Yb4  1  0.498103  0.331743  0.090016  1
  Yb  Yb5  1  0.000464  0.167217  0.411386  1
  Yb  Yb6  1  0.499704  0.331132  0.410557  1
  Ta  Ta7  1  0.501579  0.675620  0.604126  1
  Si  Si8  1  0.032892  0.127582  0.747262  1
  Si  Si9  1  0.964255  0.878551  0.250754  1
  Si  Si10  1  0.465110  0.615916  0.248988  1
  Si  Si11  1  0.535368  0.378882  0.747063  1
  Si  Si12  1  0.298684  0.863614  0.749493  1
  Si  Si13  1  0.700116  0.133928  0.250887  1
  Si  Si14  1  0.199943  0.360710  0.250383  1
  Si  Si15  1  0.800861  0.640467  0.750250  1
  Si  Si16  1  0.173385  0.465043  0.544590  1
  Si  Si17  1  0.835453  0.542770  0.458142  1
  Si  Si18  1  0.338875  0.949604  0.460577  1
  Si  Si19  1  0.839738  0.542322  0.044511  1
  Si  Si20  1  0.659219  0.035952  0.544534  1
  Si  Si21  1  0.159324  0.458508  0.952867  1
  Si  Si22  1  0.660404  0.043059  0.953739  1
  Si  Si23  1  0.338887  0.957715  0.043980  1
  W  W24  1  0.165915  0.499768  0.745728  1
  W  W25  1  0.839306  0.508176  0.251625  1
  W  W26  1  0.340359  0.986653  0.250833  1
  W  W27  1  0.660350  0.003129  0.745763  1
  W  W28  1  0.332671  0.164239  0.623953  1
  W  W29  1  0.660165  0.826851  0.376207  1
  W  W30  1  0.166227  0.665877  0.373144  1
  W  W31  1  0.663748  0.831423  0.127675  1
  W  W32  1  0.828732  0.342649  0.624112  1
  W  W33  1  0.335492  0.168106  0.869542  1
  W  W34  1  0.833218  0.334626  0.871278  1
  W  W35  1  0.164787  0.666591  0.127022  1
