# generated using pymatgen
data_HoTm7Re3B24Rh
_symmetry_space_group_name_H-M   'P 1'
_cell_length_a   3.64332200
_cell_length_b   9.10030763
_cell_length_c   11.47277806
_cell_angle_alpha   90.14505158
_cell_angle_beta   90.00000000
_cell_angle_gamma   90.00000000
_symmetry_Int_Tables_number   1
_chemical_formula_structural   HoTm7Re3B24Rh
_chemical_formula_sum   'Ho1 Tm7 Re3 B24 Rh1'
_cell_volume   380.38276444
_cell_formula_units_Z   1
loop_
 _symmetry_equiv_pos_site_id
 _symmetry_equiv_pos_as_xyz
  1  'x, y, z'
loop_
 _atom_site_type_symbol
 _atom_site_label
 _atom_site_symmetry_multiplicity
 _atom_site_fract_x
 _atom_site_fract_y
 _atom_site_fract_z
 _atom_site_occupancy
  Ho  Ho0  1  0.000000  0.317717  0.415408  1
  Tm  Tm1  1  0.000000  0.678803  0.591588  1
  Tm  Tm2  1  0.000000  0.827035  0.080932  1
  Tm  Tm3  1  0.000000  0.178016  0.912642  1
  Tm  Tm4  1  0.000000  0.942859  0.370249  1
  Tm  Tm5  1  0.000000  0.055794  0.628864  1
  Tm  Tm6  1  0.000000  0.441258  0.128491  1
  Tm  Tm7  1  0.000000  0.556996  0.871956  1
  Re  Re8  1  0.000000  0.362851  0.678190  1
  Re  Re9  1  0.000000  0.137877  0.179668  1
  Re  Re10  1  0.000000  0.861894  0.820878  1
  B  B11  1  0.500000  0.553991  0.434098  1
  B  B12  1  0.500000  0.447129  0.566600  1
  B  B13  1  0.500000  0.053241  0.065931  1
  B  B14  1  0.500000  0.947731  0.932959  1
  B  B15  1  0.500000  0.749265  0.420736  1
  B  B16  1  0.500000  0.249828  0.581059  1
  B  B17  1  0.500000  0.249875  0.080605  1
  B  B18  1  0.500000  0.751501  0.919420  1
  B  B19  1  0.500000  0.791331  0.264595  1
  B  B20  1  0.500000  0.208050  0.734716  1
  B  B21  1  0.500000  0.291969  0.235169  1
  B  B22  1  0.500000  0.707902  0.765664  1
  B  B23  1  0.500000  0.631612  0.183432  1
  B  B24  1  0.500000  0.369917  0.815014  1
  B  B25  1  0.500000  0.129803  0.315144  1
  B  B26  1  0.500000  0.868861  0.684841  1
  B  B27  1  0.500000  0.981468  0.211760  1
  B  B28  1  0.500000  0.018588  0.786973  1
  B  B29  1  0.500000  0.482524  0.287649  1
  B  B30  1  0.500000  0.519330  0.712743  1
  B  B31  1  0.500000  0.603732  0.029278  1
  B  B32  1  0.500000  0.398152  0.972233  1
  B  B33  1  0.500000  0.100016  0.471466  1
  B  B34  1  0.500000  0.895489  0.528062  1
  Rh  Rh35  1  0.000000  0.637597  0.320988  1
