# generated using pymatgen
data_Er7Tm3Co4
_symmetry_space_group_name_H-M   'P 1'
_cell_length_a   6.24156537
_cell_length_b   6.86570728
_cell_length_c   8.42800389
_cell_angle_alpha   96.26828556
_cell_angle_beta   111.69493879
_cell_angle_gamma   90.02761073
_symmetry_Int_Tables_number   1
_chemical_formula_structural   Er7Tm3Co4
_chemical_formula_sum   'Er7 Tm3 Co4'
_cell_volume   333.24774948
_cell_formula_units_Z   1
loop_
 _symmetry_equiv_pos_site_id
 _symmetry_equiv_pos_as_xyz
  1  'x, y, z'
loop_
 _atom_site_type_symbol
 _atom_site_label
 _atom_site_symmetry_multiplicity
 _atom_site_fract_x
 _atom_site_fract_y
 _atom_site_fract_z
 _atom_site_occupancy
  Er  Er0  1  0.981134  0.913197  0.186979  1
  Er  Er1  1  0.794400  0.586853  0.812850  1
  Er  Er2  1  0.018567  0.087292  0.812547  1
  Er  Er3  1  0.205885  0.412533  0.186876  1
  Er  Er4  1  0.650919  0.816986  0.434126  1
  Er  Er5  1  0.216244  0.682627  0.565509  1
  Er  Er6  1  0.348946  0.183167  0.565783  1
  Tm  Tm7  1  0.783121  0.316772  0.433970  1
  Tm  Tm8  1  0.427968  0.750526  0.000012  1
  Tm  Tm9  1  0.572111  0.249909  0.000316  1
  Co  Co10  1  0.823589  0.570723  0.220147  1
  Co  Co11  1  0.603205  0.928850  0.780076  1
  Co  Co12  1  0.176084  0.429158  0.779744  1
  Co  Co13  1  0.397829  0.071407  0.221065  1
