# generated using pymatgen
data_La11Zn8InNi4
_symmetry_space_group_name_H-M   'P 1'
_cell_length_a   13.05300695
_cell_length_b   13.05300795
_cell_length_c   3.78166000
_cell_angle_alpha   90.00000000
_cell_angle_beta   90.00000000
_cell_angle_gamma   113.53891055
_symmetry_Int_Tables_number   1
_chemical_formula_structural   La11Zn8InNi4
_chemical_formula_sum   'La11 Zn8 In1 Ni4'
_cell_volume   590.70830462
_cell_formula_units_Z   1
loop_
 _symmetry_equiv_pos_site_id
 _symmetry_equiv_pos_as_xyz
  1  'x, y, z'
loop_
 _atom_site_type_symbol
 _atom_site_label
 _atom_site_symmetry_multiplicity
 _atom_site_fract_x
 _atom_site_fract_y
 _atom_site_fract_z
 _atom_site_occupancy
  La  La0  1  0.298063  0.298063  0.000000  1
  La  La1  1  0.701937  0.701937  0.000000  1
  La  La2  1  0.000000  0.000000  0.000000  1
  La  La3  1  0.074141  0.421182  0.000000  1
  La  La4  1  0.925859  0.578818  0.000000  1
  La  La5  1  0.421182  0.074141  0.000000  1
  La  La6  1  0.578818  0.925859  0.000000  1
  La  La7  1  0.833654  0.166346  0.000000  1
  La  La8  1  0.166346  0.833654  0.000000  1
  La  La9  1  0.631580  0.368420  0.000000  1
  La  La10  1  0.368420  0.631580  0.000000  1
  Zn  Zn11  1  0.832998  0.363603  0.500000  1
  Zn  Zn12  1  0.167002  0.636397  0.500000  1
  Zn  Zn13  1  0.363603  0.832998  0.500000  1
  Zn  Zn14  1  0.636397  0.167002  0.500000  1
  Zn  Zn15  1  0.071633  0.218952  0.500000  1
  Zn  Zn16  1  0.928367  0.781048  0.500000  1
  Zn  Zn17  1  0.218952  0.071633  0.500000  1
  Zn  Zn18  1  0.781048  0.928367  0.500000  1
  In  In19  1  0.500000  0.500000  0.500000  1
  Ni  Ni20  1  0.246980  0.449735  0.500000  1
  Ni  Ni21  1  0.753020  0.550265  0.500000  1
  Ni  Ni22  1  0.449735  0.246980  0.500000  1
  Ni  Ni23  1  0.550265  0.753020  0.500000  1
