# generated using pymatgen
data_Sr4Li12Ca2Ta3BiO22
_symmetry_space_group_name_H-M   'P 1'
_cell_length_a   5.76103800
_cell_length_b   8.40776100
_cell_length_c   10.56303800
_cell_angle_alpha   90.00000000
_cell_angle_beta   90.00000000
_cell_angle_gamma   90.00000000
_symmetry_Int_Tables_number   1
_chemical_formula_structural   Sr4Li12Ca2Ta3BiO22
_chemical_formula_sum   'Sr4 Li12 Ca2 Ta3 Bi1 O22'
_cell_volume   511.64642022
_cell_formula_units_Z   1
loop_
 _symmetry_equiv_pos_site_id
 _symmetry_equiv_pos_as_xyz
  1  'x, y, z'
loop_
 _atom_site_type_symbol
 _atom_site_label
 _atom_site_symmetry_multiplicity
 _atom_site_fract_x
 _atom_site_fract_y
 _atom_site_fract_z
 _atom_site_occupancy
  Sr  Sr0  1  0.500000  0.264978  0.500000  1
  Sr  Sr1  1  0.500000  0.735022  0.500000  1
  Sr  Sr2  1  0.500000  0.737915  0.000000  1
  Sr  Sr3  1  0.500000  0.262085  0.000000  1
  Li  Li4  1  0.773489  0.315399  0.755277  1
  Li  Li5  1  0.226511  0.684601  0.244723  1
  Li  Li6  1  0.773489  0.684601  0.755277  1
  Li  Li7  1  0.226511  0.315399  0.244723  1
  Li  Li8  1  0.000000  0.360147  0.500000  1
  Li  Li9  1  0.000000  0.639853  0.500000  1
  Li  Li10  1  0.000000  0.642930  0.000000  1
  Li  Li11  1  0.000000  0.357070  0.000000  1
  Li  Li12  1  0.157545  0.146078  0.754342  1
  Li  Li13  1  0.842455  0.853922  0.245658  1
  Li  Li14  1  0.157545  0.853922  0.754342  1
  Li  Li15  1  0.842455  0.146078  0.245658  1
  Ca  Ca16  1  0.621668  0.000000  0.753440  1
  Ca  Ca17  1  0.378332  0.000000  0.246560  1
  Ta  Ta18  1  0.258910  0.500000  0.751734  1
  Ta  Ta19  1  0.741090  0.500000  0.248266  1
  Ta  Ta20  1  0.000000  0.000000  0.000000  1
  Bi  Bi21  1  0.000000  0.000000  0.500000  1
  O  O22  1  0.249789  0.500000  0.561375  1
  O  O23  1  0.750211  0.500000  0.438625  1
  O  O24  1  0.248980  0.500000  0.942249  1
  O  O25  1  0.751020  0.500000  0.057751  1
  O  O26  1  0.303141  0.000000  0.616586  1
  O  O27  1  0.696859  0.000000  0.383414  1
  O  O28  1  0.289804  0.000000  0.892259  1
  O  O29  1  0.710196  0.000000  0.107741  1
  O  O30  1  0.135692  0.170807  0.111528  1
  O  O31  1  0.864308  0.829193  0.888472  1
  O  O32  1  0.138402  0.819030  0.381764  1
  O  O33  1  0.864308  0.170807  0.888472  1
  O  O34  1  0.861598  0.180970  0.618236  1
  O  O35  1  0.135692  0.829193  0.111528  1
  O  O36  1  0.861598  0.819030  0.618236  1
  O  O37  1  0.138402  0.180970  0.381764  1
  O  O38  1  0.427988  0.301293  0.752953  1
  O  O39  1  0.572012  0.698707  0.247047  1
  O  O40  1  0.427988  0.698707  0.752953  1
  O  O41  1  0.572012  0.301293  0.247047  1
  O  O42  1  0.933296  0.500000  0.752661  1
  O  O43  1  0.066704  0.500000  0.247339  1
