# generated using pymatgen
data_Tb2Tm8Cd3Co
_symmetry_space_group_name_H-M   'P 1'
_cell_length_a   9.48951916
_cell_length_b   9.48654118
_cell_length_c   9.60597000
_cell_angle_alpha   90.00000000
_cell_angle_beta   90.00000000
_cell_angle_gamma   119.98961087
_symmetry_Int_Tables_number   1
_chemical_formula_structural   Tb2Tm8Cd3Co
_chemical_formula_sum   'Tb4 Tm16 Cd6 Co2'
_cell_volume   748.97861313
_cell_formula_units_Z   2
loop_
 _symmetry_equiv_pos_site_id
 _symmetry_equiv_pos_as_xyz
  1  'x, y, z'
loop_
 _atom_site_type_symbol
 _atom_site_label
 _atom_site_symmetry_multiplicity
 _atom_site_fract_x
 _atom_site_fract_y
 _atom_site_fract_z
 _atom_site_occupancy
  Tb  Tb0  1  0.915167  0.457584  0.250000  1
  Tb  Tb1  1  0.458320  0.541648  0.750000  1
  Tb  Tb2  1  0.458320  0.916672  0.750000  1
  Tb  Tb3  1  0.082740  0.541370  0.750000  1
  Tm  Tm4  1  0.000040  0.000020  0.499984  1
  Tm  Tm5  1  0.000040  0.000020  0.000016  1
  Tm  Tm6  1  0.541182  0.457668  0.250000  1
  Tm  Tm7  1  0.541182  0.083514  0.250000  1
  Tm  Tm8  1  0.212833  0.789253  0.435571  1
  Tm  Tm9  1  0.212833  0.423582  0.435571  1
  Tm  Tm10  1  0.576607  0.788304  0.435296  1
  Tm  Tm11  1  0.787363  0.211403  0.562784  1
  Tm  Tm12  1  0.787363  0.575958  0.562784  1
  Tm  Tm13  1  0.424137  0.212067  0.562498  1
  Tm  Tm14  1  0.787363  0.211403  0.937216  1
  Tm  Tm15  1  0.787363  0.575958  0.937216  1
  Tm  Tm16  1  0.424137  0.212067  0.937502  1
  Tm  Tm17  1  0.212833  0.789253  0.064429  1
  Tm  Tm18  1  0.212833  0.423582  0.064429  1
  Tm  Tm19  1  0.576607  0.788304  0.064704  1
  Cd  Cd20  1  0.884424  0.113566  0.250000  1
  Cd  Cd21  1  0.884424  0.770858  0.250000  1
  Cd  Cd22  1  0.230206  0.115103  0.250000  1
  Cd  Cd23  1  0.114002  0.886637  0.750000  1
  Cd  Cd24  1  0.114002  0.227365  0.750000  1
  Cd  Cd25  1  0.772532  0.886266  0.750000  1
  Co  Co26  1  0.333833  0.666917  0.250000  1
  Co  Co27  1  0.667313  0.333656  0.750000  1
