# generated using pymatgen
data_Sc4Al17SiPdRh5
_symmetry_space_group_name_H-M   'P 1'
_cell_length_a   7.46365729
_cell_length_b   7.46369357
_cell_length_c   9.25519001
_cell_angle_alpha   90.02318006
_cell_angle_beta   90.03228394
_cell_angle_gamma   119.61868016
_symmetry_Int_Tables_number   1
_chemical_formula_structural   Sc4Al17SiPdRh5
_chemical_formula_sum   'Sc4 Al17 Si1 Pd1 Rh5'
_cell_volume   448.20553337
_cell_formula_units_Z   1
loop_
 _symmetry_equiv_pos_site_id
 _symmetry_equiv_pos_as_xyz
  1  'x, y, z'
loop_
 _atom_site_type_symbol
 _atom_site_label
 _atom_site_symmetry_multiplicity
 _atom_site_fract_x
 _atom_site_fract_y
 _atom_site_fract_z
 _atom_site_occupancy
  Sc  Sc0  1  0.991735  0.677466  0.249452  1
  Sc  Sc1  1  0.002455  0.329878  0.750331  1
  Sc  Sc2  1  0.679050  0.994566  0.249678  1
  Sc  Sc3  1  0.331087  0.004710  0.750480  1
  Al  Al4  1  0.881870  0.881108  0.750482  1
  Al  Al5  1  0.997515  0.336854  0.079736  1
  Al  Al6  1  0.002745  0.665108  0.922236  1
  Al  Al7  1  0.005621  0.669330  0.579583  1
  Al  Al8  1  0.332789  0.993653  0.418876  1
  Al  Al9  1  0.001433  0.336577  0.419121  1
  Al  Al10  1  0.665373  0.998058  0.579095  1
  Al  Al11  1  0.665458  0.001945  0.921848  1
  Al  Al12  1  0.337166  0.996631  0.079157  1
  Al  Al13  1  0.325361  0.328749  0.565860  1
  Al  Al14  1  0.664979  0.668084  0.441690  1
  Al  Al15  1  0.665940  0.665925  0.054674  1
  Al  Al16  1  0.328041  0.327991  0.938028  1
  Al  Al17  1  0.338224  0.557289  0.249406  1
  Al  Al18  1  0.661753  0.449792  0.752546  1
  Al  Al19  1  0.552388  0.337284  0.247394  1
  Al  Al20  1  0.446074  0.660955  0.750393  1
  Si  Si21  1  0.129612  0.128414  0.249775  1
  Pd  Pd22  1  0.670323  0.324460  0.500000  1
  Rh  Rh23  1  0.670253  0.325531  0.000089  1
  Rh  Rh24  1  0.326105  0.669762  0.999985  1
  Rh  Rh25  1  0.325979  0.669730  0.499876  1
  Rh  Rh26  1  0.000531  0.999953  0.007583  1
  Rh  Rh27  1  0.000141  0.000197  0.492630  1
