# generated using pymatgen
data_Ba8Na14Sr6YbN6
_symmetry_space_group_name_H-M   'P 1'
_cell_length_a   12.35445098
_cell_length_b   12.33545644
_cell_length_c   12.33568449
_cell_angle_alpha   60.61014031
_cell_angle_beta   60.60110857
_cell_angle_gamma   60.60217289
_symmetry_Int_Tables_number   1
_chemical_formula_structural   Ba8Na14Sr6YbN6
_chemical_formula_sum   'Ba8 Na14 Sr6 Yb1 N6'
_cell_volume   1347.45935032
_cell_formula_units_Z   1
loop_
 _symmetry_equiv_pos_site_id
 _symmetry_equiv_pos_as_xyz
  1  'x, y, z'
loop_
 _atom_site_type_symbol
 _atom_site_label
 _atom_site_symmetry_multiplicity
 _atom_site_fract_x
 _atom_site_fract_y
 _atom_site_fract_z
 _atom_site_occupancy
  Ba  Ba0  1  0.321993  0.892071  0.892065  1
  Ba  Ba1  1  0.106025  0.109357  0.109386  1
  Ba  Ba2  1  0.283292  0.707422  0.292071  1
  Ba  Ba3  1  0.712895  0.713621  0.286743  1
  Ba  Ba4  1  0.283308  0.292063  0.707425  1
  Ba  Ba5  1  0.282461  0.712938  0.712910  1
  Ba  Ba6  1  0.707869  0.286871  0.286916  1
  Ba  Ba7  1  0.712917  0.286748  0.713606  1
  Na  Na8  1  0.675525  0.669839  0.669840  1
  Na  Na9  1  0.016084  0.329918  0.329932  1
  Na  Na10  1  0.329371  0.330066  0.016084  1
  Na  Na11  1  0.329374  0.016066  0.330076  1
  Na  Na12  1  0.676275  0.669982  0.983760  1
  Na  Na13  1  0.676266  0.983767  0.669979  1
  Na  Na14  1  0.981321  0.672885  0.672875  1
  Na  Na15  1  0.326999  0.327624  0.327626  1
  Na  Na16  1  0.505344  0.000054  0.000053  1
  Na  Na17  1  0.000459  0.500043  0.500040  1
  Na  Na18  1  0.999537  0.503512  0.998961  1
  Na  Na19  1  0.502028  0.001100  0.496166  1
  Na  Na20  1  0.502036  0.496153  0.001098  1
  Na  Na21  1  0.999537  0.998964  0.503512  1
  Sr  Sr22  1  0.895802  0.897714  0.897672  1
  Sr  Sr23  1  0.693282  0.101127  0.101119  1
  Sr  Sr24  1  0.099231  0.103396  0.691576  1
  Sr  Sr25  1  0.099215  0.691577  0.103373  1
  Sr  Sr26  1  0.895185  0.896925  0.308221  1
  Sr  Sr27  1  0.895197  0.308222  0.896946  1
  Yb  Yb28  1  0.003103  0.000034  0.000039  1
  N  N29  1  0.140590  0.853740  0.147361  1
  N  N30  1  0.856696  0.857550  0.141371  1
  N  N31  1  0.140607  0.147351  0.853745  1
  N  N32  1  0.139111  0.856740  0.856717  1
  N  N33  1  0.854358  0.143176  0.143195  1
  N  N34  1  0.856708  0.141384  0.857540  1
