# generated using pymatgen
data_Tb8Ag2RuPt
_symmetry_space_group_name_H-M   'P 1'
_cell_length_a   9.60624340
_cell_length_b   9.60624144
_cell_length_c   9.63279900
_cell_angle_alpha   59.90850162
_cell_angle_beta   59.90850837
_cell_angle_gamma   59.75006943
_symmetry_Int_Tables_number   1
_chemical_formula_structural   Tb8Ag2RuPt
_chemical_formula_sum   'Tb16 Ag4 Ru2 Pt2'
_cell_volume   626.49530648
_cell_formula_units_Z   2
loop_
 _symmetry_equiv_pos_site_id
 _symmetry_equiv_pos_as_xyz
  1  'x, y, z'
loop_
 _atom_site_type_symbol
 _atom_site_label
 _atom_site_symmetry_multiplicity
 _atom_site_fract_x
 _atom_site_fract_y
 _atom_site_fract_z
 _atom_site_occupancy
  Tb  Tb0  1  0.353462  0.353462  0.356568  1
  Tb  Tb1  1  0.353462  0.353462  0.936508  1
  Tb  Tb2  1  0.348707  0.945773  0.352760  1
  Tb  Tb3  1  0.945773  0.348707  0.352760  1
  Tb  Tb4  1  0.816113  0.186670  0.189123  1
  Tb  Tb5  1  0.186670  0.816113  0.808094  1
  Tb  Tb6  1  0.186670  0.816113  0.189123  1
  Tb  Tb7  1  0.816113  0.186670  0.808094  1
  Tb  Tb8  1  0.185318  0.185318  0.814682  1
  Tb  Tb9  1  0.809358  0.809358  0.190642  1
  Tb  Tb10  1  0.935490  0.559973  0.566558  1
  Tb  Tb11  1  0.559973  0.935490  0.937979  1
  Tb  Tb12  1  0.559973  0.935490  0.566558  1
  Tb  Tb13  1  0.935490  0.559973  0.937979  1
  Tb  Tb14  1  0.562884  0.562884  0.937116  1
  Tb  Tb15  1  0.935432  0.935432  0.564568  1
  Ag  Ag16  1  0.582409  0.582409  0.580913  1
  Ag  Ag17  1  0.582409  0.582409  0.254269  1
  Ag  Ag18  1  0.583098  0.253126  0.581888  1
  Ag  Ag19  1  0.253126  0.583098  0.581888  1
  Ru  Ru20  1  0.145646  0.145646  0.136766  1
  Ru  Ru21  1  0.145646  0.145646  0.571943  1
  Pt  Pt22  1  0.147561  0.569219  0.141611  1
  Pt  Pt23  1  0.569219  0.147561  0.141611  1
