# generated using pymatgen
data_SrThI6
_symmetry_space_group_name_H-M   'P 1'
_cell_length_a   8.15979519
_cell_length_b   8.15979491
_cell_length_c   15.45873094
_cell_angle_alpha   84.14920876
_cell_angle_beta   84.14921103
_cell_angle_gamma   119.34959861
_symmetry_Int_Tables_number   1
_chemical_formula_structural   SrThI6
_chemical_formula_sum   'Sr2 Th2 I12'
_cell_volume   878.68949147
_cell_formula_units_Z   2
loop_
 _symmetry_equiv_pos_site_id
 _symmetry_equiv_pos_as_xyz
  1  'x, y, z'
loop_
 _atom_site_type_symbol
 _atom_site_label
 _atom_site_symmetry_multiplicity
 _atom_site_fract_x
 _atom_site_fract_y
 _atom_site_fract_z
 _atom_site_occupancy
  Sr  Sr0  1  0.084321  0.915679  0.250000  1
  Sr  Sr1  1  0.915679  0.084321  0.750000  1
  Th  Th2  1  0.418804  0.581196  0.250000  1
  Th  Th3  1  0.581196  0.418804  0.750000  1
  I  I4  1  0.312310  0.457039  0.633275  1
  I  I5  1  0.457039  0.312310  0.133275  1
  I  I6  1  0.227091  0.073388  0.869307  1
  I  I7  1  0.073388  0.227091  0.369307  1
  I  I8  1  0.167547  0.642321  0.128773  1
  I  I9  1  0.642321  0.167547  0.628773  1
  I  I10  1  0.357679  0.832453  0.371227  1
  I  I11  1  0.832453  0.357679  0.871227  1
  I  I12  1  0.772909  0.926612  0.130693  1
  I  I13  1  0.926612  0.772909  0.630693  1
  I  I14  1  0.542961  0.687690  0.866725  1
  I  I15  1  0.687690  0.542961  0.366725  1
