# generated using pymatgen
data_Tb2MnGa3Co13
_symmetry_space_group_name_H-M   'P 1'
_cell_length_a   6.35801229
_cell_length_b   6.35801275
_cell_length_c   6.35801200
_cell_angle_alpha   82.81970375
_cell_angle_beta   82.81969415
_cell_angle_gamma   82.81971232
_symmetry_Int_Tables_number   1
_chemical_formula_structural   Tb2MnGa3Co13
_chemical_formula_sum   'Tb2 Mn1 Ga3 Co13'
_cell_volume   251.43651247
_cell_formula_units_Z   1
loop_
 _symmetry_equiv_pos_site_id
 _symmetry_equiv_pos_as_xyz
  1  'x, y, z'
loop_
 _atom_site_type_symbol
 _atom_site_label
 _atom_site_symmetry_multiplicity
 _atom_site_fract_x
 _atom_site_fract_y
 _atom_site_fract_z
 _atom_site_occupancy
  Tb  Tb0  1  0.657298  0.657298  0.657298  1
  Tb  Tb1  1  0.332022  0.332022  0.332022  1
  Mn  Mn2  1  0.908556  0.908556  0.908556  1
  Ga  Ga3  1  0.157772  0.651042  0.651042  1
  Ga  Ga4  1  0.651042  0.651042  0.157772  1
  Ga  Ga5  1  0.651042  0.157772  0.651042  1
  Co  Co6  1  0.097345  0.097345  0.097345  1
  Co  Co7  1  0.004960  0.004960  0.495197  1
  Co  Co8  1  0.004960  0.495197  0.004960  1
  Co  Co9  1  0.495197  0.004960  0.004960  1
  Co  Co10  1  0.289208  0.711256  0.002806  1
  Co  Co11  1  0.711256  0.002806  0.289208  1
  Co  Co12  1  0.002806  0.289208  0.711256  1
  Co  Co13  1  0.289208  0.002806  0.711256  1
  Co  Co14  1  0.002806  0.711256  0.289208  1
  Co  Co15  1  0.711256  0.289208  0.002806  1
  Co  Co16  1  0.854891  0.339187  0.339187  1
  Co  Co17  1  0.339187  0.339187  0.854891  1
  Co  Co18  1  0.339187  0.854891  0.339187  1
