# generated using pymatgen
data_Lu4Ir2Pb5
_symmetry_space_group_name_H-M   'P 1'
_cell_length_a   8.15773790
_cell_length_b   3.48807300
_cell_length_c   9.87114625
_cell_angle_alpha   90.00000000
_cell_angle_beta   94.14395719
_cell_angle_gamma   90.00000000
_symmetry_Int_Tables_number   1
_chemical_formula_structural   Lu4Ir2Pb5
_chemical_formula_sum   'Lu4 Ir2 Pb5'
_cell_volume   280.14702144
_cell_formula_units_Z   1
loop_
 _symmetry_equiv_pos_site_id
 _symmetry_equiv_pos_as_xyz
  1  'x, y, z'
loop_
 _atom_site_type_symbol
 _atom_site_label
 _atom_site_symmetry_multiplicity
 _atom_site_fract_x
 _atom_site_fract_y
 _atom_site_fract_z
 _atom_site_occupancy
  Lu  Lu0  1  0.805024  0.500001  0.160263  1
  Lu  Lu1  1  0.194807  0.500001  0.435927  1
  Lu  Lu2  1  0.805193  0.500001  0.564073  1
  Lu  Lu3  1  0.194975  0.500001  0.839737  1
  Ir  Ir4  1  0.921484  0.000000  0.362248  1
  Ir  Ir5  1  0.078517  0.000000  0.637753  1
  Pb  Pb6  1  0.500000  0.000000  0.000000  1
  Pb  Pb7  1  0.147259  0.000000  0.138183  1
  Pb  Pb8  1  0.538605  0.000000  0.335816  1
  Pb  Pb9  1  0.461394  0.000000  0.664183  1
  Pb  Pb10  1  0.852740  0.000000  0.861818  1
