# generated using pymatgen
data_Dy2Si4Tc3
_symmetry_space_group_name_H-M   'P 1'
_cell_length_a   6.78410700
_cell_length_b   6.78141114
_cell_length_c   6.77357350
_cell_angle_alpha   69.75450738
_cell_angle_beta   90.00000000
_cell_angle_gamma   90.00000000
_symmetry_Int_Tables_number   1
_chemical_formula_structural   Dy2Si4Tc3
_chemical_formula_sum   'Dy4 Si8 Tc6'
_cell_volume   292.37122847
_cell_formula_units_Z   2
loop_
 _symmetry_equiv_pos_site_id
 _symmetry_equiv_pos_as_xyz
  1  'x, y, z'
loop_
 _atom_site_type_symbol
 _atom_site_label
 _atom_site_symmetry_multiplicity
 _atom_site_fract_x
 _atom_site_fract_y
 _atom_site_fract_z
 _atom_site_occupancy
  Dy  Dy0  1  0.667459  0.441997  0.191255  1
  Dy  Dy1  1  0.167459  0.058003  0.808745  1
  Dy  Dy2  1  0.332541  0.558003  0.808745  1
  Dy  Dy3  1  0.832541  0.941997  0.191255  1
  Si  Si4  1  0.448101  0.121501  0.103435  1
  Si  Si5  1  0.948101  0.378499  0.896565  1
  Si  Si6  1  0.551899  0.878499  0.896565  1
  Si  Si7  1  0.051899  0.621501  0.103435  1
  Si  Si8  1  0.857972  0.131088  0.513297  1
  Si  Si9  1  0.357972  0.368912  0.486703  1
  Si  Si10  1  0.142028  0.868912  0.486703  1
  Si  Si11  1  0.642028  0.631088  0.513297  1
  Tc  Tc12  1  0.500000  0.000000  0.500000  1
  Tc  Tc13  1  0.000000  0.500000  0.500000  1
  Tc  Tc14  1  0.149977  0.242435  0.240166  1
  Tc  Tc15  1  0.649977  0.257565  0.759834  1
  Tc  Tc16  1  0.850023  0.757565  0.759834  1
  Tc  Tc17  1  0.350023  0.742435  0.240166  1
