# generated using pymatgen
data_SmThSi3Pd
_symmetry_space_group_name_H-M   'P 1'
_cell_length_a   8.21535325
_cell_length_b   8.21535236
_cell_length_c   8.47680600
_cell_angle_alpha   90.00000000
_cell_angle_beta   90.00000000
_cell_angle_gamma   119.84442681
_symmetry_Int_Tables_number   1
_chemical_formula_structural   SmThSi3Pd
_chemical_formula_sum   'Sm4 Th4 Si12 Pd4'
_cell_volume   496.24255693
_cell_formula_units_Z   4
loop_
 _symmetry_equiv_pos_site_id
 _symmetry_equiv_pos_as_xyz
  1  'x, y, z'
loop_
 _atom_site_type_symbol
 _atom_site_label
 _atom_site_symmetry_multiplicity
 _atom_site_fract_x
 _atom_site_fract_y
 _atom_site_fract_z
 _atom_site_occupancy
  Sm  Sm0  1  0.500803  0.000443  0.250000  1
  Sm  Sm1  1  0.499197  0.999557  0.750000  1
  Sm  Sm2  1  0.999557  0.499197  0.250000  1
  Sm  Sm3  1  0.000443  0.500803  0.750000  1
  Th  Th4  1  0.500474  0.499526  0.250000  1
  Th  Th5  1  0.499526  0.500474  0.750000  1
  Th  Th6  1  0.000072  0.999928  0.250000  1
  Th  Th7  1  0.999928  0.000072  0.750000  1
  Si  Si8  1  0.165162  0.331525  0.000388  1
  Si  Si9  1  0.834838  0.668475  0.999612  1
  Si  Si10  1  0.668475  0.834838  0.000388  1
  Si  Si11  1  0.834838  0.668475  0.500388  1
  Si  Si12  1  0.331525  0.165162  0.999612  1
  Si  Si13  1  0.165162  0.331525  0.499612  1
  Si  Si14  1  0.166573  0.833427  0.000204  1
  Si  Si15  1  0.331525  0.165162  0.500388  1
  Si  Si16  1  0.833427  0.166573  0.999796  1
  Si  Si17  1  0.668475  0.834838  0.499612  1
  Si  Si18  1  0.833427  0.166573  0.500204  1
  Si  Si19  1  0.166573  0.833427  0.499796  1
  Pd  Pd20  1  0.333617  0.666383  0.000719  1
  Pd  Pd21  1  0.666383  0.333617  0.999281  1
  Pd  Pd22  1  0.666383  0.333617  0.500719  1
  Pd  Pd23  1  0.333617  0.666383  0.499281  1
