# generated using pymatgen
data_NaYb(Al3Pt)3
_symmetry_space_group_name_H-M   'P 1'
_cell_length_a   7.65305800
_cell_length_b   7.65495746
_cell_length_c   9.53328500
_cell_angle_alpha   90.00000000
_cell_angle_beta   90.00000000
_cell_angle_gamma   119.69427839
_symmetry_Int_Tables_number   1
_chemical_formula_structural   NaYb(Al3Pt)3
_chemical_formula_sum   'Na2 Yb2 Al18 Pt6'
_cell_volume   485.15518689
_cell_formula_units_Z   2
loop_
 _symmetry_equiv_pos_site_id
 _symmetry_equiv_pos_as_xyz
  1  'x, y, z'
loop_
 _atom_site_type_symbol
 _atom_site_label
 _atom_site_symmetry_multiplicity
 _atom_site_fract_x
 _atom_site_fract_y
 _atom_site_fract_z
 _atom_site_occupancy
  Na  Na0  1  0.669809  0.994495  0.250000  1
  Na  Na1  1  0.330191  0.005505  0.750000  1
  Yb  Yb2  1  0.997599  0.671130  0.250000  1
  Yb  Yb3  1  0.002401  0.328870  0.750000  1
  Al  Al4  1  0.132958  0.129206  0.250000  1
  Al  Al5  1  0.867042  0.870794  0.750000  1
  Al  Al6  1  0.996988  0.330827  0.078316  1
  Al  Al7  1  0.003012  0.669173  0.921684  1
  Al  Al8  1  0.003012  0.669173  0.578316  1
  Al  Al9  1  0.338019  0.000330  0.426227  1
  Al  Al10  1  0.996988  0.330827  0.421684  1
  Al  Al11  1  0.661981  0.999670  0.573773  1
  Al  Al12  1  0.661981  0.999670  0.926227  1
  Al  Al13  1  0.338019  0.000330  0.073773  1
  Al  Al14  1  0.333384  0.330867  0.556597  1
  Al  Al15  1  0.666616  0.669133  0.443403  1
  Al  Al16  1  0.666616  0.669133  0.056597  1
  Al  Al17  1  0.333384  0.330867  0.943403  1
  Al  Al18  1  0.338281  0.544633  0.250000  1
  Al  Al19  1  0.661719  0.455367  0.750000  1
  Al  Al20  1  0.544981  0.338094  0.250000  1
  Al  Al21  1  0.455019  0.661906  0.750000  1
  Pt  Pt22  1  0.674047  0.333229  0.000249  1
  Pt  Pt23  1  0.325953  0.666771  0.999751  1
  Pt  Pt24  1  0.325953  0.666771  0.500249  1
  Pt  Pt25  1  0.674047  0.333229  0.499751  1
  Pt  Pt26  1  0.000000  0.000000  0.000000  1
  Pt  Pt27  1  0.000000  0.000000  0.500000  1
