# generated using pymatgen
data_Tm4Lu4Ga3Os
_symmetry_space_group_name_H-M   'P 1'
_cell_length_a   9.83707000
_cell_length_b   9.83707005
_cell_length_c   6.95398100
_cell_angle_alpha   90.00000000
_cell_angle_beta   90.00000000
_cell_angle_gamma   120.00000656
_symmetry_Int_Tables_number   1
_chemical_formula_structural   Tm4Lu4Ga3Os
_chemical_formula_sum   'Tm8 Lu8 Ga6 Os2'
_cell_volume   582.76790894
_cell_formula_units_Z   2
loop_
 _symmetry_equiv_pos_site_id
 _symmetry_equiv_pos_as_xyz
  1  'x, y, z'
loop_
 _atom_site_type_symbol
 _atom_site_label
 _atom_site_symmetry_multiplicity
 _atom_site_fract_x
 _atom_site_fract_y
 _atom_site_fract_z
 _atom_site_occupancy
  Tm  Tm0  1  0.466189  0.533811  0.294860  1
  Tm  Tm1  1  0.932376  0.466189  0.794860  1
  Tm  Tm2  1  0.533811  0.067624  0.794860  1
  Tm  Tm3  1  0.466189  0.932376  0.294860  1
  Tm  Tm4  1  0.067624  0.533811  0.294860  1
  Tm  Tm5  1  0.533811  0.466189  0.794860  1
  Tm  Tm6  1  0.000000  0.000000  0.265887  1
  Tm  Tm7  1  0.000000  0.000000  0.765887  1
  Lu  Lu8  1  0.172141  0.827859  0.989083  1
  Lu  Lu9  1  0.344280  0.172141  0.489083  1
  Lu  Lu10  1  0.827859  0.655720  0.489083  1
  Lu  Lu11  1  0.172141  0.344280  0.989083  1
  Lu  Lu12  1  0.655720  0.827859  0.989083  1
  Lu  Lu13  1  0.827859  0.172141  0.489083  1
  Lu  Lu14  1  0.333333  0.666667  0.661811  1
  Lu  Lu15  1  0.666667  0.333333  0.161811  1
  Ga  Ga16  1  0.163745  0.836255  0.542347  1
  Ga  Ga17  1  0.327491  0.163745  0.042347  1
  Ga  Ga18  1  0.836255  0.672509  0.042347  1
  Ga  Ga19  1  0.163745  0.327491  0.542347  1
  Ga  Ga20  1  0.672509  0.836255  0.542347  1
  Ga  Ga21  1  0.836255  0.163745  0.042347  1
  Os  Os22  1  0.333333  0.666667  0.055436  1
  Os  Os23  1  0.666667  0.333333  0.555436  1
