# generated using pymatgen
data_SiMo12Pd3(PtN)4
_symmetry_space_group_name_H-M   'P 1'
_cell_length_a   6.87947261
_cell_length_b   6.87756392
_cell_length_c   6.88200717
_cell_angle_alpha   89.98410632
_cell_angle_beta   89.97912996
_cell_angle_gamma   90.00498424
_symmetry_Int_Tables_number   1
_chemical_formula_structural   SiMo12Pd3(PtN)4
_chemical_formula_sum   'Si1 Mo12 Pd3 Pt4 N4'
_cell_volume   325.61533845
_cell_formula_units_Z   1
loop_
 _symmetry_equiv_pos_site_id
 _symmetry_equiv_pos_as_xyz
  1  'x, y, z'
loop_
 _atom_site_type_symbol
 _atom_site_label
 _atom_site_symmetry_multiplicity
 _atom_site_fract_x
 _atom_site_fract_y
 _atom_site_fract_z
 _atom_site_occupancy
  Si  Si0  1  0.186642  0.185197  0.184484  1
  Mo  Mo1  1  0.619022  0.705612  0.951134  1
  Mo  Mo2  1  0.464951  0.871239  0.305535  1
  Mo  Mo3  1  0.709456  0.951842  0.617929  1
  Mo  Mo4  1  0.542606  0.372572  0.203438  1
  Mo  Mo5  1  0.374257  0.204867  0.543891  1
  Mo  Mo6  1  0.203118  0.543630  0.373834  1
  Mo  Mo7  1  0.871680  0.304992  0.465810  1
  Mo  Mo8  1  0.041541  0.120022  0.792947  1
  Mo  Mo9  1  0.306084  0.465409  0.869991  1
  Mo  Mo10  1  0.120048  0.791886  0.043385  1
  Mo  Mo11  1  0.792828  0.043187  0.119700  1
  Mo  Mo12  1  0.949574  0.618004  0.709413  1
  Pd  Pd13  1  0.306346  0.818880  0.686460  1
  Pd  Pd14  1  0.415386  0.068808  0.956767  1
  Pd  Pd15  1  0.818066  0.685288  0.305994  1
  Pt  Pt16  1  0.683750  0.306851  0.818079  1
  Pt  Pt17  1  0.559933  0.562974  0.559279  1
  Pt  Pt18  1  0.071012  0.956532  0.415110  1
  Pt  Pt19  1  0.957809  0.415782  0.070606  1
  N  N20  1  0.376803  0.629399  0.127959  1
  N  N21  1  0.871559  0.871722  0.872268  1
  N  N22  1  0.128155  0.377217  0.629788  1
  N  N23  1  0.629374  0.128087  0.376199  1
