# generated using pymatgen
data_TbSbPdO6
_symmetry_space_group_name_H-M   'P 1'
_cell_length_a   5.24809291
_cell_length_b   5.24808296
_cell_length_c   4.95424739
_cell_angle_alpha   90.01961610
_cell_angle_beta   90.01947807
_cell_angle_gamma   119.96907736
_symmetry_Int_Tables_number   1
_chemical_formula_structural   TbSbPdO6
_chemical_formula_sum   'Tb1 Sb1 Pd1 O6'
_cell_volume   118.20767264
_cell_formula_units_Z   1
loop_
 _symmetry_equiv_pos_site_id
 _symmetry_equiv_pos_as_xyz
  1  'x, y, z'
loop_
 _atom_site_type_symbol
 _atom_site_label
 _atom_site_symmetry_multiplicity
 _atom_site_fract_x
 _atom_site_fract_y
 _atom_site_fract_z
 _atom_site_occupancy
  Tb  Tb0  1  0.517483  0.482520  0.500004  1
  Sb  Sb1  1  0.184123  0.815879  0.000003  1
  Pd  Pd2  1  0.850676  0.149329  0.000004  1
  O  O3  1  0.161705  0.124404  0.223652  1
  O  O4  1  0.515182  0.839136  0.224145  1
  O  O5  1  0.876489  0.485412  0.224107  1
  O  O6  1  0.514590  0.123512  0.775900  1
  O  O7  1  0.160866  0.484820  0.775861  1
  O  O8  1  0.875600  0.838297  0.776354  1
