# generated using pymatgen
data_Nd4AgSn7Pd12
_symmetry_space_group_name_H-M   'P 1'
_cell_length_a   4.82021500
_cell_length_b   10.33170384
_cell_length_c   9.84794800
_cell_angle_alpha   89.83119640
_cell_angle_beta   90.00000000
_cell_angle_gamma   90.00000000
_symmetry_Int_Tables_number   1
_chemical_formula_structural   Nd4AgSn7Pd12
_chemical_formula_sum   'Nd4 Ag1 Sn7 Pd12'
_cell_volume   490.43586294
_cell_formula_units_Z   1
loop_
 _symmetry_equiv_pos_site_id
 _symmetry_equiv_pos_as_xyz
  1  'x, y, z'
loop_
 _atom_site_type_symbol
 _atom_site_label
 _atom_site_symmetry_multiplicity
 _atom_site_fract_x
 _atom_site_fract_y
 _atom_site_fract_z
 _atom_site_occupancy
  Nd  Nd0  1  0.250000  0.438643  0.733731  1
  Nd  Nd1  1  0.250000  0.067529  0.239080  1
  Nd  Nd2  1  0.750000  0.568719  0.270986  1
  Nd  Nd3  1  0.750000  0.927552  0.759397  1
  Ag  Ag4  1  0.750000  0.655175  0.611750  1
  Sn  Sn5  1  0.250000  0.863995  0.521566  1
  Sn  Sn6  1  0.250000  0.625108  0.022565  1
  Sn  Sn7  1  0.750000  0.127407  0.479501  1
  Sn  Sn8  1  0.750000  0.374809  0.977501  1
  Sn  Sn9  1  0.250000  0.149896  0.885265  1
  Sn  Sn10  1  0.250000  0.349798  0.387663  1
  Sn  Sn11  1  0.750000  0.850372  0.113065  1
  Pd  Pd12  1  0.250000  0.135490  0.601319  1
  Pd  Pd13  1  0.250000  0.360676  0.101671  1
  Pd  Pd14  1  0.750000  0.870110  0.393048  1
  Pd  Pd15  1  0.750000  0.643894  0.905117  1
  Pd  Pd16  1  0.250000  0.728006  0.754686  1
  Pd  Pd17  1  0.250000  0.772123  0.251442  1
  Pd  Pd18  1  0.750000  0.271324  0.244654  1
  Pd  Pd19  1  0.750000  0.227498  0.748720  1
  Pd  Pd20  1  0.250000  0.904132  0.981603  1
  Pd  Pd21  1  0.250000  0.595059  0.479536  1
  Pd  Pd22  1  0.750000  0.094518  0.016928  1
  Pd  Pd23  1  0.750000  0.398169  0.519201  1
