# generated using pymatgen
data_Sr2InGa3I16
_symmetry_space_group_name_H-M   'P 1'
_cell_length_a   8.38933270
_cell_length_b   8.60594282
_cell_length_c   15.87040300
_cell_angle_alpha   87.66545765
_cell_angle_beta   90.43671612
_cell_angle_gamma   90.08567572
_symmetry_Int_Tables_number   1
_chemical_formula_structural   Sr2InGa3I16
_chemical_formula_sum   'Sr2 In1 Ga3 I16'
_cell_volume   1144.82815511
_cell_formula_units_Z   1
loop_
 _symmetry_equiv_pos_site_id
 _symmetry_equiv_pos_as_xyz
  1  'x, y, z'
loop_
 _atom_site_type_symbol
 _atom_site_label
 _atom_site_symmetry_multiplicity
 _atom_site_fract_x
 _atom_site_fract_y
 _atom_site_fract_z
 _atom_site_occupancy
  Sr  Sr0  1  0.753628  0.078580  0.814440  1
  Sr  Sr1  1  0.247333  0.078127  0.312002  1
  In  In2  1  0.934265  0.224117  0.578293  1
  Ga  Ga3  1  0.065675  0.221133  0.079702  1
  Ga  Ga4  1  0.571249  0.642337  0.777688  1
  Ga  Ga5  1  0.428719  0.642191  0.277296  1
  I  I6  1  0.424223  0.615388  0.639842  1
  I  I7  1  0.574840  0.615719  0.140380  1
  I  I8  1  0.869726  0.725140  0.760404  1
  I  I9  1  0.130395  0.724307  0.258875  1
  I  I10  1  0.939792  0.496506  0.488956  1
  I  I11  1  0.060006  0.477013  0.996208  1
  I  I12  1  0.922201  0.994513  0.002826  1
  I  I13  1  0.086282  0.981939  0.498311  1
  I  I14  1  0.625634  0.122625  0.616270  1
  I  I15  1  0.357905  0.128581  0.112548  1
  I  I16  1  0.558805  0.389638  0.876349  1
  I  I17  1  0.441737  0.389361  0.376199  1
  I  I18  1  0.440970  0.858756  0.867410  1
  I  I19  1  0.560512  0.859560  0.367139  1
  I  I20  1  0.924567  0.235095  0.226403  1
  I  I21  1  0.081536  0.234168  0.736863  1
