# generated using pymatgen
data_Nd5SmCd23As
_symmetry_space_group_name_H-M   'P 1'
_cell_length_a   10.06966638
_cell_length_b   10.07362044
_cell_length_c   10.07362078
_cell_angle_alpha   59.97402982
_cell_angle_beta   60.01298797
_cell_angle_gamma   60.01298711
_symmetry_Int_Tables_number   1
_chemical_formula_structural   Nd5SmCd23As
_chemical_formula_sum   'Nd5 Sm1 Cd23 As1'
_cell_volume   722.55539397
_cell_formula_units_Z   1
loop_
 _symmetry_equiv_pos_site_id
 _symmetry_equiv_pos_as_xyz
  1  'x, y, z'
loop_
 _atom_site_type_symbol
 _atom_site_label
 _atom_site_symmetry_multiplicity
 _atom_site_fract_x
 _atom_site_fract_y
 _atom_site_fract_z
 _atom_site_occupancy
  Nd  Nd0  1  0.792848  0.792563  0.207152  1
  Nd  Nd1  1  0.207437  0.792563  0.207152  1
  Nd  Nd2  1  0.793385  0.206615  0.206615  1
  Nd  Nd3  1  0.207437  0.207152  0.792563  1
  Nd  Nd4  1  0.792848  0.207152  0.792563  1
  Sm  Sm5  1  0.206209  0.793791  0.793791  1
  Cd  Cd6  1  0.834041  0.833944  0.497975  1
  Cd  Cd7  1  0.834041  0.497975  0.833944  1
  Cd  Cd8  1  0.496903  0.834105  0.834105  1
  Cd  Cd9  1  0.834889  0.834105  0.834105  1
  Cd  Cd10  1  0.165895  0.165111  0.503097  1
  Cd  Cd11  1  0.165895  0.503097  0.165111  1
  Cd  Cd12  1  0.502025  0.165959  0.165959  1
  Cd  Cd13  1  0.166056  0.165959  0.165959  1
  Cd  Cd14  1  0.621980  0.622089  0.133952  1
  Cd  Cd15  1  0.621980  0.133952  0.622089  1
  Cd  Cd16  1  0.134519  0.622360  0.622360  1
  Cd  Cd17  1  0.620762  0.622360  0.622360  1
  Cd  Cd18  1  0.377640  0.379238  0.865481  1
  Cd  Cd19  1  0.377640  0.865481  0.379238  1
  Cd  Cd20  1  0.866048  0.378020  0.378020  1
  Cd  Cd21  1  0.377911  0.378020  0.378020  1
  Cd  Cd22  1  0.000241  0.999759  0.500232  1
  Cd  Cd23  1  0.499768  0.999759  0.500232  1
  Cd  Cd24  1  0.000240  0.499760  0.499760  1
  Cd  Cd25  1  0.499768  0.500232  0.999759  1
  Cd  Cd26  1  0.000241  0.500232  0.999759  1
  Cd  Cd27  1  0.500240  0.999760  0.999760  1
  Cd  Cd28  1  0.500148  0.499852  0.499852  1
  As  As29  1  0.000963  0.999037  0.999037  1
