# generated using pymatgen
data_Hf4FeRh
_symmetry_space_group_name_H-M   'P 1'
_cell_length_a   8.57689889
_cell_length_b   8.57086664
_cell_length_c   8.56993901
_cell_angle_alpha   60.00988317
_cell_angle_beta   60.02818813
_cell_angle_gamma   60.03965378
_symmetry_Int_Tables_number   1
_chemical_formula_structural   Hf4FeRh
_chemical_formula_sum   'Hf16 Fe4 Rh4'
_cell_volume   445.73084906
_cell_formula_units_Z   4
loop_
 _symmetry_equiv_pos_site_id
 _symmetry_equiv_pos_as_xyz
  1  'x, y, z'
loop_
 _atom_site_type_symbol
 _atom_site_label
 _atom_site_symmetry_multiplicity
 _atom_site_fract_x
 _atom_site_fract_y
 _atom_site_fract_z
 _atom_site_occupancy
  Hf  Hf0  1  0.683629  0.105537  0.105480  1
  Hf  Hf1  1  0.105436  0.682992  0.105823  1
  Hf  Hf2  1  0.105375  0.105835  0.683091  1
  Hf  Hf3  1  0.105310  0.105801  0.105747  1
  Hf  Hf4  1  0.311913  0.311900  0.688112  1
  Hf  Hf5  1  0.688051  0.688099  0.311972  1
  Hf  Hf6  1  0.311825  0.688137  0.311949  1
  Hf  Hf7  1  0.688030  0.311941  0.688066  1
  Hf  Hf8  1  0.688108  0.311839  0.311957  1
  Hf  Hf9  1  0.311832  0.688152  0.688159  1
  Hf  Hf10  1  0.944104  0.943790  0.555993  1
  Hf  Hf11  1  0.556062  0.555805  0.944008  1
  Hf  Hf12  1  0.944204  0.555996  0.943668  1
  Hf  Hf13  1  0.556054  0.944105  0.555806  1
  Hf  Hf14  1  0.555934  0.944214  0.944035  1
  Hf  Hf15  1  0.944134  0.556076  0.556087  1
  Fe  Fe16  1  0.322400  0.892534  0.892496  1
  Fe  Fe17  1  0.892547  0.322518  0.892479  1
  Fe  Fe18  1  0.892542  0.892487  0.322495  1
  Fe  Fe19  1  0.892547  0.892436  0.892464  1
  Rh  Rh20  1  0.994726  0.335084  0.335114  1
  Rh  Rh21  1  0.335092  0.994865  0.335008  1
  Rh  Rh22  1  0.335083  0.334914  0.994967  1
  Rh  Rh23  1  0.335060  0.334938  0.335023  1
