# generated using pymatgen
data_Th2Sc3Pt4
_symmetry_space_group_name_H-M   'P 1'
_cell_length_a   7.34495600
_cell_length_b   7.66516100
_cell_length_c   13.94710000
_cell_angle_alpha   90.00000000
_cell_angle_beta   90.00000000
_cell_angle_gamma   90.00000000
_symmetry_Int_Tables_number   1
_chemical_formula_structural   Th2Sc3Pt4
_chemical_formula_sum   'Th8 Sc12 Pt16'
_cell_volume   785.22549959
_cell_formula_units_Z   4
loop_
 _symmetry_equiv_pos_site_id
 _symmetry_equiv_pos_as_xyz
  1  'x, y, z'
loop_
 _atom_site_type_symbol
 _atom_site_label
 _atom_site_symmetry_multiplicity
 _atom_site_fract_x
 _atom_site_fract_y
 _atom_site_fract_z
 _atom_site_occupancy
  Th  Th0  1  0.511447  0.321411  0.900719  1
  Th  Th1  1  0.011447  0.178589  0.599281  1
  Th  Th2  1  0.488553  0.678589  0.400719  1
  Th  Th3  1  0.988553  0.821411  0.099281  1
  Th  Th4  1  0.488553  0.678589  0.099281  1
  Th  Th5  1  0.988553  0.821411  0.400719  1
  Th  Th6  1  0.511447  0.321411  0.599281  1
  Th  Th7  1  0.011447  0.178589  0.900719  1
  Sc  Sc8  1  0.352141  0.832171  0.872262  1
  Sc  Sc9  1  0.852141  0.667829  0.627738  1
  Sc  Sc10  1  0.647859  0.167829  0.372262  1
  Sc  Sc11  1  0.147859  0.332171  0.127738  1
  Sc  Sc12  1  0.647859  0.167829  0.127738  1
  Sc  Sc13  1  0.147859  0.332171  0.372262  1
  Sc  Sc14  1  0.352141  0.832171  0.627738  1
  Sc  Sc15  1  0.852141  0.667829  0.872262  1
  Sc  Sc16  1  0.186652  0.509428  0.750000  1
  Sc  Sc17  1  0.686652  0.990572  0.750000  1
  Sc  Sc18  1  0.813348  0.490572  0.250000  1
  Sc  Sc19  1  0.313348  0.009428  0.250000  1
  Pt  Pt20  1  0.313952  0.043071  0.038845  1
  Pt  Pt21  1  0.813952  0.456929  0.461155  1
  Pt  Pt22  1  0.686048  0.956929  0.538845  1
  Pt  Pt23  1  0.186048  0.543071  0.961155  1
  Pt  Pt24  1  0.686048  0.956929  0.961155  1
  Pt  Pt25  1  0.186048  0.543071  0.538845  1
  Pt  Pt26  1  0.313952  0.043071  0.461155  1
  Pt  Pt27  1  0.813952  0.456929  0.038845  1
  Pt  Pt28  1  0.553144  0.629829  0.750000  1
  Pt  Pt29  1  0.053144  0.870171  0.750000  1
  Pt  Pt30  1  0.446856  0.370171  0.250000  1
  Pt  Pt31  1  0.946856  0.129829  0.250000  1
  Pt  Pt32  1  0.314856  0.143773  0.750000  1
  Pt  Pt33  1  0.814856  0.356227  0.750000  1
  Pt  Pt34  1  0.685144  0.856227  0.250000  1
  Pt  Pt35  1  0.185144  0.643773  0.250000  1
