# generated using pymatgen
data_Ho2LuIn3HgPt2
_symmetry_space_group_name_H-M   'P 1'
_cell_length_a   7.87263859
_cell_length_b   7.86619476
_cell_length_c   3.76469900
_cell_angle_alpha   90.00000000
_cell_angle_beta   90.00000000
_cell_angle_gamma   119.84816165
_symmetry_Int_Tables_number   1
_chemical_formula_structural   Ho2LuIn3HgPt2
_chemical_formula_sum   'Ho2 Lu1 In3 Hg1 Pt2'
_cell_volume   202.21266359
_cell_formula_units_Z   1
loop_
 _symmetry_equiv_pos_site_id
 _symmetry_equiv_pos_as_xyz
  1  'x, y, z'
loop_
 _atom_site_type_symbol
 _atom_site_label
 _atom_site_symmetry_multiplicity
 _atom_site_fract_x
 _atom_site_fract_y
 _atom_site_fract_z
 _atom_site_occupancy
  Ho  Ho0  1  0.023756  0.614326  0.500000  1
  Ho  Ho1  1  0.590806  0.976249  0.500000  1
  Lu  Lu2  1  0.383650  0.409505  0.500000  1
  In  In3  1  0.999293  0.261116  0.000000  1
  In  In4  1  0.263012  0.003238  0.000000  1
  In  In5  1  0.738897  0.736651  0.000000  1
  Hg  Hg6  1  0.665083  0.333830  0.000000  1
  Pt  Pt7  1  0.001303  0.001420  0.500000  1
  Pt  Pt8  1  0.334200  0.663665  0.000000  1
