# generated using pymatgen
data_Yb3Y7Ir6
_symmetry_space_group_name_H-M   'P 1'
_cell_length_a   6.32642488
_cell_length_b   10.89107000
_cell_length_c   10.97641269
_cell_angle_alpha   90.00000000
_cell_angle_beta   90.25297509
_cell_angle_gamma   90.00000000
_symmetry_Int_Tables_number   1
_chemical_formula_structural   Yb3Y7Ir6
_chemical_formula_sum   'Yb6 Y14 Ir12'
_cell_volume   756.28432505
_cell_formula_units_Z   2
loop_
 _symmetry_equiv_pos_site_id
 _symmetry_equiv_pos_as_xyz
  1  'x, y, z'
loop_
 _atom_site_type_symbol
 _atom_site_label
 _atom_site_symmetry_multiplicity
 _atom_site_fract_x
 _atom_site_fract_y
 _atom_site_fract_z
 _atom_site_occupancy
  Yb  Yb0  1  0.623285  0.460352  0.339550  1
  Yb  Yb1  1  0.123285  0.039649  0.339550  1
  Yb  Yb2  1  0.501773  0.744417  0.250758  1
  Yb  Yb3  1  0.001773  0.755583  0.250758  1
  Yb  Yb4  1  0.005075  0.247773  0.752787  1
  Yb  Yb5  1  0.505075  0.252227  0.752787  1
  Y  Y6  1  0.376701  0.840320  0.539026  1
  Y  Y7  1  0.876701  0.659680  0.539026  1
  Y  Y8  1  0.879496  0.839346  0.957756  1
  Y  Y9  1  0.379496  0.660654  0.957756  1
  Y  Y10  1  0.881003  0.538485  0.836972  1
  Y  Y11  1  0.381003  0.961515  0.836972  1
  Y  Y12  1  0.378437  0.540110  0.659066  1
  Y  Y13  1  0.878437  0.959890  0.659066  1
  Y  Y14  1  0.617719  0.162401  0.458767  1
  Y  Y15  1  0.117719  0.337599  0.458767  1
  Y  Y16  1  0.118913  0.157060  0.045462  1
  Y  Y17  1  0.618913  0.342940  0.045462  1
  Y  Y18  1  0.115414  0.459728  0.161528  1
  Y  Y19  1  0.615414  0.040273  0.161528  1
  Ir  Ir20  1  0.259471  0.898525  0.084915  1
  Ir  Ir21  1  0.759471  0.601475  0.084915  1
  Ir  Ir22  1  0.740658  0.906199  0.408050  1
  Ir  Ir23  1  0.240658  0.593801  0.408050  1
  Ir  Ir24  1  0.750626  0.093431  0.909322  1
  Ir  Ir25  1  0.250626  0.406569  0.909322  1
  Ir  Ir26  1  0.254475  0.093670  0.599166  1
  Ir  Ir27  1  0.754475  0.406330  0.599166  1
  Ir  Ir28  1  0.118908  0.749988  0.747994  1
  Ir  Ir29  1  0.618908  0.750012  0.747994  1
  Ir  Ir30  1  0.878047  0.250121  0.248883  1
  Ir  Ir31  1  0.378047  0.249879  0.248883  1
