# generated using pymatgen
data_Hf10GaSn5Sb2
_symmetry_space_group_name_H-M   'P 1'
_cell_length_a   5.88080714
_cell_length_b   8.70774607
_cell_length_c   8.70134039
_cell_angle_alpha   120.02435870
_cell_angle_beta   89.99449130
_cell_angle_gamma   90.01099960
_symmetry_Int_Tables_number   1
_chemical_formula_structural   Hf10GaSn5Sb2
_chemical_formula_sum   'Hf10 Ga1 Sn5 Sb2'
_cell_volume   385.79164968
_cell_formula_units_Z   1
loop_
 _symmetry_equiv_pos_site_id
 _symmetry_equiv_pos_as_xyz
  1  'x, y, z'
loop_
 _atom_site_type_symbol
 _atom_site_label
 _atom_site_symmetry_multiplicity
 _atom_site_fract_x
 _atom_site_fract_y
 _atom_site_fract_z
 _atom_site_occupancy
  Hf  Hf0  1  0.499282  0.333703  0.667048  1
  Hf  Hf1  1  0.499282  0.666655  0.332952  1
  Hf  Hf2  1  0.000492  0.666569  0.332582  1
  Hf  Hf3  1  0.000492  0.333987  0.667418  1
  Hf  Hf4  1  0.735512  0.275368  0.000000  1
  Hf  Hf5  1  0.735263  0.725521  0.726013  1
  Hf  Hf6  1  0.735263  0.999508  0.273987  1
  Hf  Hf7  1  0.264289  0.724028  0.000000  1
  Hf  Hf8  1  0.265277  0.275460  0.275432  1
  Hf  Hf9  1  0.265277  0.000029  0.724568  1
  Ga  Ga10  1  0.499201  0.000437  0.000000  1
  Sn  Sn11  1  0.754926  0.389367  0.389313  1
  Sn  Sn12  1  0.754926  0.000054  0.610687  1
  Sn  Sn13  1  0.245344  0.387900  0.000000  1
  Sn  Sn14  1  0.245289  0.611303  0.610776  1
  Sn  Sn15  1  0.245289  0.000526  0.389224  1
  Sb  Sb16  1  0.753665  0.609229  0.000000  1
  Sb  Sb17  1  0.000928  0.000359  0.000000  1
