# generated using pymatgen
data_YTm3(OsO4)4
_symmetry_space_group_name_H-M   'P 1'
_cell_length_a   5.32407578
_cell_length_b   7.66092325
_cell_length_c   7.41348388
_cell_angle_alpha   79.89665709
_cell_angle_beta   91.11315116
_cell_angle_gamma   93.93632180
_symmetry_Int_Tables_number   1
_chemical_formula_structural   YTm3(OsO4)4
_chemical_formula_sum   'Y1 Tm3 Os4 O16'
_cell_volume   296.97664309
_cell_formula_units_Z   1
loop_
 _symmetry_equiv_pos_site_id
 _symmetry_equiv_pos_as_xyz
  1  'x, y, z'
loop_
 _atom_site_type_symbol
 _atom_site_label
 _atom_site_symmetry_multiplicity
 _atom_site_fract_x
 _atom_site_fract_y
 _atom_site_fract_z
 _atom_site_occupancy
  Y  Y0  1  0.801869  0.830910  0.896970  1
  Tm  Tm1  1  0.261568  0.114141  0.610949  1
  Tm  Tm2  1  0.737393  0.887520  0.389106  1
  Tm  Tm3  1  0.196876  0.168465  0.105050  1
  Os  Os4  1  0.246099  0.665374  0.206799  1
  Os  Os5  1  0.752560  0.333976  0.794339  1
  Os  Os6  1  0.714670  0.334472  0.299969  1
  Os  Os7  1  0.283988  0.665482  0.698952  1
  O  O8  1  0.056815  0.465096  0.708560  1
  O  O9  1  0.940866  0.535370  0.290801  1
  O  O10  1  0.607827  0.323035  0.551206  1
  O  O11  1  0.391751  0.674375  0.449379  1
  O  O12  1  0.850271  0.317946  0.055544  1
  O  O13  1  0.156690  0.682172  0.944704  1
  O  O14  1  0.404213  0.439471  0.197155  1
  O  O15  1  0.592451  0.558389  0.801911  1
  O  O16  1  0.052492  0.889366  0.180968  1
  O  O17  1  0.952069  0.113968  0.819701  1
  O  O18  1  0.489320  0.107951  0.320636  1
  O  O19  1  0.509035  0.893367  0.674116  1
  O  O20  1  0.446167  0.194514  0.871349  1
  O  O21  1  0.553770  0.803989  0.134405  1
  O  O22  1  0.979029  0.163234  0.383579  1
  O  O23  1  0.022211  0.837416  0.613852  1
