# generated using pymatgen
data_Pa4NiSn2Os3
_symmetry_space_group_name_H-M   'P 1'
_cell_length_a   7.60372478
_cell_length_b   7.60372478
_cell_length_c   3.62182500
_cell_angle_alpha   90.00000000
_cell_angle_beta   90.00000000
_cell_angle_gamma   89.72571754
_symmetry_Int_Tables_number   1
_chemical_formula_structural   Pa4NiSn2Os3
_chemical_formula_sum   'Pa4 Ni1 Sn2 Os3'
_cell_volume   209.39931856
_cell_formula_units_Z   1
loop_
 _symmetry_equiv_pos_site_id
 _symmetry_equiv_pos_as_xyz
  1  'x, y, z'
loop_
 _atom_site_type_symbol
 _atom_site_label
 _atom_site_symmetry_multiplicity
 _atom_site_fract_x
 _atom_site_fract_y
 _atom_site_fract_z
 _atom_site_occupancy
  Pa  Pa0  1  0.674513  0.165711  0.500000  1
  Pa  Pa1  1  0.334289  0.825487  0.500000  1
  Pa  Pa2  1  0.830435  0.669565  0.500000  1
  Pa  Pa3  1  0.168425  0.331575  0.500000  1
  Ni  Ni4  1  0.363626  0.136374  0.000000  1
  Sn  Sn5  1  0.499532  0.492445  0.000000  1
  Sn  Sn6  1  0.007555  0.000468  0.000000  1
  Os  Os7  1  0.622128  0.877872  0.000000  1
  Os  Os8  1  0.136054  0.636557  0.000000  1
  Os  Os9  1  0.863443  0.363946  0.000000  1
