# generated using pymatgen
data_Sc3Al3RhAu2
_symmetry_space_group_name_H-M   'P 1'
_cell_length_a   7.37378700
_cell_length_b   7.37378773
_cell_length_c   6.95401200
_cell_angle_alpha   90.00000000
_cell_angle_beta   90.00000000
_cell_angle_gamma   119.99999222
_symmetry_Int_Tables_number   1
_chemical_formula_structural   Sc3Al3RhAu2
_chemical_formula_sum   'Sc6 Al6 Rh2 Au4'
_cell_volume   327.45175430
_cell_formula_units_Z   2
loop_
 _symmetry_equiv_pos_site_id
 _symmetry_equiv_pos_as_xyz
  1  'x, y, z'
loop_
 _atom_site_type_symbol
 _atom_site_label
 _atom_site_symmetry_multiplicity
 _atom_site_fract_x
 _atom_site_fract_y
 _atom_site_fract_z
 _atom_site_occupancy
  Sc  Sc0  1  0.601867  0.993649  0.750000  1
  Sc  Sc1  1  0.006351  0.608218  0.750000  1
  Sc  Sc2  1  0.391782  0.398133  0.750000  1
  Sc  Sc3  1  0.993649  0.601867  0.250000  1
  Sc  Sc4  1  0.608218  0.006351  0.250000  1
  Sc  Sc5  1  0.398133  0.391782  0.250000  1
  Al  Al6  1  0.742994  0.742994  0.000000  1
  Al  Al7  1  0.257006  0.000000  0.000000  1
  Al  Al8  1  0.000000  0.257006  0.000000  1
  Al  Al9  1  0.742994  0.742994  0.500000  1
  Al  Al10  1  0.257006  0.000000  0.500000  1
  Al  Al11  1  0.000000  0.257006  0.500000  1
  Rh  Rh12  1  0.000000  0.000000  0.750000  1
  Rh  Rh13  1  0.000000  0.000000  0.250000  1
  Au  Au14  1  0.666667  0.333333  0.991076  1
  Au  Au15  1  0.666667  0.333333  0.508924  1
  Au  Au16  1  0.333333  0.666667  0.491076  1
  Au  Au17  1  0.333333  0.666667  0.008924  1
