# generated using pymatgen
data_Pr5Tm15(BiSb5)2
_symmetry_space_group_name_H-M   'P 1'
_cell_length_a   8.06982377
_cell_length_b   9.28669994
_cell_length_c   11.79595300
_cell_angle_alpha   90.07843491
_cell_angle_beta   90.05538714
_cell_angle_gamma   90.01285578
_symmetry_Int_Tables_number   1
_chemical_formula_structural   Pr5Tm15(BiSb5)2
_chemical_formula_sum   'Pr5 Tm15 Bi2 Sb10'
_cell_volume   884.01142226
_cell_formula_units_Z   1
loop_
 _symmetry_equiv_pos_site_id
 _symmetry_equiv_pos_as_xyz
  1  'x, y, z'
loop_
 _atom_site_type_symbol
 _atom_site_label
 _atom_site_symmetry_multiplicity
 _atom_site_fract_x
 _atom_site_fract_y
 _atom_site_fract_z
 _atom_site_occupancy
  Pr  Pr0  1  0.189512  0.557605  0.439446  1
  Pr  Pr1  1  0.318557  0.251005  0.220065  1
  Pr  Pr2  1  0.820201  0.248226  0.279282  1
  Pr  Pr3  1  0.682189  0.751414  0.780053  1
  Pr  Pr4  1  0.182287  0.751165  0.721354  1
  Tm  Tm5  1  0.354116  0.751272  0.216181  1
  Tm  Tm6  1  0.850377  0.751318  0.282550  1
  Tm  Tm7  1  0.648705  0.250959  0.783028  1
  Tm  Tm8  1  0.148893  0.251395  0.717971  1
  Tm  Tm9  1  0.692756  0.562095  0.058159  1
  Tm  Tm10  1  0.192441  0.936361  0.440772  1
  Tm  Tm11  1  0.309380  0.061851  0.935935  1
  Tm  Tm12  1  0.810576  0.437815  0.563945  1
  Tm  Tm13  1  0.309318  0.439244  0.937362  1
  Tm  Tm14  1  0.805378  0.060328  0.564053  1
  Tm  Tm15  1  0.689670  0.938630  0.060473  1
  Tm  Tm16  1  0.474337  0.248106  0.489821  1
  Tm  Tm17  1  0.974420  0.252956  0.009289  1
  Tm  Tm18  1  0.525237  0.752141  0.514652  1
  Tm  Tm19  1  0.024780  0.748530  0.984843  1
  Bi  Bi20  1  0.571309  0.509742  0.327826  1
  Bi  Bi21  1  0.066660  0.990325  0.169945  1
  Sb  Sb22  1  0.405747  0.750249  0.965794  1
  Sb  Sb23  1  0.901586  0.753392  0.536093  1
  Sb  Sb24  1  0.593527  0.250528  0.033705  1
  Sb  Sb25  1  0.090257  0.238855  0.468138  1
  Sb  Sb26  1  0.565368  0.990743  0.329305  1
  Sb  Sb27  1  0.064195  0.510714  0.167480  1
  Sb  Sb28  1  0.435964  0.490018  0.672595  1
  Sb  Sb29  1  0.934368  0.011444  0.829647  1
  Sb  Sb30  1  0.434420  0.011219  0.671987  1
  Sb  Sb31  1  0.933470  0.490348  0.828248  1
