# generated using pymatgen
data_RbPa2I9
_symmetry_space_group_name_H-M   'P 1'
_cell_length_a   7.85359900
_cell_length_b   11.58547585
_cell_length_c   14.85138254
_cell_angle_alpha   66.34773318
_cell_angle_beta   90.00000000
_cell_angle_gamma   90.00000000
_symmetry_Int_Tables_number   1
_chemical_formula_structural   RbPa2I9
_chemical_formula_sum   'Rb2 Pa4 I18'
_cell_volume   1237.78039778
_cell_formula_units_Z   2
loop_
 _symmetry_equiv_pos_site_id
 _symmetry_equiv_pos_as_xyz
  1  'x, y, z'
loop_
 _atom_site_type_symbol
 _atom_site_label
 _atom_site_symmetry_multiplicity
 _atom_site_fract_x
 _atom_site_fract_y
 _atom_site_fract_z
 _atom_site_occupancy
  Rb  Rb0  1  0.590968  0.500000  0.750000  1
  Rb  Rb1  1  0.409032  0.500000  0.250000  1
  Pa  Pa2  1  0.259924  0.831922  0.860531  1
  Pa  Pa3  1  0.740076  0.168078  0.139469  1
  Pa  Pa4  1  0.259924  0.168078  0.639469  1
  Pa  Pa5  1  0.740076  0.831922  0.360531  1
  I  I6  1  0.110974  0.782006  0.055181  1
  I  I7  1  0.889026  0.217994  0.944819  1
  I  I8  1  0.110974  0.217994  0.444819  1
  I  I9  1  0.889026  0.782006  0.555181  1
  I  I10  1  0.113730  0.607790  0.841224  1
  I  I11  1  0.886270  0.392210  0.158776  1
  I  I12  1  0.113730  0.392210  0.658776  1
  I  I13  1  0.886270  0.607790  0.341224  1
  I  I14  1  0.956127  0.000000  0.750000  1
  I  I15  1  0.043873  0.000000  0.250000  1
  I  I16  1  0.413218  0.084536  0.848446  1
  I  I17  1  0.586782  0.915464  0.151554  1
  I  I18  1  0.413218  0.915464  0.651554  1
  I  I19  1  0.586782  0.084536  0.348446  1
  I  I20  1  0.582142  0.697826  0.944001  1
  I  I21  1  0.417858  0.302174  0.055999  1
  I  I22  1  0.582142  0.302174  0.555999  1
  I  I23  1  0.417858  0.697826  0.444001  1
