# generated using pymatgen
data_PrNd3(AuCl6)4
_symmetry_space_group_name_H-M   'P 1'
_cell_length_a   7.74763962
_cell_length_b   10.13197889
_cell_length_c   14.47547504
_cell_angle_alpha   103.61925223
_cell_angle_beta   96.45591917
_cell_angle_gamma   111.99451800
_symmetry_Int_Tables_number   1
_chemical_formula_structural   PrNd3(AuCl6)4
_chemical_formula_sum   'Pr1 Nd3 Au4 Cl24'
_cell_volume   998.28304713
_cell_formula_units_Z   1
loop_
 _symmetry_equiv_pos_site_id
 _symmetry_equiv_pos_as_xyz
  1  'x, y, z'
loop_
 _atom_site_type_symbol
 _atom_site_label
 _atom_site_symmetry_multiplicity
 _atom_site_fract_x
 _atom_site_fract_y
 _atom_site_fract_z
 _atom_site_occupancy
  Pr  Pr0  1  0.579635  0.923463  0.621786  1
  Nd  Nd1  1  0.026535  0.687334  0.128349  1
  Nd  Nd2  1  0.420007  0.075822  0.378201  1
  Nd  Nd3  1  0.973518  0.312750  0.871730  1
  Au  Au4  1  0.294281  0.632821  0.764318  1
  Au  Au5  1  0.499975  0.499807  0.499949  1
  Au  Au6  1  0.705586  0.367050  0.235729  1
  Au  Au7  1  0.000010  0.000009  0.000007  1
  Cl  Cl8  1  0.776929  0.095559  0.969594  1
  Cl  Cl9  1  0.722891  0.154464  0.261156  1
  Cl  Cl10  1  0.276294  0.845429  0.739163  1
  Cl  Cl11  1  0.770212  0.796282  0.028159  1
  Cl  Cl12  1  0.614722  0.192523  0.745159  1
  Cl  Cl13  1  0.310765  0.416934  0.785398  1
  Cl  Cl14  1  0.689246  0.583087  0.214593  1
  Cl  Cl15  1  0.299866  0.622663  0.498691  1
  Cl  Cl16  1  0.229826  0.203730  0.971887  1
  Cl  Cl17  1  0.757816  0.725700  0.522913  1
  Cl  Cl18  1  0.223065  0.904430  0.030401  1
  Cl  Cl19  1  0.729075  0.050455  0.482523  1
  Cl  Cl20  1  0.607988  0.726625  0.747004  1
  Cl  Cl21  1  0.955241  0.058939  0.731047  1
  Cl  Cl22  1  0.242736  0.273792  0.476799  1
  Cl  Cl23  1  0.385554  0.808912  0.255525  1
  Cl  Cl24  1  0.979122  0.540768  0.778972  1
  Cl  Cl25  1  0.760791  0.436508  0.978101  1
  Cl  Cl26  1  0.239259  0.563567  0.021962  1
  Cl  Cl27  1  0.020885  0.459226  0.221013  1
  Cl  Cl28  1  0.392188  0.272855  0.253352  1
  Cl  Cl29  1  0.270213  0.950393  0.516129  1
  Cl  Cl30  1  0.699007  0.376242  0.500851  1
  Cl  Cl31  1  0.046763  0.941858  0.269540  1
