# generated using pymatgen
data_TmNbFeB6
_symmetry_space_group_name_H-M   'P 1'
_cell_length_a   3.34906200
_cell_length_b   8.90982900
_cell_length_c   11.20757700
_cell_angle_alpha   90.00000000
_cell_angle_beta   90.00000000
_cell_angle_gamma   90.00000000
_symmetry_Int_Tables_number   1
_chemical_formula_structural   TmNbFeB6
_chemical_formula_sum   'Tm4 Nb4 Fe4 B24'
_cell_volume   334.42927540
_cell_formula_units_Z   4
loop_
 _symmetry_equiv_pos_site_id
 _symmetry_equiv_pos_as_xyz
  1  'x, y, z'
loop_
 _atom_site_type_symbol
 _atom_site_label
 _atom_site_symmetry_multiplicity
 _atom_site_fract_x
 _atom_site_fract_y
 _atom_site_fract_z
 _atom_site_occupancy
  Tm  Tm0  1  0.000000  0.823485  0.086366  1
  Tm  Tm1  1  0.000000  0.176515  0.913634  1
  Tm  Tm2  1  0.000000  0.323485  0.413634  1
  Tm  Tm3  1  0.000000  0.676515  0.586366  1
  Nb  Nb4  1  0.000000  0.444972  0.127915  1
  Nb  Nb5  1  0.000000  0.555028  0.872085  1
  Nb  Nb6  1  0.000000  0.944972  0.372085  1
  Nb  Nb7  1  0.000000  0.055028  0.627915  1
  Fe  Fe8  1  0.000000  0.143296  0.183001  1
  Fe  Fe9  1  0.000000  0.856704  0.816999  1
  Fe  Fe10  1  0.000000  0.643296  0.316999  1
  Fe  Fe11  1  0.000000  0.356704  0.683001  1
  B  B12  1  0.500000  0.054515  0.067095  1
  B  B13  1  0.500000  0.945485  0.932905  1
  B  B14  1  0.500000  0.554515  0.432905  1
  B  B15  1  0.500000  0.445485  0.567095  1
  B  B16  1  0.500000  0.251163  0.082779  1
  B  B17  1  0.500000  0.748837  0.917221  1
  B  B18  1  0.500000  0.751163  0.417221  1
  B  B19  1  0.500000  0.248837  0.582779  1
  B  B20  1  0.500000  0.296787  0.236802  1
  B  B21  1  0.500000  0.703213  0.763198  1
  B  B22  1  0.500000  0.796787  0.263198  1
  B  B23  1  0.500000  0.203213  0.736802  1
  B  B24  1  0.500000  0.130973  0.316698  1
  B  B25  1  0.500000  0.869027  0.683302  1
  B  B26  1  0.500000  0.630973  0.183302  1
  B  B27  1  0.500000  0.369027  0.816698  1
  B  B28  1  0.500000  0.482625  0.287563  1
  B  B29  1  0.500000  0.517375  0.712437  1
  B  B30  1  0.500000  0.982625  0.212437  1
  B  B31  1  0.500000  0.017375  0.787563  1
  B  B32  1  0.500000  0.101304  0.473393  1
  B  B33  1  0.500000  0.898696  0.526607  1
  B  B34  1  0.500000  0.601304  0.026607  1
  B  B35  1  0.500000  0.398696  0.973393  1
