# generated using pymatgen
data_YHo3Co5Si10Ru
_symmetry_space_group_name_H-M   'P 1'
_cell_length_a   7.95486747
_cell_length_b   7.95573057
_cell_length_c   7.95691030
_cell_angle_alpha   139.26397155
_cell_angle_beta   106.48177025
_cell_angle_gamma   87.61801999
_symmetry_Int_Tables_number   1
_chemical_formula_structural   YHo3Co5Si10Ru
_chemical_formula_sum   'Y1 Ho3 Co5 Si10 Ru1'
_cell_volume   302.77104960
_cell_formula_units_Z   1
loop_
 _symmetry_equiv_pos_site_id
 _symmetry_equiv_pos_as_xyz
  1  'x, y, z'
loop_
 _atom_site_type_symbol
 _atom_site_label
 _atom_site_symmetry_multiplicity
 _atom_site_fract_x
 _atom_site_fract_y
 _atom_site_fract_z
 _atom_site_occupancy
  Y  Y0  1  0.402598  0.145791  0.278281  1
  Ho  Ho1  1  0.867751  0.624635  0.221506  1
  Ho  Ho2  1  0.132563  0.354210  0.757033  1
  Ho  Ho3  1  0.597070  0.875255  0.743264  1
  Co  Co4  1  0.743011  0.125476  0.589972  1
  Co  Co5  1  0.535842  0.652886  0.910631  1
  Co  Co6  1  0.464367  0.375153  0.117662  1
  Co  Co7  1  0.999575  0.749858  0.749859  1
  Co  Co8  1  0.257346  0.846800  0.382169  1
  Si  Si9  1  0.062681  0.883270  0.147973  1
  Si  Si10  1  0.936696  0.084604  0.820079  1
  Si  Si11  1  0.264308  0.616476  0.679457  1
  Si  Si12  1  0.735406  0.415511  0.351783  1
  Si  Si13  1  0.227544  0.977681  0.749607  1
  Si  Si14  1  0.772886  0.522896  0.750374  1
  Si  Si15  1  0.779088  0.028508  0.249943  1
  Si  Si16  1  0.500201  0.249991  0.750803  1
  Si  Si17  1  0.500521  0.749749  0.250346  1
  Si  Si18  1  0.220943  0.471404  0.249703  1
  Ru  Ru19  1  0.999606  0.249844  0.249556  1
