# generated using pymatgen
data_DyHo3Pt4F28
_symmetry_space_group_name_H-M   'P 1'
_cell_length_a   5.53992606
_cell_length_b   8.86476570
_cell_length_c   11.97434713
_cell_angle_alpha   62.49421327
_cell_angle_beta   89.98353744
_cell_angle_gamma   89.98704323
_symmetry_Int_Tables_number   1
_chemical_formula_structural   DyHo3Pt4F28
_chemical_formula_sum   'Dy1 Ho3 Pt4 F28'
_cell_volume   521.58986193
_cell_formula_units_Z   1
loop_
 _symmetry_equiv_pos_site_id
 _symmetry_equiv_pos_as_xyz
  1  'x, y, z'
loop_
 _atom_site_type_symbol
 _atom_site_label
 _atom_site_symmetry_multiplicity
 _atom_site_fract_x
 _atom_site_fract_y
 _atom_site_fract_z
 _atom_site_occupancy
  Dy  Dy0  1  0.760869  0.813919  0.764455  1
  Ho  Ho1  1  0.260913  0.186217  0.735631  1
  Ho  Ho2  1  0.239048  0.185790  0.235711  1
  Ho  Ho3  1  0.739066  0.814222  0.264309  1
  Pt  Pt4  1  0.758978  0.271972  0.957039  1
  Pt  Pt5  1  0.258961  0.727596  0.542788  1
  Pt  Pt6  1  0.241155  0.727614  0.043370  1
  Pt  Pt7  1  0.740966  0.272526  0.456795  1
  F  F8  1  0.436310  0.702620  0.915785  1
  F  F9  1  0.936666  0.297234  0.584328  1
  F  F10  1  0.563201  0.297189  0.084398  1
  F  F11  1  0.063041  0.702773  0.415422  1
  F  F12  1  0.439457  0.277776  0.542863  1
  F  F13  1  0.939734  0.721975  0.957591  1
  F  F14  1  0.560788  0.722304  0.456983  1
  F  F15  1  0.060531  0.277686  0.042947  1
  F  F16  1  0.774913  0.521474  0.858353  1
  F  F17  1  0.274860  0.477990  0.641761  1
  F  F18  1  0.225162  0.477885  0.141856  1
  F  F19  1  0.725133  0.522229  0.358138  1
  F  F20  1  0.754103  0.022610  0.050555  1
  F  F21  1  0.254097  0.977091  0.449537  1
  F  F22  1  0.245824  0.977039  0.949641  1
  F  F23  1  0.745862  0.023110  0.550113  1
  F  F24  1  0.965750  0.724801  0.636318  1
  F  F25  1  0.465666  0.274965  0.863464  1
  F  F26  1  0.034432  0.274970  0.363371  1
  F  F27  1  0.534621  0.725079  0.136651  1
  F  F28  1  0.050943  0.746057  0.175833  1
  F  F29  1  0.550976  0.253983  0.324254  1
  F  F30  1  0.948922  0.253941  0.824306  1
  F  F31  1  0.448075  0.745790  0.675554  1
  F  F32  1  0.415891  0.970210  0.232618  1
  F  F33  1  0.915899  0.029787  0.267390  1
  F  F34  1  0.583602  0.030824  0.767422  1
  F  F35  1  0.085582  0.970752  0.732453  1
