# generated using pymatgen
data_Er8Ti8Nb3Si16Rh
_symmetry_space_group_name_H-M   'P 1'
_cell_length_a   7.01934829
_cell_length_b   7.01934866
_cell_length_c   12.85296041
_cell_angle_alpha   90.21407038
_cell_angle_beta   89.78593159
_cell_angle_gamma   89.69241579
_symmetry_Int_Tables_number   1
_chemical_formula_structural   Er8Ti8Nb3Si16Rh
_chemical_formula_sum   'Er8 Ti8 Nb3 Si16 Rh1'
_cell_volume   633.26345149
_cell_formula_units_Z   1
loop_
 _symmetry_equiv_pos_site_id
 _symmetry_equiv_pos_as_xyz
  1  'x, y, z'
loop_
 _atom_site_type_symbol
 _atom_site_label
 _atom_site_symmetry_multiplicity
 _atom_site_fract_x
 _atom_site_fract_y
 _atom_site_fract_z
 _atom_site_occupancy
  Er  Er0  1  0.341027  0.002361  0.467452  1
  Er  Er1  1  0.497964  0.842279  0.718112  1
  Er  Er2  1  0.501079  0.158311  0.215278  1
  Er  Er3  1  0.842279  0.497964  0.281888  1
  Er  Er4  1  0.158311  0.501079  0.784722  1
  Er  Er5  1  0.658041  0.999244  0.968252  1
  Er  Er6  1  0.002361  0.341027  0.532548  1
  Er  Er7  1  0.999244  0.658041  0.031748  1
  Ti  Ti8  1  0.148046  0.002939  0.875016  1
  Ti  Ti9  1  0.492147  0.656770  0.124979  1
  Ti  Ti10  1  0.508108  0.349301  0.627282  1
  Ti  Ti11  1  0.656770  0.492147  0.875021  1
  Ti  Ti12  1  0.349301  0.508108  0.372718  1
  Ti  Ti13  1  0.849365  0.992307  0.374090  1
  Ti  Ti14  1  0.002939  0.148046  0.124984  1
  Ti  Ti15  1  0.992307  0.849365  0.625910  1
  Nb  Nb16  1  0.174859  0.826292  0.247857  1
  Nb  Nb17  1  0.826292  0.174859  0.752143  1
  Nb  Nb18  1  0.673395  0.673395  0.500000  1
  Si  Si19  1  0.203845  0.132899  0.684397  1
  Si  Si20  1  0.371308  0.703410  0.933695  1
  Si  Si21  1  0.631011  0.294761  0.433680  1
  Si  Si22  1  0.703410  0.371308  0.066305  1
  Si  Si23  1  0.294761  0.631011  0.566320  1
  Si  Si24  1  0.795511  0.867960  0.183286  1
  Si  Si25  1  0.132899  0.203845  0.315603  1
  Si  Si26  1  0.867960  0.795511  0.816714  1
  Si  Si27  1  0.288695  0.952069  0.061307  1
  Si  Si28  1  0.547696  0.793285  0.314140  1
  Si  Si29  1  0.448081  0.209711  0.817483  1
  Si  Si30  1  0.793285  0.547696  0.685860  1
  Si  Si31  1  0.209711  0.448081  0.182517  1
  Si  Si32  1  0.707342  0.048070  0.564260  1
  Si  Si33  1  0.952069  0.288695  0.938693  1
  Si  Si34  1  0.048070  0.707342  0.435740  1
  Rh  Rh35  1  0.330506  0.330506  0.000000  1
