# generated using pymatgen
data_HoSc(Ni2As)4
_symmetry_space_group_name_H-M   'P 1'
_cell_length_a   7.15460550
_cell_length_b   7.15460550
_cell_length_c   3.76973300
_cell_angle_alpha   90.00000000
_cell_angle_beta   90.00000000
_cell_angle_gamma   89.60501693
_symmetry_Int_Tables_number   1
_chemical_formula_structural   HoSc(Ni2As)4
_chemical_formula_sum   'Ho1 Sc1 Ni8 As4'
_cell_volume   192.96193963
_cell_formula_units_Z   1
loop_
 _symmetry_equiv_pos_site_id
 _symmetry_equiv_pos_as_xyz
  1  'x, y, z'
loop_
 _atom_site_type_symbol
 _atom_site_label
 _atom_site_symmetry_multiplicity
 _atom_site_fract_x
 _atom_site_fract_y
 _atom_site_fract_z
 _atom_site_occupancy
  Ho  Ho0  1  0.500000  0.500000  0.000000  1
  Sc  Sc1  1  0.000000  0.000000  0.500000  1
  Ni  Ni2  1  0.590589  0.153677  0.500000  1
  Ni  Ni3  1  0.409411  0.846323  0.500000  1
  Ni  Ni4  1  0.088751  0.345185  0.000000  1
  Ni  Ni5  1  0.911249  0.654815  0.000000  1
  Ni  Ni6  1  0.153677  0.590589  0.500000  1
  Ni  Ni7  1  0.846323  0.409411  0.500000  1
  Ni  Ni8  1  0.345185  0.088751  0.000000  1
  Ni  Ni9  1  0.654815  0.911249  0.000000  1
  As  As10  1  0.723957  0.723957  0.500000  1
  As  As11  1  0.276043  0.276043  0.500000  1
  As  As12  1  0.210825  0.789175  0.000000  1
  As  As13  1  0.789175  0.210825  0.000000  1
