# generated using pymatgen
data_Zr6AlV(Os2N)2
_symmetry_space_group_name_H-M   'P 1'
_cell_length_a   8.58533277
_cell_length_b   8.60393107
_cell_length_c   8.58533209
_cell_angle_alpha   59.92830879
_cell_angle_beta   59.67446206
_cell_angle_gamma   59.92830860
_symmetry_Int_Tables_number   1
_chemical_formula_structural   Zr6AlV(Os2N)2
_chemical_formula_sum   'Zr12 Al2 V2 Os8 N4'
_cell_volume   446.83494393
_cell_formula_units_Z   2
loop_
 _symmetry_equiv_pos_site_id
 _symmetry_equiv_pos_as_xyz
  1  'x, y, z'
loop_
 _atom_site_type_symbol
 _atom_site_label
 _atom_site_symmetry_multiplicity
 _atom_site_fract_x
 _atom_site_fract_y
 _atom_site_fract_z
 _atom_site_occupancy
  Zr  Zr0  1  0.808099  0.807027  0.193512  1
  Zr  Zr1  1  0.193512  0.191362  0.808099  1
  Zr  Zr2  1  0.808267  0.191733  0.808267  1
  Zr  Zr3  1  0.190511  0.809489  0.190511  1
  Zr  Zr4  1  0.193512  0.807027  0.808099  1
  Zr  Zr5  1  0.808099  0.191362  0.193512  1
  Zr  Zr6  1  0.441901  0.442973  0.056488  1
  Zr  Zr7  1  0.056488  0.058638  0.441901  1
  Zr  Zr8  1  0.441733  0.058267  0.441733  1
  Zr  Zr9  1  0.059489  0.440511  0.059489  1
  Zr  Zr10  1  0.056488  0.442973  0.441901  1
  Zr  Zr11  1  0.441901  0.058638  0.056488  1
  Al  Al12  1  0.625000  0.125000  0.625000  1
  Al  Al13  1  0.625000  0.625000  0.625000  1
  V  V14  1  0.125000  0.625000  0.625000  1
  V  V15  1  0.625000  0.625000  0.125000  1
  Os  Os16  1  0.741884  0.422826  0.412461  1
  Os  Os17  1  0.416391  0.744338  0.416391  1
  Os  Os18  1  0.412461  0.422826  0.741884  1
  Os  Os19  1  0.416391  0.422878  0.416391  1
  Os  Os20  1  0.508116  0.827174  0.837539  1
  Os  Os21  1  0.833609  0.505662  0.833609  1
  Os  Os22  1  0.837539  0.827174  0.508116  1
  Os  Os23  1  0.833609  0.827122  0.833609  1
  N  N24  1  0.625000  0.125000  0.125000  1
  N  N25  1  0.125000  0.625000  0.125000  1
  N  N26  1  0.125000  0.125000  0.625000  1
  N  N27  1  0.125000  0.125000  0.125000  1
