# generated using pymatgen
data_GdYGa6
_symmetry_space_group_name_H-M   'P 1'
_cell_length_a   6.31482500
_cell_length_b   6.31480557
_cell_length_c   4.62090600
_cell_angle_alpha   90.00000000
_cell_angle_beta   90.00000000
_cell_angle_gamma   119.99961968
_symmetry_Int_Tables_number   1
_chemical_formula_structural   GdYGa6
_chemical_formula_sum   'Gd1 Y1 Ga6'
_cell_volume   159.58083492
_cell_formula_units_Z   1
loop_
 _symmetry_equiv_pos_site_id
 _symmetry_equiv_pos_as_xyz
  1  'x, y, z'
loop_
 _atom_site_type_symbol
 _atom_site_label
 _atom_site_symmetry_multiplicity
 _atom_site_fract_x
 _atom_site_fract_y
 _atom_site_fract_z
 _atom_site_occupancy
  Gd  Gd0  1  0.333333  0.666666  0.000000  1
  Y  Y1  1  0.000001  0.999999  0.500000  1
  Ga  Ga2  1  0.371797  0.185898  0.000000  1
  Ga  Ga3  1  0.814101  0.185899  0.000000  1
  Ga  Ga4  1  0.814101  0.628202  0.000000  1
  Ga  Ga5  1  0.961537  0.480767  0.500000  1
  Ga  Ga6  1  0.519231  0.480767  0.500000  1
  Ga  Ga7  1  0.519235  0.038468  0.500000  1
