# generated using pymatgen
data_CeTm9Ru4
_symmetry_space_group_name_H-M   'P 1'
_cell_length_a   6.28567273
_cell_length_b   7.17532859
_cell_length_c   8.41443066
_cell_angle_alpha   97.13182829
_cell_angle_beta   111.70400700
_cell_angle_gamma   88.79946643
_symmetry_Int_Tables_number   1
_chemical_formula_structural   CeTm9Ru4
_chemical_formula_sum   'Ce1 Tm9 Ru4'
_cell_volume   349.74498685
_cell_formula_units_Z   1
loop_
 _symmetry_equiv_pos_site_id
 _symmetry_equiv_pos_as_xyz
  1  'x, y, z'
loop_
 _atom_site_type_symbol
 _atom_site_label
 _atom_site_symmetry_multiplicity
 _atom_site_fract_x
 _atom_site_fract_y
 _atom_site_fract_z
 _atom_site_occupancy
  Ce  Ce0  1  0.801483  0.097788  0.811389  1
  Tm  Tm1  1  0.982557  0.417597  0.192377  1
  Tm  Tm2  1  0.209352  0.915574  0.185650  1
  Tm  Tm3  1  0.025547  0.582535  0.815955  1
  Tm  Tm4  1  0.203552  0.182204  0.562455  1
  Tm  Tm5  1  0.640921  0.315124  0.431538  1
  Tm  Tm6  1  0.786364  0.813493  0.430959  1
  Tm  Tm7  1  0.356107  0.686174  0.563879  1
  Tm  Tm8  1  0.426536  0.251390  0.002871  1
  Tm  Tm9  1  0.579476  0.750534  0.998570  1
  Ru  Ru10  1  0.613398  0.405572  0.779076  1
  Ru  Ru11  1  0.827019  0.074434  0.220484  1
  Ru  Ru12  1  0.398442  0.575189  0.222025  1
  Ru  Ru13  1  0.149247  0.932392  0.782773  1
