# generated using pymatgen
data_Ba3LuBiS6
_symmetry_space_group_name_H-M   'P 1'
_cell_length_a   8.54808332
_cell_length_b   8.54808278
_cell_length_c   8.54808364
_cell_angle_alpha   92.00572726
_cell_angle_beta   92.00572681
_cell_angle_gamma   92.00573828
_symmetry_Int_Tables_number   1
_chemical_formula_structural   Ba3LuBiS6
_chemical_formula_sum   'Ba6 Lu2 Bi2 S12'
_cell_volume   623.43054755
_cell_formula_units_Z   2
loop_
 _symmetry_equiv_pos_site_id
 _symmetry_equiv_pos_as_xyz
  1  'x, y, z'
loop_
 _atom_site_type_symbol
 _atom_site_label
 _atom_site_symmetry_multiplicity
 _atom_site_fract_x
 _atom_site_fract_y
 _atom_site_fract_z
 _atom_site_occupancy
  Ba  Ba0  1  0.371729  0.750000  0.128271  1
  Ba  Ba1  1  0.128271  0.371729  0.750000  1
  Ba  Ba2  1  0.750000  0.128271  0.371729  1
  Ba  Ba3  1  0.628271  0.250000  0.871729  1
  Ba  Ba4  1  0.871729  0.628271  0.250000  1
  Ba  Ba5  1  0.250000  0.871729  0.628271  1
  Lu  Lu6  1  0.500000  0.500000  0.500000  1
  Lu  Lu7  1  0.000000  0.000000  0.000000  1
  Bi  Bi8  1  0.250000  0.250000  0.250000  1
  Bi  Bi9  1  0.750000  0.750000  0.750000  1
  S  S10  1  0.543664  0.413421  0.200323  1
  S  S11  1  0.200323  0.543664  0.413421  1
  S  S12  1  0.413421  0.200323  0.543664  1
  S  S13  1  0.956336  0.299677  0.086579  1
  S  S14  1  0.086579  0.956336  0.299677  1
  S  S15  1  0.299677  0.086579  0.956336  1
  S  S16  1  0.456336  0.586579  0.799677  1
  S  S17  1  0.799677  0.456336  0.586579  1
  S  S18  1  0.586579  0.799677  0.456336  1
  S  S19  1  0.043664  0.700323  0.913421  1
  S  S20  1  0.700323  0.913421  0.043664  1
  S  S21  1  0.913421  0.043664  0.700323  1
