# generated using pymatgen
data_Rb2Mn(IBr)2
_symmetry_space_group_name_H-M   'P 1'
_cell_length_a   7.38219343
_cell_length_b   7.38219323
_cell_length_c   11.83972900
_cell_angle_alpha   90.00000000
_cell_angle_beta   90.00000000
_cell_angle_gamma   109.05631520
_symmetry_Int_Tables_number   1
_chemical_formula_structural   Rb2Mn(IBr)2
_chemical_formula_sum   'Rb4 Mn2 I4 Br4'
_cell_volume   609.86743088
_cell_formula_units_Z   2
loop_
 _symmetry_equiv_pos_site_id
 _symmetry_equiv_pos_as_xyz
  1  'x, y, z'
loop_
 _atom_site_type_symbol
 _atom_site_label
 _atom_site_symmetry_multiplicity
 _atom_site_fract_x
 _atom_site_fract_y
 _atom_site_fract_z
 _atom_site_occupancy
  Rb  Rb0  1  0.614961  0.614961  0.500000  1
  Rb  Rb1  1  0.614961  0.614961  0.000000  1
  Rb  Rb2  1  0.248909  0.896500  0.250000  1
  Rb  Rb3  1  0.896500  0.248909  0.750000  1
  Mn  Mn4  1  0.845235  0.294492  0.250000  1
  Mn  Mn5  1  0.294492  0.845235  0.750000  1
  I  I6  1  0.045009  0.462290  0.436016  1
  I  I7  1  0.462290  0.045009  0.563984  1
  I  I8  1  0.045009  0.462290  0.063984  1
  I  I9  1  0.462290  0.045009  0.936016  1
  Br  Br10  1  0.532698  0.361555  0.250000  1
  Br  Br11  1  0.361555  0.532698  0.750000  1
  Br  Br12  1  0.775822  0.938266  0.250000  1
  Br  Br13  1  0.938266  0.775822  0.750000  1
