# generated using pymatgen
data_Dy(TmSe2)2
_symmetry_space_group_name_H-M   'P 1'
_cell_length_a   4.03204600
_cell_length_b   6.93082758
_cell_length_c   6.96751283
_cell_angle_alpha   71.63387180
_cell_angle_beta   90.00000000
_cell_angle_gamma   90.00000000
_symmetry_Int_Tables_number   1
_chemical_formula_structural   Dy(TmSe2)2
_chemical_formula_sum   'Dy1 Tm2 Se4'
_cell_volume   184.79198921
_cell_formula_units_Z   1
loop_
 _symmetry_equiv_pos_site_id
 _symmetry_equiv_pos_as_xyz
  1  'x, y, z'
loop_
 _atom_site_type_symbol
 _atom_site_label
 _atom_site_symmetry_multiplicity
 _atom_site_fract_x
 _atom_site_fract_y
 _atom_site_fract_z
 _atom_site_occupancy
  Dy  Dy0  1  0.000000  0.500000  0.500000  1
  Tm  Tm1  1  0.000000  0.000000  0.000000  1
  Tm  Tm2  1  0.500000  0.500000  0.000000  1
  Se  Se3  1  0.500000  0.757753  0.251044  1
  Se  Se4  1  0.000000  0.253572  0.243313  1
  Se  Se5  1  0.500000  0.242247  0.748956  1
  Se  Se6  1  0.000000  0.746428  0.756687  1
