# generated using pymatgen
data_Sm3Ho(NbRu3)2
_symmetry_space_group_name_H-M   'P 1'
_cell_length_a   5.77359000
_cell_length_b   5.77358978
_cell_length_c   8.01902300
_cell_angle_alpha   89.99673740
_cell_angle_beta   90.00326645
_cell_angle_gamma   120.00147697
_symmetry_Int_Tables_number   1
_chemical_formula_structural   Sm3Ho(NbRu3)2
_chemical_formula_sum   'Sm3 Ho1 Nb2 Ru6'
_cell_volume   231.49280144
_cell_formula_units_Z   1
loop_
 _symmetry_equiv_pos_site_id
 _symmetry_equiv_pos_as_xyz
  1  'x, y, z'
loop_
 _atom_site_type_symbol
 _atom_site_label
 _atom_site_symmetry_multiplicity
 _atom_site_fract_x
 _atom_site_fract_y
 _atom_site_fract_z
 _atom_site_occupancy
  Sm  Sm0  1  0.666649  0.333351  0.560560  1
  Sm  Sm1  1  0.333348  0.666652  0.438526  1
  Sm  Sm2  1  0.333347  0.666653  0.060286  1
  Ho  Ho3  1  0.666660  0.333340  0.940876  1
  Nb  Nb4  1  0.999990  0.000010  0.501241  1
  Nb  Nb5  1  0.999987  0.000013  0.000946  1
  Ru  Ru6  1  0.170431  0.340916  0.750649  1
  Ru  Ru7  1  0.170458  0.829542  0.750640  1
  Ru  Ru8  1  0.659084  0.829569  0.750649  1
  Ru  Ru9  1  0.829243  0.658441  0.248541  1
  Ru  Ru10  1  0.829243  0.170757  0.248543  1
  Ru  Ru11  1  0.341559  0.170757  0.248541  1
