# generated using pymatgen
data_LiHo16Ni4Hg3
_symmetry_space_group_name_H-M   'P 1'
_cell_length_a   9.46295584
_cell_length_b   9.46295496
_cell_length_c   9.46295534
_cell_angle_alpha   60.11649538
_cell_angle_beta   60.11650289
_cell_angle_gamma   60.11649455
_symmetry_Int_Tables_number   1
_chemical_formula_structural   LiHo16Ni4Hg3
_chemical_formula_sum   'Li1 Ho16 Ni4 Hg3'
_cell_volume   600.77260696
_cell_formula_units_Z   1
loop_
 _symmetry_equiv_pos_site_id
 _symmetry_equiv_pos_as_xyz
  1  'x, y, z'
loop_
 _atom_site_type_symbol
 _atom_site_label
 _atom_site_symmetry_multiplicity
 _atom_site_fract_x
 _atom_site_fract_y
 _atom_site_fract_z
 _atom_site_occupancy
  Li  Li0  1  0.566725  0.566725  0.566725  1
  Ho  Ho1  1  0.349156  0.349156  0.349156  1
  Ho  Ho2  1  0.349592  0.349592  0.950999  1
  Ho  Ho3  1  0.349592  0.950999  0.349592  1
  Ho  Ho4  1  0.950999  0.349592  0.349592  1
  Ho  Ho5  1  0.811464  0.191650  0.191650  1
  Ho  Ho6  1  0.186983  0.814547  0.814547  1
  Ho  Ho7  1  0.191650  0.811464  0.191650  1
  Ho  Ho8  1  0.814547  0.186983  0.814547  1
  Ho  Ho9  1  0.191650  0.191650  0.811464  1
  Ho  Ho10  1  0.814547  0.814547  0.186983  1
  Ho  Ho11  1  0.936969  0.563907  0.563907  1
  Ho  Ho12  1  0.562868  0.937206  0.937206  1
  Ho  Ho13  1  0.563907  0.936969  0.563907  1
  Ho  Ho14  1  0.937206  0.562868  0.937206  1
  Ho  Ho15  1  0.563907  0.563907  0.936969  1
  Ho  Ho16  1  0.937206  0.937206  0.562868  1
  Ni  Ni17  1  0.144202  0.144202  0.144202  1
  Ni  Ni18  1  0.142858  0.142858  0.571829  1
  Ni  Ni19  1  0.142858  0.571829  0.142858  1
  Ni  Ni20  1  0.571829  0.142858  0.142858  1
  Hg  Hg21  1  0.587194  0.587194  0.244897  1
  Hg  Hg22  1  0.587194  0.244897  0.587194  1
  Hg  Hg23  1  0.244897  0.587194  0.587194  1
