# generated using pymatgen
data_Er4Tm4Sc12Si15Sn
_symmetry_space_group_name_H-M   'P 1'
_cell_length_a   7.09781841
_cell_length_b   7.38944610
_cell_length_c   14.00546498
_cell_angle_alpha   90.02914488
_cell_angle_beta   89.55658487
_cell_angle_gamma   90.00560442
_symmetry_Int_Tables_number   1
_chemical_formula_structural   Er4Tm4Sc12Si15Sn
_chemical_formula_sum   'Er4 Tm4 Sc12 Si15 Sn1'
_cell_volume   734.54978898
_cell_formula_units_Z   1
loop_
 _symmetry_equiv_pos_site_id
 _symmetry_equiv_pos_as_xyz
  1  'x, y, z'
loop_
 _atom_site_type_symbol
 _atom_site_label
 _atom_site_symmetry_multiplicity
 _atom_site_fract_x
 _atom_site_fract_y
 _atom_site_fract_z
 _atom_site_occupancy
  Er  Er0  1  0.011985  0.176721  0.096346  1
  Er  Er1  1  0.987902  0.823955  0.904568  1
  Er  Er2  1  0.488672  0.676910  0.904565  1
  Er  Er3  1  0.988702  0.829951  0.597953  1
  Tm  Tm4  1  0.511305  0.322998  0.096636  1
  Tm  Tm5  1  0.005763  0.170165  0.399337  1
  Tm  Tm6  1  0.513407  0.319310  0.399893  1
  Tm  Tm7  1  0.501225  0.685512  0.599579  1
  Sc  Sc8  1  0.162087  0.502934  0.755044  1
  Sc  Sc9  1  0.837241  0.496698  0.249371  1
  Sc  Sc10  1  0.337563  0.003620  0.249483  1
  Sc  Sc11  1  0.663825  0.996483  0.751561  1
  Sc  Sc12  1  0.342678  0.162222  0.630759  1
  Sc  Sc13  1  0.664444  0.825284  0.372697  1
  Sc  Sc14  1  0.163474  0.683937  0.369182  1
  Sc  Sc15  1  0.668020  0.822935  0.124236  1
  Sc  Sc16  1  0.823301  0.323239  0.626546  1
  Sc  Sc17  1  0.330694  0.176000  0.875582  1
  Sc  Sc18  1  0.830820  0.323117  0.875565  1
  Sc  Sc19  1  0.169111  0.676934  0.125134  1
  Si  Si20  1  0.034402  0.116477  0.751237  1
  Si  Si21  1  0.963950  0.887289  0.246888  1
  Si  Si22  1  0.466366  0.613232  0.248667  1
  Si  Si23  1  0.532104  0.387659  0.751988  1
  Si  Si24  1  0.286073  0.868173  0.752257  1
  Si  Si25  1  0.712877  0.128937  0.247623  1
  Si  Si26  1  0.212705  0.370677  0.249312  1
  Si  Si27  1  0.788648  0.629815  0.751328  1
  Si  Si28  1  0.828930  0.538267  0.458752  1
  Si  Si29  1  0.336886  0.964713  0.460175  1
  Si  Si30  1  0.841162  0.534108  0.039422  1
  Si  Si31  1  0.663272  0.036667  0.537928  1
  Si  Si32  1  0.157898  0.465124  0.961725  1
  Si  Si33  1  0.658123  0.034870  0.960776  1
  Si  Si34  1  0.340848  0.965917  0.039905  1
  Sn  Sn35  1  0.173538  0.459148  0.537980  1
