# generated using pymatgen
data_Tb5Nd5(Pb3Se)2
_symmetry_space_group_name_H-M   'P 1'
_cell_length_a   9.41071100
_cell_length_b   9.41079188
_cell_length_c   6.91039700
_cell_angle_alpha   90.00000000
_cell_angle_beta   90.00000000
_cell_angle_gamma   120.01937748
_symmetry_Int_Tables_number   1
_chemical_formula_structural   Tb5Nd5(Pb3Se)2
_chemical_formula_sum   'Tb5 Nd5 Pb6 Se2'
_cell_volume   529.90424884
_cell_formula_units_Z   1
loop_
 _symmetry_equiv_pos_site_id
 _symmetry_equiv_pos_as_xyz
  1  'x, y, z'
loop_
 _atom_site_type_symbol
 _atom_site_label
 _atom_site_symmetry_multiplicity
 _atom_site_fract_x
 _atom_site_fract_y
 _atom_site_fract_z
 _atom_site_occupancy
  Tb  Tb0  1  0.247389  0.000348  0.750000  1
  Tb  Tb1  1  0.000200  0.247460  0.750000  1
  Tb  Tb2  1  0.249841  0.249667  0.250000  1
  Tb  Tb3  1  0.752861  0.000596  0.250000  1
  Tb  Tb4  1  0.000031  0.752243  0.250000  1
  Nd  Nd5  1  0.749749  0.749747  0.750000  1
  Nd  Nd6  1  0.666314  0.332105  0.000483  1
  Nd  Nd7  1  0.332312  0.666477  0.000587  1
  Nd  Nd8  1  0.332312  0.666477  0.499413  1
  Nd  Nd9  1  0.666314  0.332105  0.499517  1
  Pb  Pb10  1  0.391934  0.391928  0.750000  1
  Pb  Pb11  1  0.604155  0.001135  0.750000  1
  Pb  Pb12  1  0.001164  0.604200  0.750000  1
  Pb  Pb13  1  0.605741  0.605784  0.250000  1
  Pb  Pb14  1  0.394021  0.999729  0.250000  1
  Pb  Pb15  1  0.999672  0.394135  0.250000  1
  Se  Se16  1  0.002998  0.002932  0.002349  1
  Se  Se17  1  0.002998  0.002932  0.497651  1
