# generated using pymatgen
data_Ho7(LuBi2)3
_symmetry_space_group_name_H-M   'P 1'
_cell_length_a   8.20872700
_cell_length_b   9.43058007
_cell_length_c   11.96698909
_cell_angle_alpha   89.98624755
_cell_angle_beta   90.00000000
_cell_angle_gamma   90.00000000
_symmetry_Int_Tables_number   1
_chemical_formula_structural   Ho7(LuBi2)3
_chemical_formula_sum   'Ho14 Lu6 Bi12'
_cell_volume   926.40118430
_cell_formula_units_Z   2
loop_
 _symmetry_equiv_pos_site_id
 _symmetry_equiv_pos_as_xyz
  1  'x, y, z'
loop_
 _atom_site_type_symbol
 _atom_site_label
 _atom_site_symmetry_multiplicity
 _atom_site_fract_x
 _atom_site_fract_y
 _atom_site_fract_z
 _atom_site_occupancy
  Ho  Ho0  1  0.353125  0.750102  0.216747  1
  Ho  Ho1  1  0.853125  0.749898  0.283253  1
  Ho  Ho2  1  0.647267  0.249749  0.783231  1
  Ho  Ho3  1  0.147267  0.250251  0.716769  1
  Ho  Ho4  1  0.691469  0.935650  0.058797  1
  Ho  Ho5  1  0.191469  0.564350  0.441203  1
  Ho  Ho6  1  0.476972  0.249806  0.489026  1
  Ho  Ho7  1  0.976972  0.250194  0.010974  1
  Ho  Ho8  1  0.523983  0.750317  0.511328  1
  Ho  Ho9  1  0.023983  0.749683  0.988672  1
  Ho  Ho10  1  0.314207  0.250024  0.217688  1
  Ho  Ho11  1  0.814207  0.249976  0.282312  1
  Ho  Ho12  1  0.686066  0.749853  0.782088  1
  Ho  Ho13  1  0.186066  0.750147  0.717912  1
  Lu  Lu14  1  0.691737  0.566688  0.059103  1
  Lu  Lu15  1  0.191737  0.933312  0.440897  1
  Lu  Lu16  1  0.308564  0.066750  0.941104  1
  Lu  Lu17  1  0.808564  0.433250  0.558896  1
  Lu  Lu18  1  0.307922  0.433484  0.940851  1
  Lu  Lu19  1  0.807922  0.066516  0.559149  1
  Bi  Bi20  1  0.404421  0.749316  0.956891  1
  Bi  Bi21  1  0.904421  0.750684  0.543109  1
  Bi  Bi22  1  0.594760  0.252928  0.042358  1
  Bi  Bi23  1  0.094760  0.247072  0.457642  1
  Bi  Bi24  1  0.566132  0.995927  0.325480  1
  Bi  Bi25  1  0.066132  0.504073  0.174520  1
  Bi  Bi26  1  0.433380  0.495856  0.674635  1
  Bi  Bi27  1  0.933380  0.004144  0.825365  1
  Bi  Bi28  1  0.433387  0.004250  0.674481  1
  Bi  Bi29  1  0.933387  0.495750  0.825519  1
  Bi  Bi30  1  0.566609  0.504164  0.325588  1
  Bi  Bi31  1  0.066609  0.995836  0.174412  1
