# generated using pymatgen
data_Ho4ScZn2Bi
_symmetry_space_group_name_H-M   'P 1'
_cell_length_a   8.51376161
_cell_length_b   8.51376105
_cell_length_c   8.51369817
_cell_angle_alpha   123.72949080
_cell_angle_beta   123.72948825
_cell_angle_gamma   83.65495593
_symmetry_Int_Tables_number   1
_chemical_formula_structural   Ho4ScZn2Bi
_chemical_formula_sum   'Ho8 Sc2 Zn4 Bi2'
_cell_volume   409.00863254
_cell_formula_units_Z   2
loop_
 _symmetry_equiv_pos_site_id
 _symmetry_equiv_pos_as_xyz
  1  'x, y, z'
loop_
 _atom_site_type_symbol
 _atom_site_label
 _atom_site_symmetry_multiplicity
 _atom_site_fract_x
 _atom_site_fract_y
 _atom_site_fract_z
 _atom_site_occupancy
  Ho  Ho0  1  0.013614  0.513614  0.808896  1
  Ho  Ho1  1  0.704705  0.204705  0.191078  1
  Ho  Ho2  1  0.513607  0.704715  0.500008  1
  Ho  Ho3  1  0.204715  0.013607  0.500008  1
  Ho  Ho4  1  0.986386  0.486386  0.191104  1
  Ho  Ho5  1  0.295295  0.795295  0.808922  1
  Ho  Ho6  1  0.486393  0.295285  0.499992  1
  Ho  Ho7  1  0.795285  0.986393  0.499992  1
  Sc  Sc8  1  0.000000  0.000000  0.000000  1
  Sc  Sc9  1  0.500000  0.500000  0.000000  1
  Zn  Zn10  1  0.640006  0.140006  0.780008  1
  Zn  Zn11  1  0.359994  0.859994  0.219992  1
  Zn  Zn12  1  0.140021  0.359979  0.500000  1
  Zn  Zn13  1  0.859979  0.640021  0.500000  1
  Bi  Bi14  1  0.750002  0.749998  0.000000  1
  Bi  Bi15  1  0.249998  0.250002  0.000000  1
