# generated using pymatgen
data_V4Co2PtSe12
_symmetry_space_group_name_H-M   'P 1'
_cell_length_a   7.25517065
_cell_length_b   7.25517087
_cell_length_c   19.09985137
_cell_angle_alpha   69.01344471
_cell_angle_beta   69.01344466
_cell_angle_gamma   26.32512910
_symmetry_Int_Tables_number   1
_chemical_formula_structural   V4Co2PtSe12
_chemical_formula_sum   'V4 Co2 Pt1 Se12'
_cell_volume   414.59138951
_cell_formula_units_Z   1
loop_
 _symmetry_equiv_pos_site_id
 _symmetry_equiv_pos_as_xyz
  1  'x, y, z'
loop_
 _atom_site_type_symbol
 _atom_site_label
 _atom_site_symmetry_multiplicity
 _atom_site_fract_x
 _atom_site_fract_y
 _atom_site_fract_z
 _atom_site_occupancy
  V  V0  1  0.625223  0.625223  0.846876  1
  V  V1  1  0.374777  0.374777  0.153124  1
  V  V2  1  0.745242  0.745242  0.592352  1
  V  V3  1  0.254758  0.254758  0.407648  1
  Co  Co4  1  0.231317  0.231317  0.714207  1
  Co  Co5  1  0.768683  0.768683  0.285793  1
  Pt  Pt6  1  0.000000  0.000000  0.000000  1
  Se  Se7  1  0.980894  0.980894  0.877451  1
  Se  Se8  1  0.019106  0.019106  0.122549  1
  Se  Se9  1  0.630556  0.630556  0.399448  1
  Se  Se10  1  0.369444  0.369444  0.600552  1
  Se  Se11  1  0.143060  0.143060  0.548841  1
  Se  Se12  1  0.856940  0.856940  0.451159  1
  Se  Se13  1  0.803734  0.803734  0.764983  1
  Se  Se14  1  0.196266  0.196266  0.235017  1
  Se  Se15  1  0.183070  0.183070  0.922593  1
  Se  Se16  1  0.816930  0.816930  0.077407  1
  Se  Se17  1  0.608991  0.608991  0.717246  1
  Se  Se18  1  0.391009  0.391009  0.282754  1
