# generated using pymatgen
data_Zr4Nb2Al7
_symmetry_space_group_name_H-M   'P 1'
_cell_length_a   10.08659499
_cell_length_b   10.08659519
_cell_length_c   10.08659500
_cell_angle_alpha   30.13515216
_cell_angle_beta   30.13516146
_cell_angle_gamma   30.13515710
_symmetry_Int_Tables_number   1
_chemical_formula_structural   Zr4Nb2Al7
_chemical_formula_sum   'Zr4 Nb2 Al7'
_cell_volume   229.15378341
_cell_formula_units_Z   1
loop_
 _symmetry_equiv_pos_site_id
 _symmetry_equiv_pos_as_xyz
  1  'x, y, z'
loop_
 _atom_site_type_symbol
 _atom_site_label
 _atom_site_symmetry_multiplicity
 _atom_site_fract_x
 _atom_site_fract_y
 _atom_site_fract_z
 _atom_site_occupancy
  Zr  Zr0  1  0.834376  0.834376  0.834376  1
  Zr  Zr1  1  0.165624  0.165624  0.165624  1
  Zr  Zr2  1  0.648175  0.648175  0.648175  1
  Zr  Zr3  1  0.351825  0.351825  0.351825  1
  Nb  Nb4  1  0.543735  0.543735  0.543735  1
  Nb  Nb5  1  0.456265  0.456265  0.456265  1
  Al  Al6  1  0.000000  0.000000  0.000000  1
  Al  Al7  1  0.908373  0.414703  0.908373  1
  Al  Al8  1  0.908373  0.908373  0.414703  1
  Al  Al9  1  0.414703  0.908373  0.908373  1
  Al  Al10  1  0.091627  0.585297  0.091627  1
  Al  Al11  1  0.091627  0.091627  0.585297  1
  Al  Al12  1  0.585297  0.091627  0.091627  1
