# generated using pymatgen
data_Fe3NiBi4(TeO6)4
_symmetry_space_group_name_H-M   'P 1'
_cell_length_a   5.27286220
_cell_length_b   9.13061903
_cell_length_c   9.95572653
_cell_angle_alpha   89.99741536
_cell_angle_beta   89.96621325
_cell_angle_gamma   90.00352910
_symmetry_Int_Tables_number   1
_chemical_formula_structural   Fe3NiBi4(TeO6)4
_chemical_formula_sum   'Fe3 Ni1 Bi4 Te4 O24'
_cell_volume   479.31335102
_cell_formula_units_Z   1
loop_
 _symmetry_equiv_pos_site_id
 _symmetry_equiv_pos_as_xyz
  1  'x, y, z'
loop_
 _atom_site_type_symbol
 _atom_site_label
 _atom_site_symmetry_multiplicity
 _atom_site_fract_x
 _atom_site_fract_y
 _atom_site_fract_z
 _atom_site_occupancy
  Fe  Fe0  1  0.500014  0.833992  0.749981  1
  Fe  Fe1  1  0.499923  0.166305  0.249993  1
  Fe  Fe2  1  0.000090  0.332389  0.749986  1
  Ni  Ni3  1  0.999889  0.666885  0.250004  1
  Bi  Bi4  1  0.998090  0.997548  0.496268  1
  Bi  Bi5  1  0.501835  0.502321  0.495528  1
  Bi  Bi6  1  0.001898  0.997550  0.003726  1
  Bi  Bi7  1  0.498158  0.502329  0.004477  1
  Te  Te8  1  0.500059  0.167154  0.750003  1
  Te  Te9  1  0.000048  0.666160  0.749999  1
  Te  Te10  1  0.999954  0.335708  0.250000  1
  Te  Te11  1  0.499955  0.831041  0.250001  1
  O  O12  1  0.631029  0.005430  0.640687  1
  O  O13  1  0.132095  0.505318  0.640860  1
  O  O14  1  0.676660  0.313297  0.640584  1
  O  O15  1  0.175819  0.812745  0.640828  1
  O  O16  1  0.192820  0.181452  0.641020  1
  O  O17  1  0.692510  0.681701  0.640697  1
  O  O18  1  0.175106  0.186938  0.141879  1
  O  O19  1  0.672753  0.684922  0.139720  1
  O  O20  1  0.136816  0.493718  0.140781  1
  O  O21  1  0.631804  0.994376  0.140781  1
  O  O22  1  0.691900  0.318869  0.140333  1
  O  O23  1  0.192307  0.821602  0.141332  1
  O  O24  1  0.863079  0.493711  0.359206  1
  O  O25  1  0.368095  0.994366  0.359209  1
  O  O26  1  0.824764  0.186933  0.358125  1
  O  O27  1  0.327145  0.684895  0.360285  1
  O  O28  1  0.307991  0.318862  0.359668  1
  O  O29  1  0.807570  0.821603  0.358682  1
  O  O30  1  0.323482  0.313290  0.859433  1
  O  O31  1  0.824317  0.812727  0.859169  1
  O  O32  1  0.369091  0.005414  0.859324  1
  O  O33  1  0.868027  0.505314  0.859149  1
  O  O34  1  0.807296  0.181435  0.858985  1
  O  O35  1  0.307611  0.681701  0.859297  1
