# generated using pymatgen
data_Mg(ZnPd2)5
_symmetry_space_group_name_H-M   'P 1'
_cell_length_a   4.24669100
_cell_length_b   5.41841370
_cell_length_c   10.43452620
_cell_angle_alpha   90.51473891
_cell_angle_beta   90.00000000
_cell_angle_gamma   90.00000000
_symmetry_Int_Tables_number   1
_chemical_formula_structural   Mg(ZnPd2)5
_chemical_formula_sum   'Mg1 Zn5 Pd10'
_cell_volume   240.09218845
_cell_formula_units_Z   1
loop_
 _symmetry_equiv_pos_site_id
 _symmetry_equiv_pos_as_xyz
  1  'x, y, z'
loop_
 _atom_site_type_symbol
 _atom_site_label
 _atom_site_symmetry_multiplicity
 _atom_site_fract_x
 _atom_site_fract_y
 _atom_site_fract_z
 _atom_site_occupancy
  Mg  Mg0  1  0.500000  0.651697  0.365321  1
  Zn  Zn1  1  0.000000  0.995222  0.498977  1
  Zn  Zn2  1  0.000000  0.498602  0.000026  1
  Zn  Zn3  1  0.500000  0.155431  0.134914  1
  Zn  Zn4  1  0.500000  0.846662  0.866023  1
  Zn  Zn5  1  0.500000  0.347072  0.635075  1
  Pd  Pd6  1  0.500000  0.164344  0.388581  1
  Pd  Pd7  1  0.500000  0.834905  0.615511  1
  Pd  Pd8  1  0.500000  0.331180  0.887473  1
  Pd  Pd9  1  0.500000  0.670480  0.107794  1
  Pd  Pd10  1  0.000000  0.372336  0.236364  1
  Pd  Pd11  1  0.000000  0.631405  0.765351  1
  Pd  Pd12  1  0.000000  0.131168  0.736029  1
  Pd  Pd13  1  0.000000  0.875451  0.259592  1
  Pd  Pd14  1  0.000000  0.000350  0.998682  1
  Pd  Pd15  1  0.000000  0.493696  0.504288  1
