# generated using pymatgen
data_La7EuTe8
_symmetry_space_group_name_H-M   'P 1'
_cell_length_a   9.15435395
_cell_length_b   9.15435552
_cell_length_c   9.16054600
_cell_angle_alpha   60.02235642
_cell_angle_beta   60.02235073
_cell_angle_gamma   59.99999296
_symmetry_Int_Tables_number   1
_chemical_formula_structural   La7EuTe8
_chemical_formula_sum   'La7 Eu1 Te8'
_cell_volume   543.01080121
_cell_formula_units_Z   1
loop_
 _symmetry_equiv_pos_site_id
 _symmetry_equiv_pos_as_xyz
  1  'x, y, z'
loop_
 _atom_site_type_symbol
 _atom_site_label
 _atom_site_symmetry_multiplicity
 _atom_site_fract_x
 _atom_site_fract_y
 _atom_site_fract_z
 _atom_site_occupancy
  La  La0  1  0.625000  0.125000  0.625000  1
  La  La1  1  0.625000  0.625000  0.625000  1
  La  La2  1  0.125000  0.625000  0.625000  1
  La  La3  1  0.625000  0.625000  0.125000  1
  La  La4  1  0.125000  0.625000  0.125000  1
  La  La5  1  0.625000  0.125000  0.125000  1
  La  La6  1  0.125000  0.125000  0.125000  1
  Eu  Eu7  1  0.125000  0.125000  0.625000  1
  Te  Te8  1  0.373267  0.876986  0.376479  1
  Te  Te9  1  0.876733  0.373014  0.873521  1
  Te  Te10  1  0.875108  0.875108  0.374677  1
  Te  Te11  1  0.876733  0.876733  0.873521  1
  Te  Te12  1  0.876986  0.373267  0.376479  1
  Te  Te13  1  0.374892  0.374892  0.875323  1
  Te  Te14  1  0.373267  0.373267  0.376479  1
  Te  Te15  1  0.373014  0.876733  0.873521  1
