# generated using pymatgen
data_Nd8Cd3SnAu8
_symmetry_space_group_name_H-M   'P 1'
_cell_length_a   8.16542700
_cell_length_b   8.16542700
_cell_length_c   7.75851900
_cell_angle_alpha   90.00000000
_cell_angle_beta   90.00000000
_cell_angle_gamma   90.00000000
_symmetry_Int_Tables_number   1
_chemical_formula_structural   Nd8Cd3SnAu8
_chemical_formula_sum   'Nd8 Cd3 Sn1 Au8'
_cell_volume   517.29303271
_cell_formula_units_Z   1
loop_
 _symmetry_equiv_pos_site_id
 _symmetry_equiv_pos_as_xyz
  1  'x, y, z'
loop_
 _atom_site_type_symbol
 _atom_site_label
 _atom_site_symmetry_multiplicity
 _atom_site_fract_x
 _atom_site_fract_y
 _atom_site_fract_z
 _atom_site_occupancy
  Nd  Nd0  1  0.830396  0.173629  0.500196  1
  Nd  Nd1  1  0.169604  0.826371  0.500196  1
  Nd  Nd2  1  0.326371  0.330396  0.999804  1
  Nd  Nd3  1  0.673629  0.669604  0.999804  1
  Nd  Nd4  1  0.678257  0.672560  0.501028  1
  Nd  Nd5  1  0.321743  0.327440  0.501028  1
  Nd  Nd6  1  0.172560  0.821743  0.998972  1
  Nd  Nd7  1  0.827440  0.178257  0.998972  1
  Cd  Cd8  1  0.500000  0.000000  0.250000  1
  Cd  Cd9  1  0.000000  0.500000  0.750000  1
  Cd  Cd10  1  0.500000  0.000000  0.750000  1
  Sn  Sn11  1  0.000000  0.500000  0.250000  1
  Au  Au12  1  0.621180  0.368618  0.254511  1
  Au  Au13  1  0.378820  0.631382  0.254511  1
  Au  Au14  1  0.128863  0.125127  0.754259  1
  Au  Au15  1  0.871137  0.874873  0.754259  1
  Au  Au16  1  0.374873  0.628863  0.745741  1
  Au  Au17  1  0.625127  0.371137  0.745741  1
  Au  Au18  1  0.868618  0.878820  0.245489  1
  Au  Au19  1  0.131382  0.121180  0.245489  1
