# generated using pymatgen
data_Y10Ir3Os
_symmetry_space_group_name_H-M   'P 1'
_cell_length_a   6.50656299
_cell_length_b   7.30514153
_cell_length_c   8.51043425
_cell_angle_alpha   96.44727952
_cell_angle_beta   112.14119961
_cell_angle_gamma   89.94423086
_symmetry_Int_Tables_number   1
_chemical_formula_structural   Y10Ir3Os
_chemical_formula_sum   'Y10 Ir3 Os1'
_cell_volume   371.93740721
_cell_formula_units_Z   1
loop_
 _symmetry_equiv_pos_site_id
 _symmetry_equiv_pos_as_xyz
  1  'x, y, z'
loop_
 _atom_site_type_symbol
 _atom_site_label
 _atom_site_symmetry_multiplicity
 _atom_site_fract_x
 _atom_site_fract_y
 _atom_site_fract_z
 _atom_site_occupancy
  Y  Y0  1  0.974712  0.915013  0.184438  1
  Y  Y1  1  0.793324  0.584522  0.822187  1
  Y  Y2  1  0.025571  0.084693  0.817808  1
  Y  Y3  1  0.208288  0.416290  0.183928  1
  Y  Y4  1  0.656604  0.818169  0.438841  1
  Y  Y5  1  0.212468  0.680657  0.558717  1
  Y  Y6  1  0.345691  0.180612  0.560560  1
  Y  Y7  1  0.785049  0.320123  0.438188  1
  Y  Y8  1  0.426055  0.749708  0.000146  1
  Y  Y9  1  0.575091  0.251058  0.000383  1
  Ir  Ir10  1  0.605241  0.926487  0.778113  1
  Ir  Ir11  1  0.172701  0.424950  0.779693  1
  Ir  Ir12  1  0.393310  0.073835  0.220616  1
  Os  Os13  1  0.825896  0.573884  0.216383  1
