# generated using pymatgen
data_CeThNi2(GeH2)2
_symmetry_space_group_name_H-M   'P 1'
_cell_length_a   4.18177700
_cell_length_b   4.18177715
_cell_length_c   8.13941300
_cell_angle_alpha   90.00000000
_cell_angle_beta   90.00000000
_cell_angle_gamma   120.00000672
_symmetry_Int_Tables_number   1
_chemical_formula_structural   CeThNi2(GeH2)2
_chemical_formula_sum   'Ce1 Th1 Ni2 Ge2 H4'
_cell_volume   123.26660722
_cell_formula_units_Z   1
loop_
 _symmetry_equiv_pos_site_id
 _symmetry_equiv_pos_as_xyz
  1  'x, y, z'
loop_
 _atom_site_type_symbol
 _atom_site_label
 _atom_site_symmetry_multiplicity
 _atom_site_fract_x
 _atom_site_fract_y
 _atom_site_fract_z
 _atom_site_occupancy
  Ce  Ce0  1  0.000000  0.000000  0.000000  1
  Th  Th1  1  0.000000  0.000000  0.500000  1
  Ni  Ni2  1  0.666667  0.333333  0.749817  1
  Ni  Ni3  1  0.333333  0.666667  0.250183  1
  Ge  Ge4  1  0.333333  0.666667  0.755889  1
  Ge  Ge5  1  0.666667  0.333333  0.244111  1
  H  H6  1  0.333333  0.666667  0.450549  1
  H  H7  1  0.666667  0.333333  0.549451  1
  H  H8  1  0.333333  0.666667  0.050542  1
  H  H9  1  0.666667  0.333333  0.949458  1
