# generated using pymatgen
data_PuGa3Au
_symmetry_space_group_name_H-M   'P 1'
_cell_length_a   4.31712517
_cell_length_b   4.31712502
_cell_length_c   6.22491841
_cell_angle_alpha   69.71064202
_cell_angle_beta   69.71064262
_cell_angle_gamma   90.00000461
_symmetry_Int_Tables_number   1
_chemical_formula_structural   PuGa3Au
_chemical_formula_sum   'Pu1 Ga3 Au1'
_cell_volume   101.10916715
_cell_formula_units_Z   1
loop_
 _symmetry_equiv_pos_site_id
 _symmetry_equiv_pos_as_xyz
  1  'x, y, z'
loop_
 _atom_site_type_symbol
 _atom_site_label
 _atom_site_symmetry_multiplicity
 _atom_site_fract_x
 _atom_site_fract_y
 _atom_site_fract_z
 _atom_site_occupancy
  Pu  Pu0  1  0.982200  0.982200  0.035601  1
  Ga  Ga1  1  0.751788  0.251788  0.496423  1
  Ga  Ga2  1  0.251788  0.751788  0.496423  1
  Ga  Ga3  1  0.392643  0.392643  0.214715  1
  Au  Au4  1  0.621580  0.621580  0.756839  1
