# generated using pymatgen
data_HoErCo4(PRu)6
_symmetry_space_group_name_H-M   'P 1'
_cell_length_a   3.78038100
_cell_length_b   10.62247200
_cell_length_c   12.08861100
_cell_angle_alpha   90.00000000
_cell_angle_beta   90.00000000
_cell_angle_gamma   90.00000000
_symmetry_Int_Tables_number   1
_chemical_formula_structural   HoErCo4(PRu)6
_chemical_formula_sum   'Ho2 Er2 Co8 P12 Ru12'
_cell_volume   485.44224702
_cell_formula_units_Z   2
loop_
 _symmetry_equiv_pos_site_id
 _symmetry_equiv_pos_as_xyz
  1  'x, y, z'
loop_
 _atom_site_type_symbol
 _atom_site_label
 _atom_site_symmetry_multiplicity
 _atom_site_fract_x
 _atom_site_fract_y
 _atom_site_fract_z
 _atom_site_occupancy
  Ho  Ho0  1  0.250000  0.584554  0.706673  1
  Ho  Ho1  1  0.250000  0.915446  0.206673  1
  Er  Er2  1  0.750000  0.415569  0.293380  1
  Er  Er3  1  0.750000  0.084431  0.793380  1
  Co  Co4  1  0.250000  0.888223  0.696199  1
  Co  Co5  1  0.250000  0.611777  0.196199  1
  Co  Co6  1  0.750000  0.111978  0.303866  1
  Co  Co7  1  0.750000  0.388022  0.803866  1
  Co  Co8  1  0.250000  0.462920  0.934824  1
  Co  Co9  1  0.250000  0.037080  0.434824  1
  Co  Co10  1  0.750000  0.537004  0.065293  1
  Co  Co11  1  0.750000  0.962996  0.565293  1
  P  P12  1  0.250000  0.425660  0.113308  1
  P  P13  1  0.250000  0.074340  0.613308  1
  P  P14  1  0.750000  0.574367  0.886901  1
  P  P15  1  0.750000  0.925633  0.386901  1
  P  P16  1  0.250000  0.271203  0.871631  1
  P  P17  1  0.250000  0.228797  0.371631  1
  P  P18  1  0.750000  0.728592  0.128288  1
  P  P19  1  0.750000  0.771408  0.628288  1
  P  P20  1  0.250000  0.600637  0.386502  1
  P  P21  1  0.250000  0.899363  0.886502  1
  P  P22  1  0.750000  0.399196  0.613393  1
  P  P23  1  0.750000  0.100804  0.113393  1
  Ru  Ru24  1  0.250000  0.706331  0.986459  1
  Ru  Ru25  1  0.250000  0.793669  0.486459  1
  Ru  Ru26  1  0.750000  0.293678  0.013514  1
  Ru  Ru27  1  0.750000  0.206322  0.513514  1
  Ru  Ru28  1  0.250000  0.405536  0.485522  1
  Ru  Ru29  1  0.250000  0.094464  0.985522  1
  Ru  Ru30  1  0.750000  0.594430  0.514160  1
  Ru  Ru31  1  0.750000  0.905570  0.014160  1
  Ru  Ru32  1  0.250000  0.224106  0.180678  1
  Ru  Ru33  1  0.250000  0.275894  0.680678  1
  Ru  Ru34  1  0.750000  0.776174  0.819410  1
  Ru  Ru35  1  0.750000  0.723826  0.319410  1
