# generated using pymatgen
data_Ac2Dy17YSn16
_symmetry_space_group_name_H-M   'P 1'
_cell_length_a   8.04539304
_cell_length_b   8.19033407
_cell_length_c   15.47946600
_cell_angle_alpha   90.00765312
_cell_angle_beta   90.00573998
_cell_angle_gamma   90.00094363
_symmetry_Int_Tables_number   1
_chemical_formula_structural   Ac2Dy17YSn16
_chemical_formula_sum   'Ac2 Dy17 Y1 Sn16'
_cell_volume   1020.01098863
_cell_formula_units_Z   1
loop_
 _symmetry_equiv_pos_site_id
 _symmetry_equiv_pos_as_xyz
  1  'x, y, z'
loop_
 _atom_site_type_symbol
 _atom_site_label
 _atom_site_symmetry_multiplicity
 _atom_site_fract_x
 _atom_site_fract_y
 _atom_site_fract_z
 _atom_site_occupancy
  Ac  Ac0  1  0.515036  0.321599  0.591115  1
  Ac  Ac1  1  0.014949  0.178363  0.908969  1
  Dy  Dy2  1  0.364867  0.836015  0.878256  1
  Dy  Dy3  1  0.864863  0.663950  0.621708  1
  Dy  Dy4  1  0.636425  0.162073  0.376259  1
  Dy  Dy5  1  0.136324  0.338193  0.123775  1
  Dy  Dy6  1  0.635160  0.164328  0.124395  1
  Dy  Dy7  1  0.135121  0.335906  0.375640  1
  Dy  Dy8  1  0.366552  0.837793  0.621519  1
  Dy  Dy9  1  0.866619  0.662113  0.878495  1
  Dy  Dy10  1  0.522739  0.324530  0.901331  1
  Dy  Dy11  1  0.022621  0.175537  0.598642  1
  Dy  Dy12  1  0.479637  0.681300  0.400194  1
  Dy  Dy13  1  0.979343  0.818547  0.099849  1
  Dy  Dy14  1  0.479130  0.679616  0.099886  1
  Dy  Dy15  1  0.978904  0.820224  0.400138  1
  Dy  Dy16  1  0.198723  0.502435  0.750097  1
  Dy  Dy17  1  0.698683  0.997597  0.749902  1
  Dy  Dy18  1  0.802974  0.498719  0.248905  1
  Y  Y19  1  0.303085  0.001060  0.250899  1
  Sn  Sn20  1  0.303703  0.029458  0.047085  1
  Sn  Sn21  1  0.803660  0.470594  0.452835  1
  Sn  Sn22  1  0.711525  0.958377  0.538573  1
  Sn  Sn23  1  0.211541  0.541606  0.961400  1
  Sn  Sn24  1  0.693262  0.952133  0.963769  1
  Sn  Sn25  1  0.193435  0.547917  0.536266  1
  Sn  Sn26  1  0.290277  0.032521  0.456886  1
  Sn  Sn27  1  0.790422  0.467503  0.043214  1
  Sn  Sn28  1  0.562992  0.624957  0.751197  1
  Sn  Sn29  1  0.062964  0.875081  0.748738  1
  Sn  Sn30  1  0.437921  0.381448  0.250905  1
  Sn  Sn31  1  0.937781  0.118919  0.249158  1
  Sn  Sn32  1  0.328713  0.142893  0.752600  1
  Sn  Sn33  1  0.828745  0.357064  0.747350  1
  Sn  Sn34  1  0.670952  0.852606  0.250191  1
  Sn  Sn35  1  0.170349  0.647024  0.249862  1
