# generated using pymatgen
data_Tb4Ga3Tc2Ru3
_symmetry_space_group_name_H-M   'P 1'
_cell_length_a   5.39050023
_cell_length_b   5.29873874
_cell_length_c   8.90387900
_cell_angle_alpha   90.00000000
_cell_angle_beta   90.00000000
_cell_angle_gamma   119.43848286
_symmetry_Int_Tables_number   1
_chemical_formula_structural   Tb4Ga3Tc2Ru3
_chemical_formula_sum   'Tb4 Ga3 Tc2 Ru3'
_cell_volume   221.48335133
_cell_formula_units_Z   1
loop_
 _symmetry_equiv_pos_site_id
 _symmetry_equiv_pos_as_xyz
  1  'x, y, z'
loop_
 _atom_site_type_symbol
 _atom_site_label
 _atom_site_symmetry_multiplicity
 _atom_site_fract_x
 _atom_site_fract_y
 _atom_site_fract_z
 _atom_site_occupancy
  Tb  Tb0  1  0.332045  0.666023  0.439173  1
  Tb  Tb1  1  0.664918  0.332459  0.562094  1
  Tb  Tb2  1  0.664918  0.332459  0.937906  1
  Tb  Tb3  1  0.332045  0.666023  0.060827  1
  Ga  Ga4  1  0.340138  0.170069  0.250000  1
  Ga  Ga5  1  0.172001  0.836223  0.750000  1
  Ga  Ga6  1  0.172001  0.335778  0.750000  1
  Tc  Tc7  1  0.836396  0.180132  0.250000  1
  Tc  Tc8  1  0.836396  0.656263  0.250000  1
  Ru  Ru9  1  0.990341  0.995171  0.497813  1
  Ru  Ru10  1  0.990341  0.995171  0.002187  1
  Ru  Ru11  1  0.668457  0.834229  0.750000  1
