# generated using pymatgen
data_Ba6Sc2Ti4O17
_symmetry_space_group_name_H-M   'P 1'
_cell_length_a   5.85227000
_cell_length_b   5.85227008
_cell_length_c   29.26917700
_cell_angle_alpha   90.00000000
_cell_angle_beta   90.00000000
_cell_angle_gamma   120.00001088
_symmetry_Int_Tables_number   1
_chemical_formula_structural   Ba6Sc2Ti4O17
_chemical_formula_sum   'Ba12 Sc4 Ti8 O34'
_cell_volume   868.14008531
_cell_formula_units_Z   2
loop_
 _symmetry_equiv_pos_site_id
 _symmetry_equiv_pos_as_xyz
  1  'x, y, z'
loop_
 _atom_site_type_symbol
 _atom_site_label
 _atom_site_symmetry_multiplicity
 _atom_site_fract_x
 _atom_site_fract_y
 _atom_site_fract_z
 _atom_site_occupancy
  Ba  Ba0  1  0.666667  0.333333  0.819484  1
  Ba  Ba1  1  0.333333  0.666667  0.180516  1
  Ba  Ba2  1  0.666667  0.333333  0.409895  1
  Ba  Ba3  1  0.333333  0.666667  0.909895  1
  Ba  Ba4  1  0.333333  0.666667  0.590105  1
  Ba  Ba5  1  0.666667  0.333333  0.090105  1
  Ba  Ba6  1  0.000000  0.000000  0.500000  1
  Ba  Ba7  1  0.000000  0.000000  0.000000  1
  Ba  Ba8  1  0.333333  0.666667  0.319484  1
  Ba  Ba9  1  0.000000  0.000000  0.250000  1
  Ba  Ba10  1  0.000000  0.000000  0.750000  1
  Ba  Ba11  1  0.666667  0.333333  0.680516  1
  Sc  Sc12  1  0.000000  0.000000  0.627879  1
  Sc  Sc13  1  0.000000  0.000000  0.872121  1
  Sc  Sc14  1  0.000000  0.000000  0.372121  1
  Sc  Sc15  1  0.000000  0.000000  0.127879  1
  Ti  Ti16  1  0.666667  0.333333  0.296686  1
  Ti  Ti17  1  0.333333  0.666667  0.796686  1
  Ti  Ti18  1  0.333333  0.666667  0.703314  1
  Ti  Ti19  1  0.666667  0.333333  0.203314  1
  Ti  Ti20  1  0.666667  0.333333  0.557322  1
  Ti  Ti21  1  0.666667  0.333333  0.942678  1
  Ti  Ti22  1  0.333333  0.666667  0.057322  1
  Ti  Ti23  1  0.333333  0.666667  0.442678  1
  O  O24  1  0.482930  0.965860  0.750000  1
  O  O25  1  0.517070  0.482930  0.250000  1
  O  O26  1  0.965860  0.482930  0.250000  1
  O  O27  1  0.034140  0.517070  0.750000  1
  O  O28  1  0.482930  0.517070  0.750000  1
  O  O29  1  0.517070  0.034140  0.250000  1
  O  O30  1  0.341365  0.170682  0.331991  1
  O  O31  1  0.829318  0.170682  0.331991  1
  O  O32  1  0.829318  0.658635  0.331991  1
  O  O33  1  0.170682  0.341365  0.831991  1
  O  O34  1  0.658635  0.829318  0.668009  1
  O  O35  1  0.658635  0.829318  0.831991  1
  O  O36  1  0.170682  0.829318  0.831991  1
  O  O37  1  0.829318  0.658635  0.168009  1
  O  O38  1  0.829318  0.170682  0.168009  1
  O  O39  1  0.170682  0.829318  0.668009  1
  O  O40  1  0.170682  0.341365  0.668009  1
  O  O41  1  0.341365  0.170682  0.168009  1
  O  O42  1  0.670714  0.835358  0.419219  1
  O  O43  1  0.164642  0.835358  0.419219  1
  O  O44  1  0.164642  0.329286  0.419219  1
  O  O45  1  0.835358  0.670714  0.919219  1
  O  O46  1  0.329286  0.164642  0.580781  1
  O  O47  1  0.329286  0.164642  0.919219  1
  O  O48  1  0.333333  0.666667  0.996796  1
  O  O49  1  0.666667  0.333333  0.496796  1
  O  O50  1  0.666667  0.333333  0.003204  1
  O  O51  1  0.333333  0.666667  0.503204  1
  O  O52  1  0.670714  0.835358  0.080781  1
  O  O53  1  0.835358  0.670714  0.580781  1
  O  O54  1  0.835358  0.164642  0.580781  1
  O  O55  1  0.164642  0.835358  0.080781  1
  O  O56  1  0.164642  0.329286  0.080781  1
  O  O57  1  0.835358  0.164642  0.919219  1
