# generated using pymatgen
data_Eu3Dy3Ta2O14
_symmetry_space_group_name_H-M   'P 1'
_cell_length_a   6.55168239
_cell_length_b   6.50307276
_cell_length_c   7.61503000
_cell_angle_alpha   90.00000000
_cell_angle_beta   90.00000000
_cell_angle_gamma   109.24883815
_symmetry_Int_Tables_number   1
_chemical_formula_structural   Eu3Dy3Ta2O14
_chemical_formula_sum   'Eu3 Dy3 Ta2 O14'
_cell_volume   306.30852891
_cell_formula_units_Z   1
loop_
 _symmetry_equiv_pos_site_id
 _symmetry_equiv_pos_as_xyz
  1  'x, y, z'
loop_
 _atom_site_type_symbol
 _atom_site_label
 _atom_site_symmetry_multiplicity
 _atom_site_fract_x
 _atom_site_fract_y
 _atom_site_fract_z
 _atom_site_occupancy
  Eu  Eu0  1  0.506856  0.506119  0.503268  1
  Eu  Eu1  1  0.506856  0.506119  0.996732  1
  Eu  Eu2  1  0.474194  0.002860  0.250000  1
  Dy  Dy3  1  0.000302  0.537089  0.250000  1
  Dy  Dy4  1  0.000674  0.465212  0.750000  1
  Dy  Dy5  1  0.534393  0.999547  0.750000  1
  Ta  Ta6  1  0.001967  0.000844  0.501252  1
  Ta  Ta7  1  0.001967  0.000844  0.998748  1
  O  O8  1  0.937818  0.070659  0.750000  1
  O  O9  1  0.055441  0.934787  0.250000  1
  O  O10  1  0.361475  0.639165  0.250000  1
  O  O11  1  0.642556  0.361724  0.750000  1
  O  O12  1  0.364893  0.630847  0.750000  1
  O  O13  1  0.635271  0.372104  0.250000  1
  O  O14  1  0.315082  0.068582  0.961762  1
  O  O15  1  0.677055  0.921531  0.477945  1
  O  O16  1  0.315082  0.068582  0.538238  1
  O  O17  1  0.677055  0.921531  0.022055  1
  O  O18  1  0.059328  0.316167  0.462871  1
  O  O19  1  0.936203  0.679762  0.967434  1
  O  O20  1  0.936203  0.679762  0.532566  1
  O  O21  1  0.059328  0.316167  0.037129  1
