# generated using pymatgen
data_Tb13Y3(In3Pt)2
_symmetry_space_group_name_H-M   'P 1'
_cell_length_a   10.53473800
_cell_length_b   10.53473873
_cell_length_c   7.04912900
_cell_angle_alpha   90.00000000
_cell_angle_beta   90.00000000
_cell_angle_gamma   120.00000398
_symmetry_Int_Tables_number   1
_chemical_formula_structural   Tb13Y3(In3Pt)2
_chemical_formula_sum   'Tb13 Y3 In6 Pt2'
_cell_volume   677.50667924
_cell_formula_units_Z   1
loop_
 _symmetry_equiv_pos_site_id
 _symmetry_equiv_pos_as_xyz
  1  'x, y, z'
loop_
 _atom_site_type_symbol
 _atom_site_label
 _atom_site_symmetry_multiplicity
 _atom_site_fract_x
 _atom_site_fract_y
 _atom_site_fract_z
 _atom_site_occupancy
  Tb  Tb0  1  0.468291  0.531709  0.478589  1
  Tb  Tb1  1  0.063418  0.531709  0.478589  1
  Tb  Tb2  1  0.468291  0.936582  0.478589  1
  Tb  Tb3  1  0.531655  0.468345  0.978750  1
  Tb  Tb4  1  0.936690  0.468345  0.978750  1
  Tb  Tb5  1  0.531655  0.063310  0.978750  1
  Tb  Tb6  1  0.825146  0.174854  0.272650  1
  Tb  Tb7  1  0.349708  0.174854  0.272650  1
  Tb  Tb8  1  0.825146  0.650292  0.272650  1
  Tb  Tb9  1  0.174792  0.825208  0.772331  1
  Tb  Tb10  1  0.650417  0.825208  0.772331  1
  Tb  Tb11  1  0.174792  0.349583  0.772331  1
  Tb  Tb12  1  0.333333  0.666667  0.104825  1
  Y  Y13  1  0.666667  0.333333  0.604871  1
  Y  Y14  1  0.000000  0.000000  0.498950  1
  Y  Y15  1  0.000000  0.000000  0.999337  1
  In  In16  1  0.163015  0.836985  0.236145  1
  In  In17  1  0.673970  0.836985  0.236145  1
  In  In18  1  0.163015  0.326030  0.236145  1
  In  In19  1  0.836844  0.163156  0.735895  1
  In  In20  1  0.326312  0.163156  0.735895  1
  In  In21  1  0.836844  0.673688  0.735895  1
  Pt  Pt22  1  0.333333  0.666667  0.707234  1
  Pt  Pt23  1  0.666667  0.333333  0.206261  1
