# generated using pymatgen
data_Pr6NiCl10
_symmetry_space_group_name_H-M   'P 1'
_cell_length_a   7.46149498
_cell_length_b   9.40949190
_cell_length_c   9.32656576
_cell_angle_alpha   108.59743316
_cell_angle_beta   105.98489152
_cell_angle_gamma   96.34101927
_symmetry_Int_Tables_number   1
_chemical_formula_structural   Pr6NiCl10
_chemical_formula_sum   'Pr6 Ni1 Cl10'
_cell_volume   582.32169355
_cell_formula_units_Z   1
loop_
 _symmetry_equiv_pos_site_id
 _symmetry_equiv_pos_as_xyz
  1  'x, y, z'
loop_
 _atom_site_type_symbol
 _atom_site_label
 _atom_site_symmetry_multiplicity
 _atom_site_fract_x
 _atom_site_fract_y
 _atom_site_fract_z
 _atom_site_occupancy
  Pr  Pr0  1  0.855404  0.239951  0.937769  1
  Pr  Pr1  1  0.144596  0.760049  0.062231  1
  Pr  Pr2  1  0.035899  0.897952  0.697446  1
  Pr  Pr3  1  0.964101  0.102048  0.302554  1
  Pr  Pr4  1  0.359416  0.190471  0.135960  1
  Pr  Pr5  1  0.640584  0.809529  0.864040  1
  Ni  Ni6  1  0.000000  0.000000  0.000000  1
  Cl  Cl7  1  0.908801  0.153839  0.630597  1
  Cl  Cl8  1  0.091199  0.846161  0.369403  1
  Cl  Cl9  1  0.451485  0.069672  0.830653  1
  Cl  Cl10  1  0.548515  0.930328  0.169347  1
  Cl  Cl11  1  0.220234  0.664173  0.762713  1
  Cl  Cl12  1  0.779766  0.335827  0.237287  1
  Cl  Cl13  1  0.225225  0.440024  0.067129  1
  Cl  Cl14  1  0.774775  0.559976  0.932871  1
  Cl  Cl15  1  0.657106  0.736096  0.556736  1
  Cl  Cl16  1  0.342894  0.263904  0.443264  1
