# generated using pymatgen
data_Hf4Fe4SiAs3
_symmetry_space_group_name_H-M   'P 1'
_cell_length_a   3.90813900
_cell_length_b   6.40534097
_cell_length_c   7.17397454
_cell_angle_alpha   90.19926511
_cell_angle_beta   90.00000000
_cell_angle_gamma   90.00000000
_symmetry_Int_Tables_number   1
_chemical_formula_structural   Hf4Fe4SiAs3
_chemical_formula_sum   'Hf4 Fe4 Si1 As3'
_cell_volume   179.58475187
_cell_formula_units_Z   1
loop_
 _symmetry_equiv_pos_site_id
 _symmetry_equiv_pos_as_xyz
  1  'x, y, z'
loop_
 _atom_site_type_symbol
 _atom_site_label
 _atom_site_symmetry_multiplicity
 _atom_site_fract_x
 _atom_site_fract_y
 _atom_site_fract_z
 _atom_site_occupancy
  Hf  Hf0  1  0.250000  0.016009  0.307470  1
  Hf  Hf1  1  0.250000  0.504602  0.190475  1
  Hf  Hf2  1  0.750000  0.988733  0.693465  1
  Hf  Hf3  1  0.750000  0.486611  0.809931  1
  Fe  Fe4  1  0.250000  0.154344  0.940847  1
  Fe  Fe5  1  0.250000  0.650345  0.567346  1
  Fe  Fe6  1  0.750000  0.853176  0.063361  1
  Fe  Fe7  1  0.750000  0.349173  0.428298  1
  Si  Si8  1  0.750000  0.215820  0.110727  1
  As  As9  1  0.250000  0.278172  0.612918  1
  As  As10  1  0.250000  0.779563  0.889671  1
  As  As11  1  0.750000  0.723453  0.385491  1
