# generated using pymatgen
data_LaNd(CoB)8
_symmetry_space_group_name_H-M   'P 1'
_cell_length_a   7.10535000
_cell_length_b   7.10535000
_cell_length_c   3.80479300
_cell_angle_alpha   90.00000000
_cell_angle_beta   90.00000000
_cell_angle_gamma   90.00000000
_symmetry_Int_Tables_number   1
_chemical_formula_structural   LaNd(CoB)8
_chemical_formula_sum   'La1 Nd1 Co8 B8'
_cell_volume   192.08877416
_cell_formula_units_Z   1
loop_
 _symmetry_equiv_pos_site_id
 _symmetry_equiv_pos_as_xyz
  1  'x, y, z'
loop_
 _atom_site_type_symbol
 _atom_site_label
 _atom_site_symmetry_multiplicity
 _atom_site_fract_x
 _atom_site_fract_y
 _atom_site_fract_z
 _atom_site_occupancy
  La  La0  1  0.500000  0.500000  0.500000  1
  Nd  Nd1  1  0.000000  0.000000  0.000000  1
  Co  Co2  1  0.383727  0.140578  0.892420  1
  Co  Co3  1  0.616273  0.859422  0.892420  1
  Co  Co4  1  0.356362  0.884768  0.393913  1
  Co  Co5  1  0.643638  0.115232  0.393913  1
  Co  Co6  1  0.115232  0.356362  0.606087  1
  Co  Co7  1  0.884768  0.643638  0.606087  1
  Co  Co8  1  0.140578  0.616273  0.107580  1
  Co  Co9  1  0.859422  0.383727  0.107580  1
  B  B10  1  0.799652  0.662834  0.103185  1
  B  B11  1  0.200348  0.337166  0.103185  1
  B  B12  1  0.839114  0.294839  0.605560  1
  B  B13  1  0.160886  0.705161  0.605560  1
  B  B14  1  0.705161  0.839114  0.394440  1
  B  B15  1  0.294839  0.160886  0.394440  1
  B  B16  1  0.662834  0.200348  0.896815  1
  B  B17  1  0.337166  0.799652  0.896815  1
