# generated using pymatgen
data_Y3P6Ru5Rh4
_symmetry_space_group_name_H-M   'P 1'
_cell_length_a   3.95645300
_cell_length_b   11.32243700
_cell_length_c   12.53545200
_cell_angle_alpha   90.00000000
_cell_angle_beta   90.00000000
_cell_angle_gamma   90.00000000
_symmetry_Int_Tables_number   1
_chemical_formula_structural   Y3P6Ru5Rh4
_chemical_formula_sum   'Y6 P12 Ru10 Rh8'
_cell_volume   561.54675520
_cell_formula_units_Z   2
loop_
 _symmetry_equiv_pos_site_id
 _symmetry_equiv_pos_as_xyz
  1  'x, y, z'
loop_
 _atom_site_type_symbol
 _atom_site_label
 _atom_site_symmetry_multiplicity
 _atom_site_fract_x
 _atom_site_fract_y
 _atom_site_fract_z
 _atom_site_occupancy
  Y  Y0  1  0.000000  0.500000  0.521997  1
  Y  Y1  1  0.500000  0.000000  0.477466  1
  Y  Y2  1  0.500000  0.819750  0.202213  1
  Y  Y3  1  0.500000  0.180250  0.202213  1
  Y  Y4  1  0.000000  0.680401  0.798219  1
  Y  Y5  1  0.000000  0.319599  0.798219  1
  P  P6  1  0.500000  0.500000  0.883430  1
  P  P7  1  0.000000  0.000000  0.116787  1
  P  P8  1  0.500000  0.500000  0.345386  1
  P  P9  1  0.000000  0.000000  0.655828  1
  P  P10  1  0.500000  0.310749  0.616690  1
  P  P11  1  0.500000  0.689251  0.616690  1
  P  P12  1  0.000000  0.192467  0.381435  1
  P  P13  1  0.000000  0.807533  0.381435  1
  P  P14  1  0.500000  0.842912  0.897410  1
  P  P15  1  0.500000  0.157088  0.897410  1
  P  P16  1  0.000000  0.656631  0.102871  1
  P  P17  1  0.000000  0.343369  0.102871  1
  Ru  Ru18  1  0.500000  0.500000  0.159405  1
  Ru  Ru19  1  0.000000  0.000000  0.840064  1
  Ru  Ru20  1  0.000000  0.500000  0.990063  1
  Ru  Ru21  1  0.500000  0.000000  0.009513  1
  Ru  Ru22  1  0.500000  0.332906  0.990168  1
  Ru  Ru23  1  0.500000  0.667094  0.990168  1
  Ru  Ru24  1  0.000000  0.167096  0.009798  1
  Ru  Ru25  1  0.000000  0.832904  0.009798  1
  Ru  Ru26  1  0.500000  0.294653  0.429515  1
  Ru  Ru27  1  0.500000  0.705347  0.429515  1
  Rh  Rh28  1  0.500000  0.500000  0.696742  1
  Rh  Rh29  1  0.000000  0.000000  0.303851  1
  Rh  Rh30  1  0.000000  0.204938  0.572062  1
  Rh  Rh31  1  0.000000  0.795062  0.572062  1
  Rh  Rh32  1  0.500000  0.875847  0.713504  1
  Rh  Rh33  1  0.500000  0.124153  0.713504  1
  Rh  Rh34  1  0.000000  0.624329  0.285850  1
  Rh  Rh35  1  0.000000  0.375671  0.285850  1
