# generated using pymatgen
data_DyY3AlGa17Ir6
_symmetry_space_group_name_H-M   'P 1'
_cell_length_a   7.59382834
_cell_length_b   7.59391292
_cell_length_c   9.50064035
_cell_angle_alpha   89.95364818
_cell_angle_beta   89.95414376
_cell_angle_gamma   119.87926753
_symmetry_Int_Tables_number   1
_chemical_formula_structural   DyY3AlGa17Ir6
_chemical_formula_sum   'Dy1 Y3 Al1 Ga17 Ir6'
_cell_volume   475.04681142
_cell_formula_units_Z   1
loop_
 _symmetry_equiv_pos_site_id
 _symmetry_equiv_pos_as_xyz
  1  'x, y, z'
loop_
 _atom_site_type_symbol
 _atom_site_label
 _atom_site_symmetry_multiplicity
 _atom_site_fract_x
 _atom_site_fract_y
 _atom_site_fract_z
 _atom_site_occupancy
  Dy  Dy0  1  0.330356  0.001683  0.249349  1
  Y  Y1  1  0.998212  0.669042  0.749689  1
  Y  Y2  1  0.001704  0.330364  0.249351  1
  Y  Y3  1  0.669043  0.998214  0.749688  1
  Al  Al4  1  0.335414  0.335394  0.449677  1
  Ga  Ga5  1  0.126860  0.126862  0.749422  1
  Ga  Ga6  1  0.872790  0.872754  0.249339  1
  Ga  Ga7  1  0.998752  0.334337  0.579829  1
  Ga  Ga8  1  0.000169  0.665027  0.418800  1
  Ga  Ga9  1  0.999867  0.664999  0.080744  1
  Ga  Ga10  1  0.334605  0.999699  0.918484  1
  Ga  Ga11  1  0.999695  0.334603  0.918456  1
  Ga  Ga12  1  0.664930  0.999832  0.080745  1
  Ga  Ga13  1  0.664960  0.000131  0.418800  1
  Ga  Ga14  1  0.334337  0.998758  0.579802  1
  Ga  Ga15  1  0.331839  0.331807  0.063537  1
  Ga  Ga16  1  0.667727  0.667726  0.936241  1
  Ga  Ga17  1  0.670916  0.670917  0.563646  1
  Ga  Ga18  1  0.340689  0.547915  0.749795  1
  Ga  Ga19  1  0.656005  0.451129  0.250232  1
  Ga  Ga20  1  0.547917  0.340688  0.749795  1
  Ga  Ga21  1  0.451175  0.656081  0.250232  1
  Ir  Ir22  1  0.669087  0.328277  0.499050  1
  Ir  Ir23  1  0.328292  0.669125  0.499050  1
  Ir  Ir24  1  0.328457  0.671808  0.999718  1
  Ir  Ir25  1  0.671770  0.328440  0.999714  1
  Ir  Ir26  1  0.004557  0.004532  0.497467  1
  Ir  Ir27  1  0.999879  0.999858  0.999351  1
