# generated using pymatgen
data_CaHf3(NiAs2)2
_symmetry_space_group_name_H-M   'P 1'
_cell_length_a   3.98730100
_cell_length_b   3.98730129
_cell_length_c   13.49933300
_cell_angle_alpha   90.00000000
_cell_angle_beta   90.00000000
_cell_angle_gamma   120.00000592
_symmetry_Int_Tables_number   1
_chemical_formula_structural   CaHf3(NiAs2)2
_chemical_formula_sum   'Ca1 Hf3 Ni2 As4'
_cell_volume   185.86644430
_cell_formula_units_Z   1
loop_
 _symmetry_equiv_pos_site_id
 _symmetry_equiv_pos_as_xyz
  1  'x, y, z'
loop_
 _atom_site_type_symbol
 _atom_site_label
 _atom_site_symmetry_multiplicity
 _atom_site_fract_x
 _atom_site_fract_y
 _atom_site_fract_z
 _atom_site_occupancy
  Ca  Ca0  1  0.333333  0.666667  0.852518  1
  Hf  Hf1  1  0.666667  0.333333  0.607035  1
  Hf  Hf2  1  0.333333  0.666667  0.129843  1
  Hf  Hf3  1  0.666667  0.333333  0.349881  1
  Ni  Ni4  1  0.000000  0.000000  0.044315  1
  Ni  Ni5  1  0.000000  0.000000  0.453521  1
  As  As6  1  0.666667  0.333333  0.994142  1
  As  As7  1  0.333333  0.666667  0.484145  1
  As  As8  1  0.000000  0.000000  0.715643  1
  As  As9  1  0.000000  0.000000  0.237619  1
