# generated using pymatgen
data_RbNd5Y(CBr6)2
_symmetry_space_group_name_H-M   'P 1'
_cell_length_a   9.16041437
_cell_length_b   9.15315399
_cell_length_c   9.64224311
_cell_angle_alpha   72.15566489
_cell_angle_beta   70.92811299
_cell_angle_gamma   72.74515980
_symmetry_Int_Tables_number   1
_chemical_formula_structural   RbNd5Y(CBr6)2
_chemical_formula_sum   'Rb1 Nd5 Y1 C2 Br12'
_cell_volume   709.77354792
_cell_formula_units_Z   1
loop_
 _symmetry_equiv_pos_site_id
 _symmetry_equiv_pos_as_xyz
  1  'x, y, z'
loop_
 _atom_site_type_symbol
 _atom_site_label
 _atom_site_symmetry_multiplicity
 _atom_site_fract_x
 _atom_site_fract_y
 _atom_site_fract_z
 _atom_site_occupancy
  Rb  Rb0  1  0.998768  0.500440  0.000214  1
  Nd  Nd1  1  0.474863  0.117120  0.180511  1
  Nd  Nd2  1  0.782389  0.033246  0.405999  1
  Nd  Nd3  1  0.595251  0.719887  0.473793  1
  Nd  Nd4  1  0.404508  0.279727  0.525971  1
  Nd  Nd5  1  0.217627  0.966154  0.596027  1
  Y  Y6  1  0.525997  0.884845  0.813022  1
  C  C7  1  0.493465  0.025145  0.426303  1
  C  C8  1  0.506726  0.973186  0.576403  1
  Br  Br9  1  0.798789  0.162898  0.081600  1
  Br  Br10  1  0.584827  0.786387  0.133991  1
  Br  Br11  1  0.349104  0.434193  0.224387  1
  Br  Br12  1  0.135475  0.072232  0.294704  1
  Br  Br13  1  0.925968  0.721352  0.351765  1
  Br  Br14  1  0.715949  0.367815  0.429118  1
  Br  Br15  1  0.283603  0.632480  0.572009  1
  Br  Br16  1  0.073216  0.278375  0.648276  1
  Br  Br17  1  0.857878  0.926420  0.710369  1
  Br  Br18  1  0.647396  0.573763  0.779389  1
  Br  Br19  1  0.417013  0.206131  0.857385  1
  Br  Br20  1  0.211191  0.838198  0.918763  1
