# generated using pymatgen
data_Y3Pa(MnC4)2
_symmetry_space_group_name_H-M   'P 1'
_cell_length_a   6.59807019
_cell_length_b   6.62297454
_cell_length_c   6.62297406
_cell_angle_alpha   135.18888837
_cell_angle_beta   110.57083736
_cell_angle_gamma   86.57726452
_symmetry_Int_Tables_number   1
_chemical_formula_structural   Y3Pa(MnC4)2
_chemical_formula_sum   'Y3 Pa1 Mn2 C8'
_cell_volume   182.91607315
_cell_formula_units_Z   1
loop_
 _symmetry_equiv_pos_site_id
 _symmetry_equiv_pos_as_xyz
  1  'x, y, z'
loop_
 _atom_site_type_symbol
 _atom_site_label
 _atom_site_symmetry_multiplicity
 _atom_site_fract_x
 _atom_site_fract_y
 _atom_site_fract_z
 _atom_site_occupancy
  Y  Y0  1  0.492258  0.643970  0.848288  1
  Y  Y1  1  0.192995  0.856688  0.336307  1
  Y  Y2  1  0.804503  0.148679  0.655824  1
  Pa  Pa3  1  0.516135  0.356502  0.159633  1
  Mn  Mn4  1  0.997455  0.248253  0.251453  1
  Mn  Mn5  1  0.997455  0.746002  0.749202  1
  C  C6  1  0.240675  0.076888  0.163788  1
  C  C7  1  0.751225  0.920607  0.830617  1
  C  C8  1  0.918409  0.579426  0.338983  1
  C  C9  1  0.090442  0.420737  0.669705  1
  C  C10  1  0.470436  0.137502  0.332934  1
  C  C11  1  0.524795  0.869985  0.654812  1
  C  C12  1  0.781845  0.620796  0.161049  1
  C  C13  1  0.221371  0.373965  0.847406  1
