# generated using pymatgen
data_CsCuNiF5
_symmetry_space_group_name_H-M   'P 1'
_cell_length_a   7.23106822
_cell_length_b   7.23106868
_cell_length_c   7.23106733
_cell_angle_alpha   126.05018242
_cell_angle_beta   117.56854762
_cell_angle_gamma   87.05925675
_symmetry_Int_Tables_number   1
_chemical_formula_structural   CsCuNiF5
_chemical_formula_sum   'Cs2 Cu2 Ni2 F10'
_cell_volume   257.77380844
_cell_formula_units_Z   2
loop_
 _symmetry_equiv_pos_site_id
 _symmetry_equiv_pos_as_xyz
  1  'x, y, z'
loop_
 _atom_site_type_symbol
 _atom_site_label
 _atom_site_symmetry_multiplicity
 _atom_site_fract_x
 _atom_site_fract_y
 _atom_site_fract_z
 _atom_site_occupancy
  Cs  Cs0  1  0.870145  0.620145  0.250000  1
  Cs  Cs1  1  0.129855  0.379855  0.750000  1
  Cu  Cu2  1  0.500000  0.000000  0.000000  1
  Cu  Cu3  1  0.500000  0.500000  0.500000  1
  Ni  Ni4  1  0.000000  0.000000  0.000000  1
  Ni  Ni5  1  0.500000  0.000000  0.500000  1
  F  F6  1  0.446703  0.650985  0.345358  1
  F  F7  1  0.553297  0.898657  0.204282  1
  F  F8  1  0.194374  0.349015  0.295718  1
  F  F9  1  0.805626  0.101343  0.154642  1
  F  F10  1  0.553297  0.349015  0.654642  1
  F  F11  1  0.446703  0.101343  0.795718  1
  F  F12  1  0.824388  0.074388  0.750000  1
  F  F13  1  0.175612  0.925612  0.250000  1
  F  F14  1  0.194374  0.898657  0.845358  1
  F  F15  1  0.805626  0.650985  0.704282  1
