# generated using pymatgen
data_La4SmSn4
_symmetry_space_group_name_H-M   'P 1'
_cell_length_a   8.46783800
_cell_length_b   8.56240900
_cell_length_c   16.30417900
_cell_angle_alpha   90.00000000
_cell_angle_beta   90.00000000
_cell_angle_gamma   90.00000000
_symmetry_Int_Tables_number   1
_chemical_formula_structural   La4SmSn4
_chemical_formula_sum   'La16 Sm4 Sn16'
_cell_volume   1182.13600330
_cell_formula_units_Z   4
loop_
 _symmetry_equiv_pos_site_id
 _symmetry_equiv_pos_as_xyz
  1  'x, y, z'
loop_
 _atom_site_type_symbol
 _atom_site_label
 _atom_site_symmetry_multiplicity
 _atom_site_fract_x
 _atom_site_fract_y
 _atom_site_fract_z
 _atom_site_occupancy
  La  La0  1  0.973778  0.819216  0.899186  1
  La  La1  1  0.473778  0.680784  0.600814  1
  La  La2  1  0.526222  0.319216  0.100814  1
  La  La3  1  0.026222  0.180784  0.399186  1
  La  La4  1  0.973778  0.819216  0.600814  1
  La  La5  1  0.473778  0.680784  0.899186  1
  La  La6  1  0.526222  0.319216  0.399186  1
  La  La7  1  0.026222  0.180784  0.100814  1
  La  La8  1  0.880652  0.661569  0.382792  1
  La  La9  1  0.380652  0.838431  0.117208  1
  La  La10  1  0.619348  0.161569  0.617208  1
  La  La11  1  0.119348  0.338431  0.882792  1
  La  La12  1  0.119348  0.338431  0.617208  1
  La  La13  1  0.619348  0.161569  0.882792  1
  La  La14  1  0.380652  0.838431  0.382792  1
  La  La15  1  0.880652  0.661569  0.117208  1
  Sm  Sm16  1  0.289134  0.002766  0.750000  1
  Sm  Sm17  1  0.789134  0.497234  0.750000  1
  Sm  Sm18  1  0.210866  0.502766  0.250000  1
  Sm  Sm19  1  0.710866  0.997234  0.250000  1
  Sn  Sn20  1  0.780768  0.469073  0.544715  1
  Sn  Sn21  1  0.280768  0.030927  0.955285  1
  Sn  Sn22  1  0.719232  0.969073  0.455285  1
  Sn  Sn23  1  0.219232  0.530927  0.044715  1
  Sn  Sn24  1  0.219232  0.530927  0.455285  1
  Sn  Sn25  1  0.719232  0.969073  0.044715  1
  Sn  Sn26  1  0.280768  0.030927  0.544715  1
  Sn  Sn27  1  0.780768  0.469073  0.955285  1
  Sn  Sn28  1  0.169781  0.641055  0.750000  1
  Sn  Sn29  1  0.669781  0.858945  0.750000  1
  Sn  Sn30  1  0.330219  0.141055  0.250000  1
  Sn  Sn31  1  0.830219  0.358945  0.250000  1
  Sn  Sn32  1  0.920903  0.115795  0.750000  1
  Sn  Sn33  1  0.420903  0.384205  0.750000  1
  Sn  Sn34  1  0.579097  0.615795  0.250000  1
  Sn  Sn35  1  0.079097  0.884205  0.250000  1
