# generated using pymatgen
data_Tb4Ga24Pt8Rh
_symmetry_space_group_name_H-M   'P 1'
_cell_length_a   7.51258157
_cell_length_b   7.58396021
_cell_length_c   13.31922848
_cell_angle_alpha   84.73335244
_cell_angle_beta   79.44967658
_cell_angle_gamma   60.14750412
_symmetry_Int_Tables_number   1
_chemical_formula_structural   Tb4Ga24Pt8Rh
_chemical_formula_sum   'Tb4 Ga24 Pt8 Rh1'
_cell_volume   647.04378514
_cell_formula_units_Z   1
loop_
 _symmetry_equiv_pos_site_id
 _symmetry_equiv_pos_as_xyz
  1  'x, y, z'
loop_
 _atom_site_type_symbol
 _atom_site_label
 _atom_site_symmetry_multiplicity
 _atom_site_fract_x
 _atom_site_fract_y
 _atom_site_fract_z
 _atom_site_occupancy
  Tb  Tb0  1  0.396442  0.167568  0.810095  1
  Tb  Tb1  1  0.603558  0.832432  0.189905  1
  Tb  Tb2  1  0.730590  0.499680  0.810737  1
  Tb  Tb3  1  0.269410  0.500320  0.189263  1
  Ga  Ga4  1  0.690207  0.830457  0.939936  1
  Ga  Ga5  1  0.309793  0.169543  0.060064  1
  Ga  Ga6  1  0.145714  0.831920  0.560516  1
  Ga  Ga7  1  0.854286  0.168080  0.439484  1
  Ga  Ga8  1  0.478884  0.166173  0.557024  1
  Ga  Ga9  1  0.521116  0.833827  0.442976  1
  Ga  Ga10  1  0.220217  0.165312  0.323321  1
  Ga  Ga11  1  0.779783  0.834688  0.676679  1
  Ga  Ga12  1  0.436491  0.504382  0.675683  1
  Ga  Ga13  1  0.563509  0.495618  0.324317  1
  Ga  Ga14  1  0.106987  0.163158  0.673603  1
  Ga  Ga15  1  0.893013  0.836842  0.326397  1
  Ga  Ga16  1  0.354337  0.498020  0.940572  1
  Ga  Ga17  1  0.645663  0.501980  0.059428  1
  Ga  Ga18  1  0.019714  0.174363  0.946324  1
  Ga  Ga19  1  0.980286  0.825637  0.053676  1
  Ga  Ga20  1  0.187067  0.499168  0.442208  1
  Ga  Ga21  1  0.812933  0.500832  0.557792  1
  Ga  Ga22  1  0.737000  0.162996  0.182104  1
  Ga  Ga23  1  0.263000  0.837004  0.817896  1
  Ga  Ga24  1  0.061301  0.627552  0.818981  1
  Ga  Ga25  1  0.938699  0.372448  0.181019  1
  Ga  Ga26  1  0.858766  0.039351  0.816717  1
  Ga  Ga27  1  0.141234  0.960649  0.183284  1
  Pt  Pt28  1  0.117374  0.494754  0.639391  1
  Pt  Pt29  1  0.882626  0.505246  0.360609  1
  Pt  Pt30  1  0.659897  0.169736  0.999414  1
  Pt  Pt31  1  0.340103  0.830264  0.000586  1
  Pt  Pt32  1  0.540910  0.167141  0.360071  1
  Pt  Pt33  1  0.459090  0.832859  0.639929  1
  Pt  Pt34  1  0.778356  0.172962  0.637441  1
  Pt  Pt35  1  0.221644  0.827038  0.362559  1
  Rh  Rh36  1  0.000000  0.500000  0.000000  1
