# generated using pymatgen
data_YbCd(CuPt)2
_symmetry_space_group_name_H-M   'P 1'
_cell_length_a   5.20665217
_cell_length_b   5.50591259
_cell_length_c   5.20665313
_cell_angle_alpha   58.07976922
_cell_angle_beta   58.26889908
_cell_angle_gamma   58.07976741
_symmetry_Int_Tables_number   1
_chemical_formula_structural   YbCd(CuPt)2
_chemical_formula_sum   'Yb1 Cd1 Cu2 Pt2'
_cell_volume   101.04986865
_cell_formula_units_Z   1
loop_
 _symmetry_equiv_pos_site_id
 _symmetry_equiv_pos_as_xyz
  1  'x, y, z'
loop_
 _atom_site_type_symbol
 _atom_site_label
 _atom_site_symmetry_multiplicity
 _atom_site_fract_x
 _atom_site_fract_y
 _atom_site_fract_z
 _atom_site_occupancy
  Yb  Yb0  1  0.749212  0.750788  0.749212  1
  Cd  Cd1  1  0.999082  0.000918  0.999082  1
  Cu  Cu2  1  0.874954  0.373925  0.377197  1
  Cu  Cu3  1  0.377197  0.373925  0.874954  1
  Pt  Pt4  1  0.374778  0.875923  0.374778  1
  Pt  Pt5  1  0.374778  0.374522  0.374778  1
