# generated using pymatgen
data_Li3TbYb2Sn3
_symmetry_space_group_name_H-M   'P 1'
_cell_length_a   4.85407400
_cell_length_b   4.85407316
_cell_length_c   10.73833500
_cell_angle_alpha   90.00000000
_cell_angle_beta   90.00000000
_cell_angle_gamma   119.99999211
_symmetry_Int_Tables_number   1
_chemical_formula_structural   Li3TbYb2Sn3
_chemical_formula_sum   'Li3 Tb1 Yb2 Sn3'
_cell_volume   219.11914510
_cell_formula_units_Z   1
loop_
 _symmetry_equiv_pos_site_id
 _symmetry_equiv_pos_as_xyz
  1  'x, y, z'
loop_
 _atom_site_type_symbol
 _atom_site_label
 _atom_site_symmetry_multiplicity
 _atom_site_fract_x
 _atom_site_fract_y
 _atom_site_fract_z
 _atom_site_occupancy
  Li  Li0  1  0.000000  0.000000  0.803808  1
  Li  Li1  1  0.333333  0.666667  0.500000  1
  Li  Li2  1  0.000000  0.000000  0.196192  1
  Tb  Tb3  1  0.666667  0.333333  0.000000  1
  Yb  Yb4  1  0.666667  0.333333  0.339062  1
  Yb  Yb5  1  0.666667  0.333333  0.660938  1
  Sn  Sn6  1  0.333333  0.666667  0.147266  1
  Sn  Sn7  1  0.333333  0.666667  0.852734  1
  Sn  Sn8  1  0.000000  0.000000  0.500000  1
