# generated using pymatgen
data_Ac4ThOs2
_symmetry_space_group_name_H-M   'P 1'
_cell_length_a   9.31559630
_cell_length_b   9.31559631
_cell_length_c   7.73584900
_cell_angle_alpha   83.30876578
_cell_angle_beta   83.30876577
_cell_angle_gamma   43.98506572
_symmetry_Int_Tables_number   1
_chemical_formula_structural   Ac4ThOs2
_chemical_formula_sum   'Ac8 Th2 Os4'
_cell_volume   462.51620329
_cell_formula_units_Z   2
loop_
 _symmetry_equiv_pos_site_id
 _symmetry_equiv_pos_as_xyz
  1  'x, y, z'
loop_
 _atom_site_type_symbol
 _atom_site_label
 _atom_site_symmetry_multiplicity
 _atom_site_fract_x
 _atom_site_fract_y
 _atom_site_fract_z
 _atom_site_occupancy
  Ac  Ac0  1  0.012911  0.804413  0.915322  1
  Ac  Ac1  1  0.195587  0.987089  0.584678  1
  Ac  Ac2  1  0.987089  0.195587  0.084678  1
  Ac  Ac3  1  0.804413  0.012911  0.415322  1
  Ac  Ac4  1  0.360527  0.214849  0.815394  1
  Ac  Ac5  1  0.785151  0.639473  0.684606  1
  Ac  Ac6  1  0.639473  0.785151  0.184606  1
  Ac  Ac7  1  0.214849  0.360527  0.315394  1
  Th  Th8  1  0.562695  0.437305  0.750000  1
  Th  Th9  1  0.437305  0.562695  0.250000  1
  Os  Os10  1  0.214489  0.592592  0.566280  1
  Os  Os11  1  0.407408  0.785511  0.933720  1
  Os  Os12  1  0.785511  0.407408  0.433720  1
  Os  Os13  1  0.592592  0.214489  0.066280  1
