# generated using pymatgen
data_Y2B4OsRu3
_symmetry_space_group_name_H-M   'P 1'
_cell_length_a   6.62735437
_cell_length_b   5.91230205
_cell_length_c   5.58088205
_cell_angle_alpha   70.36064861
_cell_angle_beta   57.16221911
_cell_angle_gamma   52.49906345
_symmetry_Int_Tables_number   1
_chemical_formula_structural   Y2B4OsRu3
_chemical_formula_sum   'Y2 B4 Os1 Ru3'
_cell_volume   145.75746438
_cell_formula_units_Z   1
loop_
 _symmetry_equiv_pos_site_id
 _symmetry_equiv_pos_as_xyz
  1  'x, y, z'
loop_
 _atom_site_type_symbol
 _atom_site_label
 _atom_site_symmetry_multiplicity
 _atom_site_fract_x
 _atom_site_fract_y
 _atom_site_fract_z
 _atom_site_occupancy
  Y  Y0  1  0.000997  0.000997  0.999003  1
  Y  Y1  1  0.248116  0.248116  0.251884  1
  B  B2  1  0.691548  0.308595  0.689412  1
  B  B3  1  0.308595  0.691548  0.310445  1
  B  B4  1  0.938376  0.563375  0.938137  1
  B  B5  1  0.563375  0.938376  0.560112  1
  Os  Os6  1  0.887772  0.887772  0.612228  1
  Ru  Ru7  1  0.610456  0.610456  0.889544  1
  Ru  Ru8  1  0.638878  0.638878  0.361122  1
  Ru  Ru9  1  0.361887  0.361887  0.638113  1
