# generated using pymatgen
data_NpMnAl10Ru
_symmetry_space_group_name_H-M   'P 1'
_cell_length_a   6.79134673
_cell_length_b   6.78823013
_cell_length_c   9.00437158
_cell_angle_alpha   90.19486813
_cell_angle_beta   89.84784135
_cell_angle_gamma   97.76968618
_symmetry_Int_Tables_number   1
_chemical_formula_structural   NpMnAl10Ru
_chemical_formula_sum   'Np2 Mn2 Al20 Ru2'
_cell_volume   411.29822870
_cell_formula_units_Z   2
loop_
 _symmetry_equiv_pos_site_id
 _symmetry_equiv_pos_as_xyz
  1  'x, y, z'
loop_
 _atom_site_type_symbol
 _atom_site_label
 _atom_site_symmetry_multiplicity
 _atom_site_fract_x
 _atom_site_fract_y
 _atom_site_fract_z
 _atom_site_occupancy
  Np  Np0  1  0.876698  0.123928  0.758812  1
  Np  Np1  1  0.123302  0.876072  0.241188  1
  Mn  Mn2  1  0.500000  0.000000  0.000000  1
  Mn  Mn3  1  0.000000  0.500000  0.000000  1
  Al  Al4  1  0.588909  0.864190  0.246526  1
  Al  Al5  1  0.780850  0.523027  0.246721  1
  Al  Al6  1  0.158151  0.841476  0.902085  1
  Al  Al7  1  0.411091  0.135810  0.753474  1
  Al  Al8  1  0.625895  0.374174  0.950940  1
  Al  Al9  1  0.845361  0.154508  0.400847  1
  Al  Al10  1  0.774729  0.774630  0.999901  1
  Al  Al11  1  0.864381  0.588947  0.753661  1
  Al  Al12  1  0.841849  0.158524  0.097915  1
  Al  Al13  1  0.219150  0.476973  0.753279  1
  Al  Al14  1  0.154639  0.845492  0.599153  1
  Al  Al15  1  0.776235  0.776512  0.500239  1
  Al  Al16  1  0.476814  0.219129  0.247006  1
  Al  Al17  1  0.623321  0.376617  0.552666  1
  Al  Al18  1  0.223765  0.223488  0.499761  1
  Al  Al19  1  0.376679  0.623383  0.447334  1
  Al  Al20  1  0.135619  0.411053  0.246339  1
  Al  Al21  1  0.523186  0.780871  0.752994  1
  Al  Al22  1  0.374105  0.625826  0.049060  1
  Al  Al23  1  0.225271  0.225370  0.000099  1
  Ru  Ru24  1  0.500000  0.000000  0.500000  1
  Ru  Ru25  1  0.000000  0.500000  0.500000  1
