# generated using pymatgen
data_Nd3Mg(PPt)4
_symmetry_space_group_name_H-M   'P 1'
_cell_length_a   4.10843000
_cell_length_b   4.10843072
_cell_length_c   16.11887900
_cell_angle_alpha   90.00000000
_cell_angle_beta   90.00000000
_cell_angle_gamma   120.00001033
_symmetry_Int_Tables_number   1
_chemical_formula_structural   Nd3Mg(PPt)4
_chemical_formula_sum   'Nd3 Mg1 P4 Pt4'
_cell_volume   235.62278288
_cell_formula_units_Z   1
loop_
 _symmetry_equiv_pos_site_id
 _symmetry_equiv_pos_as_xyz
  1  'x, y, z'
loop_
 _atom_site_type_symbol
 _atom_site_label
 _atom_site_symmetry_multiplicity
 _atom_site_fract_x
 _atom_site_fract_y
 _atom_site_fract_z
 _atom_site_occupancy
  Nd  Nd0  1  0.000000  0.000000  0.513209  1
  Nd  Nd1  1  0.000000  0.000000  0.986791  1
  Nd  Nd2  1  0.000000  0.000000  0.250000  1
  Mg  Mg3  1  0.000000  0.000000  0.750000  1
  P  P4  1  0.333333  0.666667  0.872360  1
  P  P5  1  0.666667  0.333333  0.120291  1
  P  P6  1  0.666667  0.333333  0.379709  1
  P  P7  1  0.333333  0.666667  0.627640  1
  Pt  Pt8  1  0.333333  0.666667  0.379923  1
  Pt  Pt9  1  0.666667  0.333333  0.650864  1
  Pt  Pt10  1  0.666667  0.333333  0.849136  1
  Pt  Pt11  1  0.333333  0.666667  0.120077  1
