# generated using pymatgen
data_Nd3Dy5(HgIr)2
_symmetry_space_group_name_H-M   'P 1'
_cell_length_a   9.71166200
_cell_length_b   9.71166287
_cell_length_c   9.71166300
_cell_angle_alpha   60.00000296
_cell_angle_beta   59.99999999
_cell_angle_gamma   60.00000493
_symmetry_Int_Tables_number   1
_chemical_formula_structural   Nd3Dy5(HgIr)2
_chemical_formula_sum   'Nd6 Dy10 Hg4 Ir4'
_cell_volume   647.68790702
_cell_formula_units_Z   2
loop_
 _symmetry_equiv_pos_site_id
 _symmetry_equiv_pos_as_xyz
  1  'x, y, z'
loop_
 _atom_site_type_symbol
 _atom_site_label
 _atom_site_symmetry_multiplicity
 _atom_site_fract_x
 _atom_site_fract_y
 _atom_site_fract_z
 _atom_site_occupancy
  Nd  Nd0  1  0.941252  0.558748  0.558748  1
  Nd  Nd1  1  0.558748  0.941252  0.941252  1
  Nd  Nd2  1  0.558748  0.941252  0.558748  1
  Nd  Nd3  1  0.941252  0.558748  0.941252  1
  Nd  Nd4  1  0.558748  0.558748  0.941252  1
  Nd  Nd5  1  0.941252  0.941252  0.558748  1
  Dy  Dy6  1  0.349101  0.349101  0.349101  1
  Dy  Dy7  1  0.349101  0.349101  0.952695  1
  Dy  Dy8  1  0.349101  0.952695  0.349101  1
  Dy  Dy9  1  0.952695  0.349101  0.349101  1
  Dy  Dy10  1  0.811165  0.188835  0.188835  1
  Dy  Dy11  1  0.188835  0.811165  0.811165  1
  Dy  Dy12  1  0.188835  0.811165  0.188835  1
  Dy  Dy13  1  0.811165  0.188835  0.811165  1
  Dy  Dy14  1  0.188835  0.188835  0.811165  1
  Dy  Dy15  1  0.811165  0.811165  0.188835  1
  Hg  Hg16  1  0.583013  0.583013  0.583013  1
  Hg  Hg17  1  0.583013  0.583013  0.250959  1
  Hg  Hg18  1  0.583013  0.250959  0.583013  1
  Hg  Hg19  1  0.250959  0.583013  0.583013  1
  Ir  Ir20  1  0.141440  0.141440  0.141440  1
  Ir  Ir21  1  0.141440  0.141440  0.575680  1
  Ir  Ir22  1  0.141440  0.575680  0.141440  1
  Ir  Ir23  1  0.575680  0.141440  0.141440  1
