# generated using pymatgen
data_V(OsCl6)5
_symmetry_space_group_name_H-M   'P 1'
_cell_length_a   12.91262143
_cell_length_b   12.94903857
_cell_length_c   6.55981730
_cell_angle_alpha   86.25415039
_cell_angle_beta   86.03920690
_cell_angle_gamma   88.27619973
_symmetry_Int_Tables_number   1
_chemical_formula_structural   V(OsCl6)5
_chemical_formula_sum   'V1 Os5 Cl30'
_cell_volume   1091.52342278
_cell_formula_units_Z   1
loop_
 _symmetry_equiv_pos_site_id
 _symmetry_equiv_pos_as_xyz
  1  'x, y, z'
loop_
 _atom_site_type_symbol
 _atom_site_label
 _atom_site_symmetry_multiplicity
 _atom_site_fract_x
 _atom_site_fract_y
 _atom_site_fract_z
 _atom_site_occupancy
  V  V0  1  0.554522  0.779100  0.433383  1
  Os  Os1  1  0.896332  0.103465  0.000287  1
  Os  Os2  1  0.103319  0.896481  0.999828  1
  Os  Os3  1  0.768603  0.564579  0.433344  1
  Os  Os4  1  0.229633  0.436789  0.566666  1
  Os  Os5  1  0.436912  0.230265  0.566817  1
  Cl  Cl6  1  0.510113  0.313123  0.816086  1
  Cl  Cl7  1  0.265713  0.266682  0.739215  1
  Cl  Cl8  1  0.171471  0.974255  0.698547  1
  Cl  Cl9  1  0.601271  0.599512  0.603837  1
  Cl  Cl10  1  0.219427  0.589497  0.383695  1
  Cl  Cl11  1  0.734431  0.731706  0.262879  1
  Cl  Cl12  1  0.156711  0.353419  0.317170  1
  Cl  Cl13  1  0.070000  0.070040  0.125774  1
  Cl  Cl14  1  0.646333  0.836141  0.671253  1
  Cl  Cl15  1  0.589999  0.218640  0.384227  1
  Cl  Cl16  1  0.111213  0.740507  0.867364  1
  Cl  Cl17  1  0.025870  0.829076  0.301330  1
  Cl  Cl18  1  0.922998  0.551794  0.250185  1
  Cl  Cl19  1  0.828094  0.025702  0.301528  1
  Cl  Cl20  1  0.410375  0.780230  0.617813  1
  Cl  Cl21  1  0.781060  0.411069  0.615877  1
  Cl  Cl22  1  0.554133  0.922874  0.249681  1
  Cl  Cl23  1  0.974806  0.170411  0.698987  1
  Cl  Cl24  1  0.844316  0.646660  0.682770  1
  Cl  Cl25  1  0.888345  0.259438  0.132200  1
  Cl  Cl26  1  0.497065  0.687534  0.195611  1
  Cl  Cl27  1  0.353156  0.156301  0.318000  1
  Cl  Cl28  1  0.076145  0.448669  0.747897  1
  Cl  Cl29  1  0.740029  0.110598  0.867831  1
  Cl  Cl30  1  0.447208  0.077237  0.749890  1
  Cl  Cl31  1  0.400879  0.399992  0.394275  1
  Cl  Cl32  1  0.313151  0.510161  0.816096  1
  Cl  Cl33  1  0.260225  0.889107  0.131165  1
  Cl  Cl34  1  0.929738  0.929508  0.875173  1
  Cl  Cl35  1  0.686401  0.489439  0.183321  1
