# generated using pymatgen
data_PrY3(WN3)4
_symmetry_space_group_name_H-M   'P 1'
_cell_length_a   7.34480723
_cell_length_b   7.34480712
_cell_length_c   6.29582778
_cell_angle_alpha   74.69514446
_cell_angle_beta   74.69514558
_cell_angle_gamma   82.74297597
_symmetry_Int_Tables_number   1
_chemical_formula_structural   PrY3(WN3)4
_chemical_formula_sum   'Pr1 Y3 W4 N12'
_cell_volume   315.38646977
_cell_formula_units_Z   1
loop_
 _symmetry_equiv_pos_site_id
 _symmetry_equiv_pos_as_xyz
  1  'x, y, z'
loop_
 _atom_site_type_symbol
 _atom_site_label
 _atom_site_symmetry_multiplicity
 _atom_site_fract_x
 _atom_site_fract_y
 _atom_site_fract_z
 _atom_site_occupancy
  Pr  Pr0  1  0.701267  0.298733  0.750000  1
  Y  Y1  1  0.091688  0.908312  0.750000  1
  Y  Y2  1  0.293944  0.706056  0.250000  1
  Y  Y3  1  0.914380  0.085620  0.250000  1
  W  W4  1  0.379623  0.200909  0.242359  1
  W  W5  1  0.618266  0.799770  0.761366  1
  W  W6  1  0.799091  0.620377  0.257641  1
  W  W7  1  0.200230  0.381734  0.738634  1
  N  N8  1  0.621934  0.112663  0.167260  1
  N  N9  1  0.357310  0.359605  0.452347  1
  N  N10  1  0.007341  0.213845  0.850057  1
  N  N11  1  0.377404  0.892527  0.842419  1
  N  N12  1  0.786155  0.992659  0.649943  1
  N  N13  1  0.107473  0.622596  0.657581  1
  N  N14  1  0.887337  0.378066  0.332740  1
  N  N15  1  0.642800  0.648865  0.542114  1
  N  N16  1  0.640395  0.642690  0.047653  1
  N  N17  1  0.351135  0.357200  0.957886  1
  N  N18  1  0.001268  0.779041  0.150157  1
  N  N19  1  0.220959  0.998732  0.349843  1
