# generated using pymatgen
data_Pr5NdZn4Pt13
_symmetry_space_group_name_H-M   'P 1'
_cell_length_a   8.42099315
_cell_length_b   8.42099375
_cell_length_c   8.42099413
_cell_angle_alpha   109.45134694
_cell_angle_beta   109.48115582
_cell_angle_gamma   109.48116084
_symmetry_Int_Tables_number   1
_chemical_formula_structural   Pr5NdZn4Pt13
_chemical_formula_sum   'Pr5 Nd1 Zn4 Pt13'
_cell_volume   459.69321549
_cell_formula_units_Z   1
loop_
 _symmetry_equiv_pos_site_id
 _symmetry_equiv_pos_as_xyz
  1  'x, y, z'
loop_
 _atom_site_type_symbol
 _atom_site_label
 _atom_site_symmetry_multiplicity
 _atom_site_fract_x
 _atom_site_fract_y
 _atom_site_fract_z
 _atom_site_occupancy
  Pr  Pr0  1  0.699468  0.699365  0.999897  1
  Pr  Pr1  1  0.300532  0.999897  0.300430  1
  Pr  Pr2  1  0.000000  0.300604  0.300604  1
  Pr  Pr3  1  0.300532  0.300430  0.999897  1
  Pr  Pr4  1  0.699468  0.999897  0.699365  1
  Nd  Nd5  1  0.000000  0.698439  0.698439  1
  Zn  Zn6  1  0.000000  0.000066  0.500335  1
  Zn  Zn7  1  0.000000  0.500335  0.000066  1
  Zn  Zn8  1  0.499731  0.000066  0.000066  1
  Zn  Zn9  1  0.500269  0.500335  0.500335  1
  Pt  Pt10  1  0.329163  0.329067  0.658229  1
  Pt  Pt11  1  0.670837  0.999903  0.329067  1
  Pt  Pt12  1  0.000000  0.670686  0.329955  1
  Pt  Pt13  1  0.670837  0.329067  0.999903  1
  Pt  Pt14  1  0.329163  0.658229  0.329067  1
  Pt  Pt15  1  0.000000  0.329955  0.670686  1
  Pt  Pt16  1  0.328599  0.671100  0.999699  1
  Pt  Pt17  1  0.328599  0.999699  0.671100  1
  Pt  Pt18  1  0.659268  0.329955  0.329955  1
  Pt  Pt19  1  0.671401  0.671100  0.342502  1
  Pt  Pt20  1  0.671401  0.342502  0.671100  1
  Pt  Pt21  1  0.340732  0.670686  0.670686  1
  Pt  Pt22  1  0.000000  0.998618  0.998618  1
