# generated using pymatgen
data_Ho16Sc4(Ir3Rh)3
_symmetry_space_group_name_H-M   'P 1'
_cell_length_a   10.71207500
_cell_length_b   10.71207500
_cell_length_c   6.27022000
_cell_angle_alpha   90.00000000
_cell_angle_beta   90.00000000
_cell_angle_gamma   90.00000000
_symmetry_Int_Tables_number   1
_chemical_formula_structural   Ho16Sc4(Ir3Rh)3
_chemical_formula_sum   'Ho16 Sc4 Ir9 Rh3'
_cell_volume   719.49865823
_cell_formula_units_Z   1
loop_
 _symmetry_equiv_pos_site_id
 _symmetry_equiv_pos_as_xyz
  1  'x, y, z'
loop_
 _atom_site_type_symbol
 _atom_site_label
 _atom_site_symmetry_multiplicity
 _atom_site_fract_x
 _atom_site_fract_y
 _atom_site_fract_z
 _atom_site_occupancy
  Ho  Ho0  1  0.287593  0.086522  0.377756  1
  Ho  Ho1  1  0.287577  0.913448  0.877596  1
  Ho  Ho2  1  0.712423  0.086552  0.877596  1
  Ho  Ho3  1  0.712407  0.913478  0.377756  1
  Ho  Ho4  1  0.586552  0.787577  0.877596  1
  Ho  Ho5  1  0.586522  0.212407  0.377756  1
  Ho  Ho6  1  0.413478  0.787593  0.377756  1
  Ho  Ho7  1  0.413448  0.212423  0.877596  1
  Ho  Ho8  1  0.211875  0.413600  0.621503  1
  Ho  Ho9  1  0.212110  0.586523  0.123238  1
  Ho  Ho10  1  0.787890  0.413477  0.123238  1
  Ho  Ho11  1  0.788125  0.586400  0.621503  1
  Ho  Ho12  1  0.913477  0.712110  0.123238  1
  Ho  Ho13  1  0.913600  0.288125  0.621503  1
  Ho  Ho14  1  0.086400  0.711875  0.621503  1
  Ho  Ho15  1  0.086523  0.287890  0.123238  1
  Sc  Sc16  1  0.000000  0.000000  0.500172  1
  Sc  Sc17  1  0.000000  0.000000  0.999861  1
  Sc  Sc18  1  0.500000  0.500000  0.999861  1
  Sc  Sc19  1  0.500000  0.500000  0.500172  1
  Ir  Ir20  1  0.851092  0.147971  0.249781  1
  Ir  Ir21  1  0.851429  0.851719  0.749947  1
  Ir  Ir22  1  0.148571  0.148281  0.749947  1
  Ir  Ir23  1  0.148908  0.852029  0.249781  1
  Ir  Ir24  1  0.648281  0.351429  0.749947  1
  Ir  Ir25  1  0.647971  0.648908  0.249781  1
  Ir  Ir26  1  0.352029  0.351092  0.249781  1
  Ir  Ir27  1  0.351719  0.648571  0.749947  1
  Ir  Ir28  1  0.000000  0.500000  0.377480  1
  Rh  Rh29  1  0.500000  0.000000  0.122434  1
  Rh  Rh30  1  0.500000  0.000000  0.622525  1
  Rh  Rh31  1  0.000000  0.500000  0.878211  1
