# generated using pymatgen
data_Er20Os6Pt5Se
_symmetry_space_group_name_H-M   'P 1'
_cell_length_a   10.84529005
_cell_length_b   10.84529013
_cell_length_c   6.40228800
_cell_angle_alpha   89.99424152
_cell_angle_beta   89.99424152
_cell_angle_gamma   89.64338336
_symmetry_Int_Tables_number   1
_chemical_formula_structural   Er20Os6Pt5Se
_chemical_formula_sum   'Er20 Os6 Pt5 Se1'
_cell_volume   753.02455118
_cell_formula_units_Z   1
loop_
 _symmetry_equiv_pos_site_id
 _symmetry_equiv_pos_as_xyz
  1  'x, y, z'
loop_
 _atom_site_type_symbol
 _atom_site_label
 _atom_site_symmetry_multiplicity
 _atom_site_fract_x
 _atom_site_fract_y
 _atom_site_fract_z
 _atom_site_occupancy
  Er  Er0  1  0.295847  0.090503  0.370506  1
  Er  Er1  1  0.297213  0.921273  0.873246  1
  Er  Er2  1  0.701249  0.084561  0.870870  1
  Er  Er3  1  0.702381  0.910479  0.374481  1
  Er  Er4  1  0.592016  0.793380  0.880037  1
  Er  Er5  1  0.581120  0.204711  0.368145  1
  Er  Er6  1  0.419954  0.797733  0.367467  1
  Er  Er7  1  0.413072  0.208233  0.879941  1
  Er  Er8  1  0.206620  0.407984  0.619963  1
  Er  Er9  1  0.202267  0.580046  0.132533  1
  Er  Er10  1  0.795289  0.418880  0.131855  1
  Er  Er11  1  0.791767  0.586928  0.620059  1
  Er  Er12  1  0.909497  0.704153  0.129494  1
  Er  Er13  1  0.915439  0.298751  0.629130  1
  Er  Er14  1  0.078727  0.702787  0.626754  1
  Er  Er15  1  0.089521  0.297619  0.125519  1
  Er  Er16  1  0.000250  0.000218  0.498769  1
  Er  Er17  1  0.999782  0.999750  0.001231  1
  Er  Er18  1  0.502761  0.495828  0.004931  1
  Er  Er19  1  0.504172  0.497239  0.495069  1
  Os  Os20  1  0.648860  0.651549  0.250469  1
  Os  Os21  1  0.348451  0.351140  0.249531  1
  Os  Os22  1  0.499303  0.997742  0.120838  1
  Os  Os23  1  0.499065  0.999008  0.623585  1
  Os  Os24  1  0.000992  0.500935  0.876415  1
  Os  Os25  1  0.002258  0.500697  0.379162  1
  Pt  Pt26  1  0.847039  0.152961  0.250000  1
  Pt  Pt27  1  0.849471  0.847760  0.749380  1
  Pt  Pt28  1  0.152240  0.150529  0.750620  1
  Pt  Pt29  1  0.153747  0.846253  0.250000  1
  Pt  Pt30  1  0.655838  0.344162  0.750000  1
  Se  Se31  1  0.343789  0.656211  0.750000  1
