# generated using pymatgen
data_Sm3(Cd2Sn)2
_symmetry_space_group_name_H-M   'P 1'
_cell_length_a   7.61429300
_cell_length_b   7.61429310
_cell_length_c   4.66510900
_cell_angle_alpha   90.00000000
_cell_angle_beta   90.00000000
_cell_angle_gamma   120.00000390
_symmetry_Int_Tables_number   1
_chemical_formula_structural   Sm3(Cd2Sn)2
_chemical_formula_sum   'Sm3 Cd4 Sn2'
_cell_volume   234.23489004
_cell_formula_units_Z   1
loop_
 _symmetry_equiv_pos_site_id
 _symmetry_equiv_pos_as_xyz
  1  'x, y, z'
loop_
 _atom_site_type_symbol
 _atom_site_label
 _atom_site_symmetry_multiplicity
 _atom_site_fract_x
 _atom_site_fract_y
 _atom_site_fract_z
 _atom_site_occupancy
  Sm  Sm0  1  0.423216  0.423216  0.500000  1
  Sm  Sm1  1  0.576784  0.000000  0.500000  1
  Sm  Sm2  1  0.000000  0.576784  0.500000  1
  Cd  Cd3  1  0.760859  0.760859  0.000000  1
  Cd  Cd4  1  0.239141  0.000000  0.000000  1
  Cd  Cd5  1  0.000000  0.239141  0.000000  1
  Cd  Cd6  1  0.000000  0.000000  0.500000  1
  Sn  Sn7  1  0.666667  0.333333  0.000000  1
  Sn  Sn8  1  0.333333  0.666667  0.000000  1
