# generated using pymatgen
data_YHo2Sn3Rh2Au
_symmetry_space_group_name_H-M   'P 1'
_cell_length_a   7.70036592
_cell_length_b   7.68925469
_cell_length_c   3.81689700
_cell_angle_alpha   90.00000000
_cell_angle_beta   90.00000000
_cell_angle_gamma   119.76786320
_symmetry_Int_Tables_number   1
_chemical_formula_structural   YHo2Sn3Rh2Au
_chemical_formula_sum   'Y1 Ho2 Sn3 Rh2 Au1'
_cell_volume   196.17687979
_cell_formula_units_Z   1
loop_
 _symmetry_equiv_pos_site_id
 _symmetry_equiv_pos_as_xyz
  1  'x, y, z'
loop_
 _atom_site_type_symbol
 _atom_site_label
 _atom_site_symmetry_multiplicity
 _atom_site_fract_x
 _atom_site_fract_y
 _atom_site_fract_z
 _atom_site_occupancy
  Y  Y0  1  0.013328  0.408193  0.000000  1
  Ho  Ho1  1  0.591357  0.605846  0.000000  1
  Ho  Ho2  1  0.394051  0.984978  0.000000  1
  Sn  Sn3  1  0.256859  0.260885  0.500000  1
  Sn  Sn4  1  0.004608  0.743358  0.500000  1
  Sn  Sn5  1  0.738698  0.994981  0.500000  1
  Rh  Rh6  1  0.336111  0.669085  0.500000  1
  Rh  Rh7  1  0.000048  0.999354  0.000000  1
  Au  Au8  1  0.664940  0.333321  0.500000  1
