# generated using pymatgen
data_YbY2(Al3Pd2)3
_symmetry_space_group_name_H-M   'P 1'
_cell_length_a   9.42876500
_cell_length_b   9.42876487
_cell_length_c   4.22236600
_cell_angle_alpha   90.00000000
_cell_angle_beta   90.00000000
_cell_angle_gamma   120.00001098
_symmetry_Int_Tables_number   1
_chemical_formula_structural   YbY2(Al3Pd2)3
_chemical_formula_sum   'Yb1 Y2 Al9 Pd6'
_cell_volume   325.08436065
_cell_formula_units_Z   1
loop_
 _symmetry_equiv_pos_site_id
 _symmetry_equiv_pos_as_xyz
  1  'x, y, z'
loop_
 _atom_site_type_symbol
 _atom_site_label
 _atom_site_symmetry_multiplicity
 _atom_site_fract_x
 _atom_site_fract_y
 _atom_site_fract_z
 _atom_site_occupancy
  Yb  Yb0  1  0.000000  0.000000  0.000000  1
  Y  Y1  1  0.333333  0.666667  0.500000  1
  Y  Y2  1  0.666667  0.333333  0.500000  1
  Al  Al3  1  0.000000  0.305366  0.500000  1
  Al  Al4  1  0.000000  0.500000  0.000000  1
  Al  Al5  1  0.500000  0.500000  0.000000  1
  Al  Al6  1  0.500000  0.000000  0.000000  1
  Al  Al7  1  0.694634  0.000000  0.500000  1
  Al  Al8  1  0.694634  0.694634  0.500000  1
  Al  Al9  1  0.305366  0.000000  0.500000  1
  Al  Al10  1  0.000000  0.694634  0.500000  1
  Al  Al11  1  0.305366  0.305366  0.500000  1
  Pd  Pd12  1  0.815824  0.184176  0.000000  1
  Pd  Pd13  1  0.815824  0.631649  0.000000  1
  Pd  Pd14  1  0.184176  0.815824  0.000000  1
  Pd  Pd15  1  0.631649  0.815824  0.000000  1
  Pd  Pd16  1  0.368351  0.184176  0.000000  1
  Pd  Pd17  1  0.184176  0.368351  0.000000  1
