# generated using pymatgen
data_Lu4AlCo
_symmetry_space_group_name_H-M   'P 1'
_cell_length_a   9.21288931
_cell_length_b   9.19933213
_cell_length_c   9.19933200
_cell_angle_alpha   60.00000048
_cell_angle_beta   60.04866684
_cell_angle_gamma   60.04866546
_symmetry_Int_Tables_number   1
_chemical_formula_structural   Lu4AlCo
_chemical_formula_sum   'Lu16 Al4 Co4'
_cell_volume   551.71211293
_cell_formula_units_Z   4
loop_
 _symmetry_equiv_pos_site_id
 _symmetry_equiv_pos_as_xyz
  1  'x, y, z'
loop_
 _atom_site_type_symbol
 _atom_site_label
 _atom_site_symmetry_multiplicity
 _atom_site_fract_x
 _atom_site_fract_y
 _atom_site_fract_z
 _atom_site_occupancy
  Lu  Lu0  1  0.599416  0.599296  0.599296  1
  Lu  Lu1  1  0.599416  0.599296  0.201994  1
  Lu  Lu2  1  0.599416  0.201994  0.599296  1
  Lu  Lu3  1  0.202058  0.599314  0.599314  1
  Lu  Lu4  1  0.057740  0.442082  0.442082  1
  Lu  Lu5  1  0.441890  0.058159  0.058159  1
  Lu  Lu6  1  0.441890  0.058159  0.441792  1
  Lu  Lu7  1  0.057740  0.442082  0.058095  1
  Lu  Lu8  1  0.441890  0.441792  0.058159  1
  Lu  Lu9  1  0.057740  0.058095  0.442082  1
  Lu  Lu10  1  0.188604  0.811253  0.811253  1
  Lu  Lu11  1  0.811639  0.188307  0.188307  1
  Lu  Lu12  1  0.811639  0.188307  0.811746  1
  Lu  Lu13  1  0.188604  0.811253  0.188890  1
  Lu  Lu14  1  0.811639  0.811746  0.188307  1
  Lu  Lu15  1  0.188604  0.188890  0.811253  1
  Al  Al16  1  0.828525  0.827957  0.827957  1
  Al  Al17  1  0.828525  0.827957  0.515563  1
  Al  Al18  1  0.828525  0.515563  0.827957  1
  Al  Al19  1  0.514487  0.828505  0.828505  1
  Co  Co20  1  0.390736  0.391165  0.391165  1
  Co  Co21  1  0.390736  0.391165  0.826934  1
  Co  Co22  1  0.390736  0.826934  0.391165  1
  Co  Co23  1  0.827809  0.390730  0.390730  1
