# generated using pymatgen
data_Tb8Tm12Si15Tc
_symmetry_space_group_name_H-M   'P 1'
_cell_length_a   7.31637345
_cell_length_b   7.71434350
_cell_length_c   14.45291300
_cell_angle_alpha   90.00000000
_cell_angle_beta   90.00000000
_cell_angle_gamma   90.15205245
_symmetry_Int_Tables_number   1
_chemical_formula_structural   Tb8Tm12Si15Tc
_chemical_formula_sum   'Tb8 Tm12 Si15 Tc1'
_cell_volume   815.73424933
_cell_formula_units_Z   1
loop_
 _symmetry_equiv_pos_site_id
 _symmetry_equiv_pos_as_xyz
  1  'x, y, z'
loop_
 _atom_site_type_symbol
 _atom_site_label
 _atom_site_symmetry_multiplicity
 _atom_site_fract_x
 _atom_site_fract_y
 _atom_site_fract_z
 _atom_site_occupancy
  Tb  Tb0  1  0.017130  0.183059  0.096706  1
  Tb  Tb1  1  0.986435  0.826861  0.904285  1
  Tb  Tb2  1  0.484116  0.680469  0.904157  1
  Tb  Tb3  1  0.986435  0.826861  0.595715  1
  Tb  Tb4  1  0.515916  0.319197  0.096547  1
  Tb  Tb5  1  0.017130  0.183059  0.403294  1
  Tb  Tb6  1  0.515916  0.319197  0.403453  1
  Tb  Tb7  1  0.484116  0.680469  0.595843  1
  Tm  Tm8  1  0.156268  0.510161  0.750000  1
  Tm  Tm9  1  0.839226  0.487991  0.250000  1
  Tm  Tm10  1  0.339050  0.013576  0.250000  1
  Tm  Tm11  1  0.666770  0.989766  0.750000  1
  Tm  Tm12  1  0.313549  0.173613  0.627198  1
  Tm  Tm13  1  0.675195  0.824110  0.375197  1
  Tm  Tm14  1  0.174849  0.679341  0.375149  1
  Tm  Tm15  1  0.675195  0.824110  0.124803  1
  Tm  Tm16  1  0.836468  0.315328  0.626059  1
  Tm  Tm17  1  0.313549  0.173613  0.872802  1
  Tm  Tm18  1  0.836468  0.315328  0.873941  1
  Tm  Tm19  1  0.174849  0.679341  0.124851  1
  Si  Si20  1  0.969386  0.892401  0.250000  1
  Si  Si21  1  0.471782  0.607384  0.250000  1
  Si  Si22  1  0.529616  0.395858  0.750000  1
  Si  Si23  1  0.280041  0.866058  0.750000  1
  Si  Si24  1  0.717716  0.130561  0.250000  1
  Si  Si25  1  0.220004  0.370088  0.250000  1
  Si  Si26  1  0.771871  0.625793  0.750000  1
  Si  Si27  1  0.158229  0.472504  0.537174  1
  Si  Si28  1  0.846544  0.532798  0.462149  1
  Si  Si29  1  0.346085  0.968540  0.460812  1
  Si  Si30  1  0.846544  0.532798  0.037851  1
  Si  Si31  1  0.650581  0.031470  0.537843  1
  Si  Si32  1  0.158229  0.472504  0.962826  1
  Si  Si33  1  0.650581  0.031470  0.962157  1
  Si  Si34  1  0.346085  0.968540  0.039188  1
  Tc  Tc35  1  0.028074  0.095783  0.750000  1
