# generated using pymatgen
data_NdLuTcB6
_symmetry_space_group_name_H-M   'P 1'
_cell_length_a   3.70155600
_cell_length_b   9.17760800
_cell_length_c   11.63208000
_cell_angle_alpha   90.00000000
_cell_angle_beta   90.00000000
_cell_angle_gamma   90.00000000
_symmetry_Int_Tables_number   1
_chemical_formula_structural   NdLuTcB6
_chemical_formula_sum   'Nd4 Lu4 Tc4 B24'
_cell_volume   395.15839099
_cell_formula_units_Z   4
loop_
 _symmetry_equiv_pos_site_id
 _symmetry_equiv_pos_as_xyz
  1  'x, y, z'
loop_
 _atom_site_type_symbol
 _atom_site_label
 _atom_site_symmetry_multiplicity
 _atom_site_fract_x
 _atom_site_fract_y
 _atom_site_fract_z
 _atom_site_occupancy
  Nd  Nd0  1  0.000000  0.323278  0.414759  1
  Nd  Nd1  1  0.000000  0.676722  0.585241  1
  Nd  Nd2  1  0.000000  0.823278  0.085241  1
  Nd  Nd3  1  0.000000  0.176722  0.914759  1
  Lu  Lu4  1  0.000000  0.943241  0.369201  1
  Lu  Lu5  1  0.000000  0.056759  0.630799  1
  Lu  Lu6  1  0.000000  0.443241  0.130799  1
  Lu  Lu7  1  0.000000  0.556759  0.869201  1
  Tc  Tc8  1  0.000000  0.640819  0.318133  1
  Tc  Tc9  1  0.000000  0.359181  0.681867  1
  Tc  Tc10  1  0.000000  0.140819  0.181867  1
  Tc  Tc11  1  0.000000  0.859181  0.818133  1
  B  B12  1  0.500000  0.555818  0.429927  1
  B  B13  1  0.500000  0.444182  0.570073  1
  B  B14  1  0.500000  0.055818  0.070073  1
  B  B15  1  0.500000  0.944182  0.929927  1
  B  B16  1  0.500000  0.751576  0.415876  1
  B  B17  1  0.500000  0.248424  0.584124  1
  B  B18  1  0.500000  0.251576  0.084124  1
  B  B19  1  0.500000  0.748424  0.915876  1
  B  B20  1  0.500000  0.792869  0.265815  1
  B  B21  1  0.500000  0.207131  0.734185  1
  B  B22  1  0.500000  0.292869  0.234185  1
  B  B23  1  0.500000  0.707131  0.765815  1
  B  B24  1  0.500000  0.629489  0.185241  1
  B  B25  1  0.500000  0.370511  0.814759  1
  B  B26  1  0.500000  0.129489  0.314759  1
  B  B27  1  0.500000  0.870511  0.685241  1
  B  B28  1  0.500000  0.983763  0.213906  1
  B  B29  1  0.500000  0.016237  0.786094  1
  B  B30  1  0.500000  0.483763  0.286094  1
  B  B31  1  0.500000  0.516237  0.713906  1
  B  B32  1  0.500000  0.595469  0.026080  1
  B  B33  1  0.500000  0.404531  0.973920  1
  B  B34  1  0.500000  0.095469  0.473920  1
  B  B35  1  0.500000  0.904531  0.526080  1
