# generated using pymatgen
data_Eu6HfVO14
_symmetry_space_group_name_H-M   'P 1'
_cell_length_a   6.57418448
_cell_length_b   6.57513900
_cell_length_c   7.60901805
_cell_angle_alpha   90.85007619
_cell_angle_beta   89.24177470
_cell_angle_gamma   109.48971264
_symmetry_Int_Tables_number   1
_chemical_formula_structural   Eu6HfVO14
_chemical_formula_sum   'Eu6 Hf1 V1 O14'
_cell_volume   310.01665403
_cell_formula_units_Z   1
loop_
 _symmetry_equiv_pos_site_id
 _symmetry_equiv_pos_as_xyz
  1  'x, y, z'
loop_
 _atom_site_type_symbol
 _atom_site_label
 _atom_site_symmetry_multiplicity
 _atom_site_fract_x
 _atom_site_fract_y
 _atom_site_fract_z
 _atom_site_occupancy
  Eu  Eu0  1  0.002644  0.470632  0.747590  1
  Eu  Eu1  1  0.998143  0.535446  0.246280  1
  Eu  Eu2  1  0.535170  0.998264  0.753723  1
  Eu  Eu3  1  0.470728  0.002521  0.252338  1
  Eu  Eu4  1  0.532659  0.532415  0.499924  1
  Eu  Eu5  1  0.496142  0.496145  0.000082  1
  Hf  Hf6  1  0.998356  0.998335  0.000098  1
  V  V7  1  0.015578  0.015604  0.499867  1
  O  O8  1  0.637615  0.362646  0.742624  1
  O  O9  1  0.362773  0.637485  0.257452  1
  O  O10  1  0.940758  0.056267  0.738704  1
  O  O11  1  0.056197  0.940716  0.261274  1
  O  O12  1  0.920304  0.678993  0.524442  1
  O  O13  1  0.083750  0.335551  0.021503  1
  O  O14  1  0.335539  0.083496  0.978559  1
  O  O15  1  0.678468  0.920338  0.475584  1
  O  O16  1  0.370342  0.630276  0.747613  1
  O  O17  1  0.630364  0.370254  0.252358  1
  O  O18  1  0.921943  0.669641  0.971944  1
  O  O19  1  0.050431  0.292268  0.458367  1
  O  O20  1  0.292547  0.050874  0.541674  1
  O  O21  1  0.669549  0.921832  0.028001  1
