# generated using pymatgen
data_Zr(NbS2)5
_symmetry_space_group_name_H-M   'P 1'
_cell_length_a   5.85301610
_cell_length_b   7.40386326
_cell_length_c   8.16399526
_cell_angle_alpha   110.21756756
_cell_angle_beta   97.04514945
_cell_angle_gamma   105.07595701
_symmetry_Int_Tables_number   1
_chemical_formula_structural   Zr(NbS2)5
_chemical_formula_sum   'Zr1 Nb5 S10'
_cell_volume   311.61831641
_cell_formula_units_Z   1
loop_
 _symmetry_equiv_pos_site_id
 _symmetry_equiv_pos_as_xyz
  1  'x, y, z'
loop_
 _atom_site_type_symbol
 _atom_site_label
 _atom_site_symmetry_multiplicity
 _atom_site_fract_x
 _atom_site_fract_y
 _atom_site_fract_z
 _atom_site_occupancy
  Zr  Zr0  1  0.669598  0.516366  0.988073  1
  Nb  Nb1  1  0.003507  0.996390  0.001672  1
  Nb  Nb2  1  0.598484  0.204313  0.203870  1
  Nb  Nb3  1  0.196996  0.399162  0.398036  1
  Nb  Nb4  1  0.796620  0.597898  0.603046  1
  Nb  Nb5  1  0.402721  0.794473  0.799587  1
  S  S6  1  0.234263  0.053642  0.299701  1
  S  S7  1  0.049204  0.647240  0.901009  1
  S  S8  1  0.833427  0.252052  0.497600  1
  S  S9  1  0.634319  0.861838  0.111038  1
  S  S10  1  0.419786  0.433631  0.687405  1
  S  S11  1  0.899395  0.555373  0.304275  1
  S  S12  1  0.700761  0.146305  0.900141  1
  S  S13  1  0.498903  0.746720  0.503301  1
  S  S14  1  0.295655  0.349186  0.098535  1
  S  S15  1  0.099160  0.943012  0.704311  1
