# generated using pymatgen
data_Sc3(In2Pd)2
_symmetry_space_group_name_H-M   'P 1'
_cell_length_a   7.78538500
_cell_length_b   7.78538545
_cell_length_c   3.59225200
_cell_angle_alpha   90.00000000
_cell_angle_beta   90.00000000
_cell_angle_gamma   119.99999383
_symmetry_Int_Tables_number   1
_chemical_formula_structural   Sc3(In2Pd)2
_chemical_formula_sum   'Sc3 In4 Pd2'
_cell_volume   188.56351587
_cell_formula_units_Z   1
loop_
 _symmetry_equiv_pos_site_id
 _symmetry_equiv_pos_as_xyz
  1  'x, y, z'
loop_
 _atom_site_type_symbol
 _atom_site_label
 _atom_site_symmetry_multiplicity
 _atom_site_fract_x
 _atom_site_fract_y
 _atom_site_fract_z
 _atom_site_occupancy
  Sc  Sc0  1  0.382306  0.411792  0.500000  1
  Sc  Sc1  1  0.588208  0.970514  0.500000  1
  Sc  Sc2  1  0.029486  0.617694  0.500000  1
  In  In3  1  0.732292  0.736457  0.000000  1
  In  In4  1  0.263543  0.995836  0.000000  1
  In  In5  1  0.004164  0.267708  0.000000  1
  In  In6  1  0.666667  0.333333  0.000000  1
  Pd  Pd7  1  0.333333  0.666667  0.000000  1
  Pd  Pd8  1  0.000000  0.000000  0.500000  1
