# generated using pymatgen
data_Sr4RuW3O16
_symmetry_space_group_name_H-M   'P 1'
_cell_length_a   5.11664699
_cell_length_b   5.63879295
_cell_length_c   13.03161100
_cell_angle_alpha   90.00000000
_cell_angle_beta   90.00000000
_cell_angle_gamma   90.00611270
_symmetry_Int_Tables_number   1
_chemical_formula_structural   Sr4RuW3O16
_chemical_formula_sum   'Sr4 Ru1 W3 O16'
_cell_volume   375.98429796
_cell_formula_units_Z   1
loop_
 _symmetry_equiv_pos_site_id
 _symmetry_equiv_pos_as_xyz
  1  'x, y, z'
loop_
 _atom_site_type_symbol
 _atom_site_label
 _atom_site_symmetry_multiplicity
 _atom_site_fract_x
 _atom_site_fract_y
 _atom_site_fract_z
 _atom_site_occupancy
  Sr  Sr0  1  0.750000  0.000000  0.656084  1
  Sr  Sr1  1  0.250000  0.500000  0.846589  1
  Sr  Sr2  1  0.250000  0.000000  0.343748  1
  Sr  Sr3  1  0.750000  0.500000  0.153999  1
  Ru  Ru4  1  0.750000  0.000000  0.922049  1
  W  W5  1  0.750000  0.500000  0.423523  1
  W  W6  1  0.250000  0.000000  0.076819  1
  W  W7  1  0.250000  0.500000  0.577948  1
  O  O8  1  0.120409  0.293969  0.674627  1
  O  O9  1  0.616319  0.199858  0.824671  1
  O  O10  1  0.883681  0.800142  0.824671  1
  O  O11  1  0.379591  0.706031  0.674627  1
  O  O12  1  0.880441  0.706593  0.327707  1
  O  O13  1  0.384783  0.795585  0.172907  1
  O  O14  1  0.115217  0.204415  0.172907  1
  O  O15  1  0.619559  0.293407  0.327707  1
  O  O16  1  0.554834  0.309250  0.543313  1
  O  O17  1  0.041631  0.191326  0.959800  1
  O  O18  1  0.458369  0.808674  0.959800  1
  O  O19  1  0.945166  0.690750  0.543313  1
  O  O20  1  0.445035  0.691425  0.458520  1
  O  O21  1  0.958279  0.800270  0.038078  1
  O  O22  1  0.541721  0.199730  0.038078  1
  O  O23  1  0.054965  0.308575  0.458520  1
