# generated using pymatgen
data_Ho3Er(GaCo)4
_symmetry_space_group_name_H-M   'P 1'
_cell_length_a   4.40704600
_cell_length_b   6.80514476
_cell_length_c   6.96942326
_cell_angle_alpha   89.99520159
_cell_angle_beta   90.00000000
_cell_angle_gamma   90.00000000
_symmetry_Int_Tables_number   1
_chemical_formula_structural   Ho3Er(GaCo)4
_chemical_formula_sum   'Ho3 Er1 Ga4 Co4'
_cell_volume   209.01708688
_cell_formula_units_Z   1
loop_
 _symmetry_equiv_pos_site_id
 _symmetry_equiv_pos_as_xyz
  1  'x, y, z'
loop_
 _atom_site_type_symbol
 _atom_site_label
 _atom_site_symmetry_multiplicity
 _atom_site_fract_x
 _atom_site_fract_y
 _atom_site_fract_z
 _atom_site_occupancy
  Ho  Ho0  1  0.250000  0.195748  0.022784  1
  Ho  Ho1  1  0.750000  0.695076  0.477437  1
  Ho  Ho2  1  0.750000  0.804572  0.977418  1
  Er  Er3  1  0.250000  0.303784  0.523073  1
  Ga  Ga4  1  0.250000  0.893263  0.694668  1
  Ga  Ga5  1  0.250000  0.606721  0.194478  1
  Ga  Ga6  1  0.750000  0.107489  0.305803  1
  Ga  Ga7  1  0.750000  0.393112  0.805132  1
  Co  Co8  1  0.250000  0.937864  0.343808  1
  Co  Co9  1  0.250000  0.561932  0.842788  1
  Co  Co10  1  0.750000  0.062762  0.656112  1
  Co  Co11  1  0.750000  0.437676  0.156500  1
