# generated using pymatgen
data_Nb8ReNiTe8
_symmetry_space_group_name_H-M   'P 1'
_cell_length_a   4.89370900
_cell_length_b   11.31373000
_cell_length_c   20.01133700
_cell_angle_alpha   90.00000000
_cell_angle_beta   90.00000000
_cell_angle_gamma   90.00000000
_symmetry_Int_Tables_number   1
_chemical_formula_structural   Nb8ReNiTe8
_chemical_formula_sum   'Nb16 Re2 Ni2 Te16'
_cell_volume   1107.94973199
_cell_formula_units_Z   2
loop_
 _symmetry_equiv_pos_site_id
 _symmetry_equiv_pos_as_xyz
  1  'x, y, z'
loop_
 _atom_site_type_symbol
 _atom_site_label
 _atom_site_symmetry_multiplicity
 _atom_site_fract_x
 _atom_site_fract_y
 _atom_site_fract_z
 _atom_site_occupancy
  Nb  Nb0  1  0.494473  0.563889  0.385865  1
  Nb  Nb1  1  0.494473  0.436111  0.614135  1
  Nb  Nb2  1  0.505527  0.063889  0.114135  1
  Nb  Nb3  1  0.505527  0.936111  0.885865  1
  Nb  Nb4  1  0.494663  0.702132  0.536060  1
  Nb  Nb5  1  0.494663  0.297868  0.463940  1
  Nb  Nb6  1  0.505337  0.202132  0.963940  1
  Nb  Nb7  1  0.505337  0.797868  0.036060  1
  Nb  Nb8  1  0.006424  0.688093  0.444754  1
  Nb  Nb9  1  0.006424  0.311907  0.555246  1
  Nb  Nb10  1  0.993576  0.188093  0.055246  1
  Nb  Nb11  1  0.993576  0.811907  0.944754  1
  Nb  Nb12  1  0.006310  0.402231  0.393791  1
  Nb  Nb13  1  0.006310  0.597769  0.606209  1
  Nb  Nb14  1  0.993690  0.902231  0.106209  1
  Nb  Nb15  1  0.993690  0.097769  0.893791  1
  Re  Re16  1  0.750430  0.500000  0.500000  1
  Re  Re17  1  0.249570  0.000000  0.000000  1
  Ni  Ni18  1  0.249653  0.500000  0.500000  1
  Ni  Ni19  1  0.750347  0.000000  0.000000  1
  Te  Te20  1  0.000955  0.838145  0.560305  1
  Te  Te21  1  0.000955  0.161855  0.439695  1
  Te  Te22  1  0.999045  0.338145  0.939695  1
  Te  Te23  1  0.999045  0.661855  0.060305  1
  Te  Te24  1  0.500178  0.336683  0.322331  1
  Te  Te25  1  0.500178  0.663317  0.677669  1
  Te  Te26  1  0.499822  0.836683  0.177669  1
  Te  Te27  1  0.499822  0.163317  0.822331  1
  Te  Te28  1  0.500105  0.814667  0.407630  1
  Te  Te29  1  0.500105  0.185333  0.592370  1
  Te  Te30  1  0.499895  0.314667  0.092370  1
  Te  Te31  1  0.499895  0.685333  0.907630  1
  Te  Te32  1  0.000519  0.606872  0.309138  1
  Te  Te33  1  0.000519  0.393128  0.690862  1
  Te  Te34  1  0.999481  0.106872  0.190862  1
  Te  Te35  1  0.999481  0.893128  0.809138  1
