# generated using pymatgen
data_CrRe5Sb14
_symmetry_space_group_name_H-M   'P 1'
_cell_length_a   8.25407577
_cell_length_b   8.25401575
_cell_length_c   8.25407443
_cell_angle_alpha   109.16804786
_cell_angle_beta   109.16574918
_cell_angle_gamma   110.08190107
_symmetry_Int_Tables_number   1
_chemical_formula_structural   CrRe5Sb14
_chemical_formula_sum   'Cr1 Re5 Sb14'
_cell_volume   432.85412413
_cell_formula_units_Z   1
loop_
 _symmetry_equiv_pos_site_id
 _symmetry_equiv_pos_as_xyz
  1  'x, y, z'
loop_
 _atom_site_type_symbol
 _atom_site_label
 _atom_site_symmetry_multiplicity
 _atom_site_fract_x
 _atom_site_fract_y
 _atom_site_fract_z
 _atom_site_occupancy
  Cr  Cr0  1  0.338729  0.338747  0.000019  1
  Re  Re1  1  0.000813  0.342148  0.341336  1
  Re  Re2  1  0.000845  0.659513  0.658669  1
  Re  Re3  1  0.659507  0.000826  0.658672  1
  Re  Re4  1  0.342154  0.000826  0.341318  1
  Re  Re5  1  0.660363  0.660365  0.000002  1
  Sb  Sb6  1  0.750183  0.250180  0.499996  1
  Sb  Sb7  1  0.496517  0.247866  0.751349  1
  Sb  Sb8  1  0.496520  0.745168  0.248649  1
  Sb  Sb9  1  0.247866  0.496517  0.751349  1
  Sb  Sb10  1  0.745167  0.496517  0.248650  1
  Sb  Sb11  1  0.250178  0.750175  0.499997  1
  Sb  Sb12  1  0.327484  0.327484  0.322267  1
  Sb  Sb13  1  0.000079  0.000081  0.327285  1
  Sb  Sb14  1  0.327483  0.005220  0.999997  1
  Sb  Sb15  1  0.005216  0.327484  0.000000  1
  Sb  Sb16  1  0.672797  0.000081  0.000002  1
  Sb  Sb17  1  0.000081  0.672791  0.999996  1
  Sb  Sb18  1  0.005223  0.005220  0.677737  1
  Sb  Sb19  1  0.672796  0.672791  0.672711  1
