# generated using pymatgen
data_Lu10In8IrPt3
_symmetry_space_group_name_H-M   'P 1'
_cell_length_a   3.57418100
_cell_length_b   8.02105538
_cell_length_c   17.98247737
_cell_angle_alpha   89.99523915
_cell_angle_beta   90.00000000
_cell_angle_gamma   90.00000000
_symmetry_Int_Tables_number   1
_chemical_formula_structural   Lu10In8IrPt3
_chemical_formula_sum   'Lu10 In8 Ir1 Pt3'
_cell_volume   515.53431446
_cell_formula_units_Z   1
loop_
 _symmetry_equiv_pos_site_id
 _symmetry_equiv_pos_as_xyz
  1  'x, y, z'
loop_
 _atom_site_type_symbol
 _atom_site_label
 _atom_site_symmetry_multiplicity
 _atom_site_fract_x
 _atom_site_fract_y
 _atom_site_fract_z
 _atom_site_occupancy
  Lu  Lu0  1  0.000000  0.115257  0.412241  1
  Lu  Lu1  1  0.000000  0.882951  0.585550  1
  Lu  Lu2  1  0.000000  0.383938  0.914333  1
  Lu  Lu3  1  0.000000  0.617452  0.087182  1
  Lu  Lu4  1  0.000000  0.240036  0.222871  1
  Lu  Lu5  1  0.000000  0.755420  0.777784  1
  Lu  Lu6  1  0.000000  0.255514  0.721901  1
  Lu  Lu7  1  0.000000  0.749748  0.278375  1
  Lu  Lu8  1  0.000000  0.000519  0.000473  1
  Lu  Lu9  1  0.000000  0.500927  0.499437  1
  In  In10  1  0.500000  0.424161  0.352856  1
  In  In11  1  0.500000  0.573559  0.646915  1
  In  In12  1  0.500000  0.074033  0.853055  1
  In  In13  1  0.500000  0.929518  0.148467  1
  In  In14  1  0.500000  0.292568  0.066221  1
  In  In15  1  0.500000  0.708682  0.934233  1
  In  In16  1  0.500000  0.207331  0.565290  1
  In  In17  1  0.500000  0.793152  0.432256  1
  Ir  Ir18  1  0.500000  0.022743  0.303979  1
  Pt  Pt19  1  0.500000  0.975353  0.696114  1
  Pt  Pt20  1  0.500000  0.475244  0.803826  1
  Pt  Pt21  1  0.500000  0.521896  0.196641  1
