# generated using pymatgen
data_Sc2Co8Si5Mo2P
_symmetry_space_group_name_H-M   'P 1'
_cell_length_a   3.65356100
_cell_length_b   10.43818800
_cell_length_c   11.95208000
_cell_angle_alpha   90.00000000
_cell_angle_beta   90.00000000
_cell_angle_gamma   90.00000000
_symmetry_Int_Tables_number   1
_chemical_formula_structural   Sc2Co8Si5Mo2P
_chemical_formula_sum   'Sc4 Co16 Si10 Mo4 P2'
_cell_volume   455.81117526
_cell_formula_units_Z   2
loop_
 _symmetry_equiv_pos_site_id
 _symmetry_equiv_pos_as_xyz
  1  'x, y, z'
loop_
 _atom_site_type_symbol
 _atom_site_label
 _atom_site_symmetry_multiplicity
 _atom_site_fract_x
 _atom_site_fract_y
 _atom_site_fract_z
 _atom_site_occupancy
  Sc  Sc0  1  0.250000  0.573833  0.702380  1
  Sc  Sc1  1  0.250000  0.926167  0.202380  1
  Sc  Sc2  1  0.750000  0.422403  0.294346  1
  Sc  Sc3  1  0.750000  0.077597  0.794346  1
  Co  Co4  1  0.250000  0.406503  0.490348  1
  Co  Co5  1  0.250000  0.093497  0.990348  1
  Co  Co6  1  0.750000  0.588607  0.515075  1
  Co  Co7  1  0.750000  0.911393  0.015075  1
  Co  Co8  1  0.250000  0.213624  0.172729  1
  Co  Co9  1  0.250000  0.286377  0.672729  1
  Co  Co10  1  0.750000  0.787525  0.828557  1
  Co  Co11  1  0.750000  0.712475  0.328557  1
  Co  Co12  1  0.250000  0.882115  0.700310  1
  Co  Co13  1  0.250000  0.617885  0.200310  1
  Co  Co14  1  0.750000  0.117677  0.296583  1
  Co  Co15  1  0.750000  0.382323  0.796583  1
  Co  Co16  1  0.250000  0.463997  0.931408  1
  Co  Co17  1  0.250000  0.036003  0.431408  1
  Co  Co18  1  0.750000  0.535700  0.066297  1
  Co  Co19  1  0.750000  0.964300  0.566297  1
  Si  Si20  1  0.250000  0.420610  0.119730  1
  Si  Si21  1  0.250000  0.079390  0.619730  1
  Si  Si22  1  0.750000  0.579859  0.878727  1
  Si  Si23  1  0.750000  0.920141  0.378727  1
  Si  Si24  1  0.250000  0.261043  0.859853  1
  Si  Si25  1  0.250000  0.238957  0.359853  1
  Si  Si26  1  0.750000  0.738686  0.141464  1
  Si  Si27  1  0.750000  0.761314  0.641464  1
  Si  Si28  1  0.250000  0.590979  0.390552  1
  Si  Si29  1  0.250000  0.909021  0.890552  1
  Mo  Mo30  1  0.250000  0.700902  0.993179  1
  Mo  Mo31  1  0.250000  0.799098  0.493179  1
  Mo  Mo32  1  0.750000  0.296911  0.008382  1
  Mo  Mo33  1  0.750000  0.203089  0.508382  1
  P  P34  1  0.750000  0.405725  0.610080  1
  P  P35  1  0.750000  0.094275  0.110080  1
