# generated using pymatgen
data_Tb5GaBi2S
_symmetry_space_group_name_H-M   'P 1'
_cell_length_a   9.10212594
_cell_length_b   9.08129374
_cell_length_c   6.64148200
_cell_angle_alpha   90.00000000
_cell_angle_beta   90.00000000
_cell_angle_gamma   119.92431893
_symmetry_Int_Tables_number   1
_chemical_formula_structural   Tb5GaBi2S
_chemical_formula_sum   'Tb10 Ga2 Bi4 S2'
_cell_volume   475.79172972
_cell_formula_units_Z   2
loop_
 _symmetry_equiv_pos_site_id
 _symmetry_equiv_pos_as_xyz
  1  'x, y, z'
loop_
 _atom_site_type_symbol
 _atom_site_label
 _atom_site_symmetry_multiplicity
 _atom_site_fract_x
 _atom_site_fract_y
 _atom_site_fract_z
 _atom_site_occupancy
  Tb  Tb0  1  0.657071  0.325975  0.492627  1
  Tb  Tb1  1  0.342929  0.668905  0.492627  1
  Tb  Tb2  1  0.342929  0.668905  0.007373  1
  Tb  Tb3  1  0.657071  0.325975  0.007373  1
  Tb  Tb4  1  0.744192  0.758312  0.250000  1
  Tb  Tb5  1  0.255808  0.014120  0.250000  1
  Tb  Tb6  1  0.000000  0.241084  0.250000  1
  Tb  Tb7  1  0.244132  0.244379  0.750000  1
  Tb  Tb8  1  0.755868  0.000247  0.750000  1
  Tb  Tb9  1  0.000000  0.756930  0.750000  1
  Ga  Ga10  1  0.396772  0.396452  0.250000  1
  Ga  Ga11  1  0.603228  0.999680  0.250000  1
  Bi  Bi12  1  0.000000  0.607103  0.250000  1
  Bi  Bi13  1  0.602535  0.600374  0.750000  1
  Bi  Bi14  1  0.397465  0.997839  0.750000  1
  Bi  Bi15  1  0.000000  0.397345  0.750000  1
  S  S16  1  0.000000  0.998186  0.500305  1
  S  S17  1  0.000000  0.998186  0.999695  1
