# generated using pymatgen
data_ErTmPa2(CoB4)4
_symmetry_space_group_name_H-M   'P 1'
_cell_length_a   3.38282700
_cell_length_b   5.89979799
_cell_length_c   11.44429807
_cell_angle_alpha   89.86878373
_cell_angle_beta   90.00000000
_cell_angle_gamma   90.00000000
_symmetry_Int_Tables_number   1
_chemical_formula_structural   ErTmPa2(CoB4)4
_chemical_formula_sum   'Er1 Tm1 Pa2 Co4 B16'
_cell_volume   228.40465550
_cell_formula_units_Z   1
loop_
 _symmetry_equiv_pos_site_id
 _symmetry_equiv_pos_as_xyz
  1  'x, y, z'
loop_
 _atom_site_type_symbol
 _atom_site_label
 _atom_site_symmetry_multiplicity
 _atom_site_fract_x
 _atom_site_fract_y
 _atom_site_fract_z
 _atom_site_occupancy
  Er  Er0  1  0.500000  0.128154  0.647452  1
  Tm  Tm1  1  0.500000  0.871922  0.352471  1
  Pa  Pa2  1  0.500000  0.372251  0.152122  1
  Pa  Pa3  1  0.500000  0.627722  0.848013  1
  Co  Co4  1  0.500000  0.365584  0.409907  1
  Co  Co5  1  0.500000  0.634520  0.589668  1
  Co  Co6  1  0.500000  0.134561  0.909654  1
  Co  Co7  1  0.500000  0.865350  0.090794  1
  B  B8  1  0.000000  0.110559  0.046746  1
  B  B9  1  0.000000  0.889283  0.953499  1
  B  B10  1  0.000000  0.386446  0.544764  1
  B  B11  1  0.000000  0.614147  0.454757  1
  B  B12  1  0.000000  0.136934  0.466968  1
  B  B13  1  0.000000  0.863012  0.532489  1
  B  B14  1  0.000000  0.361219  0.965477  1
  B  B15  1  0.000000  0.638739  0.034754  1
  B  B16  1  0.000000  0.019944  0.192194  1
  B  B17  1  0.000000  0.979806  0.808188  1
  B  B18  1  0.000000  0.476051  0.688096  1
  B  B19  1  0.000000  0.524302  0.311775  1
  B  B20  1  0.000000  0.215205  0.316709  1
  B  B21  1  0.000000  0.784253  0.683181  1
  B  B22  1  0.000000  0.281876  0.813493  1
  B  B23  1  0.000000  0.718160  0.186827  1
