# generated using pymatgen
data_Tb7Yb(Si4Mo3)4
_symmetry_space_group_name_H-M   'P 1'
_cell_length_a   6.78836008
_cell_length_b   6.96779309
_cell_length_c   12.95879870
_cell_angle_alpha   90.03993981
_cell_angle_beta   89.96946102
_cell_angle_gamma   90.03183717
_symmetry_Int_Tables_number   1
_chemical_formula_structural   Tb7Yb(Si4Mo3)4
_chemical_formula_sum   'Tb7 Yb1 Si16 Mo12'
_cell_volume   612.94940327
_cell_formula_units_Z   1
loop_
 _symmetry_equiv_pos_site_id
 _symmetry_equiv_pos_as_xyz
  1  'x, y, z'
loop_
 _atom_site_type_symbol
 _atom_site_label
 _atom_site_symmetry_multiplicity
 _atom_site_fract_x
 _atom_site_fract_y
 _atom_site_fract_z
 _atom_site_occupancy
  Tb  Tb0  1  0.498331  0.332386  0.094463  1
  Tb  Tb1  1  0.997879  0.167251  0.405536  1
  Tb  Tb2  1  0.503156  0.666872  0.594118  1
  Tb  Tb3  1  0.002288  0.834596  0.907487  1
  Tb  Tb4  1  0.502374  0.666992  0.906523  1
  Tb  Tb5  1  0.002700  0.833200  0.594232  1
  Tb  Tb6  1  0.497354  0.333125  0.405140  1
  Yb  Yb7  1  0.997024  0.165762  0.092048  1
  Si  Si8  1  0.659274  0.043669  0.546808  1
  Si  Si9  1  0.157991  0.456159  0.953000  1
  Si  Si10  1  0.340698  0.957917  0.047666  1
  Si  Si11  1  0.841098  0.543319  0.452859  1
  Si  Si12  1  0.340583  0.956309  0.452785  1
  Si  Si13  1  0.842215  0.540890  0.048021  1
  Si  Si14  1  0.657905  0.043757  0.953379  1
  Si  Si15  1  0.159107  0.456563  0.546786  1
  Si  Si16  1  0.534695  0.364376  0.750259  1
  Si  Si17  1  0.034901  0.135804  0.750587  1
  Si  Si18  1  0.465040  0.635148  0.249896  1
  Si  Si19  1  0.965336  0.866026  0.249389  1
  Si  Si20  1  0.804276  0.628009  0.750549  1
  Si  Si21  1  0.303364  0.871926  0.750260  1
  Si  Si22  1  0.194483  0.371232  0.248586  1
  Si  Si23  1  0.698210  0.127554  0.248609  1
  Mo  Mo24  1  0.830388  0.335587  0.625504  1
  Mo  Mo25  1  0.330899  0.164080  0.874344  1
  Mo  Mo26  1  0.169273  0.666303  0.126354  1
  Mo  Mo27  1  0.669524  0.835844  0.373970  1
  Mo  Mo28  1  0.169551  0.664188  0.374727  1
  Mo  Mo29  1  0.669244  0.833545  0.125370  1
  Mo  Mo30  1  0.829767  0.335966  0.873909  1
  Mo  Mo31  1  0.330545  0.164403  0.625593  1
  Mo  Mo32  1  0.665565  0.000531  0.749860  1
  Mo  Mo33  1  0.166078  0.499699  0.750123  1
  Mo  Mo34  1  0.334646  0.998700  0.250547  1
  Mo  Mo35  1  0.834244  0.502308  0.250711  1
