# generated using pymatgen
data_TiCu2Ir3SeS7
_symmetry_space_group_name_H-M   'P 1'
_cell_length_a   7.26392871
_cell_length_b   6.83815434
_cell_length_c   7.26853480
_cell_angle_alpha   57.78007695
_cell_angle_beta   60.02096393
_cell_angle_gamma   57.91801562
_symmetry_Int_Tables_number   1
_chemical_formula_structural   TiCu2Ir3SeS7
_chemical_formula_sum   'Ti1 Cu2 Ir3 Se1 S7'
_cell_volume   246.71306252
_cell_formula_units_Z   1
loop_
 _symmetry_equiv_pos_site_id
 _symmetry_equiv_pos_as_xyz
  1  'x, y, z'
loop_
 _atom_site_type_symbol
 _atom_site_label
 _atom_site_symmetry_multiplicity
 _atom_site_fract_x
 _atom_site_fract_y
 _atom_site_fract_z
 _atom_site_occupancy
  Ti  Ti0  1  0.654919  0.049437  0.640725  1
  Cu  Cu1  1  0.005906  0.998522  0.989668  1
  Cu  Cu2  1  0.227955  0.277739  0.266350  1
  Ir  Ir3  1  0.624654  0.642678  0.617707  1
  Ir  Ir4  1  0.621938  0.637750  0.118373  1
  Ir  Ir5  1  0.114960  0.642678  0.617707  1
  Se  Se6  1  0.385184  0.376629  0.853005  1
  S  S7  1  0.386741  0.387485  0.390348  1
  S  S8  1  0.879044  0.857792  0.875613  1
  S  S9  1  0.883133  0.861218  0.372513  1
  S  S10  1  0.382081  0.852277  0.383563  1
  S  S11  1  0.835428  0.387485  0.390348  1
  S  S12  1  0.387549  0.857792  0.875613  1
  S  S13  1  0.860508  0.420517  0.858465  1
