# generated using pymatgen
data_Ce2Si2Pt3Rh
_symmetry_space_group_name_H-M   'P 1'
_cell_length_a   9.61994617
_cell_length_b   9.61994660
_cell_length_c   4.07868500
_cell_angle_alpha   90.00000000
_cell_angle_beta   90.00000000
_cell_angle_gamma   156.12648003
_symmetry_Int_Tables_number   1
_chemical_formula_structural   Ce2Si2Pt3Rh
_chemical_formula_sum   'Ce2 Si2 Pt3 Rh1'
_cell_volume   152.76331400
_cell_formula_units_Z   1
loop_
 _symmetry_equiv_pos_site_id
 _symmetry_equiv_pos_as_xyz
  1  'x, y, z'
loop_
 _atom_site_type_symbol
 _atom_site_label
 _atom_site_symmetry_multiplicity
 _atom_site_fract_x
 _atom_site_fract_y
 _atom_site_fract_z
 _atom_site_occupancy
  Ce  Ce0  1  0.101928  0.898072  0.750000  1
  Ce  Ce1  1  0.897811  0.102189  0.250000  1
  Si  Si2  1  0.322067  0.677933  0.750000  1
  Si  Si3  1  0.677913  0.322087  0.250000  1
  Pt  Pt4  1  0.550396  0.449604  0.250000  1
  Pt  Pt5  1  0.449639  0.550361  0.750000  1
  Pt  Pt6  1  0.250387  0.749613  0.250000  1
  Rh  Rh7  1  0.749859  0.250141  0.750000  1
