# generated using pymatgen
data_Ho3Al9Si3Os4
_symmetry_space_group_name_H-M   'P 1'
_cell_length_a   8.69355800
_cell_length_b   8.67021950
_cell_length_c   9.52262000
_cell_angle_alpha   90.00000000
_cell_angle_beta   90.00000000
_cell_angle_gamma   120.08908405
_symmetry_Int_Tables_number   1
_chemical_formula_structural   Ho3Al9Si3Os4
_chemical_formula_sum   'Ho6 Al18 Si6 Os8'
_cell_volume   621.04658904
_cell_formula_units_Z   2
loop_
 _symmetry_equiv_pos_site_id
 _symmetry_equiv_pos_as_xyz
  1  'x, y, z'
loop_
 _atom_site_type_symbol
 _atom_site_label
 _atom_site_symmetry_multiplicity
 _atom_site_fract_x
 _atom_site_fract_y
 _atom_site_fract_z
 _atom_site_occupancy
  Ho  Ho0  1  0.193277  0.386553  0.250000  1
  Ho  Ho1  1  0.806723  0.613447  0.750000  1
  Ho  Ho2  1  0.610308  0.807674  0.250000  1
  Ho  Ho3  1  0.389692  0.192326  0.750000  1
  Ho  Ho4  1  0.197366  0.807674  0.250000  1
  Ho  Ho5  1  0.802634  0.192326  0.750000  1
  Al  Al6  1  0.164844  0.329687  0.578688  1
  Al  Al7  1  0.835156  0.670313  0.421312  1
  Al  Al8  1  0.670609  0.834571  0.576992  1
  Al  Al9  1  0.835156  0.670313  0.078688  1
  Al  Al10  1  0.329391  0.165429  0.423008  1
  Al  Al11  1  0.164844  0.329687  0.921312  1
  Al  Al12  1  0.163962  0.834571  0.576992  1
  Al  Al13  1  0.329391  0.165429  0.076992  1
  Al  Al14  1  0.836038  0.165429  0.423008  1
  Al  Al15  1  0.670609  0.834571  0.923008  1
  Al  Al16  1  0.836038  0.165429  0.076992  1
  Al  Al17  1  0.163962  0.834571  0.923008  1
  Al  Al18  1  0.872972  0.433532  0.250000  1
  Al  Al19  1  0.127028  0.566468  0.750000  1
  Al  Al20  1  0.560559  0.433532  0.250000  1
  Al  Al21  1  0.439441  0.566468  0.750000  1
  Al  Al22  1  0.999537  0.999075  0.250000  1
  Al  Al23  1  0.000463  0.000925  0.750000  1
  Si  Si24  1  0.332081  0.664162  0.039469  1
  Si  Si25  1  0.667919  0.335838  0.960531  1
  Si  Si26  1  0.667919  0.335838  0.539469  1
  Si  Si27  1  0.332081  0.664162  0.460531  1
  Si  Si28  1  0.563375  0.126752  0.250000  1
  Si  Si29  1  0.436625  0.873248  0.750000  1
  Os  Os30  1  0.500000  0.000000  0.000000  1
  Os  Os31  1  0.000000  0.500000  0.000000  1
  Os  Os32  1  0.500000  0.000000  0.500000  1
  Os  Os33  1  0.500000  0.500000  0.000000  1
  Os  Os34  1  0.000000  0.500000  0.500000  1
  Os  Os35  1  0.500000  0.500000  0.500000  1
  Os  Os36  1  0.000000  0.000000  0.000000  1
  Os  Os37  1  0.000000  0.000000  0.500000  1
