# generated using pymatgen
data_VHg3O5
_symmetry_space_group_name_H-M   'P 1'
_cell_length_a   9.32014700
_cell_length_b   7.24221758
_cell_length_c   10.75421885
_cell_angle_alpha   58.28622205
_cell_angle_beta   90.00000000
_cell_angle_gamma   90.00000000
_symmetry_Int_Tables_number   1
_chemical_formula_structural   VHg3O5
_chemical_formula_sum   'V4 Hg12 O20'
_cell_volume   617.50692854
_cell_formula_units_Z   4
loop_
 _symmetry_equiv_pos_site_id
 _symmetry_equiv_pos_as_xyz
  1  'x, y, z'
loop_
 _atom_site_type_symbol
 _atom_site_label
 _atom_site_symmetry_multiplicity
 _atom_site_fract_x
 _atom_site_fract_y
 _atom_site_fract_z
 _atom_site_occupancy
  V  V0  1  0.242067  0.304409  0.704394  1
  V  V1  1  0.257933  0.304409  0.204394  1
  V  V2  1  0.757933  0.695591  0.295606  1
  V  V3  1  0.742067  0.695591  0.795606  1
  Hg  Hg4  1  0.132139  0.658798  0.341689  1
  Hg  Hg5  1  0.367861  0.658798  0.841689  1
  Hg  Hg6  1  0.867861  0.341202  0.658311  1
  Hg  Hg7  1  0.632139  0.341202  0.158311  1
  Hg  Hg8  1  0.015578  0.767310  0.986672  1
  Hg  Hg9  1  0.484422  0.767310  0.486672  1
  Hg  Hg10  1  0.984422  0.232690  0.013328  1
  Hg  Hg11  1  0.515578  0.232690  0.513328  1
  Hg  Hg12  1  0.368376  0.958048  0.051052  1
  Hg  Hg13  1  0.131624  0.958048  0.551052  1
  Hg  Hg14  1  0.631624  0.041952  0.948948  1
  Hg  Hg15  1  0.868376  0.041952  0.448948  1
  O  O16  1  0.136555  0.856024  0.114529  1
  O  O17  1  0.363445  0.856024  0.614529  1
  O  O18  1  0.863445  0.143976  0.885471  1
  O  O19  1  0.636555  0.143976  0.385471  1
  O  O20  1  0.232763  0.327216  0.855520  1
  O  O21  1  0.267237  0.327216  0.355520  1
  O  O22  1  0.767237  0.672784  0.144480  1
  O  O23  1  0.732763  0.672784  0.644480  1
  O  O24  1  0.175801  0.056276  0.748672  1
  O  O25  1  0.324199  0.056276  0.248672  1
  O  O26  1  0.824199  0.943724  0.251328  1
  O  O27  1  0.675801  0.943724  0.751328  1
  O  O28  1  0.134579  0.523140  0.566070  1
  O  O29  1  0.365421  0.523140  0.066070  1
  O  O30  1  0.865421  0.476860  0.433930  1
  O  O31  1  0.634579  0.476860  0.933930  1
  O  O32  1  0.424227  0.333904  0.646416  1
  O  O33  1  0.075773  0.333904  0.146416  1
  O  O34  1  0.575773  0.666096  0.353584  1
  O  O35  1  0.924227  0.666096  0.853584  1
