# generated using pymatgen
data_Ti8Al15Co6Pd
_symmetry_space_group_name_H-M   'P 1'
_cell_length_a   8.48006236
_cell_length_b   8.47182522
_cell_length_c   8.48863814
_cell_angle_alpha   120.05752462
_cell_angle_beta   119.79617723
_cell_angle_gamma   90.00925471
_symmetry_Int_Tables_number   1
_chemical_formula_structural   Ti8Al15Co6Pd
_chemical_formula_sum   'Ti8 Al15 Co6 Pd1'
_cell_volume   432.13510437
_cell_formula_units_Z   1
loop_
 _symmetry_equiv_pos_site_id
 _symmetry_equiv_pos_as_xyz
  1  'x, y, z'
loop_
 _atom_site_type_symbol
 _atom_site_label
 _atom_site_symmetry_multiplicity
 _atom_site_fract_x
 _atom_site_fract_y
 _atom_site_fract_z
 _atom_site_occupancy
  Ti  Ti0  1  0.790999  0.288088  0.073322  1
  Ti  Ti1  1  0.218049  0.289017  0.497267  1
  Ti  Ti2  1  0.213308  0.708992  0.500000  1
  Ti  Ti3  1  0.215161  0.718074  0.927499  1
  Ti  Ti4  1  0.787906  0.716415  0.502750  1
  Ti  Ti5  1  0.780999  0.284702  0.499529  1
  Ti  Ti6  1  0.390159  0.125468  0.749408  1
  Ti  Ti7  1  0.380458  0.638264  0.260145  1
  Al  Al8  1  0.997574  0.497367  0.500352  1
  Al  Al9  1  0.157039  0.341555  0.184671  1
  Al  Al10  1  0.160424  0.969766  0.821013  1
  Al  Al11  1  0.157214  0.353086  0.816165  1
  Al  Al12  1  0.533482  0.343967  0.190354  1
  Al  Al13  1  0.843146  0.656283  0.813897  1
  Al  Al14  1  0.839136  0.032250  0.179249  1
  Al  Al15  1  0.838036  0.647420  0.177755  1
  Al  Al16  1  0.472300  0.656841  0.815158  1
  Al  Al17  1  0.380519  0.120918  0.260553  1
  Al  Al18  1  0.859116  0.123872  0.747096  1
  Al  Al19  1  0.611868  0.875443  0.252024  1
  Al  Al20  1  0.619762  0.361549  0.739867  1
  Al  Al21  1  0.619724  0.877225  0.739368  1
  Al  Al22  1  0.139846  0.876797  0.253873  1
  Co  Co23  1  0.498398  0.000912  0.997014  1
  Co  Co24  1  0.497503  0.495992  0.999664  1
  Co  Co25  1  0.497990  0.500469  0.497394  1
  Co  Co26  1  0.003565  0.501045  0.003418  1
  Co  Co27  1  0.000492  0.999992  0.000130  1
  Co  Co28  1  0.497983  0.998381  0.501487  1
  Pd  Pd29  1  0.997840  0.999849  0.499576  1
