# generated using pymatgen
data_KTiTc2Te3
_symmetry_space_group_name_H-M   'P 1'
_cell_length_a   10.00234431
_cell_length_b   9.79551743
_cell_length_c   4.55014700
_cell_angle_alpha   90.00000000
_cell_angle_beta   90.00000000
_cell_angle_gamma   120.32731536
_symmetry_Int_Tables_number   1
_chemical_formula_structural   KTiTc2Te3
_chemical_formula_sum   'K2 Ti2 Tc4 Te6'
_cell_volume   384.80735223
_cell_formula_units_Z   2
loop_
 _symmetry_equiv_pos_site_id
 _symmetry_equiv_pos_as_xyz
  1  'x, y, z'
loop_
 _atom_site_type_symbol
 _atom_site_label
 _atom_site_symmetry_multiplicity
 _atom_site_fract_x
 _atom_site_fract_y
 _atom_site_fract_z
 _atom_site_occupancy
  K  K0  1  0.338475  0.670159  0.250000  1
  K  K1  1  0.666903  0.331052  0.750000  1
  Ti  Ti2  1  0.972156  0.144872  0.750000  1
  Ti  Ti3  1  0.853307  0.828101  0.750000  1
  Tc  Tc4  1  0.828882  0.972863  0.250000  1
  Tc  Tc5  1  0.138445  0.165239  0.250000  1
  Tc  Tc6  1  0.025059  0.860236  0.250000  1
  Tc  Tc7  1  0.158795  0.024612  0.750000  1
  Te  Te8  1  0.342036  0.053577  0.250000  1
  Te  Te9  1  0.950809  0.297981  0.250000  1
  Te  Te10  1  0.709701  0.648715  0.250000  1
  Te  Te11  1  0.642161  0.946614  0.750000  1
  Te  Te12  1  0.308950  0.348979  0.750000  1
  Te  Te13  1  0.064322  0.706997  0.750000  1
