# generated using pymatgen
data_La2Zn19Ni3
_symmetry_space_group_name_H-M   'P 1'
_cell_length_a   8.19111254
_cell_length_b   8.22424771
_cell_length_c   8.22364217
_cell_angle_alpha   100.18767939
_cell_angle_beta   99.64264483
_cell_angle_gamma   131.23225141
_symmetry_Int_Tables_number   1
_chemical_formula_structural   La2Zn19Ni3
_chemical_formula_sum   'La2 Zn19 Ni3'
_cell_volume   378.65418608
_cell_formula_units_Z   1
loop_
 _symmetry_equiv_pos_site_id
 _symmetry_equiv_pos_as_xyz
  1  'x, y, z'
loop_
 _atom_site_type_symbol
 _atom_site_label
 _atom_site_symmetry_multiplicity
 _atom_site_fract_x
 _atom_site_fract_y
 _atom_site_fract_z
 _atom_site_occupancy
  La  La0  1  0.247648  0.749575  0.498186  1
  La  La1  1  0.002352  0.000425  0.001814  1
  Zn  Zn2  1  0.891705  0.566554  0.075793  1
  Zn  Zn3  1  0.431024  0.521130  0.329302  1
  Zn  Zn4  1  0.482531  0.563839  0.673207  1
  Zn  Zn5  1  0.431071  0.101761  0.909881  1
  Zn  Zn6  1  0.767469  0.186161  0.826793  1
  Zn  Zn7  1  0.482583  0.809344  0.918718  1
  Zn  Zn8  1  0.500648  0.506395  0.994319  1
  Zn  Zn9  1  0.767417  0.940656  0.581282  1
  Zn  Zn10  1  0.749352  0.243605  0.505681  1
  Zn  Zn11  1  0.059184  0.637800  0.823537  1
  Zn  Zn12  1  0.358295  0.183446  0.424207  1
  Zn  Zn13  1  0.818929  0.648239  0.590119  1
  Zn  Zn14  1  0.891691  0.816010  0.325133  1
  Zn  Zn15  1  0.190816  0.112200  0.676463  1
  Zn  Zn16  1  0.059203  0.235696  0.421384  1
  Zn  Zn17  1  0.358309  0.933990  0.174867  1
  Zn  Zn18  1  0.818976  0.228870  0.170698  1
  Zn  Zn19  1  0.190797  0.514304  0.078616  1
  Zn  Zn20  1  0.625000  0.375000  0.250000  1
  Ni  Ni21  1  0.625000  0.875000  0.250000  1
  Ni  Ni22  1  0.125000  0.375000  0.750000  1
  Ni  Ni23  1  0.625000  0.375000  0.750000  1
