# generated using pymatgen
data_DyYHf4(SnRh)6
_symmetry_space_group_name_H-M   'P 1'
_cell_length_a   7.48398301
_cell_length_b   7.46804980
_cell_length_c   7.35252100
_cell_angle_alpha   90.00000000
_cell_angle_beta   90.00000000
_cell_angle_gamma   119.89176995
_symmetry_Int_Tables_number   1
_chemical_formula_structural   DyYHf4(SnRh)6
_chemical_formula_sum   'Dy1 Y1 Hf4 Sn6 Rh6'
_cell_volume   356.27021200
_cell_formula_units_Z   1
loop_
 _symmetry_equiv_pos_site_id
 _symmetry_equiv_pos_as_xyz
  1  'x, y, z'
loop_
 _atom_site_type_symbol
 _atom_site_label
 _atom_site_symmetry_multiplicity
 _atom_site_fract_x
 _atom_site_fract_y
 _atom_site_fract_z
 _atom_site_occupancy
  Dy  Dy0  1  0.597675  0.594018  0.250000  1
  Y  Y1  1  0.001126  0.404932  0.250000  1
  Hf  Hf2  1  0.995323  0.388911  0.750000  1
  Hf  Hf3  1  0.605141  0.612228  0.750000  1
  Hf  Hf4  1  0.394761  0.999161  0.750000  1
  Hf  Hf5  1  0.397952  0.995818  0.250000  1
  Sn  Sn6  1  0.269221  0.267782  0.508265  1
  Sn  Sn7  1  0.999214  0.731620  0.508994  1
  Sn  Sn8  1  0.999214  0.731620  0.991006  1
  Sn  Sn9  1  0.731791  0.000562  0.494681  1
  Sn  Sn10  1  0.731791  0.000562  0.005319  1
  Sn  Sn11  1  0.269221  0.267782  0.991735  1
  Rh  Rh12  1  0.335359  0.674106  0.530040  1
  Rh  Rh13  1  0.662446  0.328041  0.533287  1
  Rh  Rh14  1  0.335359  0.674106  0.969960  1
  Rh  Rh15  1  0.995348  0.000848  0.750000  1
  Rh  Rh16  1  0.016615  0.999858  0.250000  1
  Rh  Rh17  1  0.662446  0.328041  0.966713  1
