# generated using pymatgen
data_Nd4AgPt3
_symmetry_space_group_name_H-M   'P 1'
_cell_length_a   4.69535400
_cell_length_b   5.80114740
_cell_length_c   7.37035039
_cell_angle_alpha   90.28651761
_cell_angle_beta   90.00000000
_cell_angle_gamma   90.00000000
_symmetry_Int_Tables_number   1
_chemical_formula_structural   Nd4AgPt3
_chemical_formula_sum   'Nd4 Ag1 Pt3'
_cell_volume   200.75434174
_cell_formula_units_Z   1
loop_
 _symmetry_equiv_pos_site_id
 _symmetry_equiv_pos_as_xyz
  1  'x, y, z'
loop_
 _atom_site_type_symbol
 _atom_site_label
 _atom_site_symmetry_multiplicity
 _atom_site_fract_x
 _atom_site_fract_y
 _atom_site_fract_z
 _atom_site_occupancy
  Nd  Nd0  1  0.000000  0.642473  0.309692  1
  Nd  Nd1  1  0.000000  0.854242  0.821608  1
  Nd  Nd2  1  0.500000  0.369833  0.694213  1
  Nd  Nd3  1  0.500000  0.137754  0.170411  1
  Ag  Ag4  1  0.000000  0.143261  0.462981  1
  Pt  Pt5  1  0.000000  0.338742  0.956311  1
  Pt  Pt6  1  0.500000  0.859070  0.539306  1
  Pt  Pt7  1  0.500000  0.654627  0.045479  1
