# generated using pymatgen
data_Ta12Co8Mo4CN3
_symmetry_space_group_name_H-M   'P 1'
_cell_length_a   8.13491874
_cell_length_b   8.13491829
_cell_length_c   8.15243401
_cell_angle_alpha   60.06810595
_cell_angle_beta   60.06810743
_cell_angle_gamma   59.99800036
_symmetry_Int_Tables_number   1
_chemical_formula_structural   Ta12Co8Mo4CN3
_chemical_formula_sum   'Ta12 Co8 Mo4 C1 N3'
_cell_volume   381.87255072
_cell_formula_units_Z   1
loop_
 _symmetry_equiv_pos_site_id
 _symmetry_equiv_pos_as_xyz
  1  'x, y, z'
loop_
 _atom_site_type_symbol
 _atom_site_label
 _atom_site_symmetry_multiplicity
 _atom_site_fract_x
 _atom_site_fract_y
 _atom_site_fract_z
 _atom_site_occupancy
  Ta  Ta0  1  0.809300  0.809300  0.190248  1
  Ta  Ta1  1  0.191458  0.191458  0.808456  1
  Ta  Ta2  1  0.808648  0.191395  0.808451  1
  Ta  Ta3  1  0.191123  0.809297  0.190288  1
  Ta  Ta4  1  0.191395  0.808648  0.808451  1
  Ta  Ta5  1  0.809297  0.191123  0.190288  1
  Ta  Ta6  1  0.440700  0.440700  0.059752  1
  Ta  Ta7  1  0.058542  0.058542  0.441544  1
  Ta  Ta8  1  0.441352  0.058605  0.441549  1
  Ta  Ta9  1  0.058877  0.440703  0.059712  1
  Ta  Ta10  1  0.058605  0.441352  0.441549  1
  Ta  Ta11  1  0.440703  0.058877  0.059712  1
  Co  Co12  1  0.733049  0.422577  0.421777  1
  Co  Co13  1  0.422577  0.733049  0.421777  1
  Co  Co14  1  0.422164  0.422164  0.733491  1
  Co  Co15  1  0.422546  0.422546  0.421763  1
  Co  Co16  1  0.516951  0.827423  0.828223  1
  Co  Co17  1  0.827423  0.516951  0.828223  1
  Co  Co18  1  0.827836  0.827836  0.516509  1
  Co  Co19  1  0.827454  0.827454  0.828237  1
  Mo  Mo20  1  0.125000  0.625000  0.625000  1
  Mo  Mo21  1  0.625000  0.125000  0.625000  1
  Mo  Mo22  1  0.625000  0.625000  0.125000  1
  Mo  Mo23  1  0.625000  0.625000  0.625000  1
  C  C24  1  0.125000  0.125000  0.625000  1
  N  N25  1  0.625000  0.125000  0.125000  1
  N  N26  1  0.125000  0.625000  0.125000  1
  N  N27  1  0.125000  0.125000  0.125000  1
