# generated using pymatgen
data_Ce3Er(SnRh2)4
_symmetry_space_group_name_H-M   'P 1'
_cell_length_a   4.50487500
_cell_length_b   7.03528428
_cell_length_c   9.90033700
_cell_angle_alpha   91.00315516
_cell_angle_beta   90.00000000
_cell_angle_gamma   90.00000000
_symmetry_Int_Tables_number   1
_chemical_formula_structural   Ce3Er(SnRh2)4
_chemical_formula_sum   'Ce3 Er1 Sn4 Rh8'
_cell_volume   313.72404460
_cell_formula_units_Z   1
loop_
 _symmetry_equiv_pos_site_id
 _symmetry_equiv_pos_as_xyz
  1  'x, y, z'
loop_
 _atom_site_type_symbol
 _atom_site_label
 _atom_site_symmetry_multiplicity
 _atom_site_fract_x
 _atom_site_fract_y
 _atom_site_fract_z
 _atom_site_occupancy
  Ce  Ce0  1  0.750000  0.689505  0.901630  1
  Ce  Ce1  1  0.750000  0.809720  0.402147  1
  Ce  Ce2  1  0.250000  0.190833  0.595217  1
  Er  Er3  1  0.250000  0.313159  0.098921  1
  Sn  Sn4  1  0.250000  0.795276  0.138617  1
  Sn  Sn5  1  0.750000  0.208529  0.867928  1
  Sn  Sn6  1  0.750000  0.291816  0.352826  1
  Sn  Sn7  1  0.250000  0.706399  0.638888  1
  Rh  Rh8  1  0.250000  0.522332  0.384627  1
  Rh  Rh9  1  0.750000  0.477056  0.606851  1
  Rh  Rh10  1  0.750000  0.025806  0.116957  1
  Rh  Rh11  1  0.250000  0.980602  0.893037  1
  Rh  Rh12  1  0.250000  0.083966  0.323094  1
  Rh  Rh13  1  0.750000  0.908521  0.689672  1
  Rh  Rh14  1  0.750000  0.589718  0.182018  1
  Rh  Rh15  1  0.250000  0.406763  0.807571  1
