# generated using pymatgen
data_Gd12Co5Hg
_symmetry_space_group_name_H-M   'P 1'
_cell_length_a   8.32628579
_cell_length_b   8.32628591
_cell_length_c   8.32628598
_cell_angle_alpha   109.79717826
_cell_angle_beta   111.21002423
_cell_angle_gamma   107.42882201
_symmetry_Int_Tables_number   1
_chemical_formula_structural   Gd12Co5Hg
_chemical_formula_sum   'Gd12 Co5 Hg1'
_cell_volume   443.86530669
_cell_formula_units_Z   1
loop_
 _symmetry_equiv_pos_site_id
 _symmetry_equiv_pos_as_xyz
  1  'x, y, z'
loop_
 _atom_site_type_symbol
 _atom_site_label
 _atom_site_symmetry_multiplicity
 _atom_site_fract_x
 _atom_site_fract_y
 _atom_site_fract_z
 _atom_site_occupancy
  Gd  Gd0  1  0.290410  0.181634  0.472045  1
  Gd  Gd1  1  0.709590  0.818366  0.527955  1
  Gd  Gd2  1  0.290410  0.818366  0.108775  1
  Gd  Gd3  1  0.709590  0.181634  0.891225  1
  Gd  Gd4  1  0.629965  0.321082  0.308883  1
  Gd  Gd5  1  0.370035  0.678918  0.691117  1
  Gd  Gd6  1  0.012199  0.321082  0.691117  1
  Gd  Gd7  1  0.987801  0.678918  0.308883  1
  Gd  Gd8  1  0.211530  0.401204  0.189673  1
  Gd  Gd9  1  0.788470  0.598796  0.810327  1
  Gd  Gd10  1  0.211530  0.021857  0.810327  1
  Gd  Gd11  1  0.788470  0.978143  0.189673  1
  Co  Co12  1  0.000000  0.362508  0.362508  1
  Co  Co13  1  0.000000  0.637492  0.637492  1
  Co  Co14  1  0.384868  0.884868  0.500000  1
  Co  Co15  1  0.615132  0.115132  0.500000  1
  Co  Co16  1  0.000000  0.000000  0.000000  1
  Hg  Hg17  1  0.500000  0.500000  0.000000  1
