# generated using pymatgen
data_Y3Lu7Cd3Ru
_symmetry_space_group_name_H-M   'P 1'
_cell_length_a   9.49543200
_cell_length_b   9.49543258
_cell_length_c   9.70575000
_cell_angle_alpha   90.00000000
_cell_angle_beta   90.00000000
_cell_angle_gamma   119.99999798
_symmetry_Int_Tables_number   1
_chemical_formula_structural   Y3Lu7Cd3Ru
_chemical_formula_sum   'Y6 Lu14 Cd6 Ru2'
_cell_volume   757.86041539
_cell_formula_units_Z   2
loop_
 _symmetry_equiv_pos_site_id
 _symmetry_equiv_pos_as_xyz
  1  'x, y, z'
loop_
 _atom_site_type_symbol
 _atom_site_label
 _atom_site_symmetry_multiplicity
 _atom_site_fract_x
 _atom_site_fract_y
 _atom_site_fract_z
 _atom_site_occupancy
  Y  Y0  1  0.540806  0.459194  0.250000  1
  Y  Y1  1  0.540806  0.081612  0.250000  1
  Y  Y2  1  0.918388  0.459194  0.250000  1
  Y  Y3  1  0.459194  0.540806  0.750000  1
  Y  Y4  1  0.459194  0.918388  0.750000  1
  Y  Y5  1  0.081612  0.540806  0.750000  1
  Lu  Lu6  1  0.000000  0.000000  0.500000  1
  Lu  Lu7  1  0.000000  0.000000  0.000000  1
  Lu  Lu8  1  0.210036  0.789964  0.439833  1
  Lu  Lu9  1  0.210036  0.420073  0.439833  1
  Lu  Lu10  1  0.579927  0.789964  0.439833  1
  Lu  Lu11  1  0.789964  0.210036  0.560167  1
  Lu  Lu12  1  0.789964  0.579927  0.560167  1
  Lu  Lu13  1  0.420073  0.210036  0.560167  1
  Lu  Lu14  1  0.789964  0.210036  0.939833  1
  Lu  Lu15  1  0.789964  0.579927  0.939833  1
  Lu  Lu16  1  0.420073  0.210036  0.939833  1
  Lu  Lu17  1  0.210036  0.789964  0.060167  1
  Lu  Lu18  1  0.210036  0.420073  0.060167  1
  Lu  Lu19  1  0.579927  0.789964  0.060167  1
  Cd  Cd20  1  0.886142  0.113858  0.250000  1
  Cd  Cd21  1  0.886142  0.772284  0.250000  1
  Cd  Cd22  1  0.227716  0.113858  0.250000  1
  Cd  Cd23  1  0.113858  0.886142  0.750000  1
  Cd  Cd24  1  0.113858  0.227716  0.750000  1
  Cd  Cd25  1  0.772284  0.886142  0.750000  1
  Ru  Ru26  1  0.333333  0.666667  0.250000  1
  Ru  Ru27  1  0.666667  0.333333  0.750000  1
