# generated using pymatgen
data_YbP4(RuRh)3
_symmetry_space_group_name_H-M   'P 1'
_cell_length_a   6.94158000
_cell_length_b   6.94158033
_cell_length_c   3.73705100
_cell_angle_alpha   90.00000000
_cell_angle_beta   90.00000000
_cell_angle_gamma   120.00000670
_symmetry_Int_Tables_number   1
_chemical_formula_structural   YbP4(RuRh)3
_chemical_formula_sum   'Yb1 P4 Ru3 Rh3'
_cell_volume   155.94674484
_cell_formula_units_Z   1
loop_
 _symmetry_equiv_pos_site_id
 _symmetry_equiv_pos_as_xyz
  1  'x, y, z'
loop_
 _atom_site_type_symbol
 _atom_site_label
 _atom_site_symmetry_multiplicity
 _atom_site_fract_x
 _atom_site_fract_y
 _atom_site_fract_z
 _atom_site_occupancy
  Yb  Yb0  1  0.000000  0.000000  0.500000  1
  P  P1  1  0.666667  0.333333  0.500000  1
  P  P2  1  0.194550  0.387671  0.000000  1
  P  P3  1  0.193122  0.805450  0.000000  1
  P  P4  1  0.612329  0.806878  0.000000  1
  Ru  Ru5  1  0.468572  0.933945  0.500000  1
  Ru  Ru6  1  0.465374  0.531428  0.500000  1
  Ru  Ru7  1  0.066055  0.534626  0.500000  1
  Rh  Rh8  1  0.803069  0.608424  0.000000  1
  Rh  Rh9  1  0.805354  0.196931  0.000000  1
  Rh  Rh10  1  0.391576  0.194646  0.000000  1
