# generated using pymatgen
data_Tm4Ru7W
_symmetry_space_group_name_H-M   'P 1'
_cell_length_a   5.45732613
_cell_length_b   5.16581038
_cell_length_c   8.95311600
_cell_angle_alpha   90.00000000
_cell_angle_beta   90.00000000
_cell_angle_gamma   121.96754160
_symmetry_Int_Tables_number   1
_chemical_formula_structural   Tm4Ru7W
_chemical_formula_sum   'Tm4 Ru7 W1'
_cell_volume   214.12466833
_cell_formula_units_Z   1
loop_
 _symmetry_equiv_pos_site_id
 _symmetry_equiv_pos_as_xyz
  1  'x, y, z'
loop_
 _atom_site_type_symbol
 _atom_site_label
 _atom_site_symmetry_multiplicity
 _atom_site_fract_x
 _atom_site_fract_y
 _atom_site_fract_z
 _atom_site_occupancy
  Tm  Tm0  1  0.671959  0.344012  0.563052  1
  Tm  Tm1  1  0.333325  0.666939  0.431586  1
  Tm  Tm2  1  0.333325  0.666939  0.068414  1
  Tm  Tm3  1  0.671959  0.344012  0.936948  1
  Ru  Ru4  1  0.008193  0.016880  0.498542  1
  Ru  Ru5  1  0.008193  0.016880  0.001458  1
  Ru  Ru6  1  0.170346  0.819455  0.750000  1
  Ru  Ru7  1  0.649898  0.819579  0.750000  1
  Ru  Ru8  1  0.825259  0.650639  0.250000  1
  Ru  Ru9  1  0.829634  0.165450  0.250000  1
  Ru  Ru10  1  0.336851  0.166447  0.250000  1
  W  W11  1  0.161059  0.322769  0.750000  1
