# generated using pymatgen
data_Tm2LuPa(Al3Rh)6
_symmetry_space_group_name_H-M   'P 1'
_cell_length_a   7.55086307
_cell_length_b   7.55085604
_cell_length_c   9.38941500
_cell_angle_alpha   90.00000000
_cell_angle_beta   90.00000000
_cell_angle_gamma   119.42553299
_symmetry_Int_Tables_number   1
_chemical_formula_structural   Tm2LuPa(Al3Rh)6
_chemical_formula_sum   'Tm2 Lu1 Pa1 Al18 Rh6'
_cell_volume   466.28018702
_cell_formula_units_Z   1
loop_
 _symmetry_equiv_pos_site_id
 _symmetry_equiv_pos_as_xyz
  1  'x, y, z'
loop_
 _atom_site_type_symbol
 _atom_site_label
 _atom_site_symmetry_multiplicity
 _atom_site_fract_x
 _atom_site_fract_y
 _atom_site_fract_z
 _atom_site_occupancy
  Tm  Tm0  1  0.004987  0.327541  0.750000  1
  Tm  Tm1  1  0.674381  0.993664  0.250000  1
  Lu  Lu2  1  0.327486  0.004964  0.750000  1
  Pa  Pa3  1  0.995903  0.673696  0.250000  1
  Al  Al4  1  0.133636  0.132264  0.250000  1
  Al  Al5  1  0.872752  0.874560  0.750000  1
  Al  Al6  1  0.000102  0.332976  0.074893  1
  Al  Al7  1  0.999676  0.663981  0.919531  1
  Al  Al8  1  0.999676  0.663981  0.580469  1
  Al  Al9  1  0.339944  0.003691  0.424995  1
  Al  Al10  1  0.000102  0.332976  0.425107  1
  Al  Al11  1  0.664193  0.000655  0.576917  1
  Al  Al12  1  0.664193  0.000655  0.923083  1
  Al  Al13  1  0.339944  0.003691  0.075005  1
  Al  Al14  1  0.331338  0.331562  0.556537  1
  Al  Al15  1  0.663338  0.665692  0.450887  1
  Al  Al16  1  0.663338  0.665692  0.049113  1
  Al  Al17  1  0.331338  0.331562  0.943463  1
  Al  Al18  1  0.340119  0.549415  0.250000  1
  Al  Al19  1  0.658456  0.446965  0.750000  1
  Al  Al20  1  0.549961  0.342275  0.250000  1
  Al  Al21  1  0.448164  0.660918  0.750000  1
  Rh  Rh22  1  0.673101  0.328585  0.000985  1
  Rh  Rh23  1  0.325928  0.672356  0.001527  1
  Rh  Rh24  1  0.325928  0.672356  0.498473  1
  Rh  Rh25  1  0.673101  0.328585  0.499015  1
  Rh  Rh26  1  0.999457  0.997372  0.002455  1
  Rh  Rh27  1  0.999457  0.997372  0.497545  1
