# generated using pymatgen
data_Gd2Y3Ho3(WO6)4
_symmetry_space_group_name_H-M   'P 1'
_cell_length_a   5.42190505
_cell_length_b   7.72616263
_cell_length_c   11.50013866
_cell_angle_alpha   75.61906900
_cell_angle_beta   90.00209993
_cell_angle_gamma   89.98615876
_symmetry_Int_Tables_number   1
_chemical_formula_structural   Gd2Y3Ho3(WO6)4
_chemical_formula_sum   'Gd2 Y3 Ho3 W4 O24'
_cell_volume   466.65166059
_cell_formula_units_Z   1
loop_
 _symmetry_equiv_pos_site_id
 _symmetry_equiv_pos_as_xyz
  1  'x, y, z'
loop_
 _atom_site_type_symbol
 _atom_site_label
 _atom_site_symmetry_multiplicity
 _atom_site_fract_x
 _atom_site_fract_y
 _atom_site_fract_z
 _atom_site_occupancy
  Gd  Gd0  1  0.315791  0.499687  0.750254  1
  Gd  Gd1  1  0.683999  0.499864  0.249962  1
  Y  Y2  1  0.259599  0.000270  0.750383  1
  Y  Y3  1  0.740289  0.000227  0.249727  1
  Y  Y4  1  0.814217  0.795363  0.577412  1
  Ho  Ho5  1  0.185478  0.795233  0.077483  1
  Ho  Ho6  1  0.185623  0.205083  0.422275  1
  Ho  Ho7  1  0.814596  0.204832  0.922409  1
  W  W8  1  0.745340  0.724729  0.885514  1
  W  W9  1  0.254479  0.724731  0.384817  1
  W  W10  1  0.745460  0.275081  0.614778  1
  W  W11  1  0.254471  0.275155  0.114837  1
  O  O12  1  0.852185  0.362608  0.452885  1
  O  O13  1  0.467389  0.846780  0.931567  1
  O  O14  1  0.852331  0.637410  0.047256  1
  O  O15  1  0.016371  0.287789  0.729070  1
  O  O16  1  0.983450  0.287529  0.228847  1
  O  O17  1  0.147666  0.362429  0.952936  1
  O  O18  1  0.642887  0.490788  0.886903  1
  O  O19  1  0.532659  0.153370  0.068778  1
  O  O20  1  0.149665  0.636700  0.546908  1
  O  O21  1  0.017004  0.712251  0.771887  1
  O  O22  1  0.455915  0.208630  0.272649  1
  O  O23  1  0.044434  0.940861  0.395354  1
  O  O24  1  0.467676  0.153000  0.568824  1
  O  O25  1  0.983118  0.712483  0.271020  1
  O  O26  1  0.957418  0.060619  0.604217  1
  O  O27  1  0.544229  0.208328  0.772805  1
  O  O28  1  0.542820  0.791197  0.728086  1
  O  O29  1  0.044022  0.059481  0.104094  1
  O  O30  1  0.641587  0.508405  0.613190  1
  O  O31  1  0.357186  0.509085  0.113110  1
  O  O32  1  0.455818  0.791211  0.227036  1
  O  O33  1  0.357541  0.490622  0.386617  1
  O  O34  1  0.531450  0.847563  0.430216  1
  O  O35  1  0.955837  0.940604  0.895896  1
