# generated using pymatgen
data_Hf6Fe15Si7Ru
_symmetry_space_group_name_H-M   'P 1'
_cell_length_a   8.09734590
_cell_length_b   8.09734496
_cell_length_c   8.09734526
_cell_angle_alpha   59.77089111
_cell_angle_beta   59.77089149
_cell_angle_gamma   59.77088992
_symmetry_Int_Tables_number   1
_chemical_formula_structural   Hf6Fe15Si7Ru
_chemical_formula_sum   'Hf6 Fe15 Si7 Ru1'
_cell_volume   373.46330371
_cell_formula_units_Z   1
loop_
 _symmetry_equiv_pos_site_id
 _symmetry_equiv_pos_as_xyz
  1  'x, y, z'
loop_
 _atom_site_type_symbol
 _atom_site_label
 _atom_site_symmetry_multiplicity
 _atom_site_fract_x
 _atom_site_fract_y
 _atom_site_fract_z
 _atom_site_occupancy
  Hf  Hf0  1  0.298556  0.702725  0.702725  1
  Hf  Hf1  1  0.702725  0.702725  0.298556  1
  Hf  Hf2  1  0.294914  0.294914  0.704865  1
  Hf  Hf3  1  0.704865  0.294914  0.294914  1
  Hf  Hf4  1  0.702725  0.298556  0.702725  1
  Hf  Hf5  1  0.294914  0.704865  0.294914  1
  Fe  Fe6  1  0.026272  0.324967  0.324967  1
  Fe  Fe7  1  0.123760  0.123760  0.635620  1
  Fe  Fe8  1  0.324967  0.026272  0.324967  1
  Fe  Fe9  1  0.324218  0.324218  0.324218  1
  Fe  Fe10  1  0.673242  0.673242  0.974023  1
  Fe  Fe11  1  0.877488  0.877488  0.363803  1
  Fe  Fe12  1  0.675378  0.675378  0.675378  1
  Fe  Fe13  1  0.673242  0.974023  0.673242  1
  Fe  Fe14  1  0.324967  0.324967  0.026272  1
  Fe  Fe15  1  0.877488  0.363803  0.877488  1
  Fe  Fe16  1  0.635620  0.123760  0.123760  1
  Fe  Fe17  1  0.123760  0.635620  0.123760  1
  Fe  Fe18  1  0.122063  0.122063  0.122063  1
  Fe  Fe19  1  0.974023  0.673242  0.673242  1
  Fe  Fe20  1  0.363803  0.877488  0.877488  1
  Si  Si21  1  0.000402  0.000402  0.495269  1
  Si  Si22  1  0.000402  0.495269  0.000402  1
  Si  Si23  1  0.004310  0.004310  0.004310  1
  Si  Si24  1  0.499733  0.999640  0.499733  1
  Si  Si25  1  0.999640  0.499733  0.499733  1
  Si  Si26  1  0.495269  0.000402  0.000402  1
  Si  Si27  1  0.499733  0.499733  0.999640  1
  Ru  Ru28  1  0.881523  0.881523  0.881523  1
