# generated using pymatgen
data_Sr4Zr3SnO12
_symmetry_space_group_name_H-M   'P 1'
_cell_length_a   5.84321485
_cell_length_b   5.87966342
_cell_length_c   8.27122624
_cell_angle_alpha   90.02491641
_cell_angle_beta   89.96307678
_cell_angle_gamma   89.98256527
_symmetry_Int_Tables_number   1
_chemical_formula_structural   Sr4Zr3SnO12
_chemical_formula_sum   'Sr4 Zr3 Sn1 O12'
_cell_volume   284.16727973
_cell_formula_units_Z   1
loop_
 _symmetry_equiv_pos_site_id
 _symmetry_equiv_pos_as_xyz
  1  'x, y, z'
loop_
 _atom_site_type_symbol
 _atom_site_label
 _atom_site_symmetry_multiplicity
 _atom_site_fract_x
 _atom_site_fract_y
 _atom_site_fract_z
 _atom_site_occupancy
  Sr  Sr0  1  0.505864  0.028054  0.752307  1
  Sr  Sr1  1  0.992299  0.527113  0.752012  1
  Sr  Sr2  1  0.494136  0.971946  0.247693  1
  Sr  Sr3  1  0.007701  0.472887  0.247988  1
  Zr  Zr4  1  0.000000  0.000000  0.500000  1
  Zr  Zr5  1  0.500000  0.500000  0.500000  1
  Zr  Zr6  1  0.000000  0.000000  0.000000  1
  Sn  Sn7  1  0.500000  0.500000  0.000000  1
  O  O8  1  0.424988  0.483273  0.751946  1
  O  O9  1  0.074714  0.981838  0.750521  1
  O  O10  1  0.575012  0.516727  0.248054  1
  O  O11  1  0.925286  0.018162  0.249479  1
  O  O12  1  0.722577  0.774138  0.959796  1
  O  O13  1  0.788986  0.289046  0.538801  1
  O  O14  1  0.289230  0.211284  0.461773  1
  O  O15  1  0.226166  0.723304  0.041253  1
  O  O16  1  0.277423  0.225862  0.040204  1
  O  O17  1  0.211014  0.710954  0.461199  1
  O  O18  1  0.710770  0.788716  0.538227  1
  O  O19  1  0.773834  0.276696  0.958747  1
