# generated using pymatgen
data_Y8Tm2(IrRh)3
_symmetry_space_group_name_H-M   'P 1'
_cell_length_a   10.89501613
_cell_length_b   10.89561800
_cell_length_c   6.36932808
_cell_angle_alpha   90.00000000
_cell_angle_beta   89.98209723
_cell_angle_gamma   90.00000000
_symmetry_Int_Tables_number   1
_chemical_formula_structural   Y8Tm2(IrRh)3
_chemical_formula_sum   'Y16 Tm4 Ir6 Rh6'
_cell_volume   756.08973946
_cell_formula_units_Z   2
loop_
 _symmetry_equiv_pos_site_id
 _symmetry_equiv_pos_as_xyz
  1  'x, y, z'
loop_
 _atom_site_type_symbol
 _atom_site_label
 _atom_site_symmetry_multiplicity
 _atom_site_fract_x
 _atom_site_fract_y
 _atom_site_fract_z
 _atom_site_occupancy
  Y  Y0  1  0.289372  0.088279  0.378433  1
  Y  Y1  1  0.289372  0.911721  0.878433  1
  Y  Y2  1  0.709296  0.089506  0.878053  1
  Y  Y3  1  0.709296  0.910494  0.378053  1
  Y  Y4  1  0.586882  0.789094  0.878760  1
  Y  Y5  1  0.586882  0.210906  0.378760  1
  Y  Y6  1  0.411409  0.789460  0.378522  1
  Y  Y7  1  0.411409  0.210540  0.878522  1
  Y  Y8  1  0.210634  0.411537  0.621280  1
  Y  Y9  1  0.210634  0.588463  0.121280  1
  Y  Y10  1  0.789182  0.413051  0.121444  1
  Y  Y11  1  0.789182  0.586949  0.621444  1
  Y  Y12  1  0.912038  0.709989  0.122131  1
  Y  Y13  1  0.912038  0.290011  0.622131  1
  Y  Y14  1  0.089808  0.709954  0.621408  1
  Y  Y15  1  0.089808  0.290046  0.121408  1
  Tm  Tm16  1  0.000476  0.999946  0.500018  1
  Tm  Tm17  1  0.000476  0.000054  0.000018  1
  Tm  Tm18  1  0.500088  0.499795  0.999968  1
  Tm  Tm19  1  0.500088  0.500205  0.499968  1
  Ir  Ir20  1  0.150975  0.151725  0.749988  1
  Ir  Ir21  1  0.150975  0.848275  0.249988  1
  Ir  Ir22  1  0.652494  0.347664  0.749928  1
  Ir  Ir23  1  0.652494  0.652336  0.249928  1
  Ir  Ir24  1  0.348348  0.348178  0.250094  1
  Ir  Ir25  1  0.348348  0.651822  0.750094  1
  Rh  Rh26  1  0.848513  0.150805  0.249961  1
  Rh  Rh27  1  0.848513  0.849195  0.749961  1
  Rh  Rh28  1  0.500942  0.000043  0.123637  1
  Rh  Rh29  1  0.500942  0.999957  0.623637  1
  Rh  Rh30  1  0.999543  0.500117  0.876377  1
  Rh  Rh31  1  0.999543  0.499883  0.376377  1
