# generated using pymatgen
data_Er16In6ReAu
_symmetry_space_group_name_H-M   'P 1'
_cell_length_a   10.41803200
_cell_length_b   10.41803118
_cell_length_c   6.93563700
_cell_angle_alpha   90.00000000
_cell_angle_beta   90.00000000
_cell_angle_gamma   119.99999625
_symmetry_Int_Tables_number   1
_chemical_formula_structural   Er16In6ReAu
_chemical_formula_sum   'Er16 In6 Re1 Au1'
_cell_volume   651.91105059
_cell_formula_units_Z   1
loop_
 _symmetry_equiv_pos_site_id
 _symmetry_equiv_pos_as_xyz
  1  'x, y, z'
loop_
 _atom_site_type_symbol
 _atom_site_label
 _atom_site_symmetry_multiplicity
 _atom_site_fract_x
 _atom_site_fract_y
 _atom_site_fract_z
 _atom_site_occupancy
  Er  Er0  1  0.533044  0.066089  0.792938  1
  Er  Er1  1  0.933911  0.466956  0.792938  1
  Er  Er2  1  0.533044  0.466956  0.792938  1
  Er  Er3  1  0.477494  0.954986  0.299200  1
  Er  Er4  1  0.045014  0.522506  0.299200  1
  Er  Er5  1  0.477494  0.522506  0.299200  1
  Er  Er6  1  0.825138  0.650277  0.504828  1
  Er  Er7  1  0.349723  0.174862  0.504828  1
  Er  Er8  1  0.825138  0.174862  0.504828  1
  Er  Er9  1  0.173834  0.347668  0.004025  1
  Er  Er10  1  0.652332  0.826166  0.004025  1
  Er  Er11  1  0.173834  0.826166  0.004025  1
  Er  Er12  1  0.666667  0.333333  0.158564  1
  Er  Er13  1  0.333333  0.666667  0.660718  1
  Er  Er14  1  0.000000  0.000000  0.781644  1
  Er  Er15  1  0.000000  0.000000  0.276283  1
  In  In16  1  0.837576  0.675155  0.037593  1
  In  In17  1  0.324845  0.162424  0.037593  1
  In  In18  1  0.837576  0.162424  0.037593  1
  In  In19  1  0.164145  0.328287  0.536833  1
  In  In20  1  0.671713  0.835855  0.536833  1
  In  In21  1  0.164145  0.835855  0.536833  1
  Re  Re22  1  0.666667  0.333333  0.559224  1
  Au  Au23  1  0.333333  0.666667  0.073228  1
