# generated using pymatgen
data_Dy2ErLu5(InIr)2
_symmetry_space_group_name_H-M   'P 1'
_cell_length_a   9.53909200
_cell_length_b   9.53811876
_cell_length_c   9.53811905
_cell_angle_alpha   60.00675045
_cell_angle_beta   59.99662416
_cell_angle_gamma   59.99662117
_symmetry_Int_Tables_number   1
_chemical_formula_structural   Dy2ErLu5(InIr)2
_chemical_formula_sum   'Dy4 Er2 Lu10 In4 Ir4'
_cell_volume   613.64539732
_cell_formula_units_Z   2
loop_
 _symmetry_equiv_pos_site_id
 _symmetry_equiv_pos_as_xyz
  1  'x, y, z'
loop_
 _atom_site_type_symbol
 _atom_site_label
 _atom_site_symmetry_multiplicity
 _atom_site_fract_x
 _atom_site_fract_y
 _atom_site_fract_z
 _atom_site_occupancy
  Dy  Dy0  1  0.809659  0.190341  0.809659  1
  Dy  Dy1  1  0.190341  0.809659  0.190341  1
  Dy  Dy2  1  0.809659  0.809659  0.190341  1
  Dy  Dy3  1  0.190341  0.190341  0.809659  1
  Er  Er4  1  0.190718  0.809282  0.809282  1
  Er  Er5  1  0.809282  0.190718  0.190718  1
  Lu  Lu6  1  0.598349  0.598365  0.598365  1
  Lu  Lu7  1  0.598365  0.598349  0.204920  1
  Lu  Lu8  1  0.598365  0.204920  0.598349  1
  Lu  Lu9  1  0.204920  0.598365  0.598365  1
  Lu  Lu10  1  0.060507  0.439493  0.439493  1
  Lu  Lu11  1  0.439493  0.060507  0.060507  1
  Lu  Lu12  1  0.439555  0.060445  0.439555  1
  Lu  Lu13  1  0.060445  0.439555  0.060445  1
  Lu  Lu14  1  0.439555  0.439555  0.060445  1
  Lu  Lu15  1  0.060445  0.060445  0.439555  1
  In  In16  1  0.832864  0.832649  0.832649  1
  In  In17  1  0.832649  0.832864  0.501839  1
  In  In18  1  0.832649  0.501839  0.832864  1
  In  In19  1  0.501839  0.832649  0.832649  1
  Ir  Ir20  1  0.391106  0.390847  0.390847  1
  Ir  Ir21  1  0.390847  0.391106  0.827200  1
  Ir  Ir22  1  0.390847  0.827200  0.391106  1
  Ir  Ir23  1  0.827200  0.390847  0.390847  1
