# generated using pymatgen
data_PuBiF7
_symmetry_space_group_name_H-M   'P 1'
_cell_length_a   6.08035800
_cell_length_b   6.40596860
_cell_length_c   8.69246000
_cell_angle_alpha   103.04655865
_cell_angle_beta   90.00000000
_cell_angle_gamma   90.00000000
_symmetry_Int_Tables_number   1
_chemical_formula_structural   PuBiF7
_chemical_formula_sum   'Pu2 Bi2 F14'
_cell_volume   329.83669004
_cell_formula_units_Z   2
loop_
 _symmetry_equiv_pos_site_id
 _symmetry_equiv_pos_as_xyz
  1  'x, y, z'
loop_
 _atom_site_type_symbol
 _atom_site_label
 _atom_site_symmetry_multiplicity
 _atom_site_fract_x
 _atom_site_fract_y
 _atom_site_fract_z
 _atom_site_occupancy
  Pu  Pu0  1  0.706610  0.811186  0.225889  1
  Pu  Pu1  1  0.206610  0.188814  0.774111  1
  Bi  Bi2  1  0.699474  0.655106  0.684499  1
  Bi  Bi3  1  0.199474  0.344894  0.315501  1
  F  F4  1  0.913673  0.473684  0.482440  1
  F  F5  1  0.413673  0.526316  0.517560  1
  F  F6  1  0.433045  0.923901  0.763651  1
  F  F7  1  0.933045  0.076099  0.236349  1
  F  F8  1  0.946875  0.950470  0.757715  1
  F  F9  1  0.446875  0.049530  0.242284  1
  F  F10  1  0.981212  0.453658  0.789787  1
  F  F11  1  0.481212  0.546342  0.210213  1
  F  F12  1  0.698899  0.762371  0.974843  1
  F  F13  1  0.198899  0.237629  0.025157  1
  F  F14  1  0.702030  0.863356  0.480449  1
  F  F15  1  0.202030  0.136644  0.519551  1
  F  F16  1  0.494542  0.394786  0.787074  1
  F  F17  1  0.994542  0.605214  0.212926  1
