# generated using pymatgen
data_Rb5Na(Al2Sb3)2
_symmetry_space_group_name_H-M   'P 1'
_cell_length_a   6.92168900
_cell_length_b   8.07830794
_cell_length_c   11.34826041
_cell_angle_alpha   69.58836712
_cell_angle_beta   90.00000000
_cell_angle_gamma   90.00000000
_symmetry_Int_Tables_number   1
_chemical_formula_structural   Rb5Na(Al2Sb3)2
_chemical_formula_sum   'Rb5 Na1 Al4 Sb6'
_cell_volume   594.70179384
_cell_formula_units_Z   1
loop_
 _symmetry_equiv_pos_site_id
 _symmetry_equiv_pos_as_xyz
  1  'x, y, z'
loop_
 _atom_site_type_symbol
 _atom_site_label
 _atom_site_symmetry_multiplicity
 _atom_site_fract_x
 _atom_site_fract_y
 _atom_site_fract_z
 _atom_site_occupancy
  Rb  Rb0  1  0.750000  0.149127  0.857143  1
  Rb  Rb1  1  0.750000  0.492859  0.154176  1
  Rb  Rb2  1  0.250000  0.502402  0.856660  1
  Rb  Rb3  1  0.750000  0.619327  0.509679  1
  Rb  Rb4  1  0.250000  0.856759  0.131810  1
  Na  Na5  1  0.250000  0.357601  0.491195  1
  Al  Al6  1  0.001455  0.067444  0.347138  1
  Al  Al7  1  0.499045  0.925935  0.653030  1
  Al  Al8  1  0.498545  0.067444  0.347138  1
  Al  Al9  1  0.000955  0.925935  0.653030  1
  Sb  Sb10  1  0.250000  0.796284  0.502046  1
  Sb  Sb11  1  0.750000  0.181264  0.497955  1
  Sb  Sb12  1  0.250000  0.326777  0.224677  1
  Sb  Sb13  1  0.750000  0.689248  0.803519  1
  Sb  Sb14  1  0.250000  0.081821  0.763800  1
  Sb  Sb15  1  0.750000  0.959773  0.207006  1
