# generated using pymatgen
data_Tb8Ti9Nb3Si16
_symmetry_space_group_name_H-M   'P 1'
_cell_length_a   7.07457532
_cell_length_b   7.07457527
_cell_length_c   13.02488330
_cell_angle_alpha   89.97890841
_cell_angle_beta   90.02109115
_cell_angle_gamma   89.98285493
_symmetry_Int_Tables_number   1
_chemical_formula_structural   Tb8Ti9Nb3Si16
_chemical_formula_sum   'Tb8 Ti9 Nb3 Si16'
_cell_volume   651.89028535
_cell_formula_units_Z   1
loop_
 _symmetry_equiv_pos_site_id
 _symmetry_equiv_pos_as_xyz
  1  'x, y, z'
loop_
 _atom_site_type_symbol
 _atom_site_label
 _atom_site_symmetry_multiplicity
 _atom_site_fract_x
 _atom_site_fract_y
 _atom_site_fract_z
 _atom_site_occupancy
  Tb  Tb0  1  0.339546  0.001917  0.466090  1
  Tb  Tb1  1  0.497585  0.839611  0.717066  1
  Tb  Tb2  1  0.502142  0.159213  0.216975  1
  Tb  Tb3  1  0.839611  0.497585  0.282934  1
  Tb  Tb4  1  0.159213  0.502142  0.783025  1
  Tb  Tb5  1  0.660081  0.998454  0.966348  1
  Tb  Tb6  1  0.001917  0.339546  0.533910  1
  Tb  Tb7  1  0.998454  0.660081  0.033652  1
  Ti  Ti8  1  0.673569  0.673569  0.500000  1
  Ti  Ti9  1  0.153407  0.009662  0.874919  1
  Ti  Ti10  1  0.489833  0.653111  0.126166  1
  Ti  Ti11  1  0.510595  0.346229  0.626451  1
  Ti  Ti12  1  0.653111  0.489833  0.873834  1
  Ti  Ti13  1  0.346229  0.510595  0.373549  1
  Ti  Ti14  1  0.847327  0.991542  0.374863  1
  Ti  Ti15  1  0.009662  0.153407  0.125081  1
  Ti  Ti16  1  0.991542  0.847327  0.625137  1
  Nb  Nb17  1  0.326517  0.326517  0.000000  1
  Nb  Nb18  1  0.173391  0.826234  0.250330  1
  Nb  Nb19  1  0.826234  0.173391  0.749670  1
  Si  Si20  1  0.202754  0.128685  0.684703  1
  Si  Si21  1  0.371519  0.702993  0.934563  1
  Si  Si22  1  0.628620  0.298858  0.435210  1
  Si  Si23  1  0.702993  0.371519  0.065437  1
  Si  Si24  1  0.298858  0.628620  0.564790  1
  Si  Si25  1  0.797080  0.871302  0.184920  1
  Si  Si26  1  0.128685  0.202754  0.315297  1
  Si  Si27  1  0.871302  0.797080  0.815080  1
  Si  Si28  1  0.291622  0.953479  0.063598  1
  Si  Si29  1  0.547824  0.790975  0.314936  1
  Si  Si30  1  0.453021  0.208140  0.813725  1
  Si  Si31  1  0.790975  0.547824  0.685064  1
  Si  Si32  1  0.208140  0.453021  0.186275  1
  Si  Si33  1  0.708128  0.045033  0.563515  1
  Si  Si34  1  0.953479  0.291622  0.936402  1
  Si  Si35  1  0.045033  0.708128  0.436485  1
