# generated using pymatgen
data_Dy12ZnSi4Sn
_symmetry_space_group_name_H-M   'P 1'
_cell_length_a   8.47678690
_cell_length_b   8.47678648
_cell_length_c   8.47678665
_cell_angle_alpha   112.12691338
_cell_angle_beta   111.53899094
_cell_angle_gamma   104.84506878
_symmetry_Int_Tables_number   1
_chemical_formula_structural   Dy12ZnSi4Sn
_chemical_formula_sum   'Dy12 Zn1 Si4 Sn1'
_cell_volume   466.60943125
_cell_formula_units_Z   1
loop_
 _symmetry_equiv_pos_site_id
 _symmetry_equiv_pos_as_xyz
  1  'x, y, z'
loop_
 _atom_site_type_symbol
 _atom_site_label
 _atom_site_symmetry_multiplicity
 _atom_site_fract_x
 _atom_site_fract_y
 _atom_site_fract_z
 _atom_site_occupancy
  Dy  Dy0  1  0.432878  0.234708  0.198170  1
  Dy  Dy1  1  0.567122  0.765292  0.801830  1
  Dy  Dy2  1  0.036537  0.234708  0.801830  1
  Dy  Dy3  1  0.963463  0.765292  0.198170  1
  Dy  Dy4  1  0.180417  0.270904  0.451320  1
  Dy  Dy5  1  0.819583  0.729096  0.548680  1
  Dy  Dy6  1  0.180417  0.729096  0.909513  1
  Dy  Dy7  1  0.819583  0.270904  0.090487  1
  Dy  Dy8  1  0.319918  0.619049  0.299131  1
  Dy  Dy9  1  0.680082  0.380951  0.700869  1
  Dy  Dy10  1  0.319918  0.020786  0.700869  1
  Dy  Dy11  1  0.680082  0.979214  0.299131  1
  Zn  Zn12  1  0.000000  0.000000  0.000000  1
  Si  Si13  1  0.365740  0.000000  0.365740  1
  Si  Si14  1  0.634260  0.000000  0.634260  1
  Si  Si15  1  0.115444  0.615444  0.500000  1
  Si  Si16  1  0.884556  0.384556  0.500000  1
  Sn  Sn17  1  0.500000  0.500000  0.000000  1
