# generated using pymatgen
data_LiY9Cd3Ru
_symmetry_space_group_name_H-M   'P 1'
_cell_length_a   9.49930400
_cell_length_b   9.49930436
_cell_length_c   9.77048300
_cell_angle_alpha   90.00000000
_cell_angle_beta   90.00000000
_cell_angle_gamma   119.99999874
_symmetry_Int_Tables_number   1
_chemical_formula_structural   LiY9Cd3Ru
_chemical_formula_sum   'Li2 Y18 Cd6 Ru2'
_cell_volume   763.53730347
_cell_formula_units_Z   2
loop_
 _symmetry_equiv_pos_site_id
 _symmetry_equiv_pos_as_xyz
  1  'x, y, z'
loop_
 _atom_site_type_symbol
 _atom_site_label
 _atom_site_symmetry_multiplicity
 _atom_site_fract_x
 _atom_site_fract_y
 _atom_site_fract_z
 _atom_site_occupancy
  Li  Li0  1  0.000000  0.000000  0.500000  1
  Li  Li1  1  0.000000  0.000000  0.000000  1
  Y  Y2  1  0.207954  0.792046  0.441377  1
  Y  Y3  1  0.207954  0.415909  0.441377  1
  Y  Y4  1  0.584091  0.792046  0.441377  1
  Y  Y5  1  0.792046  0.207954  0.558623  1
  Y  Y6  1  0.792046  0.584091  0.558623  1
  Y  Y7  1  0.415909  0.207954  0.558623  1
  Y  Y8  1  0.792046  0.207954  0.941377  1
  Y  Y9  1  0.792046  0.584091  0.941377  1
  Y  Y10  1  0.415909  0.207954  0.941377  1
  Y  Y11  1  0.207954  0.792046  0.058623  1
  Y  Y12  1  0.207954  0.415909  0.058623  1
  Y  Y13  1  0.584091  0.792046  0.058623  1
  Y  Y14  1  0.542443  0.457557  0.250000  1
  Y  Y15  1  0.542443  0.084887  0.250000  1
  Y  Y16  1  0.915113  0.457557  0.250000  1
  Y  Y17  1  0.457557  0.542443  0.750000  1
  Y  Y18  1  0.457557  0.915113  0.750000  1
  Y  Y19  1  0.084887  0.542443  0.750000  1
  Cd  Cd20  1  0.891636  0.108364  0.250000  1
  Cd  Cd21  1  0.891636  0.783273  0.250000  1
  Cd  Cd22  1  0.216727  0.108364  0.250000  1
  Cd  Cd23  1  0.108364  0.891636  0.750000  1
  Cd  Cd24  1  0.108364  0.216727  0.750000  1
  Cd  Cd25  1  0.783273  0.891636  0.750000  1
  Ru  Ru26  1  0.333333  0.666667  0.250000  1
  Ru  Ru27  1  0.666667  0.333333  0.750000  1
