# generated using pymatgen
data_Nd6Ga4Pd12Rh
_symmetry_space_group_name_H-M   'P 1'
_cell_length_a   8.39545605
_cell_length_b   8.39545630
_cell_length_c   8.39545700
_cell_angle_alpha   109.47121749
_cell_angle_beta   109.47121809
_cell_angle_gamma   109.47122940
_symmetry_Int_Tables_number   1
_chemical_formula_structural   Nd6Ga4Pd12Rh
_chemical_formula_sum   'Nd6 Ga4 Pd12 Rh1'
_cell_volume   455.52375792
_cell_formula_units_Z   1
loop_
 _symmetry_equiv_pos_site_id
 _symmetry_equiv_pos_as_xyz
  1  'x, y, z'
loop_
 _atom_site_type_symbol
 _atom_site_label
 _atom_site_symmetry_multiplicity
 _atom_site_fract_x
 _atom_site_fract_y
 _atom_site_fract_z
 _atom_site_occupancy
  Nd  Nd0  1  0.702423  0.702423  0.000000  1
  Nd  Nd1  1  0.297577  0.000000  0.297577  1
  Nd  Nd2  1  0.000000  0.297577  0.297577  1
  Nd  Nd3  1  0.297577  0.297577  0.000000  1
  Nd  Nd4  1  0.702423  0.000000  0.702423  1
  Nd  Nd5  1  0.000000  0.702423  0.702423  1
  Ga  Ga6  1  0.000000  0.000000  0.500000  1
  Ga  Ga7  1  0.000000  0.500000  0.000000  1
  Ga  Ga8  1  0.500000  0.000000  0.000000  1
  Ga  Ga9  1  0.500000  0.500000  0.500000  1
  Pd  Pd10  1  0.325598  0.325598  0.651196  1
  Pd  Pd11  1  0.674402  0.000000  0.325598  1
  Pd  Pd12  1  0.000000  0.674402  0.325598  1
  Pd  Pd13  1  0.674402  0.325598  0.000000  1
  Pd  Pd14  1  0.325598  0.651196  0.325598  1
  Pd  Pd15  1  0.000000  0.325598  0.674402  1
  Pd  Pd16  1  0.325598  0.674402  0.000000  1
  Pd  Pd17  1  0.325598  0.000000  0.674402  1
  Pd  Pd18  1  0.651196  0.325598  0.325598  1
  Pd  Pd19  1  0.674402  0.674402  0.348804  1
  Pd  Pd20  1  0.674402  0.348804  0.674402  1
  Pd  Pd21  1  0.348804  0.674402  0.674402  1
  Rh  Rh22  1  0.000000  0.000000  0.000000  1
