# generated using pymatgen
data_Tb5Tc2C7
_symmetry_space_group_name_H-M   'P 1'
_cell_length_a   8.34047612
_cell_length_b   8.34047429
_cell_length_c   3.48027200
_cell_angle_alpha   90.00000000
_cell_angle_beta   90.00000000
_cell_angle_gamma   122.72572468
_symmetry_Int_Tables_number   1
_chemical_formula_structural   Tb5Tc2C7
_chemical_formula_sum   'Tb5 Tc2 C7'
_cell_volume   203.67101160
_cell_formula_units_Z   1
loop_
 _symmetry_equiv_pos_site_id
 _symmetry_equiv_pos_as_xyz
  1  'x, y, z'
loop_
 _atom_site_type_symbol
 _atom_site_label
 _atom_site_symmetry_multiplicity
 _atom_site_fract_x
 _atom_site_fract_y
 _atom_site_fract_z
 _atom_site_occupancy
  Tb  Tb0  1  0.500000  0.500000  0.000000  1
  Tb  Tb1  1  0.074301  0.335494  0.500000  1
  Tb  Tb2  1  0.925699  0.664506  0.500000  1
  Tb  Tb3  1  0.664506  0.925699  0.500000  1
  Tb  Tb4  1  0.335494  0.074301  0.500000  1
  Tc  Tc5  1  0.712240  0.287760  0.000000  1
  Tc  Tc6  1  0.287760  0.712240  0.000000  1
  C  C7  1  0.627823  0.372177  0.500000  1
  C  C8  1  0.372177  0.627823  0.500000  1
  C  C9  1  0.000000  0.000000  0.000000  1
  C  C10  1  0.169370  0.169370  0.000000  1
  C  C11  1  0.830630  0.830630  0.000000  1
  C  C12  1  0.000000  0.500000  0.000000  1
  C  C13  1  0.500000  0.000000  0.000000  1
