# generated using pymatgen
data_Dy4NiB14
_symmetry_space_group_name_H-M   'P 1'
_cell_length_a   7.23093900
_cell_length_b   7.23093900
_cell_length_c   7.49513100
_cell_angle_alpha   90.00000000
_cell_angle_beta   90.00000000
_cell_angle_gamma   90.00000000
_symmetry_Int_Tables_number   1
_chemical_formula_structural   Dy4NiB14
_chemical_formula_sum   'Dy8 Ni2 B28'
_cell_volume   391.89400830
_cell_formula_units_Z   2
loop_
 _symmetry_equiv_pos_site_id
 _symmetry_equiv_pos_as_xyz
  1  'x, y, z'
loop_
 _atom_site_type_symbol
 _atom_site_label
 _atom_site_symmetry_multiplicity
 _atom_site_fract_x
 _atom_site_fract_y
 _atom_site_fract_z
 _atom_site_occupancy
  Dy  Dy0  1  0.193774  0.331762  0.000000  1
  Dy  Dy1  1  0.668238  0.193774  0.000000  1
  Dy  Dy2  1  0.331762  0.806226  0.000000  1
  Dy  Dy3  1  0.693774  0.168238  0.500000  1
  Dy  Dy4  1  0.306226  0.831762  0.500000  1
  Dy  Dy5  1  0.806226  0.668238  0.000000  1
  Dy  Dy6  1  0.831762  0.693774  0.500000  1
  Dy  Dy7  1  0.168238  0.306226  0.500000  1
  Ni  Ni8  1  0.000000  0.000000  0.000000  1
  Ni  Ni9  1  0.500000  0.500000  0.500000  1
  B  B10  1  0.174590  0.039348  0.232408  1
  B  B11  1  0.960652  0.174590  0.232408  1
  B  B12  1  0.039348  0.825410  0.232408  1
  B  B13  1  0.674590  0.460652  0.267592  1
  B  B14  1  0.325410  0.539348  0.267592  1
  B  B15  1  0.825410  0.960652  0.232408  1
  B  B16  1  0.539348  0.674590  0.267592  1
  B  B17  1  0.460652  0.325410  0.267592  1
  B  B18  1  0.825410  0.960652  0.767592  1
  B  B19  1  0.039348  0.825410  0.767592  1
  B  B20  1  0.960652  0.174590  0.767592  1
  B  B21  1  0.325410  0.539348  0.732408  1
  B  B22  1  0.674590  0.460652  0.732408  1
  B  B23  1  0.174590  0.039348  0.767592  1
  B  B24  1  0.460652  0.325410  0.732408  1
  B  B25  1  0.539348  0.674590  0.732408  1
  B  B26  1  0.089291  0.589291  0.250000  1
  B  B27  1  0.410709  0.089291  0.250000  1
  B  B28  1  0.589291  0.910709  0.250000  1
  B  B29  1  0.910709  0.410709  0.250000  1
  B  B30  1  0.910709  0.410709  0.750000  1
  B  B31  1  0.589291  0.910709  0.750000  1
  B  B32  1  0.410709  0.089291  0.750000  1
  B  B33  1  0.089291  0.589291  0.750000  1
  B  B34  1  0.000000  0.000000  0.388369  1
  B  B35  1  0.500000  0.500000  0.111631  1
  B  B36  1  0.000000  0.000000  0.611631  1
  B  B37  1  0.500000  0.500000  0.888369  1
