# generated using pymatgen
data_Er4Lu4Re(TcB8)3
_symmetry_space_group_name_H-M   'P 1'
_cell_length_a   3.63363200
_cell_length_b   9.07800280
_cell_length_c   11.44776200
_cell_angle_alpha   90.02359418
_cell_angle_beta   90.00000000
_cell_angle_gamma   90.00000000
_symmetry_Int_Tables_number   1
_chemical_formula_structural   Er4Lu4Re(TcB8)3
_chemical_formula_sum   'Er4 Lu4 Re1 Tc3 B24'
_cell_volume   377.61723597
_cell_formula_units_Z   1
loop_
 _symmetry_equiv_pos_site_id
 _symmetry_equiv_pos_as_xyz
  1  'x, y, z'
loop_
 _atom_site_type_symbol
 _atom_site_label
 _atom_site_symmetry_multiplicity
 _atom_site_fract_x
 _atom_site_fract_y
 _atom_site_fract_z
 _atom_site_occupancy
  Er  Er0  1  0.000000  0.323285  0.414083  1
  Er  Er1  1  0.000000  0.677017  0.585855  1
  Er  Er2  1  0.000000  0.823072  0.086041  1
  Er  Er3  1  0.000000  0.177156  0.914213  1
  Lu  Lu4  1  0.000000  0.942701  0.369496  1
  Lu  Lu5  1  0.000000  0.057835  0.629686  1
  Lu  Lu6  1  0.000000  0.442605  0.130585  1
  Lu  Lu7  1  0.000000  0.556365  0.869944  1
  Re  Re8  1  0.000000  0.860806  0.819986  1
  Tc  Tc9  1  0.000000  0.639359  0.319858  1
  Tc  Tc10  1  0.000000  0.360758  0.680021  1
  Tc  Tc11  1  0.000000  0.139313  0.180178  1
  B  B12  1  0.500000  0.553509  0.433061  1
  B  B13  1  0.500000  0.446787  0.566976  1
  B  B14  1  0.500000  0.053411  0.067096  1
  B  B15  1  0.500000  0.946749  0.933262  1
  B  B16  1  0.500000  0.750416  0.418719  1
  B  B17  1  0.500000  0.249931  0.581160  1
  B  B18  1  0.500000  0.250252  0.081338  1
  B  B19  1  0.500000  0.749237  0.918942  1
  B  B20  1  0.500000  0.792566  0.264904  1
  B  B21  1  0.500000  0.207485  0.734867  1
  B  B22  1  0.500000  0.292543  0.235160  1
  B  B23  1  0.500000  0.707056  0.764999  1
  B  B24  1  0.500000  0.629813  0.184696  1
  B  B25  1  0.500000  0.369926  0.815310  1
  B  B26  1  0.500000  0.129904  0.315358  1
  B  B27  1  0.500000  0.870282  0.684454  1
  B  B28  1  0.500000  0.981097  0.212136  1
  B  B29  1  0.500000  0.019250  0.787658  1
  B  B30  1  0.500000  0.481090  0.287914  1
  B  B31  1  0.500000  0.518775  0.712232  1
  B  B32  1  0.500000  0.598263  0.027538  1
  B  B33  1  0.500000  0.401057  0.972713  1
  B  B34  1  0.500000  0.098757  0.472285  1
  B  B35  1  0.500000  0.901574  0.527277  1
