# generated using pymatgen
data_La4Yb3(PrIr3)2
_symmetry_space_group_name_H-M   'P 1'
_cell_length_a   7.63931243
_cell_length_b   7.64829395
_cell_length_c   7.64950778
_cell_angle_alpha   70.55580843
_cell_angle_beta   70.55715293
_cell_angle_gamma   70.51398665
_symmetry_Int_Tables_number   1
_chemical_formula_structural   La4Yb3(PrIr3)2
_chemical_formula_sum   'La4 Yb3 Pr2 Ir6'
_cell_volume   384.74445198
_cell_formula_units_Z   1
loop_
 _symmetry_equiv_pos_site_id
 _symmetry_equiv_pos_as_xyz
  1  'x, y, z'
loop_
 _atom_site_type_symbol
 _atom_site_label
 _atom_site_symmetry_multiplicity
 _atom_site_fract_x
 _atom_site_fract_y
 _atom_site_fract_z
 _atom_site_occupancy
  La  La0  1  0.395191  0.677708  0.143216  1
  La  La1  1  0.858170  0.605794  0.318636  1
  La  La2  1  0.317938  0.859570  0.605938  1
  La  La3  1  0.606915  0.317877  0.857502  1
  Yb  Yb4  1  0.999964  0.002192  0.001331  1
  Yb  Yb5  1  0.807767  0.805647  0.805499  1
  Yb  Yb6  1  0.192956  0.194556  0.193523  1
  Pr  Pr7  1  0.143037  0.396323  0.677633  1
  Pr  Pr8  1  0.675878  0.142421  0.397035  1
  Ir  Ir9  1  0.951567  0.173002  0.583507  1
  Ir  Ir10  1  0.581933  0.949443  0.173336  1
  Ir  Ir11  1  0.176070  0.583679  0.952334  1
  Ir  Ir12  1  0.049796  0.823838  0.417456  1
  Ir  Ir13  1  0.419863  0.049720  0.823464  1
  Ir  Ir14  1  0.822958  0.418230  0.049591  1
