# generated using pymatgen
data_Sr2DyY(BO4)2
_symmetry_space_group_name_H-M   'P 1'
_cell_length_a   3.68422500
_cell_length_b   9.75343534
_cell_length_c   10.98060239
_cell_angle_alpha   89.96950459
_cell_angle_beta   90.00000000
_cell_angle_gamma   90.00000000
_symmetry_Int_Tables_number   1
_chemical_formula_structural   Sr2DyY(BO4)2
_chemical_formula_sum   'Sr4 Dy2 Y2 B4 O16'
_cell_volume   394.57526694
_cell_formula_units_Z   2
loop_
 _symmetry_equiv_pos_site_id
 _symmetry_equiv_pos_as_xyz
  1  'x, y, z'
loop_
 _atom_site_type_symbol
 _atom_site_label
 _atom_site_symmetry_multiplicity
 _atom_site_fract_x
 _atom_site_fract_y
 _atom_site_fract_z
 _atom_site_occupancy
  Sr  Sr0  1  0.250000  0.658914  0.083726  1
  Sr  Sr1  1  0.750000  0.341086  0.916274  1
  Sr  Sr2  1  0.750000  0.159509  0.416391  1
  Sr  Sr3  1  0.250000  0.840491  0.583609  1
  Dy  Dy4  1  0.750000  0.581916  0.389741  1
  Dy  Dy5  1  0.250000  0.418084  0.610259  1
  Y  Y6  1  0.250000  0.081561  0.110567  1
  Y  Y7  1  0.750000  0.918439  0.889433  1
  B  B8  1  0.250000  0.363797  0.204578  1
  B  B9  1  0.750000  0.636203  0.795422  1
  B  B10  1  0.750000  0.863241  0.295645  1
  B  B11  1  0.250000  0.136759  0.704355  1
  O  O12  1  0.250000  0.489958  0.263170  1
  O  O13  1  0.750000  0.510042  0.736830  1
  O  O14  1  0.750000  0.989880  0.237597  1
  O  O15  1  0.250000  0.010120  0.762403  1
  O  O16  1  0.250000  0.240990  0.270156  1
  O  O17  1  0.750000  0.759010  0.729844  1
  O  O18  1  0.750000  0.740825  0.229873  1
  O  O19  1  0.250000  0.259175  0.770127  1
  O  O20  1  0.250000  0.357835  0.077064  1
  O  O21  1  0.750000  0.642165  0.922936  1
  O  O22  1  0.750000  0.856699  0.423160  1
  O  O23  1  0.250000  0.143301  0.576840  1
  O  O24  1  0.250000  0.612601  0.500340  1
  O  O25  1  0.750000  0.387399  0.499660  1
  O  O26  1  0.750000  0.113310  0.999492  1
  O  O27  1  0.250000  0.886690  0.000508  1
