# generated using pymatgen
data_CaYCo9Tc3As7
_symmetry_space_group_name_H-M   'P 1'
_cell_length_a   3.83439800
_cell_length_b   9.39335607
_cell_length_c   9.39335700
_cell_angle_alpha   119.99999976
_cell_angle_beta   90.00000000
_cell_angle_gamma   90.00000000
_symmetry_Int_Tables_number   1
_chemical_formula_structural   CaYCo9Tc3As7
_chemical_formula_sum   'Ca1 Y1 Co9 Tc3 As7'
_cell_volume   293.00122465
_cell_formula_units_Z   1
loop_
 _symmetry_equiv_pos_site_id
 _symmetry_equiv_pos_as_xyz
  1  'x, y, z'
loop_
 _atom_site_type_symbol
 _atom_site_label
 _atom_site_symmetry_multiplicity
 _atom_site_fract_x
 _atom_site_fract_y
 _atom_site_fract_z
 _atom_site_occupancy
  Ca  Ca0  1  0.500000  0.333333  0.666667  1
  Y  Y1  1  0.000000  0.666667  0.333333  1
  Co  Co2  1  0.000000  0.570093  0.943411  1
  Co  Co3  1  0.000000  0.373318  0.429907  1
  Co  Co4  1  0.000000  0.056589  0.626682  1
  Co  Co5  1  0.000000  0.876132  0.157954  1
  Co  Co6  1  0.000000  0.281822  0.123868  1
  Co  Co7  1  0.000000  0.842046  0.718178  1
  Co  Co8  1  0.500000  0.945547  0.379620  1
  Co  Co9  1  0.500000  0.434072  0.054453  1
  Co  Co10  1  0.500000  0.620380  0.565928  1
  Tc  Tc11  1  0.500000  0.783440  0.900681  1
  Tc  Tc12  1  0.500000  0.117241  0.216560  1
  Tc  Tc13  1  0.500000  0.099319  0.882759  1
  As  As14  1  0.000000  0.000000  0.000000  1
  As  As15  1  0.500000  0.706156  0.115521  1
  As  As16  1  0.500000  0.409366  0.293844  1
  As  As17  1  0.500000  0.884479  0.590634  1
  As  As18  1  0.000000  0.587250  0.702048  1
  As  As19  1  0.000000  0.114797  0.412750  1
  As  As20  1  0.000000  0.297952  0.885203  1
