# generated using pymatgen
data_Tb3DyAl14(Ga2Ir3)2
_symmetry_space_group_name_H-M   'P 1'
_cell_length_a   7.53680341
_cell_length_b   7.53687053
_cell_length_c   9.55577600
_cell_angle_alpha   90.00000000
_cell_angle_beta   90.00000000
_cell_angle_gamma   119.52179677
_symmetry_Int_Tables_number   1
_chemical_formula_structural   Tb3DyAl14(Ga2Ir3)2
_chemical_formula_sum   'Tb3 Dy1 Al14 Ga4 Ir6'
_cell_volume   472.33210072
_cell_formula_units_Z   1
loop_
 _symmetry_equiv_pos_site_id
 _symmetry_equiv_pos_as_xyz
  1  'x, y, z'
loop_
 _atom_site_type_symbol
 _atom_site_label
 _atom_site_symmetry_multiplicity
 _atom_site_fract_x
 _atom_site_fract_y
 _atom_site_fract_z
 _atom_site_occupancy
  Tb  Tb0  1  0.997512  0.673074  0.750000  1
  Tb  Tb1  1  0.002511  0.326907  0.250000  1
  Tb  Tb2  1  0.669747  0.993350  0.750000  1
  Dy  Dy3  1  0.330245  0.006632  0.250000  1
  Al  Al4  1  0.001453  0.334876  0.572581  1
  Al  Al5  1  0.998690  0.665280  0.427320  1
  Al  Al6  1  0.998690  0.665280  0.072680  1
  Al  Al7  1  0.335379  0.002223  0.927444  1
  Al  Al8  1  0.001453  0.334876  0.927419  1
  Al  Al9  1  0.664467  0.997783  0.072819  1
  Al  Al10  1  0.664467  0.997783  0.427181  1
  Al  Al11  1  0.335379  0.002223  0.572556  1
  Al  Al12  1  0.333961  0.334208  0.054066  1
  Al  Al13  1  0.666042  0.665644  0.946070  1
  Al  Al14  1  0.666042  0.665644  0.553930  1
  Al  Al15  1  0.333961  0.334208  0.445934  1
  Al  Al16  1  0.548541  0.338791  0.750000  1
  Al  Al17  1  0.451383  0.661336  0.250000  1
  Ga  Ga18  1  0.130442  0.131206  0.750000  1
  Ga  Ga19  1  0.869786  0.868894  0.250000  1
  Ga  Ga20  1  0.338188  0.545566  0.750000  1
  Ga  Ga21  1  0.661613  0.454191  0.250000  1
  Ir  Ir22  1  0.671132  0.328042  0.502379  1
  Ir  Ir23  1  0.328787  0.671946  0.497465  1
  Ir  Ir24  1  0.328787  0.671946  0.002535  1
  Ir  Ir25  1  0.671132  0.328042  0.997621  1
  Ir  Ir26  1  0.000104  0.000025  0.499912  1
  Ir  Ir27  1  0.000104  0.000025  0.000088  1
