# generated using pymatgen
data_La18Yb2GaSi11
_symmetry_space_group_name_H-M   'P 1'
_cell_length_a   7.88618200
_cell_length_b   7.88618200
_cell_length_c   14.54029600
_cell_angle_alpha   90.00000000
_cell_angle_beta   90.00000000
_cell_angle_gamma   90.00000000
_symmetry_Int_Tables_number   1
_chemical_formula_structural   La18Yb2GaSi11
_chemical_formula_sum   'La18 Yb2 Ga1 Si11'
_cell_volume   904.28814824
_cell_formula_units_Z   1
loop_
 _symmetry_equiv_pos_site_id
 _symmetry_equiv_pos_as_xyz
  1  'x, y, z'
loop_
 _atom_site_type_symbol
 _atom_site_label
 _atom_site_symmetry_multiplicity
 _atom_site_fract_x
 _atom_site_fract_y
 _atom_site_fract_z
 _atom_site_occupancy
  La  La0  1  0.325637  0.314328  0.105220  1
  La  La1  1  0.826178  0.813585  0.894504  1
  La  La2  1  0.827324  0.179642  0.394144  1
  La  La3  1  0.173822  0.186415  0.894504  1
  La  La4  1  0.674363  0.685672  0.105220  1
  La  La5  1  0.000000  0.500000  0.718676  1
  La  La6  1  0.813368  0.833893  0.606538  1
  La  La7  1  0.320358  0.327324  0.394144  1
  La  La8  1  0.185672  0.825637  0.105220  1
  La  La9  1  0.186632  0.166107  0.606538  1
  La  La10  1  0.814328  0.174363  0.105220  1
  La  La11  1  0.333893  0.686632  0.606538  1
  La  La12  1  0.500000  0.000000  0.278032  1
  La  La13  1  0.686415  0.326178  0.894504  1
  La  La14  1  0.666107  0.313368  0.606538  1
  La  La15  1  0.313585  0.673822  0.894504  1
  La  La16  1  0.172676  0.820358  0.394144  1
  La  La17  1  0.679642  0.672676  0.394144  1
  Yb  Yb18  1  0.500000  0.000000  0.765448  1
  Yb  Yb19  1  0.000000  0.500000  0.239158  1
  Ga  Ga20  1  0.000000  0.500000  0.499631  1
  Si  Si21  1  0.611106  0.387353  0.247739  1
  Si  Si22  1  0.889192  0.113847  0.752273  1
  Si  Si23  1  0.500000  0.000000  0.496759  1
  Si  Si24  1  0.887353  0.888894  0.247739  1
  Si  Si25  1  0.000000  0.500000  0.010437  1
  Si  Si26  1  0.110808  0.886153  0.752273  1
  Si  Si27  1  0.386153  0.389192  0.752273  1
  Si  Si28  1  0.112647  0.111106  0.247739  1
  Si  Si29  1  0.388894  0.612647  0.247739  1
  Si  Si30  1  0.613847  0.610808  0.752273  1
  Si  Si31  1  0.500000  0.000000  0.990187  1
