# generated using pymatgen
data_Nd2B4Ir3Os
_symmetry_space_group_name_H-M   'P 1'
_cell_length_a   7.05399835
_cell_length_b   6.12785034
_cell_length_c   5.61924473
_cell_angle_alpha   73.66646431
_cell_angle_beta   56.47509289
_cell_angle_gamma   49.58705460
_symmetry_Int_Tables_number   1
_chemical_formula_structural   Nd2B4Ir3Os
_chemical_formula_sum   'Nd2 B4 Ir3 Os1'
_cell_volume   153.04064242
_cell_formula_units_Z   1
loop_
 _symmetry_equiv_pos_site_id
 _symmetry_equiv_pos_as_xyz
  1  'x, y, z'
loop_
 _atom_site_type_symbol
 _atom_site_label
 _atom_site_symmetry_multiplicity
 _atom_site_fract_x
 _atom_site_fract_y
 _atom_site_fract_z
 _atom_site_occupancy
  Nd  Nd0  1  0.500842  0.500842  0.499158  1
  Nd  Nd1  1  0.750178  0.750178  0.749822  1
  B  B2  1  0.163330  0.827358  0.190239  1
  B  B3  1  0.076113  0.430597  0.059875  1
  B  B4  1  0.827358  0.163330  0.819073  1
  B  B5  1  0.430597  0.076113  0.433414  1
  Ir  Ir6  1  0.131064  0.131064  0.868936  1
  Ir  Ir7  1  0.383463  0.383463  0.116537  1
  Ir  Ir8  1  0.120211  0.120211  0.379789  1
  Os  Os9  1  0.866844  0.866844  0.133156  1
