# generated using pymatgen
data_Ho2Lu8In8PtAu3
_symmetry_space_group_name_H-M   'P 1'
_cell_length_a   3.60102900
_cell_length_b   8.10167209
_cell_length_c   18.14878577
_cell_angle_alpha   90.00823109
_cell_angle_beta   90.00000000
_cell_angle_gamma   90.00000000
_symmetry_Int_Tables_number   1
_chemical_formula_structural   Ho2Lu8In8PtAu3
_chemical_formula_sum   'Ho2 Lu8 In8 Pt1 Au3'
_cell_volume   529.47913390
_cell_formula_units_Z   1
loop_
 _symmetry_equiv_pos_site_id
 _symmetry_equiv_pos_as_xyz
  1  'x, y, z'
loop_
 _atom_site_type_symbol
 _atom_site_label
 _atom_site_symmetry_multiplicity
 _atom_site_fract_x
 _atom_site_fract_y
 _atom_site_fract_z
 _atom_site_occupancy
  Ho  Ho0  1  0.000000  0.000010  0.000698  1
  Ho  Ho1  1  0.000000  0.500640  0.499375  1
  Lu  Lu2  1  0.000000  0.119668  0.418765  1
  Lu  Lu3  1  0.000000  0.879117  0.579797  1
  Lu  Lu4  1  0.000000  0.379364  0.920397  1
  Lu  Lu5  1  0.000000  0.616604  0.084699  1
  Lu  Lu6  1  0.000000  0.253570  0.217670  1
  Lu  Lu7  1  0.000000  0.761040  0.782633  1
  Lu  Lu8  1  0.000000  0.260641  0.718099  1
  Lu  Lu9  1  0.000000  0.730530  0.278762  1
  In  In10  1  0.500000  0.421725  0.352122  1
  In  In11  1  0.500000  0.579246  0.647062  1
  In  In12  1  0.500000  0.079527  0.853082  1
  In  In13  1  0.500000  0.921397  0.147925  1
  In  In14  1  0.500000  0.292993  0.066876  1
  In  In15  1  0.500000  0.706853  0.935343  1
  In  In16  1  0.500000  0.207892  0.565769  1
  In  In17  1  0.500000  0.791701  0.432514  1
  Pt  Pt18  1  0.500000  0.527295  0.195851  1
  Au  Au19  1  0.500000  0.027934  0.302437  1
  Au  Au20  1  0.500000  0.970748  0.696497  1
  Au  Au21  1  0.500000  0.471505  0.803625  1
