# generated using pymatgen
data_Y8Ga3Co
_symmetry_space_group_name_H-M   'P 1'
_cell_length_a   10.06805500
_cell_length_b   10.06803412
_cell_length_c   6.97863600
_cell_angle_alpha   90.00000000
_cell_angle_beta   90.00000000
_cell_angle_gamma   120.00007188
_symmetry_Int_Tables_number   1
_chemical_formula_structural   Y8Ga3Co
_chemical_formula_sum   'Y16 Ga6 Co2'
_cell_volume   612.61993050
_cell_formula_units_Z   2
loop_
 _symmetry_equiv_pos_site_id
 _symmetry_equiv_pos_as_xyz
  1  'x, y, z'
loop_
 _atom_site_type_symbol
 _atom_site_label
 _atom_site_symmetry_multiplicity
 _atom_site_fract_x
 _atom_site_fract_y
 _atom_site_fract_z
 _atom_site_occupancy
  Y  Y0  1  0.666668  0.333336  0.172471  1
  Y  Y1  1  0.000000  0.000000  0.267348  1
  Y  Y2  1  0.463255  0.926510  0.292488  1
  Y  Y3  1  0.073490  0.536746  0.292489  1
  Y  Y4  1  0.463256  0.536746  0.292489  1
  Y  Y5  1  0.345218  0.172608  0.489814  1
  Y  Y6  1  0.827389  0.172608  0.489814  1
  Y  Y7  1  0.827391  0.654781  0.489816  1
  Y  Y8  1  0.333332  0.666665  0.672471  1
  Y  Y9  1  0.000000  0.000000  0.767348  1
  Y  Y10  1  0.536744  0.073489  0.792488  1
  Y  Y11  1  0.536744  0.463254  0.792488  1
  Y  Y12  1  0.926511  0.463254  0.792488  1
  Y  Y13  1  0.172610  0.827391  0.989814  1
  Y  Y14  1  0.654781  0.827391  0.989814  1
  Y  Y15  1  0.172609  0.345219  0.989818  1
  Ga  Ga16  1  0.327262  0.163631  0.040009  1
  Ga  Ga17  1  0.836369  0.163631  0.040009  1
  Ga  Ga18  1  0.836370  0.672741  0.040011  1
  Ga  Ga19  1  0.163630  0.327260  0.540010  1
  Ga  Ga20  1  0.163631  0.836368  0.540009  1
  Ga  Ga21  1  0.672737  0.836368  0.540009  1
  Co  Co22  1  0.333334  0.666666  0.056244  1
  Co  Co23  1  0.666666  0.333334  0.556245  1
