# generated using pymatgen
data_Dy4HoBiAu2
_symmetry_space_group_name_H-M   'P 1'
_cell_length_a   8.71999733
_cell_length_b   8.71999820
_cell_length_c   8.71999739
_cell_angle_alpha   124.15625191
_cell_angle_beta   124.15625249
_cell_angle_gamma   82.94029937
_symmetry_Int_Tables_number   1
_chemical_formula_structural   Dy4HoBiAu2
_chemical_formula_sum   'Dy8 Ho2 Bi2 Au4'
_cell_volume   435.76539962
_cell_formula_units_Z   2
loop_
 _symmetry_equiv_pos_site_id
 _symmetry_equiv_pos_as_xyz
  1  'x, y, z'
loop_
 _atom_site_type_symbol
 _atom_site_label
 _atom_site_symmetry_multiplicity
 _atom_site_fract_x
 _atom_site_fract_y
 _atom_site_fract_z
 _atom_site_occupancy
  Dy  Dy0  1  0.014728  0.514728  0.809833  1
  Dy  Dy1  1  0.704895  0.204895  0.190167  1
  Dy  Dy2  1  0.514728  0.704895  0.500000  1
  Dy  Dy3  1  0.204895  0.014728  0.500000  1
  Dy  Dy4  1  0.985272  0.485272  0.190167  1
  Dy  Dy5  1  0.295105  0.795105  0.809833  1
  Dy  Dy6  1  0.485272  0.295105  0.500000  1
  Dy  Dy7  1  0.795105  0.985272  0.500000  1
  Ho  Ho8  1  0.000000  0.000000  0.000000  1
  Ho  Ho9  1  0.500000  0.500000  0.000000  1
  Bi  Bi10  1  0.750000  0.750000  0.000000  1
  Bi  Bi11  1  0.250000  0.250000  0.000000  1
  Au  Au12  1  0.637983  0.137983  0.775966  1
  Au  Au13  1  0.362017  0.862017  0.224034  1
  Au  Au14  1  0.137983  0.362017  0.500000  1
  Au  Au15  1  0.862017  0.637983  0.500000  1
