# generated using pymatgen
data_Lu5ReBWC6
_symmetry_space_group_name_H-M   'P 1'
_cell_length_a   8.19464354
_cell_length_b   8.19482582
_cell_length_c   3.35088100
_cell_angle_alpha   90.00000000
_cell_angle_beta   90.00000000
_cell_angle_gamma   121.56623933
_symmetry_Int_Tables_number   1
_chemical_formula_structural   Lu5ReBWC6
_chemical_formula_sum   'Lu5 Re1 B1 W1 C6'
_cell_volume   191.72842625
_cell_formula_units_Z   1
loop_
 _symmetry_equiv_pos_site_id
 _symmetry_equiv_pos_as_xyz
  1  'x, y, z'
loop_
 _atom_site_type_symbol
 _atom_site_label
 _atom_site_symmetry_multiplicity
 _atom_site_fract_x
 _atom_site_fract_y
 _atom_site_fract_z
 _atom_site_occupancy
  Lu  Lu0  1  0.331075  0.082056  0.500000  1
  Lu  Lu1  1  0.671002  0.920677  0.500000  1
  Lu  Lu2  1  0.079318  0.328999  0.500000  1
  Lu  Lu3  1  0.917943  0.668909  0.500000  1
  Lu  Lu4  1  0.501403  0.498588  0.000000  1
  Re  Re5  1  0.713961  0.286047  0.000000  1
  B  B6  1  0.000165  0.999838  0.000000  1
  W  W7  1  0.285782  0.714230  0.000000  1
  C  C8  1  0.183490  0.184548  0.000000  1
  C  C9  1  0.815458  0.816505  0.000000  1
  C  C10  1  0.376358  0.623648  0.500000  1
  C  C11  1  0.625373  0.374619  0.500000  1
  C  C12  1  0.499833  0.001166  0.000000  1
  C  C13  1  0.998840  0.500170  0.000000  1
