# generated using pymatgen
data_U(NbCl3)6
_symmetry_space_group_name_H-M   'P 1'
_cell_length_a   10.24494799
_cell_length_b   10.24494776
_cell_length_c   10.24494842
_cell_angle_alpha   55.77382197
_cell_angle_beta   55.77382187
_cell_angle_gamma   55.77382366
_symmetry_Int_Tables_number   1
_chemical_formula_structural   U(NbCl3)6
_chemical_formula_sum   'U1 Nb6 Cl18'
_cell_volume   685.83144380
_cell_formula_units_Z   1
loop_
 _symmetry_equiv_pos_site_id
 _symmetry_equiv_pos_as_xyz
  1  'x, y, z'
loop_
 _atom_site_type_symbol
 _atom_site_label
 _atom_site_symmetry_multiplicity
 _atom_site_fract_x
 _atom_site_fract_y
 _atom_site_fract_z
 _atom_site_occupancy
  U  U0  1  0.000000  0.000000  0.000000  1
  Nb  Nb1  1  0.410074  0.304028  0.647591  1
  Nb  Nb2  1  0.352409  0.589926  0.695972  1
  Nb  Nb3  1  0.695972  0.352409  0.589926  1
  Nb  Nb4  1  0.304028  0.647591  0.410074  1
  Nb  Nb5  1  0.647591  0.410074  0.304028  1
  Nb  Nb6  1  0.589926  0.695972  0.352409  1
  Cl  Cl7  1  0.568212  0.162092  0.442540  1
  Cl  Cl8  1  0.223906  0.370637  0.908526  1
  Cl  Cl9  1  0.908526  0.223906  0.370637  1
  Cl  Cl10  1  0.370637  0.908526  0.223906  1
  Cl  Cl11  1  0.776094  0.629363  0.091474  1
  Cl  Cl12  1  0.091474  0.776094  0.629363  1
  Cl  Cl13  1  0.706938  0.959444  0.156870  1
  Cl  Cl14  1  0.959444  0.156870  0.706938  1
  Cl  Cl15  1  0.156870  0.706938  0.959444  1
  Cl  Cl16  1  0.293062  0.040556  0.843130  1
  Cl  Cl17  1  0.040556  0.843130  0.293062  1
  Cl  Cl18  1  0.843130  0.293062  0.040556  1
  Cl  Cl19  1  0.557460  0.431788  0.837908  1
  Cl  Cl20  1  0.162092  0.442540  0.568212  1
  Cl  Cl21  1  0.442540  0.568212  0.162092  1
  Cl  Cl22  1  0.431788  0.837908  0.557460  1
  Cl  Cl23  1  0.837908  0.557460  0.431788  1
  Cl  Cl24  1  0.629363  0.091474  0.776094  1
