# generated using pymatgen
data_TbNd2Th5(Si3Pd)4
_symmetry_space_group_name_H-M   'P 1'
_cell_length_a   8.24515992
_cell_length_b   8.25191437
_cell_length_c   8.45548000
_cell_angle_alpha   90.00000000
_cell_angle_beta   90.00000000
_cell_angle_gamma   120.02711467
_symmetry_Int_Tables_number   1
_chemical_formula_structural   TbNd2Th5(Si3Pd)4
_chemical_formula_sum   'Tb1 Nd2 Th5 Si12 Pd4'
_cell_volume   498.08558064
_cell_formula_units_Z   1
loop_
 _symmetry_equiv_pos_site_id
 _symmetry_equiv_pos_as_xyz
  1  'x, y, z'
loop_
 _atom_site_type_symbol
 _atom_site_label
 _atom_site_symmetry_multiplicity
 _atom_site_fract_x
 _atom_site_fract_y
 _atom_site_fract_z
 _atom_site_occupancy
  Tb  Tb0  1  0.999986  0.999993  0.750000  1
  Nd  Nd1  1  0.500309  0.000579  0.250000  1
  Nd  Nd2  1  0.500309  0.499727  0.250000  1
  Th  Th3  1  0.499750  0.999497  0.750000  1
  Th  Th4  1  0.999461  0.499729  0.250000  1
  Th  Th5  1  0.000496  0.500249  0.750000  1
  Th  Th6  1  0.499750  0.500255  0.750000  1
  Th  Th7  1  0.999974  0.999987  0.250000  1
  Si  Si8  1  0.165169  0.330374  0.997575  1
  Si  Si9  1  0.834840  0.669637  0.996635  1
  Si  Si10  1  0.669246  0.834622  0.997679  1
  Si  Si11  1  0.834840  0.669637  0.503365  1
  Si  Si12  1  0.330741  0.165371  0.996765  1
  Si  Si13  1  0.165169  0.330374  0.502425  1
  Si  Si14  1  0.165169  0.834794  0.997575  1
  Si  Si15  1  0.330741  0.165371  0.503235  1
  Si  Si16  1  0.834840  0.165203  0.996635  1
  Si  Si17  1  0.669246  0.834622  0.502321  1
  Si  Si18  1  0.834840  0.165203  0.503365  1
  Si  Si19  1  0.165169  0.834794  0.502425  1
  Pd  Pd20  1  0.332276  0.666139  0.000589  1
  Pd  Pd21  1  0.667702  0.333850  0.999062  1
  Pd  Pd22  1  0.667702  0.333850  0.500938  1
  Pd  Pd23  1  0.332276  0.666139  0.499411  1
