# generated using pymatgen
data_Pr3Th5(ZnRh)8
_symmetry_space_group_name_H-M   'P 1'
_cell_length_a   3.98838100
_cell_length_b   7.44487243
_cell_length_c   16.62208814
_cell_angle_alpha   90.09553829
_cell_angle_beta   90.00000000
_cell_angle_gamma   90.00000000
_symmetry_Int_Tables_number   1
_chemical_formula_structural   Pr3Th5(ZnRh)8
_chemical_formula_sum   'Pr3 Th5 Zn8 Rh8'
_cell_volume   493.55877332
_cell_formula_units_Z   1
loop_
 _symmetry_equiv_pos_site_id
 _symmetry_equiv_pos_as_xyz
  1  'x, y, z'
loop_
 _atom_site_type_symbol
 _atom_site_label
 _atom_site_symmetry_multiplicity
 _atom_site_fract_x
 _atom_site_fract_y
 _atom_site_fract_z
 _atom_site_occupancy
  Pr  Pr0  1  0.250000  0.556205  0.785512  1
  Pr  Pr1  1  0.750000  0.329543  0.441668  1
  Pr  Pr2  1  0.250000  0.673155  0.559380  1
  Th  Th3  1  0.750000  0.441693  0.215796  1
  Th  Th4  1  0.750000  0.947464  0.285132  1
  Th  Th5  1  0.750000  0.825523  0.060711  1
  Th  Th6  1  0.250000  0.050022  0.714523  1
  Th  Th7  1  0.250000  0.172671  0.939156  1
  Zn  Zn8  1  0.250000  0.003093  0.441736  1
  Zn  Zn9  1  0.750000  0.504435  0.938385  1
  Zn  Zn10  1  0.750000  0.001210  0.557463  1
  Zn  Zn11  1  0.250000  0.616727  0.349117  1
  Zn  Zn12  1  0.750000  0.384252  0.653266  1
  Zn  Zn13  1  0.750000  0.877838  0.849075  1
  Zn  Zn14  1  0.250000  0.494207  0.060209  1
  Zn  Zn15  1  0.250000  0.117060  0.150665  1
  Rh  Rh16  1  0.250000  0.241750  0.571525  1
  Rh  Rh17  1  0.750000  0.244737  0.060516  1
  Rh  Rh18  1  0.250000  0.242303  0.307815  1
  Rh  Rh19  1  0.750000  0.241449  0.816204  1
  Rh  Rh20  1  0.250000  0.758887  0.942418  1
  Rh  Rh21  1  0.750000  0.772098  0.686462  1
  Rh  Rh22  1  0.750000  0.764907  0.427584  1
  Rh  Rh23  1  0.250000  0.738771  0.185684  1
