# generated using pymatgen
data_La7Sm5(Si7Br3)2
_symmetry_space_group_name_H-M   'P 1'
_cell_length_a   4.09437900
_cell_length_b   11.88010193
_cell_length_c   16.57865850
_cell_angle_alpha   89.70507573
_cell_angle_beta   90.00000000
_cell_angle_gamma   90.00000000
_symmetry_Int_Tables_number   1
_chemical_formula_structural   La7Sm5(Si7Br3)2
_chemical_formula_sum   'La7 Sm5 Si14 Br6'
_cell_volume   806.40245252
_cell_formula_units_Z   1
loop_
 _symmetry_equiv_pos_site_id
 _symmetry_equiv_pos_as_xyz
  1  'x, y, z'
loop_
 _atom_site_type_symbol
 _atom_site_label
 _atom_site_symmetry_multiplicity
 _atom_site_fract_x
 _atom_site_fract_y
 _atom_site_fract_z
 _atom_site_occupancy
  La  La0  1  0.500000  0.339908  0.501637  1
  La  La1  1  0.000000  0.658687  0.997823  1
  La  La2  1  0.000000  0.640580  0.255421  1
  La  La3  1  0.500000  0.066960  0.878878  1
  La  La4  1  0.000000  0.932852  0.622069  1
  La  La5  1  0.500000  0.068527  0.120243  1
  La  La6  1  0.000000  0.933580  0.380448  1
  Sm  Sm7  1  0.500000  0.363289  0.758051  1
  Sm  Sm8  1  0.000000  0.636444  0.742275  1
  Sm  Sm9  1  0.500000  0.362814  0.241802  1
  Sm  Sm10  1  0.500000  0.357993  0.998499  1
  Sm  Sm11  1  0.000000  0.640684  0.501271  1
  Si  Si12  1  0.000000  0.158622  0.999277  1
  Si  Si13  1  0.500000  0.842807  0.501750  1
  Si  Si14  1  0.500000  0.566733  0.874360  1
  Si  Si15  1  0.000000  0.433270  0.625534  1
  Si  Si16  1  0.500000  0.562020  0.121046  1
  Si  Si17  1  0.000000  0.432670  0.376676  1
  Si  Si18  1  0.000000  0.256922  0.872127  1
  Si  Si19  1  0.500000  0.742489  0.627974  1
  Si  Si20  1  0.000000  0.256753  0.126642  1
  Si  Si21  1  0.500000  0.743009  0.376438  1
  Si  Si22  1  0.000000  0.458552  0.876276  1
  Si  Si23  1  0.500000  0.540896  0.623879  1
  Si  Si24  1  0.500000  0.540492  0.377480  1
  Si  Si25  1  0.000000  0.456551  0.121666  1
  Br  Br26  1  0.500000  0.116147  0.692238  1
  Br  Br27  1  0.000000  0.884003  0.808208  1
  Br  Br28  1  0.000000  0.137342  0.500284  1
  Br  Br29  1  0.500000  0.862045  0.000271  1
  Br  Br30  1  0.500000  0.115607  0.307843  1
  Br  Br31  1  0.000000  0.890747  0.191616  1
