# generated using pymatgen
data_Pr20CoRu3Au8
_symmetry_space_group_name_H-M   'P 1'
_cell_length_a   8.62352010
_cell_length_b   8.59899100
_cell_length_c   12.27296312
_cell_angle_alpha   90.00000000
_cell_angle_beta   89.81813863
_cell_angle_gamma   90.00000000
_symmetry_Int_Tables_number   1
_chemical_formula_structural   Pr20CoRu3Au8
_chemical_formula_sum   'Pr20 Co1 Ru3 Au8'
_cell_volume   910.07946645
_cell_formula_units_Z   1
loop_
 _symmetry_equiv_pos_site_id
 _symmetry_equiv_pos_as_xyz
  1  'x, y, z'
loop_
 _atom_site_type_symbol
 _atom_site_label
 _atom_site_symmetry_multiplicity
 _atom_site_fract_x
 _atom_site_fract_y
 _atom_site_fract_z
 _atom_site_occupancy
  Pr  Pr0  1  0.846769  0.750000  0.787719  1
  Pr  Pr1  1  0.152950  0.250000  0.215567  1
  Pr  Pr2  1  0.344863  0.250000  0.715908  1
  Pr  Pr3  1  0.653894  0.750000  0.284511  1
  Pr  Pr4  1  0.386721  0.750000  0.702671  1
  Pr  Pr5  1  0.615609  0.250000  0.297081  1
  Pr  Pr6  1  0.887601  0.250000  0.797798  1
  Pr  Pr7  1  0.113572  0.750000  0.200156  1
  Pr  Pr8  1  0.947095  0.750000  0.494370  1
  Pr  Pr9  1  0.051241  0.250000  0.505394  1
  Pr  Pr10  1  0.450225  0.250000  0.005720  1
  Pr  Pr11  1  0.550210  0.750000  0.995057  1
  Pr  Pr12  1  0.677259  0.039354  0.575613  1
  Pr  Pr13  1  0.321824  0.960826  0.424149  1
  Pr  Pr14  1  0.175442  0.959274  0.925749  1
  Pr  Pr15  1  0.321824  0.539174  0.424149  1
  Pr  Pr16  1  0.824168  0.032890  0.072966  1
  Pr  Pr17  1  0.677259  0.460646  0.575613  1
  Pr  Pr18  1  0.824168  0.467110  0.072966  1
  Pr  Pr19  1  0.175442  0.540726  0.925749  1
  Co  Co20  1  0.938855  0.750000  0.009283  1
  Ru  Ru21  1  0.564097  0.750000  0.509397  1
  Ru  Ru22  1  0.435069  0.250000  0.490872  1
  Ru  Ru23  1  0.064902  0.250000  0.990584  1
  Au  Au24  1  0.577847  0.478555  0.829922  1
  Au  Au25  1  0.422480  0.521389  0.170624  1
  Au  Au26  1  0.076974  0.522913  0.670674  1
  Au  Au27  1  0.422480  0.978611  0.170624  1
  Au  Au28  1  0.922170  0.479674  0.329259  1
  Au  Au29  1  0.577847  0.021445  0.829922  1
  Au  Au30  1  0.922170  0.020326  0.329259  1
  Au  Au31  1  0.076974  0.977087  0.670674  1
