# generated using pymatgen
data_Pr4Si10TcPt5
_symmetry_space_group_name_H-M   'P 1'
_cell_length_a   8.30491912
_cell_length_b   8.30491889
_cell_length_c   8.30491770
_cell_angle_alpha   137.29935504
_cell_angle_beta   105.28350819
_cell_angle_gamma   90.08581167
_symmetry_Int_Tables_number   1
_chemical_formula_structural   Pr4Si10TcPt5
_chemical_formula_sum   'Pr4 Si10 Tc1 Pt5'
_cell_volume   357.64575615
_cell_formula_units_Z   1
loop_
 _symmetry_equiv_pos_site_id
 _symmetry_equiv_pos_as_xyz
  1  'x, y, z'
loop_
 _atom_site_type_symbol
 _atom_site_label
 _atom_site_symmetry_multiplicity
 _atom_site_fract_x
 _atom_site_fract_y
 _atom_site_fract_z
 _atom_site_occupancy
  Pr  Pr0  1  0.862951  0.630882  0.236575  1
  Pr  Pr1  1  0.137049  0.373624  0.767930  1
  Pr  Pr2  1  0.394307  0.126376  0.263425  1
  Pr  Pr3  1  0.605693  0.869118  0.732070  1
  Si  Si4  1  0.500000  0.750000  0.250000  1
  Si  Si5  1  0.500000  0.250000  0.750000  1
  Si  Si6  1  0.224877  0.974877  0.750000  1
  Si  Si7  1  0.775123  0.525123  0.750000  1
  Si  Si8  1  0.770045  0.020045  0.250000  1
  Si  Si9  1  0.229955  0.479955  0.250000  1
  Si  Si10  1  0.041592  0.886624  0.144537  1
  Si  Si11  1  0.958408  0.102945  0.845032  1
  Si  Si12  1  0.742087  0.397055  0.355463  1
  Si  Si13  1  0.257913  0.613376  0.654968  1
  Tc  Tc14  1  0.000000  0.750000  0.750000  1
  Pt  Pt15  1  0.000000  0.250000  0.250000  1
  Pt  Pt16  1  0.252354  0.866075  0.392453  1
  Pt  Pt17  1  0.747646  0.140098  0.613720  1
  Pt  Pt18  1  0.473622  0.359902  0.107547  1
  Pt  Pt19  1  0.526378  0.633925  0.886280  1
