# generated using pymatgen
data_Y3(Sn2Ir)2
_symmetry_space_group_name_H-M   'P 1'
_cell_length_a   7.52660000
_cell_length_b   7.52660117
_cell_length_c   4.22339600
_cell_angle_alpha   90.00000000
_cell_angle_beta   90.00000000
_cell_angle_gamma   120.00001244
_symmetry_Int_Tables_number   1
_chemical_formula_structural   Y3(Sn2Ir)2
_chemical_formula_sum   'Y3 Sn4 Ir2'
_cell_volume   207.20017662
_cell_formula_units_Z   1
loop_
 _symmetry_equiv_pos_site_id
 _symmetry_equiv_pos_as_xyz
  1  'x, y, z'
loop_
 _atom_site_type_symbol
 _atom_site_label
 _atom_site_symmetry_multiplicity
 _atom_site_fract_x
 _atom_site_fract_y
 _atom_site_fract_z
 _atom_site_occupancy
  Y  Y0  1  0.976722  0.392130  0.500000  1
  Y  Y1  1  0.607870  0.584593  0.500000  1
  Y  Y2  1  0.415407  0.023278  0.500000  1
  Sn  Sn3  1  0.981153  0.743034  0.000000  1
  Sn  Sn4  1  0.256966  0.238119  0.000000  1
  Sn  Sn5  1  0.761881  0.018847  0.000000  1
  Sn  Sn6  1  0.333333  0.666667  0.000000  1
  Ir  Ir7  1  0.666667  0.333333  0.000000  1
  Ir  Ir8  1  0.000000  0.000000  0.500000  1
