# generated using pymatgen
data_TbY19(Bi2Pt)4
_symmetry_space_group_name_H-M   'P 1'
_cell_length_a   8.12520035
_cell_length_b   9.07022442
_cell_length_c   12.46049675
_cell_angle_alpha   89.98574120
_cell_angle_beta   90.00441733
_cell_angle_gamma   89.99539302
_symmetry_Int_Tables_number   1
_chemical_formula_structural   TbY19(Bi2Pt)4
_chemical_formula_sum   'Tb1 Y19 Bi8 Pt4'
_cell_volume   918.30606180
_cell_formula_units_Z   1
loop_
 _symmetry_equiv_pos_site_id
 _symmetry_equiv_pos_as_xyz
  1  'x, y, z'
loop_
 _atom_site_type_symbol
 _atom_site_label
 _atom_site_symmetry_multiplicity
 _atom_site_fract_x
 _atom_site_fract_y
 _atom_site_fract_z
 _atom_site_occupancy
  Tb  Tb0  1  0.178433  0.545720  0.933191  1
  Y  Y1  1  0.836643  0.750049  0.789621  1
  Y  Y2  1  0.163571  0.249976  0.210533  1
  Y  Y3  1  0.336753  0.250113  0.710197  1
  Y  Y4  1  0.663173  0.750045  0.289706  1
  Y  Y5  1  0.372252  0.749691  0.697229  1
  Y  Y6  1  0.627815  0.249980  0.302799  1
  Y  Y7  1  0.871929  0.249903  0.802497  1
  Y  Y8  1  0.127912  0.750358  0.197364  1
  Y  Y9  1  0.950925  0.749994  0.499954  1
  Y  Y10  1  0.048973  0.249988  0.500014  1
  Y  Y11  1  0.451302  0.250305  0.999974  1
  Y  Y12  1  0.548841  0.749806  0.999927  1
  Y  Y13  1  0.679036  0.045904  0.567442  1
  Y  Y14  1  0.320978  0.953918  0.432541  1
  Y  Y15  1  0.179288  0.953991  0.932611  1
  Y  Y16  1  0.320927  0.546089  0.432614  1
  Y  Y17  1  0.821198  0.045954  0.067376  1
  Y  Y18  1  0.679051  0.454017  0.567389  1
  Y  Y19  1  0.820322  0.454118  0.067712  1
  Bi  Bi20  1  0.568837  0.490567  0.827478  1
  Bi  Bi21  1  0.431642  0.509285  0.172386  1
  Bi  Bi22  1  0.068327  0.509199  0.672051  1
  Bi  Bi23  1  0.431815  0.990833  0.172011  1
  Bi  Bi24  1  0.931704  0.490721  0.327721  1
  Bi  Bi25  1  0.568205  0.009328  0.827744  1
  Bi  Bi26  1  0.931755  0.009364  0.327814  1
  Bi  Bi27  1  0.068299  0.990677  0.672263  1
  Pt  Pt28  1  0.576365  0.750015  0.511505  1
  Pt  Pt29  1  0.423776  0.249905  0.488445  1
  Pt  Pt30  1  0.075961  0.250333  0.988426  1
  Pt  Pt31  1  0.923996  0.749852  0.011461  1
