# generated using pymatgen
data_LaPrCr2C3
_symmetry_space_group_name_H-M   'P 1'
_cell_length_a   5.49190436
_cell_length_b   5.49190441
_cell_length_c   5.88735689
_cell_angle_alpha   75.96258317
_cell_angle_beta   75.96258106
_cell_angle_gamma   38.05662418
_symmetry_Int_Tables_number   1
_chemical_formula_structural   LaPrCr2C3
_chemical_formula_sum   'La1 Pr1 Cr2 C3'
_cell_volume   105.79613762
_cell_formula_units_Z   1
loop_
 _symmetry_equiv_pos_site_id
 _symmetry_equiv_pos_as_xyz
  1  'x, y, z'
loop_
 _atom_site_type_symbol
 _atom_site_label
 _atom_site_symmetry_multiplicity
 _atom_site_fract_x
 _atom_site_fract_y
 _atom_site_fract_z
 _atom_site_occupancy
  La  La0  1  0.401543  0.401543  0.820660  1
  Pr  Pr1  1  0.597687  0.597687  0.181423  1
  Cr  Cr2  1  0.839535  0.839535  0.404716  1
  Cr  Cr3  1  0.160478  0.160478  0.593844  1
  C  C4  1  0.000122  0.000122  0.499162  1
  C  C5  1  0.303018  0.303018  0.297521  1
  C  C6  1  0.697616  0.697616  0.702675  1
