# generated using pymatgen
data_Dy2(CO3)3
_symmetry_space_group_name_H-M   'P 1'
_cell_length_a   8.23491006
_cell_length_b   8.29977708
_cell_length_c   8.33543781
_cell_angle_alpha   119.82627507
_cell_angle_beta   90.05528361
_cell_angle_gamma   89.93222142
_symmetry_Int_Tables_number   1
_chemical_formula_structural   Dy2(CO3)3
_chemical_formula_sum   'Dy4 C6 O18'
_cell_volume   494.24421380
_cell_formula_units_Z   2
loop_
 _symmetry_equiv_pos_site_id
 _symmetry_equiv_pos_as_xyz
  1  'x, y, z'
loop_
 _atom_site_type_symbol
 _atom_site_label
 _atom_site_symmetry_multiplicity
 _atom_site_fract_x
 _atom_site_fract_y
 _atom_site_fract_z
 _atom_site_occupancy
  Dy  Dy0  1  0.966564  0.665508  0.332121  1
  Dy  Dy1  1  0.533414  0.667174  0.333287  1
  Dy  Dy2  1  0.466586  0.332826  0.666713  1
  Dy  Dy3  1  0.033436  0.334492  0.667879  1
  C  C4  1  0.249810  0.964504  0.369912  1
  C  C5  1  0.250335  0.405981  0.036240  1
  C  C6  1  0.750221  0.368432  0.405884  1
  C  C7  1  0.249779  0.631568  0.594116  1
  C  C8  1  0.749665  0.594019  0.963760  1
  C  C9  1  0.750190  0.035496  0.630088  1
  O  O10  1  0.113352  0.878665  0.317458  1
  O  O11  1  0.387010  0.880136  0.317481  1
  O  O12  1  0.749667  0.663217  0.143524  1
  O  O13  1  0.387088  0.439451  0.121301  1
  O  O14  1  0.113462  0.437933  0.120865  1
  O  O15  1  0.749580  0.478591  0.335302  1
  O  O16  1  0.750746  0.855139  0.518790  1
  O  O17  1  0.112485  0.682825  0.560698  1
  O  O18  1  0.386248  0.683958  0.560572  1
  O  O19  1  0.613752  0.316042  0.439428  1
  O  O20  1  0.887515  0.317175  0.439302  1
  O  O21  1  0.249254  0.144861  0.481210  1
  O  O22  1  0.250420  0.521409  0.664698  1
  O  O23  1  0.886538  0.562067  0.879135  1
  O  O24  1  0.612912  0.560549  0.878699  1
  O  O25  1  0.250333  0.336783  0.856476  1
  O  O26  1  0.612990  0.119864  0.682519  1
  O  O27  1  0.886648  0.121335  0.682542  1
