# generated using pymatgen
data_Nb2CrFe2Ir
_symmetry_space_group_name_H-M   'P 1'
_cell_length_a   4.86533900
_cell_length_b   4.83829802
_cell_length_c   8.24455800
_cell_angle_alpha   90.00000000
_cell_angle_beta   90.00000000
_cell_angle_gamma   119.81631255
_symmetry_Int_Tables_number   1
_chemical_formula_structural   Nb2CrFe2Ir
_chemical_formula_sum   'Nb4 Cr2 Fe4 Ir2'
_cell_volume   168.38547212
_cell_formula_units_Z   2
loop_
 _symmetry_equiv_pos_site_id
 _symmetry_equiv_pos_as_xyz
  1  'x, y, z'
loop_
 _atom_site_type_symbol
 _atom_site_label
 _atom_site_symmetry_multiplicity
 _atom_site_fract_x
 _atom_site_fract_y
 _atom_site_fract_z
 _atom_site_occupancy
  Nb  Nb0  1  0.670106  0.335053  0.066483  1
  Nb  Nb1  1  0.670106  0.335053  0.433517  1
  Nb  Nb2  1  0.335711  0.667855  0.570899  1
  Nb  Nb3  1  0.335711  0.667855  0.929101  1
  Cr  Cr4  1  0.172914  0.352067  0.250001  1
  Cr  Cr5  1  0.172914  0.820847  0.250001  1
  Fe  Fe6  1  0.644691  0.822345  0.250001  1
  Fe  Fe7  1  0.346184  0.173093  0.750000  1
  Fe  Fe8  1  0.827112  0.174432  0.750000  1
  Fe  Fe9  1  0.827112  0.652681  0.750000  1
  Ir  Ir10  1  0.998718  0.999359  0.998789  1
  Ir  Ir11  1  0.998718  0.999359  0.501211  1
