# generated using pymatgen
data_Er2CoSi2Ru
_symmetry_space_group_name_H-M   'P 1'
_cell_length_a   4.24442000
_cell_length_b   6.84851300
_cell_length_c   7.04917800
_cell_angle_alpha   90.00000000
_cell_angle_beta   90.00000000
_cell_angle_gamma   90.00000000
_symmetry_Int_Tables_number   1
_chemical_formula_structural   Er2CoSi2Ru
_chemical_formula_sum   'Er4 Co2 Si4 Ru2'
_cell_volume   204.90526324
_cell_formula_units_Z   2
loop_
 _symmetry_equiv_pos_site_id
 _symmetry_equiv_pos_as_xyz
  1  'x, y, z'
loop_
 _atom_site_type_symbol
 _atom_site_label
 _atom_site_symmetry_multiplicity
 _atom_site_fract_x
 _atom_site_fract_y
 _atom_site_fract_z
 _atom_site_occupancy
  Er  Er0  1  0.750000  0.517914  0.808647  1
  Er  Er1  1  0.750000  0.017914  0.691353  1
  Er  Er2  1  0.250000  0.493073  0.188355  1
  Er  Er3  1  0.250000  0.993073  0.311645  1
  Co  Co4  1  0.250000  0.646255  0.569173  1
  Co  Co5  1  0.250000  0.146255  0.930827  1
  Si  Si6  1  0.750000  0.198689  0.098072  1
  Si  Si7  1  0.750000  0.698689  0.401928  1
  Si  Si8  1  0.250000  0.803800  0.886858  1
  Si  Si9  1  0.250000  0.303800  0.613142  1
  Ru  Ru10  1  0.750000  0.340269  0.434844  1
  Ru  Ru11  1  0.750000  0.840269  0.065156  1
