# generated using pymatgen
data_Pr6Nd14(GaSi3)3
_symmetry_space_group_name_H-M   'P 1'
_cell_length_a   7.79089414
_cell_length_b   7.79080910
_cell_length_c   14.54969915
_cell_angle_alpha   89.99171205
_cell_angle_beta   90.01417216
_cell_angle_gamma   89.98371823
_symmetry_Int_Tables_number   1
_chemical_formula_structural   Pr6Nd14(GaSi3)3
_chemical_formula_sum   'Pr6 Nd14 Ga3 Si9'
_cell_volume   883.12838534
_cell_formula_units_Z   1
loop_
 _symmetry_equiv_pos_site_id
 _symmetry_equiv_pos_as_xyz
  1  'x, y, z'
loop_
 _atom_site_type_symbol
 _atom_site_label
 _atom_site_symmetry_multiplicity
 _atom_site_fract_x
 _atom_site_fract_y
 _atom_site_fract_z
 _atom_site_occupancy
  Pr  Pr0  1  0.310560  0.330730  0.393229  1
  Pr  Pr1  1  0.182609  0.177295  0.606292  1
  Pr  Pr2  1  0.813766  0.172634  0.109321  1
  Pr  Pr3  1  0.314727  0.673708  0.890905  1
  Pr  Pr4  1  0.327369  0.313928  0.109474  1
  Pr  Pr5  1  0.173515  0.185196  0.890776  1
  Nd  Nd6  1  0.817208  0.822581  0.607035  1
  Nd  Nd7  1  0.186016  0.827316  0.110286  1
  Nd  Nd8  1  0.169395  0.810435  0.392429  1
  Nd  Nd9  1  0.000126  0.499931  0.733744  1
  Nd  Nd10  1  0.830480  0.189170  0.392365  1
  Nd  Nd11  1  0.689761  0.669420  0.392503  1
  Nd  Nd12  1  0.677519  0.317563  0.607059  1
  Nd  Nd13  1  0.322815  0.682419  0.607105  1
  Nd  Nd14  1  0.999970  0.499911  0.229551  1
  Nd  Nd15  1  0.672719  0.686305  0.110143  1
  Nd  Nd16  1  0.685362  0.326733  0.889978  1
  Nd  Nd17  1  0.826462  0.814519  0.890038  1
  Nd  Nd18  1  0.499891  0.000035  0.271283  1
  Nd  Nd19  1  0.499832  0.000087  0.765944  1
  Ga  Ga20  1  0.501018  0.998916  0.493140  1
  Ga  Ga21  1  0.500883  0.999064  0.992580  1
  Ga  Ga22  1  0.998620  0.501099  0.006153  1
  Si  Si23  1  0.614273  0.386512  0.251851  1
  Si  Si24  1  0.113652  0.886201  0.747853  1
  Si  Si25  1  0.387774  0.385803  0.747784  1
  Si  Si26  1  0.386542  0.615308  0.251485  1
  Si  Si27  1  0.885755  0.885487  0.251845  1
  Si  Si28  1  0.614056  0.614513  0.747801  1
  Si  Si29  1  0.998719  0.501407  0.510222  1
  Si  Si30  1  0.884528  0.113005  0.748007  1
  Si  Si31  1  0.114080  0.112773  0.251822  1
