# generated using pymatgen
data_K2CrF8
_symmetry_space_group_name_H-M   'P 1'
_cell_length_a   4.58777254
_cell_length_b   4.92661341
_cell_length_c   10.07068563
_cell_angle_alpha   69.40348147
_cell_angle_beta   92.59673145
_cell_angle_gamma   79.18756679
_symmetry_Int_Tables_number   1
_chemical_formula_structural   K2CrF8
_chemical_formula_sum   'K2 Cr1 F8'
_cell_volume   207.74855171
_cell_formula_units_Z   1
loop_
 _symmetry_equiv_pos_site_id
 _symmetry_equiv_pos_as_xyz
  1  'x, y, z'
loop_
 _atom_site_type_symbol
 _atom_site_label
 _atom_site_symmetry_multiplicity
 _atom_site_fract_x
 _atom_site_fract_y
 _atom_site_fract_z
 _atom_site_occupancy
  K  K0  1  0.302364  0.991883  0.707662  1
  K  K1  1  0.806465  0.069912  0.102928  1
  Cr  Cr2  1  0.549473  0.452325  0.361005  1
  F  F3  1  0.300239  0.536128  0.485088  1
  F  F4  1  0.470356  0.136546  0.338440  1
  F  F5  1  0.906564  0.355071  0.841941  1
  F  F6  1  0.838483  0.282592  0.508432  1
  F  F7  1  0.850124  0.792019  0.839565  1
  F  F8  1  0.846703  0.456826  0.236836  1
  F  F9  1  0.357325  0.792604  0.218260  1
  F  F10  1  0.411200  0.348530  0.857683  1
