# generated using pymatgen
data_PrMnFe(Sb6Os)2
_symmetry_space_group_name_H-M   'P 1'
_cell_length_a   8.13366042
_cell_length_b   8.09012295
_cell_length_c   8.10229459
_cell_angle_alpha   109.42217564
_cell_angle_beta   109.49856430
_cell_angle_gamma   109.58242806
_symmetry_Int_Tables_number   1
_chemical_formula_structural   PrMnFe(Sb6Os)2
_chemical_formula_sum   'Pr1 Mn1 Fe1 Sb12 Os2'
_cell_volume   409.96426118
_cell_formula_units_Z   1
loop_
 _symmetry_equiv_pos_site_id
 _symmetry_equiv_pos_as_xyz
  1  'x, y, z'
loop_
 _atom_site_type_symbol
 _atom_site_label
 _atom_site_symmetry_multiplicity
 _atom_site_fract_x
 _atom_site_fract_y
 _atom_site_fract_z
 _atom_site_occupancy
  Pr  Pr0  1  0.000000  0.000000  0.000000  1
  Mn  Mn1  1  0.000000  0.000000  0.500000  1
  Fe  Fe2  1  0.500000  0.000000  0.000000  1
  Sb  Sb3  1  0.340897  0.175056  0.846905  1
  Sb  Sb4  1  0.659103  0.824944  0.153095  1
  Sb  Sb5  1  0.659822  0.502914  0.843725  1
  Sb  Sb6  1  0.340178  0.497086  0.156275  1
  Sb  Sb7  1  0.182825  0.844670  0.340435  1
  Sb  Sb8  1  0.817175  0.155330  0.659565  1
  Sb  Sb9  1  0.504734  0.845679  0.670609  1
  Sb  Sb10  1  0.495266  0.154321  0.329391  1
  Sb  Sb11  1  0.834262  0.329583  0.175334  1
  Sb  Sb12  1  0.165738  0.670417  0.824666  1
  Sb  Sb13  1  0.844121  0.661759  0.504449  1
  Sb  Sb14  1  0.155879  0.338241  0.495551  1
  Os  Os15  1  0.000000  0.500000  0.000000  1
  Os  Os16  1  0.500000  0.500000  0.500000  1
