# generated using pymatgen
data_Ce4VB16Mo3
_symmetry_space_group_name_H-M   'P 1'
_cell_length_a   3.68325900
_cell_length_b   6.04215940
_cell_length_c   11.68646255
_cell_angle_alpha   90.09026838
_cell_angle_beta   90.00000000
_cell_angle_gamma   90.00000000
_symmetry_Int_Tables_number   1
_chemical_formula_structural   Ce4VB16Mo3
_chemical_formula_sum   'Ce4 V1 B16 Mo3'
_cell_volume   260.08000794
_cell_formula_units_Z   1
loop_
 _symmetry_equiv_pos_site_id
 _symmetry_equiv_pos_as_xyz
  1  'x, y, z'
loop_
 _atom_site_type_symbol
 _atom_site_label
 _atom_site_symmetry_multiplicity
 _atom_site_fract_x
 _atom_site_fract_y
 _atom_site_fract_z
 _atom_site_occupancy
  Ce  Ce0  1  0.000000  0.625129  0.346736  1
  Ce  Ce1  1  0.000000  0.374887  0.651871  1
  Ce  Ce2  1  0.000000  0.123975  0.149555  1
  Ce  Ce3  1  0.000000  0.874948  0.850959  1
  V  V4  1  0.000000  0.627658  0.083223  1
  B  B5  1  0.500000  0.783041  0.183649  1
  B  B6  1  0.500000  0.214851  0.815739  1
  B  B7  1  0.500000  0.285616  0.313588  1
  B  B8  1  0.500000  0.714920  0.686197  1
  B  B9  1  0.500000  0.862220  0.033233  1
  B  B10  1  0.500000  0.136623  0.967974  1
  B  B11  1  0.500000  0.364585  0.467257  1
  B  B12  1  0.500000  0.635400  0.532204  1
  B  B13  1  0.500000  0.885664  0.452834  1
  B  B14  1  0.500000  0.113833  0.546622  1
  B  B15  1  0.500000  0.388357  0.047144  1
  B  B16  1  0.500000  0.614224  0.954858  1
  B  B17  1  0.500000  0.974019  0.307304  1
  B  B18  1  0.500000  0.025168  0.692371  1
  B  B19  1  0.500000  0.476928  0.190595  1
  B  B20  1  0.500000  0.525067  0.809379  1
  Mo  Mo21  1  0.000000  0.373052  0.916890  1
  Mo  Mo22  1  0.000000  0.130854  0.414601  1
  Mo  Mo23  1  0.000000  0.868978  0.585213  1
