# generated using pymatgen
data_Nd16Mg3InNiOs3
_symmetry_space_group_name_H-M   'P 1'
_cell_length_a   9.94045272
_cell_length_b   10.03148871
_cell_length_c   10.03148728
_cell_angle_alpha   59.81050573
_cell_angle_beta   59.40510295
_cell_angle_gamma   59.40510356
_symmetry_Int_Tables_number   1
_chemical_formula_structural   Nd16Mg3InNiOs3
_chemical_formula_sum   'Nd16 Mg3 In1 Ni1 Os3'
_cell_volume   699.91172806
_cell_formula_units_Z   1
loop_
 _symmetry_equiv_pos_site_id
 _symmetry_equiv_pos_as_xyz
  1  'x, y, z'
loop_
 _atom_site_type_symbol
 _atom_site_label
 _atom_site_symmetry_multiplicity
 _atom_site_fract_x
 _atom_site_fract_y
 _atom_site_fract_z
 _atom_site_occupancy
  Nd  Nd0  1  0.811588  0.187128  0.187128  1
  Nd  Nd1  1  0.185156  0.809075  0.809075  1
  Nd  Nd2  1  0.186537  0.811523  0.188705  1
  Nd  Nd3  1  0.808676  0.191916  0.806890  1
  Nd  Nd4  1  0.186537  0.188705  0.811523  1
  Nd  Nd5  1  0.808676  0.806890  0.191916  1
  Nd  Nd6  1  0.941576  0.558646  0.558646  1
  Nd  Nd7  1  0.555237  0.939463  0.939463  1
  Nd  Nd8  1  0.554664  0.938866  0.567704  1
  Nd  Nd9  1  0.941168  0.555581  0.943102  1
  Nd  Nd10  1  0.554664  0.567704  0.938866  1
  Nd  Nd11  1  0.941168  0.943102  0.555581  1
  Nd  Nd12  1  0.348816  0.344486  0.344486  1
  Nd  Nd13  1  0.349657  0.346108  0.961911  1
  Nd  Nd14  1  0.349657  0.961911  0.346108  1
  Nd  Nd15  1  0.964360  0.345813  0.345813  1
  Mg  Mg16  1  0.576659  0.577827  0.266471  1
  Mg  Mg17  1  0.576659  0.266471  0.577827  1
  Mg  Mg18  1  0.264552  0.578320  0.578320  1
  In  In19  1  0.579742  0.580919  0.580919  1
  Ni  Ni20  1  0.580091  0.141214  0.141214  1
  Os  Os21  1  0.143033  0.138591  0.138591  1
  Os  Os22  1  0.145566  0.139544  0.580196  1
  Os  Os23  1  0.145566  0.580196  0.139544  1
