# generated using pymatgen
data_TmLu2Zr(NiAs)4
_symmetry_space_group_name_H-M   'P 1'
_cell_length_a   4.00070900
_cell_length_b   4.00070907
_cell_length_c   14.92694600
_cell_angle_alpha   90.00000000
_cell_angle_beta   90.00000000
_cell_angle_gamma   119.99999113
_symmetry_Int_Tables_number   1
_chemical_formula_structural   TmLu2Zr(NiAs)4
_chemical_formula_sum   'Tm1 Lu2 Zr1 Ni4 As4'
_cell_volume   206.90718235
_cell_formula_units_Z   1
loop_
 _symmetry_equiv_pos_site_id
 _symmetry_equiv_pos_as_xyz
  1  'x, y, z'
loop_
 _atom_site_type_symbol
 _atom_site_label
 _atom_site_symmetry_multiplicity
 _atom_site_fract_x
 _atom_site_fract_y
 _atom_site_fract_z
 _atom_site_occupancy
  Tm  Tm0  1  0.000000  0.000000  0.495494  1
  Lu  Lu1  1  0.000000  0.000000  0.749959  1
  Lu  Lu2  1  0.000000  0.000000  0.004560  1
  Zr  Zr3  1  0.000000  0.000000  0.249812  1
  Ni  Ni4  1  0.333333  0.666667  0.155573  1
  Ni  Ni5  1  0.666667  0.333333  0.868576  1
  Ni  Ni6  1  0.666667  0.333333  0.632191  1
  Ni  Ni7  1  0.333333  0.666667  0.344024  1
  As  As8  1  0.333333  0.666667  0.618555  1
  As  As9  1  0.666667  0.333333  0.378565  1
  As  As10  1  0.666667  0.333333  0.120491  1
  As  As11  1  0.333333  0.666667  0.882199  1
