# generated using pymatgen
data_Pr12Ta3Nb5(MoN4)12
_symmetry_space_group_name_H-M   'P 1'
_cell_length_a   11.36328958
_cell_length_b   11.36322624
_cell_length_c   11.36322934
_cell_angle_alpha   109.48519025
_cell_angle_beta   109.48535783
_cell_angle_gamma   109.48535197
_symmetry_Int_Tables_number   1
_chemical_formula_structural   Pr12Ta3Nb5(MoN4)12
_chemical_formula_sum   'Pr12 Ta3 Nb5 Mo12 N48'
_cell_volume   1128.90920796
_cell_formula_units_Z   1
loop_
 _symmetry_equiv_pos_site_id
 _symmetry_equiv_pos_as_xyz
  1  'x, y, z'
loop_
 _atom_site_type_symbol
 _atom_site_label
 _atom_site_symmetry_multiplicity
 _atom_site_fract_x
 _atom_site_fract_y
 _atom_site_fract_z
 _atom_site_occupancy
  Pr  Pr0  1  0.374742  0.750331  0.124708  1
  Pr  Pr1  1  0.249707  0.375237  0.125123  1
  Pr  Pr2  1  0.375238  0.125124  0.249707  1
  Pr  Pr3  1  0.875294  0.625257  0.249669  1
  Pr  Pr4  1  0.750332  0.124709  0.374743  1
  Pr  Pr5  1  0.125124  0.249708  0.375238  1
  Pr  Pr6  1  0.874876  0.750292  0.624763  1
  Pr  Pr7  1  0.249669  0.875293  0.625257  1
  Pr  Pr8  1  0.124707  0.374742  0.750331  1
  Pr  Pr9  1  0.624763  0.874878  0.750295  1
  Pr  Pr10  1  0.625257  0.249669  0.875292  1
  Pr  Pr11  1  0.750294  0.624763  0.874877  1
  Ta  Ta12  1  0.499999  0.500000  0.999999  1
  Ta  Ta13  1  0.500000  0.000000  0.500000  1
  Ta  Ta14  1  0.000000  0.500000  0.500000  1
  Nb  Nb15  1  0.999999  0.999999  0.999999  1
  Nb  Nb16  1  0.500001  0.000000  0.999999  1
  Nb  Nb17  1  0.000000  0.500000  0.000000  1
  Nb  Nb18  1  0.999999  0.999999  0.500000  1
  Nb  Nb19  1  0.500002  0.500002  0.500002  1
  Mo  Mo20  1  0.875272  0.250522  0.125840  1
  Mo  Mo21  1  0.749482  0.874160  0.124727  1
  Mo  Mo22  1  0.625302  0.375407  0.249923  1
  Mo  Mo23  1  0.125837  0.875269  0.250517  1
  Mo  Mo24  1  0.249921  0.625299  0.375401  1
  Mo  Mo25  1  0.624593  0.750078  0.374698  1
  Mo  Mo26  1  0.375409  0.249922  0.625305  1
  Mo  Mo27  1  0.750078  0.374699  0.624599  1
  Mo  Mo28  1  0.874163  0.124730  0.749482  1
  Mo  Mo29  1  0.374695  0.624594  0.750079  1
  Mo  Mo30  1  0.250520  0.125843  0.875274  1
  Mo  Mo31  1  0.124726  0.749475  0.874159  1
  N  N32  1  0.199611  0.115794  0.014515  1
  N  N33  1  0.314466  0.898835  0.014052  1
  N  N34  1  0.884733  0.399170  0.084308  1
  N  N35  1  0.697791  0.682726  0.082629  1
  N  N36  1  0.985951  0.685538  0.101169  1
  N  N37  1  0.615048  0.417335  0.100648  1
  N  N38  1  0.014516  0.199611  0.115794  1
  N  N39  1  0.600827  0.915692  0.115268  1
  N  N40  1  0.199475  0.584325  0.185659  1
  N  N41  1  0.485529  0.600877  0.183444  1
  N  N42  1  0.584325  0.185656  0.199474  1
  N  N43  1  0.115795  0.014516  0.199612  1
  N  N44  1  0.317277  0.917373  0.302211  1
  N  N45  1  0.486232  0.384727  0.300822  1
  N  N46  1  0.917373  0.302210  0.317277  1
  N  N47  1  0.898834  0.014053  0.314466  1
  N  N48  1  0.582665  0.899353  0.384953  1
  N  N49  1  0.300820  0.486232  0.384726  1
  N  N50  1  0.816558  0.514472  0.399124  1
  N  N51  1  0.084308  0.884732  0.399173  1
  N  N52  1  0.100647  0.615048  0.417336  1
  N  N53  1  0.814346  0.800526  0.415676  1
  N  N54  1  0.600877  0.183443  0.485528  1
  N  N55  1  0.384727  0.300822  0.486233  1
  N  N56  1  0.615273  0.699178  0.513767  1
  N  N57  1  0.399123  0.816557  0.514471  1
  N  N58  1  0.185655  0.199474  0.584325  1
  N  N59  1  0.899354  0.384953  0.582664  1
  N  N60  1  0.915692  0.115268  0.600827  1
  N  N61  1  0.183442  0.485527  0.600876  1
  N  N62  1  0.417336  0.100648  0.615048  1
  N  N63  1  0.699179  0.513768  0.615273  1
  N  N64  1  0.082628  0.697790  0.682724  1
  N  N65  1  0.101165  0.985947  0.685534  1
  N  N66  1  0.682723  0.082628  0.697790  1
  N  N67  1  0.513768  0.615272  0.699178  1
  N  N68  1  0.884206  0.985485  0.800389  1
  N  N69  1  0.415675  0.814344  0.800526  1
  N  N70  1  0.514471  0.399123  0.816556  1
  N  N71  1  0.800526  0.415675  0.814341  1
  N  N72  1  0.399174  0.084308  0.884732  1
  N  N73  1  0.985485  0.800390  0.884207  1
  N  N74  1  0.014048  0.314462  0.898831  1
  N  N75  1  0.384953  0.582665  0.899352  1
  N  N76  1  0.302209  0.317275  0.917372  1
  N  N77  1  0.115268  0.600830  0.915692  1
  N  N78  1  0.685534  0.101165  0.985947  1
  N  N79  1  0.800388  0.884206  0.985484  1
