# generated using pymatgen
data_LiLa4Sb8Ir5
_symmetry_space_group_name_H-M   'P 1'
_cell_length_a   4.62572200
_cell_length_b   11.33372500
_cell_length_c   16.32610500
_cell_angle_alpha   90.00000000
_cell_angle_beta   90.00000000
_cell_angle_gamma   90.00000000
_symmetry_Int_Tables_number   1
_chemical_formula_structural   LiLa4Sb8Ir5
_chemical_formula_sum   'Li2 La8 Sb16 Ir10'
_cell_volume   855.92317350
_cell_formula_units_Z   2
loop_
 _symmetry_equiv_pos_site_id
 _symmetry_equiv_pos_as_xyz
  1  'x, y, z'
loop_
 _atom_site_type_symbol
 _atom_site_label
 _atom_site_symmetry_multiplicity
 _atom_site_fract_x
 _atom_site_fract_y
 _atom_site_fract_z
 _atom_site_occupancy
  Li  Li0  1  0.250000  0.467041  0.554662  1
  Li  Li1  1  0.250000  0.032959  0.054662  1
  La  La2  1  0.250000  0.751730  0.505118  1
  La  La3  1  0.250000  0.748270  0.005118  1
  La  La4  1  0.750000  0.248247  0.491059  1
  La  La5  1  0.750000  0.251753  0.991059  1
  La  La6  1  0.250000  0.590817  0.753534  1
  La  La7  1  0.250000  0.909183  0.253534  1
  La  La8  1  0.750000  0.408872  0.249130  1
  La  La9  1  0.750000  0.091128  0.749130  1
  Sb  Sb10  1  0.250000  0.267462  0.650844  1
  Sb  Sb11  1  0.250000  0.232538  0.150844  1
  Sb  Sb12  1  0.750000  0.721755  0.351472  1
  Sb  Sb13  1  0.750000  0.778245  0.851472  1
  Sb  Sb14  1  0.250000  0.888718  0.711733  1
  Sb  Sb15  1  0.250000  0.611282  0.211733  1
  Sb  Sb16  1  0.750000  0.114068  0.290908  1
  Sb  Sb17  1  0.750000  0.385932  0.790908  1
  Sb  Sb18  1  0.250000  0.062118  0.891601  1
  Sb  Sb19  1  0.250000  0.437882  0.391601  1
  Sb  Sb20  1  0.750000  0.920146  0.103595  1
  Sb  Sb21  1  0.750000  0.579854  0.603595  1
  Sb  Sb22  1  0.250000  0.450214  0.931477  1
  Sb  Sb23  1  0.250000  0.049786  0.431477  1
  Sb  Sb24  1  0.750000  0.553137  0.066818  1
  Sb  Sb25  1  0.750000  0.946863  0.566818  1
  Ir  Ir26  1  0.750000  0.528777  0.446067  1
  Ir  Ir27  1  0.750000  0.971223  0.946067  1
  Ir  Ir28  1  0.250000  0.051386  0.593009  1
  Ir  Ir29  1  0.250000  0.448614  0.093009  1
  Ir  Ir30  1  0.750000  0.942378  0.405408  1
  Ir  Ir31  1  0.750000  0.557622  0.905408  1
  Ir  Ir32  1  0.250000  0.277776  0.819435  1
  Ir  Ir33  1  0.250000  0.222224  0.319435  1
  Ir  Ir34  1  0.750000  0.716372  0.184130  1
  Ir  Ir35  1  0.750000  0.783628  0.684130  1
