# generated using pymatgen
data_Tb8Y12Si15P
_symmetry_space_group_name_H-M   'P 1'
_cell_length_a   7.66998819
_cell_length_b   7.70943606
_cell_length_c   14.17210342
_cell_angle_alpha   89.27480134
_cell_angle_beta   89.78175528
_cell_angle_gamma   90.07685679
_symmetry_Int_Tables_number   1
_chemical_formula_structural   Tb8Y12Si15P
_chemical_formula_sum   'Tb8 Y12 Si15 P1'
_cell_volume   837.94065217
_cell_formula_units_Z   1
loop_
 _symmetry_equiv_pos_site_id
 _symmetry_equiv_pos_as_xyz
  1  'x, y, z'
loop_
 _atom_site_type_symbol
 _atom_site_label
 _atom_site_symmetry_multiplicity
 _atom_site_fract_x
 _atom_site_fract_y
 _atom_site_fract_z
 _atom_site_occupancy
  Tb  Tb0  1  0.995349  0.358441  0.209166  1
  Tb  Tb1  1  0.007703  0.643470  0.708397  1
  Tb  Tb2  1  0.139412  0.500344  0.459761  1
  Tb  Tb3  1  0.507619  0.852001  0.040001  1
  Tb  Tb4  1  0.860631  0.502893  0.957728  1
  Tb  Tb5  1  0.496994  0.143283  0.542167  1
  Tb  Tb6  1  0.360983  0.994722  0.791997  1
  Tb  Tb7  1  0.638229  0.004042  0.290875  1
  Y  Y8  1  0.181638  0.178327  0.999679  1
  Y  Y9  1  0.819683  0.822708  0.499643  1
  Y  Y10  1  0.316099  0.680030  0.251092  1
  Y  Y11  1  0.683724  0.318914  0.750347  1
  Y  Y12  1  0.146390  0.018676  0.370616  1
  Y  Y13  1  0.859614  0.990385  0.875997  1
  Y  Y14  1  0.491307  0.642514  0.626395  1
  Y  Y15  1  0.361000  0.508021  0.874304  1
  Y  Y16  1  0.500441  0.350406  0.131615  1
  Y  Y17  1  0.637928  0.494260  0.376659  1
  Y  Y18  1  0.009128  0.141843  0.623098  1
  Y  Y19  1  0.989145  0.853181  0.121743  1
  Si  Si20  1  0.655346  0.703543  0.812891  1
  Si  Si21  1  0.204310  0.850666  0.561061  1
  Si  Si22  1  0.152956  0.793336  0.933293  1
  Si  Si23  1  0.794209  0.152110  0.064992  1
  Si  Si24  1  0.846678  0.205519  0.434038  1
  Si  Si25  1  0.296094  0.347400  0.686328  1
  Si  Si26  1  0.700489  0.647679  0.187973  1
  Si  Si27  1  0.295954  0.036708  0.178234  1
  Si  Si28  1  0.705993  0.942117  0.688542  1
  Si  Si29  1  0.440732  0.801838  0.438590  1
  Si  Si30  1  0.204168  0.552539  0.062479  1
  Si  Si31  1  0.562298  0.204885  0.940322  1
  Si  Si32  1  0.794954  0.443857  0.562474  1
  Si  Si33  1  0.061646  0.295360  0.810657  1
  Si  Si34  1  0.938864  0.706422  0.311738  1
  P  P35  1  0.342293  0.317561  0.325104  1
