# generated using pymatgen
data_Ho3Er7In8(PtAu)2
_symmetry_space_group_name_H-M   'P 1'
_cell_length_a   3.63555000
_cell_length_b   8.15308424
_cell_length_c   18.27191722
_cell_angle_alpha   90.04211406
_cell_angle_beta   90.00000000
_cell_angle_gamma   90.00000000
_symmetry_Int_Tables_number   1
_chemical_formula_structural   Ho3Er7In8(PtAu)2
_chemical_formula_sum   'Ho3 Er7 In8 Pt2 Au2'
_cell_volume   541.59675432
_cell_formula_units_Z   1
loop_
 _symmetry_equiv_pos_site_id
 _symmetry_equiv_pos_as_xyz
  1  'x, y, z'
loop_
 _atom_site_type_symbol
 _atom_site_label
 _atom_site_symmetry_multiplicity
 _atom_site_fract_x
 _atom_site_fract_y
 _atom_site_fract_z
 _atom_site_occupancy
  Ho  Ho0  1  0.000000  0.120052  0.418898  1
  Ho  Ho1  1  0.000000  0.000001  0.999979  1
  Ho  Ho2  1  0.000000  0.500082  0.499994  1
  Er  Er3  1  0.000000  0.880049  0.581401  1
  Er  Er4  1  0.000000  0.384633  0.915756  1
  Er  Er5  1  0.000000  0.615368  0.084231  1
  Er  Er6  1  0.000000  0.251954  0.217499  1
  Er  Er7  1  0.000000  0.748072  0.782446  1
  Er  Er8  1  0.000000  0.268047  0.721224  1
  Er  Er9  1  0.000000  0.731861  0.278755  1
  In  In10  1  0.500000  0.423610  0.352501  1
  In  In11  1  0.500000  0.576625  0.647434  1
  In  In12  1  0.500000  0.077433  0.852851  1
  In  In13  1  0.500000  0.922563  0.147128  1
  In  In14  1  0.500000  0.291940  0.065741  1
  In  In15  1  0.500000  0.708046  0.934254  1
  In  In16  1  0.500000  0.209346  0.566488  1
  In  In17  1  0.500000  0.790425  0.433653  1
  Pt  Pt18  1  0.500000  0.473401  0.803558  1
  Pt  Pt19  1  0.500000  0.526674  0.196451  1
  Au  Au20  1  0.500000  0.027279  0.302230  1
  Au  Au21  1  0.500000  0.972540  0.697530  1
