# generated using pymatgen
data_Y18Lu2TlCd5RuPt
_symmetry_space_group_name_H-M   'P 1'
_cell_length_a   9.67886500
_cell_length_b   9.67886528
_cell_length_c   9.79676800
_cell_angle_alpha   90.00000000
_cell_angle_beta   90.00000000
_cell_angle_gamma   120.00000247
_symmetry_Int_Tables_number   1
_chemical_formula_structural   Y18Lu2TlCd5RuPt
_chemical_formula_sum   'Y18 Lu2 Tl1 Cd5 Ru1 Pt1'
_cell_volume   794.80816801
_cell_formula_units_Z   1
loop_
 _symmetry_equiv_pos_site_id
 _symmetry_equiv_pos_as_xyz
  1  'x, y, z'
loop_
 _atom_site_type_symbol
 _atom_site_label
 _atom_site_symmetry_multiplicity
 _atom_site_fract_x
 _atom_site_fract_y
 _atom_site_fract_z
 _atom_site_occupancy
  Y  Y0  1  0.207192  0.792808  0.441529  1
  Y  Y1  1  0.207334  0.414532  0.441522  1
  Y  Y2  1  0.585468  0.792666  0.441522  1
  Y  Y3  1  0.790732  0.209268  0.560795  1
  Y  Y4  1  0.790780  0.581805  0.560680  1
  Y  Y5  1  0.418195  0.209220  0.560680  1
  Y  Y6  1  0.790732  0.209268  0.939205  1
  Y  Y7  1  0.790780  0.581805  0.939320  1
  Y  Y8  1  0.418195  0.209220  0.939320  1
  Y  Y9  1  0.207192  0.792808  0.058471  1
  Y  Y10  1  0.207334  0.414532  0.058478  1
  Y  Y11  1  0.585468  0.792666  0.058478  1
  Y  Y12  1  0.542144  0.457856  0.250000  1
  Y  Y13  1  0.540274  0.084926  0.250000  1
  Y  Y14  1  0.915074  0.459726  0.250000  1
  Y  Y15  1  0.458812  0.541188  0.750000  1
  Y  Y16  1  0.459365  0.918519  0.750000  1
  Y  Y17  1  0.081481  0.540635  0.750000  1
  Lu  Lu18  1  0.001055  0.998945  0.501017  1
  Lu  Lu19  1  0.001055  0.998945  0.998983  1
  Tl  Tl20  1  0.885454  0.114546  0.250000  1
  Cd  Cd21  1  0.886838  0.771098  0.250000  1
  Cd  Cd22  1  0.228902  0.113162  0.250000  1
  Cd  Cd23  1  0.113211  0.886789  0.750000  1
  Cd  Cd24  1  0.112363  0.225784  0.750000  1
  Cd  Cd25  1  0.774216  0.887637  0.750000  1
  Ru  Ru26  1  0.667088  0.332912  0.750000  1
  Pt  Pt27  1  0.333263  0.666737  0.250000  1
