# generated using pymatgen
data_Sm2Lu4HfCo17P12
_symmetry_space_group_name_H-M   'P 1'
_cell_length_a   3.69914300
_cell_length_b   10.56856900
_cell_length_c   12.26624600
_cell_angle_alpha   90.00000000
_cell_angle_beta   90.00000000
_cell_angle_gamma   90.00000000
_symmetry_Int_Tables_number   1
_chemical_formula_structural   Sm2Lu4HfCo17P12
_chemical_formula_sum   'Sm2 Lu4 Hf1 Co17 P12'
_cell_volume   479.54457010
_cell_formula_units_Z   1
loop_
 _symmetry_equiv_pos_site_id
 _symmetry_equiv_pos_as_xyz
  1  'x, y, z'
loop_
 _atom_site_type_symbol
 _atom_site_label
 _atom_site_symmetry_multiplicity
 _atom_site_fract_x
 _atom_site_fract_y
 _atom_site_fract_z
 _atom_site_occupancy
  Sm  Sm0  1  0.000000  0.500000  0.529734  1
  Sm  Sm1  1  0.500000  0.000000  0.476482  1
  Lu  Lu2  1  0.500000  0.822313  0.206453  1
  Lu  Lu3  1  0.500000  0.177687  0.206453  1
  Lu  Lu4  1  0.000000  0.682062  0.797146  1
  Lu  Lu5  1  0.000000  0.317938  0.797146  1
  Hf  Hf6  1  0.500000  0.500000  0.151844  1
  Co  Co7  1  0.000000  0.000000  0.838495  1
  Co  Co8  1  0.500000  0.500000  0.706614  1
  Co  Co9  1  0.000000  0.000000  0.292560  1
  Co  Co10  1  0.000000  0.500000  0.984463  1
  Co  Co11  1  0.500000  0.000000  0.013098  1
  Co  Co12  1  0.500000  0.327250  0.989259  1
  Co  Co13  1  0.500000  0.672750  0.989259  1
  Co  Co14  1  0.000000  0.162451  0.001786  1
  Co  Co15  1  0.000000  0.837549  0.001786  1
  Co  Co16  1  0.500000  0.294351  0.432764  1
  Co  Co17  1  0.500000  0.705649  0.432764  1
  Co  Co18  1  0.000000  0.202916  0.571579  1
  Co  Co19  1  0.000000  0.797084  0.571579  1
  Co  Co20  1  0.500000  0.879486  0.709796  1
  Co  Co21  1  0.500000  0.120514  0.709796  1
  Co  Co22  1  0.000000  0.623368  0.292568  1
  Co  Co23  1  0.000000  0.376632  0.292568  1
  P  P24  1  0.500000  0.500000  0.882249  1
  P  P25  1  0.000000  0.000000  0.115897  1
  P  P26  1  0.500000  0.500000  0.358669  1
  P  P27  1  0.000000  0.000000  0.656951  1
  P  P28  1  0.500000  0.308072  0.620282  1
  P  P29  1  0.500000  0.691928  0.620282  1
  P  P30  1  0.000000  0.189870  0.383791  1
  P  P31  1  0.000000  0.810130  0.383791  1
  P  P32  1  0.500000  0.850524  0.888654  1
  P  P33  1  0.500000  0.149476  0.888654  1
  P  P34  1  0.000000  0.665634  0.102393  1
  P  P35  1  0.000000  0.334366  0.102393  1
