# generated using pymatgen
data_Ti5ZnSb2
_symmetry_space_group_name_H-M   'P 1'
_cell_length_a   7.85577297
_cell_length_b   7.85578441
_cell_length_c   7.85577347
_cell_angle_alpha   96.25635302
_cell_angle_beta   96.24367567
_cell_angle_gamma   141.46837179
_symmetry_Int_Tables_number   1
_chemical_formula_structural   Ti5ZnSb2
_chemical_formula_sum   'Ti10 Zn2 Sb4'
_cell_volume   285.09500960
_cell_formula_units_Z   2
loop_
 _symmetry_equiv_pos_site_id
 _symmetry_equiv_pos_as_xyz
  1  'x, y, z'
loop_
 _atom_site_type_symbol
 _atom_site_label
 _atom_site_symmetry_multiplicity
 _atom_site_fract_x
 _atom_site_fract_y
 _atom_site_fract_z
 _atom_site_occupancy
  Ti  Ti0  1  0.574818  0.718081  0.292900  1
  Ti  Ti1  1  0.425182  0.281919  0.707100  1
  Ti  Ti2  1  0.750001  0.250000  0.500001  1
  Ti  Ti3  1  0.249999  0.750000  0.499999  1
  Ti  Ti4  1  0.718074  0.425218  0.143294  1
  Ti  Ti5  1  0.281926  0.574782  0.856706  1
  Ti  Ti6  1  0.925181  0.218081  0.143263  1
  Ti  Ti7  1  0.218076  0.074782  0.292856  1
  Ti  Ti8  1  0.074819  0.781919  0.856737  1
  Ti  Ti9  1  0.781924  0.925218  0.707144  1
  Zn  Zn10  1  0.750000  0.750000  0.000000  1
  Zn  Zn11  1  0.250000  0.250000  0.000000  1
  Sb  Sb12  1  0.336049  0.836063  0.172115  1
  Sb  Sb13  1  0.163949  0.336063  0.500014  1
  Sb  Sb14  1  0.663951  0.163937  0.827885  1
  Sb  Sb15  1  0.836051  0.663937  0.499986  1
