# generated using pymatgen
data_Sm2SiPt6
_symmetry_space_group_name_H-M   'P 1'
_cell_length_a   6.73183055
_cell_length_b   6.73183080
_cell_length_c   6.73183242
_cell_angle_alpha   50.18946523
_cell_angle_beta   50.18946070
_cell_angle_gamma   50.18945718
_symmetry_Int_Tables_number   1
_chemical_formula_structural   Sm2SiPt6
_chemical_formula_sum   'Sm2 Si1 Pt6'
_cell_volume   165.73509489
_cell_formula_units_Z   1
loop_
 _symmetry_equiv_pos_site_id
 _symmetry_equiv_pos_as_xyz
  1  'x, y, z'
loop_
 _atom_site_type_symbol
 _atom_site_label
 _atom_site_symmetry_multiplicity
 _atom_site_fract_x
 _atom_site_fract_y
 _atom_site_fract_z
 _atom_site_occupancy
  Sm  Sm0  1  0.219802  0.219802  0.219802  1
  Sm  Sm1  1  0.780198  0.780198  0.780198  1
  Si  Si2  1  0.500000  0.500000  0.500000  1
  Pt  Pt3  1  0.733742  0.231494  0.231495  1
  Pt  Pt4  1  0.231494  0.733742  0.231495  1
  Pt  Pt5  1  0.768506  0.768506  0.266257  1
  Pt  Pt6  1  0.231494  0.231494  0.733743  1
  Pt  Pt7  1  0.768506  0.266258  0.768505  1
  Pt  Pt8  1  0.266258  0.768506  0.768505  1
