# generated using pymatgen
data_LaPrHo4(RuO7)2
_symmetry_space_group_name_H-M   'P 1'
_cell_length_a   6.45666256
_cell_length_b   6.45666335
_cell_length_c   7.52446600
_cell_angle_alpha   89.99800997
_cell_angle_beta   89.99801436
_cell_angle_gamma   110.05962738
_symmetry_Int_Tables_number   1
_chemical_formula_structural   LaPrHo4(RuO7)2
_chemical_formula_sum   'La1 Pr1 Ho4 Ru2 O14'
_cell_volume   294.65442226
_cell_formula_units_Z   1
loop_
 _symmetry_equiv_pos_site_id
 _symmetry_equiv_pos_as_xyz
  1  'x, y, z'
loop_
 _atom_site_type_symbol
 _atom_site_label
 _atom_site_symmetry_multiplicity
 _atom_site_fract_x
 _atom_site_fract_y
 _atom_site_fract_z
 _atom_site_occupancy
  La  La0  1  0.000000  0.000000  0.500000  1
  Pr  Pr1  1  0.000000  0.000000  0.000000  1
  Ho  Ho2  1  0.481753  0.930203  0.750063  1
  Ho  Ho3  1  0.518247  0.069797  0.249937  1
  Ho  Ho4  1  0.930203  0.481753  0.750063  1
  Ho  Ho5  1  0.069797  0.518247  0.249937  1
  Ru  Ru6  1  0.500000  0.500000  0.500000  1
  Ru  Ru7  1  0.500000  0.500000  0.000000  1
  O  O8  1  0.590040  0.590040  0.750018  1
  O  O9  1  0.409960  0.409960  0.249982  1
  O  O10  1  0.835383  0.118623  0.750673  1
  O  O11  1  0.164617  0.881377  0.249327  1
  O  O12  1  0.118623  0.835383  0.750673  1
  O  O13  1  0.881377  0.164617  0.249327  1
  O  O14  1  0.440897  0.181718  0.963140  1
  O  O15  1  0.557466  0.817957  0.462964  1
  O  O16  1  0.181718  0.440897  0.963140  1
  O  O17  1  0.817957  0.557466  0.462964  1
  O  O18  1  0.442534  0.182043  0.537036  1
  O  O19  1  0.559103  0.818282  0.036860  1
  O  O20  1  0.818282  0.559103  0.036860  1
  O  O21  1  0.182043  0.442534  0.537036  1
