# generated using pymatgen
data_YSc11(Si3Os)4
_symmetry_space_group_name_H-M   'P 1'
_cell_length_a   4.01380500
_cell_length_b   10.37443377
_cell_length_c   11.77069936
_cell_angle_alpha   89.83441211
_cell_angle_beta   90.00000000
_cell_angle_gamma   90.00000000
_symmetry_Int_Tables_number   1
_chemical_formula_structural   YSc11(Si3Os)4
_chemical_formula_sum   'Y1 Sc11 Si12 Os4'
_cell_volume   490.14110525
_cell_formula_units_Z   1
loop_
 _symmetry_equiv_pos_site_id
 _symmetry_equiv_pos_as_xyz
  1  'x, y, z'
loop_
 _atom_site_type_symbol
 _atom_site_label
 _atom_site_symmetry_multiplicity
 _atom_site_fract_x
 _atom_site_fract_y
 _atom_site_fract_z
 _atom_site_occupancy
  Y  Y0  1  0.250000  0.877886  0.017955  1
  Sc  Sc1  1  0.250000  0.621650  0.518525  1
  Sc  Sc2  1  0.750000  0.125814  0.981238  1
  Sc  Sc3  1  0.750000  0.377579  0.481716  1
  Sc  Sc4  1  0.250000  0.920394  0.604236  1
  Sc  Sc5  1  0.250000  0.576188  0.106530  1
  Sc  Sc6  1  0.750000  0.080017  0.396156  1
  Sc  Sc7  1  0.750000  0.420230  0.894145  1
  Sc  Sc8  1  0.250000  0.656755  0.795877  1
  Sc  Sc9  1  0.250000  0.841361  0.300689  1
  Sc  Sc10  1  0.750000  0.340822  0.202701  1
  Sc  Sc11  1  0.750000  0.160545  0.700911  1
  Si  Si12  1  0.250000  0.018373  0.816276  1
  Si  Si13  1  0.250000  0.484386  0.323230  1
  Si  Si14  1  0.750000  0.987991  0.181062  1
  Si  Si15  1  0.750000  0.514443  0.677516  1
  Si  Si16  1  0.250000  0.252262  0.841796  1
  Si  Si17  1  0.250000  0.249871  0.344890  1
  Si  Si18  1  0.750000  0.745683  0.160404  1
  Si  Si19  1  0.750000  0.750027  0.655698  1
  Si  Si20  1  0.250000  0.195546  0.546190  1
  Si  Si21  1  0.250000  0.305093  0.046201  1
  Si  Si22  1  0.750000  0.804587  0.454357  1
  Si  Si23  1  0.750000  0.688715  0.952067  1
  Os  Os24  1  0.250000  0.390356  0.676480  1
  Os  Os25  1  0.250000  0.113544  0.180178  1
  Os  Os26  1  0.750000  0.608775  0.325337  1
  Os  Os27  1  0.750000  0.891106  0.817639  1
