# generated using pymatgen
data_Tb2Sm5CoI12
_symmetry_space_group_name_H-M   'P 1'
_cell_length_a   9.84989010
_cell_length_b   9.85508139
_cell_length_c   9.85516096
_cell_angle_alpha   106.95358503
_cell_angle_beta   106.81755343
_cell_angle_gamma   106.86386771
_symmetry_Int_Tables_number   1
_chemical_formula_structural   Tb2Sm5CoI12
_chemical_formula_sum   'Tb2 Sm5 Co1 I12'
_cell_volume   799.33993735
_cell_formula_units_Z   1
loop_
 _symmetry_equiv_pos_site_id
 _symmetry_equiv_pos_as_xyz
  1  'x, y, z'
loop_
 _atom_site_type_symbol
 _atom_site_label
 _atom_site_symmetry_multiplicity
 _atom_site_fract_x
 _atom_site_fract_y
 _atom_site_fract_z
 _atom_site_occupancy
  Tb  Tb0  1  0.499737  0.499981  0.499912  1
  Tb  Tb1  1  0.711355  0.977921  0.907492  1
  Sm  Sm2  1  0.021568  0.094279  0.292793  1
  Sm  Sm3  1  0.093165  0.292840  0.022158  1
  Sm  Sm4  1  0.293259  0.022442  0.094172  1
  Sm  Sm5  1  0.977006  0.905719  0.706781  1
  Sm  Sm6  1  0.904859  0.706907  0.977298  1
  Co  Co7  1  0.999457  0.999895  0.999871  1
  I  I8  1  0.163619  0.465209  0.388120  1
  I  I9  1  0.465035  0.387974  0.163614  1
  I  I10  1  0.388027  0.163692  0.465054  1
  I  I11  1  0.836212  0.534810  0.611902  1
  I  I12  1  0.535292  0.614413  0.836491  1
  I  I13  1  0.612022  0.837350  0.537728  1
  I  I14  1  0.677288  0.071074  0.222911  1
  I  I15  1  0.072047  0.226425  0.677770  1
  I  I16  1  0.226234  0.677967  0.072025  1
  I  I17  1  0.323845  0.928337  0.774244  1
  I  I18  1  0.927988  0.773607  0.322222  1
  I  I19  1  0.771984  0.319158  0.927443  1
