# generated using pymatgen
data_Y3Fe5Co3P6W
_symmetry_space_group_name_H-M   'P 1'
_cell_length_a   3.75152000
_cell_length_b   10.59709500
_cell_length_c   12.20559800
_cell_angle_alpha   90.00000000
_cell_angle_beta   90.00000000
_cell_angle_gamma   90.00000000
_symmetry_Int_Tables_number   1
_chemical_formula_structural   Y3Fe5Co3P6W
_chemical_formula_sum   'Y6 Fe10 Co6 P12 W2'
_cell_volume   485.23615847
_cell_formula_units_Z   2
loop_
 _symmetry_equiv_pos_site_id
 _symmetry_equiv_pos_as_xyz
  1  'x, y, z'
loop_
 _atom_site_type_symbol
 _atom_site_label
 _atom_site_symmetry_multiplicity
 _atom_site_fract_x
 _atom_site_fract_y
 _atom_site_fract_z
 _atom_site_occupancy
  Y  Y0  1  0.000000  0.500000  0.525797  1
  Y  Y1  1  0.500000  0.000000  0.474203  1
  Y  Y2  1  0.500000  0.821348  0.205545  1
  Y  Y3  1  0.500000  0.178652  0.205545  1
  Y  Y4  1  0.000000  0.678652  0.794455  1
  Y  Y5  1  0.000000  0.321348  0.794455  1
  Fe  Fe6  1  0.000000  0.500000  0.987765  1
  Fe  Fe7  1  0.500000  0.000000  0.012235  1
  Fe  Fe8  1  0.500000  0.329696  0.995665  1
  Fe  Fe9  1  0.500000  0.670304  0.995665  1
  Fe  Fe10  1  0.000000  0.170304  0.004335  1
  Fe  Fe11  1  0.000000  0.829696  0.004335  1
  Fe  Fe12  1  0.500000  0.297947  0.430037  1
  Fe  Fe13  1  0.500000  0.702053  0.430037  1
  Fe  Fe14  1  0.000000  0.202053  0.569963  1
  Fe  Fe15  1  0.000000  0.797947  0.569963  1
  Co  Co16  1  0.500000  0.500000  0.699712  1
  Co  Co17  1  0.000000  0.000000  0.300288  1
  Co  Co18  1  0.500000  0.879944  0.708044  1
  Co  Co19  1  0.500000  0.120056  0.708044  1
  Co  Co20  1  0.000000  0.620056  0.291956  1
  Co  Co21  1  0.000000  0.379944  0.291956  1
  P  P22  1  0.500000  0.500000  0.885941  1
  P  P23  1  0.000000  0.000000  0.114059  1
  P  P24  1  0.500000  0.500000  0.349731  1
  P  P25  1  0.000000  0.000000  0.650269  1
  P  P26  1  0.500000  0.305690  0.613596  1
  P  P27  1  0.500000  0.694310  0.613596  1
  P  P28  1  0.000000  0.194310  0.386404  1
  P  P29  1  0.000000  0.805690  0.386404  1
  P  P30  1  0.500000  0.844100  0.893891  1
  P  P31  1  0.500000  0.155900  0.893891  1
  P  P32  1  0.000000  0.655900  0.106109  1
  P  P33  1  0.000000  0.344100  0.106109  1
  W  W34  1  0.500000  0.500000  0.151956  1
  W  W35  1  0.000000  0.000000  0.848044  1
