# generated using pymatgen
data_ErPu2(NiSn)3
_symmetry_space_group_name_H-M   'P 1'
_cell_length_a   7.22139023
_cell_length_b   7.11454276
_cell_length_c   3.95672300
_cell_angle_alpha   90.00000000
_cell_angle_beta   90.00000000
_cell_angle_gamma   119.51174516
_symmetry_Int_Tables_number   1
_chemical_formula_structural   ErPu2(NiSn)3
_chemical_formula_sum   'Er1 Pu2 Ni3 Sn3'
_cell_volume   176.90896865
_cell_formula_units_Z   1
loop_
 _symmetry_equiv_pos_site_id
 _symmetry_equiv_pos_as_xyz
  1  'x, y, z'
loop_
 _atom_site_type_symbol
 _atom_site_label
 _atom_site_symmetry_multiplicity
 _atom_site_fract_x
 _atom_site_fract_y
 _atom_site_fract_z
 _atom_site_occupancy
  Er  Er0  1  0.000000  0.591106  0.500000  1
  Pu  Pu1  1  0.411456  0.413753  0.500000  1
  Pu  Pu2  1  0.588544  0.002296  0.500000  1
  Ni  Ni3  1  0.000000  0.000670  0.500000  1
  Ni  Ni4  1  0.663365  0.328360  0.000000  1
  Ni  Ni5  1  0.336635  0.664996  0.000000  1
  Sn  Sn6  1  0.747546  0.745265  0.000000  1
  Sn  Sn7  1  0.252454  0.997721  0.000000  1
  Sn  Sn8  1  0.000000  0.255832  0.000000  1
