# generated using pymatgen
data_NbV(Fe7B2)3
_symmetry_space_group_name_H-M   'P 1'
_cell_length_a   7.52656792
_cell_length_b   7.52656714
_cell_length_c   7.52656800
_cell_angle_alpha   59.99999624
_cell_angle_beta   59.99999965
_cell_angle_gamma   59.99999635
_symmetry_Int_Tables_number   1
_chemical_formula_structural   NbV(Fe7B2)3
_chemical_formula_sum   'Nb1 V1 Fe21 B6'
_cell_volume   301.49206875
_cell_formula_units_Z   1
loop_
 _symmetry_equiv_pos_site_id
 _symmetry_equiv_pos_as_xyz
  1  'x, y, z'
loop_
 _atom_site_type_symbol
 _atom_site_label
 _atom_site_symmetry_multiplicity
 _atom_site_fract_x
 _atom_site_fract_y
 _atom_site_fract_z
 _atom_site_occupancy
  Nb  Nb0  1  0.250000  0.250000  0.250000  1
  V  V1  1  0.750000  0.750000  0.750000  1
  Fe  Fe2  1  0.000000  0.000000  0.000000  1
  Fe  Fe3  1  0.658412  0.342229  0.999680  1
  Fe  Fe4  1  0.999680  0.342229  0.658412  1
  Fe  Fe5  1  0.658412  0.999680  0.999680  1
  Fe  Fe6  1  0.999680  0.999680  0.342229  1
  Fe  Fe7  1  0.999680  0.999680  0.658412  1
  Fe  Fe8  1  0.999680  0.342229  0.999680  1
  Fe  Fe9  1  0.658412  0.999680  0.342229  1
  Fe  Fe10  1  0.342229  0.999680  0.999680  1
  Fe  Fe11  1  0.999680  0.658412  0.999680  1
  Fe  Fe12  1  0.342229  0.999680  0.658412  1
  Fe  Fe13  1  0.999680  0.658412  0.342229  1
  Fe  Fe14  1  0.342229  0.658412  0.999680  1
  Fe  Fe15  1  0.620133  0.139604  0.620133  1
  Fe  Fe16  1  0.385757  0.385757  0.842728  1
  Fe  Fe17  1  0.842728  0.385757  0.385757  1
  Fe  Fe18  1  0.385757  0.385757  0.385757  1
  Fe  Fe19  1  0.139604  0.620133  0.620133  1
  Fe  Fe20  1  0.620133  0.620133  0.620133  1
  Fe  Fe21  1  0.620133  0.620133  0.139604  1
  Fe  Fe22  1  0.385757  0.842728  0.385757  1
  B  B23  1  0.274396  0.274396  0.725604  1
  B  B24  1  0.274396  0.725604  0.725604  1
  B  B25  1  0.725604  0.274396  0.274396  1
  B  B26  1  0.274396  0.725604  0.274396  1
  B  B27  1  0.725604  0.274396  0.725604  1
  B  B28  1  0.725604  0.725604  0.274396  1
