# generated using pymatgen
data_La8Mn3Si12Pd
_symmetry_space_group_name_H-M   'P 1'
_cell_length_a   8.33192700
_cell_length_b   8.33192823
_cell_length_c   8.71803600
_cell_angle_alpha   90.00000000
_cell_angle_beta   90.00000000
_cell_angle_gamma   120.00000702
_symmetry_Int_Tables_number   1
_chemical_formula_structural   La8Mn3Si12Pd
_chemical_formula_sum   'La8 Mn3 Si12 Pd1'
_cell_volume   524.13146899
_cell_formula_units_Z   1
loop_
 _symmetry_equiv_pos_site_id
 _symmetry_equiv_pos_as_xyz
  1  'x, y, z'
loop_
 _atom_site_type_symbol
 _atom_site_label
 _atom_site_symmetry_multiplicity
 _atom_site_fract_x
 _atom_site_fract_y
 _atom_site_fract_z
 _atom_site_occupancy
  La  La0  1  0.499579  0.500421  0.749386  1
  La  La1  1  0.499771  0.500229  0.250825  1
  La  La2  1  0.000841  0.500421  0.749386  1
  La  La3  1  0.000457  0.500229  0.250825  1
  La  La4  1  0.499579  0.999159  0.749386  1
  La  La5  1  0.499771  0.999543  0.250825  1
  La  La6  1  0.000000  0.000000  0.749945  1
  La  La7  1  0.000000  0.000000  0.250050  1
  Mn  Mn8  1  0.666667  0.333333  0.000009  1
  Mn  Mn9  1  0.333333  0.666667  0.000994  1
  Mn  Mn10  1  0.333333  0.666667  0.499384  1
  Si  Si11  1  0.831594  0.168406  0.999821  1
  Si  Si12  1  0.166393  0.833607  0.999901  1
  Si  Si13  1  0.336811  0.168406  0.999821  1
  Si  Si14  1  0.167880  0.832120  0.499939  1
  Si  Si15  1  0.667214  0.833607  0.999901  1
  Si  Si16  1  0.835953  0.164047  0.499972  1
  Si  Si17  1  0.831594  0.663189  0.999821  1
  Si  Si18  1  0.664242  0.832120  0.499939  1
  Si  Si19  1  0.166393  0.332786  0.999901  1
  Si  Si20  1  0.328094  0.164047  0.499972  1
  Si  Si21  1  0.167880  0.335758  0.499939  1
  Si  Si22  1  0.835953  0.671906  0.499972  1
  Pd  Pd23  1  0.666667  0.333333  0.500092  1
