# generated using pymatgen
data_Ac3Mg3Tl2Ga
_symmetry_space_group_name_H-M   'P 1'
_cell_length_a   8.03403200
_cell_length_b   8.03403163
_cell_length_c   4.84249600
_cell_angle_alpha   90.00000000
_cell_angle_beta   90.00000000
_cell_angle_gamma   119.98729589
_symmetry_Int_Tables_number   1
_chemical_formula_structural   Ac3Mg3Tl2Ga
_chemical_formula_sum   'Ac3 Mg3 Tl2 Ga1'
_cell_volume   270.72139462
_cell_formula_units_Z   1
loop_
 _symmetry_equiv_pos_site_id
 _symmetry_equiv_pos_as_xyz
  1  'x, y, z'
loop_
 _atom_site_type_symbol
 _atom_site_label
 _atom_site_symmetry_multiplicity
 _atom_site_fract_x
 _atom_site_fract_y
 _atom_site_fract_z
 _atom_site_occupancy
  Ac  Ac0  1  0.000004  0.593457  0.000000  1
  Ac  Ac1  1  0.406466  0.406466  0.000000  1
  Ac  Ac2  1  0.593457  0.000004  0.000000  1
  Mg  Mg3  1  0.999752  0.232916  0.500000  1
  Mg  Mg4  1  0.767321  0.767321  0.500000  1
  Mg  Mg5  1  0.232916  0.999752  0.500000  1
  Tl  Tl6  1  0.333465  0.666587  0.500000  1
  Tl  Tl7  1  0.666587  0.333465  0.500000  1
  Ga  Ga8  1  0.000033  0.000033  0.000000  1
