# generated using pymatgen
data_Yb3Th7(Si3C)2
_symmetry_space_group_name_H-M   'P 1'
_cell_length_a   8.82066300
_cell_length_b   8.82066305
_cell_length_c   6.41283800
_cell_angle_alpha   90.00000000
_cell_angle_beta   90.00000000
_cell_angle_gamma   120.00000358
_symmetry_Int_Tables_number   1
_chemical_formula_structural   Yb3Th7(Si3C)2
_chemical_formula_sum   'Yb3 Th7 Si6 C2'
_cell_volume   432.09908529
_cell_formula_units_Z   1
loop_
 _symmetry_equiv_pos_site_id
 _symmetry_equiv_pos_as_xyz
  1  'x, y, z'
loop_
 _atom_site_type_symbol
 _atom_site_label
 _atom_site_symmetry_multiplicity
 _atom_site_fract_x
 _atom_site_fract_y
 _atom_site_fract_z
 _atom_site_occupancy
  Yb  Yb0  1  0.333333  0.666667  0.000000  1
  Yb  Yb1  1  0.333333  0.666667  0.500000  1
  Yb  Yb2  1  0.666667  0.333333  0.500000  1
  Th  Th3  1  0.666667  0.333333  0.000000  1
  Th  Th4  1  0.766107  0.767803  0.748424  1
  Th  Th5  1  0.232197  0.998305  0.748424  1
  Th  Th6  1  0.001695  0.233893  0.748424  1
  Th  Th7  1  0.232197  0.233893  0.251576  1
  Th  Th8  1  0.766107  0.998305  0.251576  1
  Th  Th9  1  0.001695  0.767803  0.251576  1
  Si  Si10  1  0.401085  0.396047  0.757077  1
  Si  Si11  1  0.603953  0.005039  0.757077  1
  Si  Si12  1  0.994961  0.598915  0.757077  1
  Si  Si13  1  0.603953  0.598915  0.242923  1
  Si  Si14  1  0.401085  0.005039  0.242923  1
  Si  Si15  1  0.994961  0.396047  0.242923  1
  C  C16  1  0.000000  0.000000  0.000000  1
  C  C17  1  0.000000  0.000000  0.500000  1
