# generated using pymatgen
data_Pr3Pd3Rh
_symmetry_space_group_name_H-M   'P 1'
_cell_length_a   8.12465388
_cell_length_b   8.12465434
_cell_length_c   8.12465574
_cell_angle_alpha   114.20913759
_cell_angle_beta   114.20914103
_cell_angle_gamma   114.20913206
_symmetry_Int_Tables_number   1
_chemical_formula_structural   Pr3Pd3Rh
_chemical_formula_sum   'Pr6 Pd6 Rh2'
_cell_volume   320.71988826
_cell_formula_units_Z   2
loop_
 _symmetry_equiv_pos_site_id
 _symmetry_equiv_pos_as_xyz
  1  'x, y, z'
loop_
 _atom_site_type_symbol
 _atom_site_label
 _atom_site_symmetry_multiplicity
 _atom_site_fract_x
 _atom_site_fract_y
 _atom_site_fract_z
 _atom_site_occupancy
  Pr  Pr0  1  0.402909  0.038143  0.281605  1
  Pr  Pr1  1  0.038143  0.281605  0.402909  1
  Pr  Pr2  1  0.281605  0.402909  0.038143  1
  Pr  Pr3  1  0.597091  0.961857  0.718395  1
  Pr  Pr4  1  0.961857  0.718395  0.597091  1
  Pr  Pr5  1  0.718395  0.597091  0.961857  1
  Pd  Pd6  1  0.224059  0.057557  0.554227  1
  Pd  Pd7  1  0.057557  0.554227  0.224059  1
  Pd  Pd8  1  0.554227  0.224059  0.057557  1
  Pd  Pd9  1  0.775941  0.942443  0.445773  1
  Pd  Pd10  1  0.942443  0.445773  0.775941  1
  Pd  Pd11  1  0.445773  0.775941  0.942443  1
  Rh  Rh12  1  0.000000  0.000000  0.000000  1
  Rh  Rh13  1  0.500000  0.500000  0.500000  1
