# generated using pymatgen
data_YTlAg2(Ir2O7)2
_symmetry_space_group_name_H-M   'P 1'
_cell_length_a   7.23506147
_cell_length_b   7.23367332
_cell_length_c   7.28580662
_cell_angle_alpha   60.54552663
_cell_angle_beta   60.23014357
_cell_angle_gamma   59.99365409
_symmetry_Int_Tables_number   1
_chemical_formula_structural   YTlAg2(Ir2O7)2
_chemical_formula_sum   'Y1 Tl1 Ag2 Ir4 O14'
_cell_volume   271.17976117
_cell_formula_units_Z   1
loop_
 _symmetry_equiv_pos_site_id
 _symmetry_equiv_pos_as_xyz
  1  'x, y, z'
loop_
 _atom_site_type_symbol
 _atom_site_label
 _atom_site_symmetry_multiplicity
 _atom_site_fract_x
 _atom_site_fract_y
 _atom_site_fract_z
 _atom_site_occupancy
  Y  Y0  1  0.125000  0.125000  0.625000  1
  Tl  Tl1  1  0.125000  0.625000  0.125000  1
  Ag  Ag2  1  0.625000  0.125000  0.125000  1
  Ag  Ag3  1  0.125000  0.125000  0.125000  1
  Ir  Ir4  1  0.125000  0.625000  0.625000  1
  Ir  Ir5  1  0.625000  0.125000  0.625000  1
  Ir  Ir6  1  0.625000  0.625000  0.125000  1
  Ir  Ir7  1  0.625000  0.625000  0.625000  1
  O  O8  1  0.706840  0.693862  0.302043  1
  O  O9  1  0.295759  0.298536  0.692409  1
  O  O10  1  0.713294  0.298536  0.692409  1
  O  O11  1  0.297253  0.693862  0.302043  1
  O  O12  1  0.293217  0.711573  0.701992  1
  O  O13  1  0.692770  0.306595  0.307864  1
  O  O14  1  0.543160  0.556138  0.947957  1
  O  O15  1  0.954241  0.951464  0.557591  1
  O  O16  1  0.536706  0.951464  0.557591  1
  O  O17  1  0.952747  0.556138  0.947957  1
  O  O18  1  0.956783  0.538427  0.548008  1
  O  O19  1  0.557230  0.943405  0.942136  1
  O  O20  1  0.261421  0.234296  0.242861  1
  O  O21  1  0.988579  0.015704  0.007139  1
