# generated using pymatgen
data_Ba2(OsO4)3
_symmetry_space_group_name_H-M   'P 1'
_cell_length_a   5.51664142
_cell_length_b   6.89844298
_cell_length_c   7.46358494
_cell_angle_alpha   65.14747551
_cell_angle_beta   71.16959857
_cell_angle_gamma   75.51421146
_symmetry_Int_Tables_number   1
_chemical_formula_structural   Ba2(OsO4)3
_chemical_formula_sum   'Ba2 Os3 O12'
_cell_volume   241.76069196
_cell_formula_units_Z   1
loop_
 _symmetry_equiv_pos_site_id
 _symmetry_equiv_pos_as_xyz
  1  'x, y, z'
loop_
 _atom_site_type_symbol
 _atom_site_label
 _atom_site_symmetry_multiplicity
 _atom_site_fract_x
 _atom_site_fract_y
 _atom_site_fract_z
 _atom_site_occupancy
  Ba  Ba0  1  0.325283  0.199987  0.215329  1
  Ba  Ba1  1  0.706146  0.791965  0.773448  1
  Os  Os2  1  0.496079  0.493718  0.523039  1
  Os  Os3  1  0.060197  0.748162  0.176754  1
  Os  Os4  1  0.956547  0.215774  0.845920  1
  O  O5  1  0.542523  0.241928  0.493373  1
  O  O6  1  0.454788  0.776159  0.477013  1
  O  O7  1  0.373304  0.603791  0.243605  1
  O  O8  1  0.603265  0.393319  0.766790  1
  O  O9  1  0.852830  0.535455  0.341464  1
  O  O10  1  0.143914  0.467756  0.673001  1
  O  O11  1  0.818877  0.345217  0.030071  1
  O  O12  1  0.166219  0.671572  0.955882  1
  O  O13  1  0.783611  0.960157  0.036638  1
  O  O14  1  0.230074  0.027865  0.964660  1
  O  O15  1  0.978133  0.889504  0.347731  1
  O  O16  1  0.008210  0.137674  0.635285  1
