# generated using pymatgen
data_VBPbF10
_symmetry_space_group_name_H-M   'P 1'
_cell_length_a   6.32956300
_cell_length_b   10.43864500
_cell_length_c   11.83033200
_cell_angle_alpha   90.00000000
_cell_angle_beta   90.00000000
_cell_angle_gamma   90.00000000
_symmetry_Int_Tables_number   1
_chemical_formula_structural   VBPbF10
_chemical_formula_sum   'V4 B4 Pb4 F40'
_cell_volume   781.65441947
_cell_formula_units_Z   4
loop_
 _symmetry_equiv_pos_site_id
 _symmetry_equiv_pos_as_xyz
  1  'x, y, z'
loop_
 _atom_site_type_symbol
 _atom_site_label
 _atom_site_symmetry_multiplicity
 _atom_site_fract_x
 _atom_site_fract_y
 _atom_site_fract_z
 _atom_site_occupancy
  V  V0  1  0.250000  0.982657  0.699102  1
  V  V1  1  0.250000  0.482657  0.800898  1
  V  V2  1  0.750000  0.017343  0.300898  1
  V  V3  1  0.750000  0.517343  0.199102  1
  B  B4  1  0.750000  0.641583  0.571291  1
  B  B5  1  0.750000  0.141583  0.928709  1
  B  B6  1  0.250000  0.358417  0.428709  1
  B  B7  1  0.250000  0.858417  0.071291  1
  Pb  Pb8  1  0.750000  0.264648  0.610009  1
  Pb  Pb9  1  0.750000  0.764648  0.889991  1
  Pb  Pb10  1  0.250000  0.735352  0.389991  1
  Pb  Pb11  1  0.250000  0.235352  0.110009  1
  F  F12  1  0.567894  0.687278  0.514582  1
  F  F13  1  0.932106  0.187278  0.985418  1
  F  F14  1  0.067894  0.312722  0.485418  1
  F  F15  1  0.432106  0.812722  0.014582  1
  F  F16  1  0.432106  0.312722  0.485418  1
  F  F17  1  0.067894  0.812722  0.014582  1
  F  F18  1  0.932106  0.687278  0.514582  1
  F  F19  1  0.567894  0.187278  0.985418  1
  F  F20  1  0.750000  0.505854  0.571794  1
  F  F21  1  0.750000  0.005854  0.928206  1
  F  F22  1  0.250000  0.494146  0.428206  1
  F  F23  1  0.250000  0.994146  0.071794  1
  F  F24  1  0.750000  0.686594  0.684103  1
  F  F25  1  0.750000  0.186594  0.815897  1
  F  F26  1  0.250000  0.313406  0.315897  1
  F  F27  1  0.250000  0.813406  0.184103  1
  F  F28  1  0.250000  0.884537  0.570657  1
  F  F29  1  0.250000  0.384537  0.929343  1
  F  F30  1  0.750000  0.115463  0.429343  1
  F  F31  1  0.750000  0.615463  0.070657  1
  F  F32  1  0.453148  0.879816  0.759633  1
  F  F33  1  0.046852  0.379816  0.740367  1
  F  F34  1  0.953148  0.120184  0.240367  1
  F  F35  1  0.546852  0.620184  0.259633  1
  F  F36  1  0.546852  0.120184  0.240367  1
  F  F37  1  0.953148  0.620184  0.259633  1
  F  F38  1  0.046852  0.879816  0.759633  1
  F  F39  1  0.453148  0.379816  0.740367  1
  F  F40  1  0.250000  0.080555  0.821960  1
  F  F41  1  0.250000  0.580555  0.678040  1
  F  F42  1  0.750000  0.919445  0.178040  1
  F  F43  1  0.750000  0.419445  0.321960  1
  F  F44  1  0.044998  0.082848  0.635734  1
  F  F45  1  0.455002  0.582848  0.864266  1
  F  F46  1  0.544998  0.917152  0.364266  1
  F  F47  1  0.955002  0.417152  0.135734  1
  F  F48  1  0.955002  0.917152  0.364266  1
  F  F49  1  0.544998  0.417152  0.135734  1
  F  F50  1  0.455002  0.082848  0.635734  1
  F  F51  1  0.044998  0.582848  0.864266  1
