# generated using pymatgen
data_Nb4Al6IrAu
_symmetry_space_group_name_H-M   'P 1'
_cell_length_a   5.24046200
_cell_length_b   5.24046218
_cell_length_c   8.07481100
_cell_angle_alpha   90.00000000
_cell_angle_beta   90.00000000
_cell_angle_gamma   119.99998627
_symmetry_Int_Tables_number   1
_chemical_formula_structural   Nb4Al6IrAu
_chemical_formula_sum   'Nb4 Al6 Ir1 Au1'
_cell_volume   192.04465513
_cell_formula_units_Z   1
loop_
 _symmetry_equiv_pos_site_id
 _symmetry_equiv_pos_as_xyz
  1  'x, y, z'
loop_
 _atom_site_type_symbol
 _atom_site_label
 _atom_site_symmetry_multiplicity
 _atom_site_fract_x
 _atom_site_fract_y
 _atom_site_fract_z
 _atom_site_occupancy
  Nb  Nb0  1  0.333333  0.666667  0.427440  1
  Nb  Nb1  1  0.666667  0.333333  0.572560  1
  Nb  Nb2  1  0.666667  0.333333  0.925618  1
  Nb  Nb3  1  0.333333  0.666667  0.074382  1
  Al  Al4  1  0.828326  0.171674  0.243304  1
  Al  Al5  1  0.828326  0.656651  0.243304  1
  Al  Al6  1  0.343349  0.171674  0.243304  1
  Al  Al7  1  0.171674  0.828326  0.756696  1
  Al  Al8  1  0.171674  0.343349  0.756696  1
  Al  Al9  1  0.656651  0.828326  0.756696  1
  Ir  Ir10  1  0.000000  0.000000  0.000000  1
  Au  Au11  1  0.000000  0.000000  0.500000  1
