# generated using pymatgen
data_Y3Er9Co4RuPb
_symmetry_space_group_name_H-M   'P 1'
_cell_length_a   8.27896893
_cell_length_b   8.27897061
_cell_length_c   8.26947095
_cell_angle_alpha   110.76044339
_cell_angle_beta   111.15481690
_cell_angle_gamma   106.58694680
_symmetry_Int_Tables_number   1
_chemical_formula_structural   Y3Er9Co4RuPb
_chemical_formula_sum   'Y3 Er9 Co4 Ru1 Pb1'
_cell_volume   435.21558694
_cell_formula_units_Z   1
loop_
 _symmetry_equiv_pos_site_id
 _symmetry_equiv_pos_as_xyz
  1  'x, y, z'
loop_
 _atom_site_type_symbol
 _atom_site_label
 _atom_site_symmetry_multiplicity
 _atom_site_fract_x
 _atom_site_fract_y
 _atom_site_fract_z
 _atom_site_occupancy
  Y  Y0  1  0.286508  0.185835  0.472343  1
  Y  Y1  1  0.714008  0.814532  0.528540  1
  Y  Y2  1  0.286796  0.814269  0.101064  1
  Er  Er3  1  0.714064  0.184096  0.898157  1
  Er  Er4  1  0.621027  0.311870  0.308126  1
  Er  Er5  1  0.379541  0.688458  0.691611  1
  Er  Er6  1  0.003154  0.312069  0.691611  1
  Er  Er7  1  0.996253  0.687099  0.308126  1
  Er  Er8  1  0.212244  0.406021  0.192711  1
  Er  Er9  1  0.786915  0.592380  0.806351  1
  Er  Er10  1  0.213969  0.019436  0.806351  1
  Er  Er11  1  0.786691  0.980467  0.192711  1
  Co  Co12  1  0.999417  0.378818  0.378235  1
  Co  Co13  1  0.999798  0.620973  0.620771  1
  Co  Co14  1  0.389270  0.890083  0.502692  1
  Co  Co15  1  0.612608  0.113422  0.502692  1
  Ru  Ru16  1  0.998033  0.999891  0.997924  1
  Pb  Pb17  1  0.499704  0.500282  0.999987  1
