# generated using pymatgen
data_Zr6Zn22NiGe
_symmetry_space_group_name_H-M   'P 1'
_cell_length_a   8.75050731
_cell_length_b   8.75050677
_cell_length_c   8.75050800
_cell_angle_alpha   60.00000292
_cell_angle_beta   60.00000494
_cell_angle_gamma   60.00000128
_symmetry_Int_Tables_number   1
_chemical_formula_structural   Zr6Zn22NiGe
_chemical_formula_sum   'Zr6 Zn22 Ni1 Ge1'
_cell_volume   473.78874031
_cell_formula_units_Z   1
loop_
 _symmetry_equiv_pos_site_id
 _symmetry_equiv_pos_as_xyz
  1  'x, y, z'
loop_
 _atom_site_type_symbol
 _atom_site_label
 _atom_site_symmetry_multiplicity
 _atom_site_fract_x
 _atom_site_fract_y
 _atom_site_fract_z
 _atom_site_occupancy
  Zr  Zr0  1  0.714661  0.285339  0.285339  1
  Zr  Zr1  1  0.285339  0.714661  0.714661  1
  Zr  Zr2  1  0.285339  0.714661  0.285339  1
  Zr  Zr3  1  0.714661  0.285339  0.714661  1
  Zr  Zr4  1  0.285339  0.285339  0.714661  1
  Zr  Zr5  1  0.714661  0.714661  0.285339  1
  Zn  Zn6  1  0.119287  0.119287  0.119287  1
  Zn  Zn7  1  0.880713  0.880713  0.880713  1
  Zn  Zn8  1  0.119287  0.119287  0.642139  1
  Zn  Zn9  1  0.119287  0.642139  0.119287  1
  Zn  Zn10  1  0.880713  0.880713  0.357861  1
  Zn  Zn11  1  0.880713  0.357861  0.880713  1
  Zn  Zn12  1  0.642139  0.119287  0.119287  1
  Zn  Zn13  1  0.357861  0.880713  0.880713  1
  Zn  Zn14  1  0.500000  0.000000  0.000000  1
  Zn  Zn15  1  0.000000  0.500000  0.500000  1
  Zn  Zn16  1  0.000000  0.500000  0.000000  1
  Zn  Zn17  1  0.500000  0.000000  0.500000  1
  Zn  Zn18  1  0.000000  0.000000  0.500000  1
  Zn  Zn19  1  0.500000  0.500000  0.000000  1
  Zn  Zn20  1  0.336691  0.336691  0.336691  1
  Zn  Zn21  1  0.663309  0.663309  0.663309  1
  Zn  Zn22  1  0.336691  0.336691  0.989929  1
  Zn  Zn23  1  0.336691  0.989929  0.336691  1
  Zn  Zn24  1  0.663309  0.663309  0.010071  1
  Zn  Zn25  1  0.663309  0.010071  0.663309  1
  Zn  Zn26  1  0.989929  0.336691  0.336691  1
  Zn  Zn27  1  0.010071  0.663309  0.663309  1
  Ni  Ni28  1  0.000000  0.000000  0.000000  1
  Ge  Ge29  1  0.500000  0.500000  0.500000  1
