# generated using pymatgen
data_NdAs12IrOs2Ru
_symmetry_space_group_name_H-M   'P 1'
_cell_length_a   7.46681537
_cell_length_b   7.46081655
_cell_length_c   7.46012149
_cell_angle_alpha   109.44402078
_cell_angle_beta   109.43826563
_cell_angle_gamma   109.44666720
_symmetry_Int_Tables_number   1
_chemical_formula_structural   NdAs12IrOs2Ru
_chemical_formula_sum   'Nd1 As12 Ir1 Os2 Ru1'
_cell_volume   320.25725045
_cell_formula_units_Z   1
loop_
 _symmetry_equiv_pos_site_id
 _symmetry_equiv_pos_as_xyz
  1  'x, y, z'
loop_
 _atom_site_type_symbol
 _atom_site_label
 _atom_site_symmetry_multiplicity
 _atom_site_fract_x
 _atom_site_fract_y
 _atom_site_fract_z
 _atom_site_occupancy
  Nd  Nd0  1  0.000000  0.000000  0.000000  1
  As  As1  1  0.347073  0.197145  0.850792  1
  As  As2  1  0.652927  0.802855  0.149208  1
  As  As3  1  0.653553  0.503893  0.853462  1
  As  As4  1  0.346447  0.496107  0.146538  1
  As  As5  1  0.197696  0.850692  0.346792  1
  As  As6  1  0.802304  0.149308  0.653208  1
  As  As7  1  0.503960  0.853528  0.654597  1
  As  As8  1  0.496040  0.146472  0.345403  1
  As  As9  1  0.849832  0.346078  0.197174  1
  As  As10  1  0.150168  0.653922  0.802826  1
  As  As11  1  0.853326  0.653450  0.503854  1
  As  As12  1  0.146674  0.346550  0.496146  1
  Ir  Ir13  1  0.500000  0.500000  0.500000  1
  Os  Os14  1  0.000000  0.000000  0.500000  1
  Os  Os15  1  0.000000  0.500000  0.000000  1
  Ru  Ru16  1  0.500000  0.000000  0.000000  1
