# generated using pymatgen
data_Cs3Pr(PS4)2
_symmetry_space_group_name_H-M   'P 1'
_cell_length_a   15.59911246
_cell_length_b   6.99888700
_cell_length_c   15.68962100
_cell_angle_alpha   90.00000000
_cell_angle_beta   99.27729625
_cell_angle_gamma   90.00000000
_symmetry_Int_Tables_number   1
_chemical_formula_structural   Cs3Pr(PS4)2
_chemical_formula_sum   'Cs12 Pr4 P8 S32'
_cell_volume   1690.53096764
_cell_formula_units_Z   4
loop_
 _symmetry_equiv_pos_site_id
 _symmetry_equiv_pos_as_xyz
  1  'x, y, z'
loop_
 _atom_site_type_symbol
 _atom_site_label
 _atom_site_symmetry_multiplicity
 _atom_site_fract_x
 _atom_site_fract_y
 _atom_site_fract_z
 _atom_site_occupancy
  Cs  Cs0  1  0.107849  0.745148  0.025445  1
  Cs  Cs1  1  0.548226  0.251930  0.110194  1
  Cs  Cs2  1  0.777060  0.758368  0.122132  1
  Cs  Cs3  1  0.722940  0.258368  0.377868  1
  Cs  Cs4  1  0.951773  0.751931  0.389807  1
  Cs  Cs5  1  0.392152  0.245149  0.474555  1
  Cs  Cs6  1  0.607849  0.754852  0.525444  1
  Cs  Cs7  1  0.048227  0.248070  0.610194  1
  Cs  Cs8  1  0.277061  0.741632  0.622132  1
  Cs  Cs9  1  0.222940  0.241633  0.877868  1
  Cs  Cs10  1  0.451774  0.748069  0.889807  1
  Cs  Cs11  1  0.892152  0.254852  0.974556  1
  Pr  Pr12  1  0.377333  0.731695  0.228758  1
  Pr  Pr13  1  0.122667  0.231695  0.271242  1
  Pr  Pr14  1  0.877333  0.768305  0.728758  1
  Pr  Pr15  1  0.622667  0.268304  0.771242  1
  P  P16  1  0.282917  0.273488  0.127943  1
  P  P17  1  0.916079  0.254859  0.223259  1
  P  P18  1  0.583920  0.754860  0.276741  1
  P  P19  1  0.217083  0.773489  0.372057  1
  P  P20  1  0.782918  0.226512  0.627943  1
  P  P21  1  0.416079  0.245140  0.723259  1
  P  P22  1  0.083920  0.745140  0.776741  1
  P  P23  1  0.717083  0.726511  0.872058  1
  S  S24  1  0.330807  0.504846  0.070018  1
  S  S25  1  0.151018  0.249575  0.091845  1
  S  S26  1  0.342479  0.031199  0.093332  1
  S  S27  1  0.551050  0.749855  0.144155  1
  S  S28  1  0.788354  0.261153  0.173721  1
  S  S29  1  0.974987  0.012879  0.182935  1
  S  S30  1  0.981420  0.488667  0.185715  1
  S  S31  1  0.195546  0.833129  0.241320  1
  S  S32  1  0.304454  0.333130  0.258680  1
  S  S33  1  0.518580  0.988667  0.314285  1
  S  S34  1  0.525013  0.512879  0.317064  1
  S  S35  1  0.711646  0.761152  0.326279  1
  S  S36  1  0.948950  0.249855  0.355845  1
  S  S37  1  0.157522  0.531199  0.406668  1
  S  S38  1  0.348982  0.749576  0.408156  1
  S  S39  1  0.169193  0.004847  0.429982  1
  S  S40  1  0.830807  0.995154  0.570018  1
  S  S41  1  0.651018  0.250425  0.591845  1
  S  S42  1  0.842479  0.468800  0.593332  1
  S  S43  1  0.051050  0.750145  0.644155  1
  S  S44  1  0.288354  0.238848  0.673721  1
  S  S45  1  0.474987  0.487122  0.682935  1
  S  S46  1  0.481419  0.011332  0.685715  1
  S  S47  1  0.695546  0.666871  0.741320  1
  S  S48  1  0.804455  0.166870  0.758680  1
  S  S49  1  0.018580  0.511333  0.814285  1
  S  S50  1  0.025013  0.987121  0.817064  1
  S  S51  1  0.211646  0.738848  0.826280  1
  S  S52  1  0.448949  0.250144  0.855845  1
  S  S53  1  0.657522  0.968801  0.906668  1
  S  S54  1  0.848982  0.750424  0.908155  1
  S  S55  1  0.669193  0.495153  0.929981  1
