# generated using pymatgen
data_Cs2K3(IrN)3
_symmetry_space_group_name_H-M   'P 1'
_cell_length_a   9.50728330
_cell_length_b   9.79927914
_cell_length_c   3.72803200
_cell_angle_alpha   90.00000000
_cell_angle_beta   90.00000000
_cell_angle_gamma   121.02127926
_symmetry_Int_Tables_number   1
_chemical_formula_structural   Cs2K3(IrN)3
_chemical_formula_sum   'Cs2 K3 Ir3 N3'
_cell_volume   297.64516675
_cell_formula_units_Z   1
loop_
 _symmetry_equiv_pos_site_id
 _symmetry_equiv_pos_as_xyz
  1  'x, y, z'
loop_
 _atom_site_type_symbol
 _atom_site_label
 _atom_site_symmetry_multiplicity
 _atom_site_fract_x
 _atom_site_fract_y
 _atom_site_fract_z
 _atom_site_occupancy
  Cs  Cs0  1  0.733225  0.001085  0.500000  1
  Cs  Cs1  1  0.266776  0.267862  0.500000  1
  K  K2  1  0.669172  0.334998  0.500000  1
  K  K3  1  0.330828  0.665826  0.500000  1
  K  K4  1  0.000000  0.731424  0.500000  1
  Ir  Ir5  1  0.364171  0.989388  0.000000  1
  Ir  Ir6  1  0.000000  0.384987  0.000000  1
  Ir  Ir7  1  0.635829  0.625217  0.000000  1
  N  N8  1  0.364753  0.989681  0.500000  1
  N  N9  1  0.000000  0.384605  0.500000  1
  N  N10  1  0.635248  0.624928  0.500000  1
