# generated using pymatgen
data_Eu9(Pt2Au)2
_symmetry_space_group_name_H-M   'P 1'
_cell_length_a   7.94545886
_cell_length_b   7.87475102
_cell_length_c   7.95403400
_cell_angle_alpha   70.61423308
_cell_angle_beta   70.19564826
_cell_angle_gamma   70.65139139
_symmetry_Int_Tables_number   1
_chemical_formula_structural   Eu9(Pt2Au)2
_chemical_formula_sum   'Eu9 Pt4 Au2'
_cell_volume   428.05076949
_cell_formula_units_Z   1
loop_
 _symmetry_equiv_pos_site_id
 _symmetry_equiv_pos_as_xyz
  1  'x, y, z'
loop_
 _atom_site_type_symbol
 _atom_site_label
 _atom_site_symmetry_multiplicity
 _atom_site_fract_x
 _atom_site_fract_y
 _atom_site_fract_z
 _atom_site_occupancy
  Eu  Eu0  1  0.006143  0.996883  0.997043  1
  Eu  Eu1  1  0.387888  0.666078  0.148735  1
  Eu  Eu2  1  0.197090  0.198886  0.199504  1
  Eu  Eu3  1  0.859198  0.598873  0.342470  1
  Eu  Eu4  1  0.670454  0.147315  0.411536  1
  Eu  Eu5  1  0.324760  0.847170  0.607375  1
  Eu  Eu6  1  0.161442  0.395294  0.663784  1
  Eu  Eu7  1  0.805226  0.806792  0.792831  1
  Eu  Eu8  1  0.597094  0.333979  0.836720  1
  Pt  Pt9  1  0.048363  0.843252  0.406694  1
  Pt  Pt10  1  0.953497  0.168665  0.589301  1
  Pt  Pt11  1  0.411762  0.044430  0.837617  1
  Pt  Pt12  1  0.155246  0.587935  0.953627  1
  Au  Au13  1  0.831319  0.414047  0.048632  1
  Au  Au14  1  0.590518  0.950400  0.164132  1
