# generated using pymatgen
data_PaCoSiH2
_symmetry_space_group_name_H-M   'P 1'
_cell_length_a   4.08715100
_cell_length_b   4.08715073
_cell_length_c   7.77803000
_cell_angle_alpha   90.00000000
_cell_angle_beta   90.00000000
_cell_angle_gamma   120.00001024
_symmetry_Int_Tables_number   1
_chemical_formula_structural   PaCoSiH2
_chemical_formula_sum   'Pa2 Co2 Si2 H4'
_cell_volume   112.52306119
_cell_formula_units_Z   2
loop_
 _symmetry_equiv_pos_site_id
 _symmetry_equiv_pos_as_xyz
  1  'x, y, z'
loop_
 _atom_site_type_symbol
 _atom_site_label
 _atom_site_symmetry_multiplicity
 _atom_site_fract_x
 _atom_site_fract_y
 _atom_site_fract_z
 _atom_site_occupancy
  Pa  Pa0  1  0.000000  0.000000  0.000000  1
  Pa  Pa1  1  0.000000  0.000000  0.500000  1
  Co  Co2  1  0.666667  0.333333  0.250000  1
  Co  Co3  1  0.333333  0.666667  0.750000  1
  Si  Si4  1  0.333333  0.666667  0.250000  1
  Si  Si5  1  0.666667  0.333333  0.750000  1
  H  H6  1  0.333333  0.666667  0.960026  1
  H  H7  1  0.666667  0.333333  0.039974  1
  H  H8  1  0.333333  0.666667  0.539974  1
  H  H9  1  0.666667  0.333333  0.460026  1
