# generated using pymatgen
data_PrNd7Zn8(Ir3Rh)2
_symmetry_space_group_name_H-M   'P 1'
_cell_length_a   4.06188900
_cell_length_b   7.29984252
_cell_length_c   16.59541971
_cell_angle_alpha   90.12866310
_cell_angle_beta   90.00000000
_cell_angle_gamma   90.00000000
_symmetry_Int_Tables_number   1
_chemical_formula_structural   PrNd7Zn8(Ir3Rh)2
_chemical_formula_sum   'Pr1 Nd7 Zn8 Ir6 Rh2'
_cell_volume   492.07203932
_cell_formula_units_Z   1
loop_
 _symmetry_equiv_pos_site_id
 _symmetry_equiv_pos_as_xyz
  1  'x, y, z'
loop_
 _atom_site_type_symbol
 _atom_site_label
 _atom_site_symmetry_multiplicity
 _atom_site_fract_x
 _atom_site_fract_y
 _atom_site_fract_z
 _atom_site_occupancy
  Pr  Pr0  1  0.250000  0.166624  0.939309  1
  Nd  Nd1  1  0.250000  0.665347  0.560364  1
  Nd  Nd2  1  0.750000  0.334645  0.439623  1
  Nd  Nd3  1  0.750000  0.953018  0.283437  1
  Nd  Nd4  1  0.750000  0.833030  0.060864  1
  Nd  Nd5  1  0.750000  0.453099  0.216964  1
  Nd  Nd6  1  0.250000  0.046948  0.716489  1
  Nd  Nd7  1  0.250000  0.547005  0.782996  1
  Zn  Zn8  1  0.750000  0.000992  0.560383  1
  Zn  Zn9  1  0.250000  0.624172  0.349360  1
  Zn  Zn10  1  0.750000  0.375845  0.650620  1
  Zn  Zn11  1  0.250000  0.498670  0.060888  1
  Zn  Zn12  1  0.750000  0.502008  0.939212  1
  Zn  Zn13  1  0.250000  0.999030  0.439618  1
  Zn  Zn14  1  0.250000  0.124082  0.151137  1
  Zn  Zn15  1  0.750000  0.875616  0.848834  1
  Ir  Ir16  1  0.750000  0.757179  0.435348  1
  Ir  Ir17  1  0.250000  0.245345  0.312282  1
  Ir  Ir18  1  0.750000  0.255109  0.813952  1
  Ir  Ir19  1  0.750000  0.754611  0.687717  1
  Ir  Ir20  1  0.250000  0.242792  0.564654  1
  Ir  Ir21  1  0.250000  0.745111  0.185714  1
  Rh  Rh22  1  0.750000  0.256422  0.064650  1
  Rh  Rh23  1  0.250000  0.743301  0.935587  1
