# generated using pymatgen
data_Nb12Ni3Os9C4
_symmetry_space_group_name_H-M   'P 1'
_cell_length_a   8.32399648
_cell_length_b   8.32470075
_cell_length_c   8.33966769
_cell_angle_alpha   120.51474134
_cell_angle_beta   90.11846006
_cell_angle_gamma   119.29436374
_symmetry_Int_Tables_number   1
_chemical_formula_structural   Nb12Ni3Os9C4
_chemical_formula_sum   'Nb12 Ni3 Os9 C4'
_cell_volume   409.34293189
_cell_formula_units_Z   1
loop_
 _symmetry_equiv_pos_site_id
 _symmetry_equiv_pos_as_xyz
  1  'x, y, z'
loop_
 _atom_site_type_symbol
 _atom_site_label
 _atom_site_symmetry_multiplicity
 _atom_site_fract_x
 _atom_site_fract_y
 _atom_site_fract_z
 _atom_site_occupancy
  Nb  Nb0  1  0.933867  0.367977  0.186173  1
  Nb  Nb1  1  0.938379  0.750991  0.189360  1
  Nb  Nb2  1  0.318252  0.752297  0.186065  1
  Nb  Nb3  1  0.066563  0.249003  0.434997  1
  Nb  Nb4  1  0.689443  0.247874  0.437389  1
  Nb  Nb5  1  0.685980  0.868474  0.435098  1
  Nb  Nb6  1  0.320734  0.138722  0.570163  1
  Nb  Nb7  1  0.324750  0.752479  0.577266  1
  Nb  Nb8  1  0.931402  0.749458  0.570272  1
  Nb  Nb9  1  0.068828  0.251566  0.820458  1
  Nb  Nb10  1  0.070795  0.639766  0.821406  1
  Nb  Nb11  1  0.681612  0.250603  0.821401  1
  Ni  Ni12  1  0.721457  0.930810  0.793581  1
  Ni  Ni13  1  0.362865  0.571891  0.793463  1
  Ni  Ni14  1  0.288327  0.085325  0.873322  1
  Os  Os15  1  0.999116  0.992196  0.996835  1
  Os  Os16  1  0.495504  0.989239  0.984883  1
  Os  Os17  1  0.504878  0.498432  0.997591  1
  Os  Os18  1  0.697260  0.905767  0.102644  1
  Os  Os19  1  0.299539  0.093320  0.202953  1
  Os  Os20  1  0.287859  0.408687  0.196742  1
  Os  Os21  1  0.609672  0.403371  0.202975  1
  Os  Os22  1  0.495313  0.513623  0.508737  1
  Os  Os23  1  0.699598  0.584438  0.784404  1
  C  C24  1  0.999852  0.499300  0.999128  1
  C  C25  1  0.499627  0.998258  0.504219  1
  C  C26  1  0.002599  0.001552  0.504202  1
  C  C27  1  0.005930  0.504584  0.504280  1
