# generated using pymatgen
data_LiDy2(Co3As2)3
_symmetry_space_group_name_H-M   'P 1'
_cell_length_a   3.80228800
_cell_length_b   10.66171700
_cell_length_c   12.23182500
_cell_angle_alpha   90.00000000
_cell_angle_beta   90.00000000
_cell_angle_gamma   90.00000000
_symmetry_Int_Tables_number   1
_chemical_formula_structural   LiDy2(Co3As2)3
_chemical_formula_sum   'Li2 Dy4 Co18 As12'
_cell_volume   495.86495811
_cell_formula_units_Z   2
loop_
 _symmetry_equiv_pos_site_id
 _symmetry_equiv_pos_as_xyz
  1  'x, y, z'
loop_
 _atom_site_type_symbol
 _atom_site_label
 _atom_site_symmetry_multiplicity
 _atom_site_fract_x
 _atom_site_fract_y
 _atom_site_fract_z
 _atom_site_occupancy
  Li  Li0  1  0.250000  0.699732  0.991314  1
  Li  Li1  1  0.250000  0.800268  0.491314  1
  Dy  Dy2  1  0.250000  0.577228  0.700891  1
  Dy  Dy3  1  0.250000  0.922772  0.200891  1
  Dy  Dy4  1  0.750000  0.422115  0.299322  1
  Dy  Dy5  1  0.750000  0.077885  0.799322  1
  Co  Co6  1  0.750000  0.292853  0.007524  1
  Co  Co7  1  0.750000  0.207147  0.507524  1
  Co  Co8  1  0.250000  0.405160  0.487408  1
  Co  Co9  1  0.250000  0.094840  0.987408  1
  Co  Co10  1  0.750000  0.589332  0.514677  1
  Co  Co11  1  0.750000  0.910668  0.014677  1
  Co  Co12  1  0.250000  0.218743  0.175542  1
  Co  Co13  1  0.250000  0.281257  0.675542  1
  Co  Co14  1  0.750000  0.785556  0.824504  1
  Co  Co15  1  0.750000  0.714444  0.324504  1
  Co  Co16  1  0.250000  0.881657  0.698300  1
  Co  Co17  1  0.250000  0.618343  0.198300  1
  Co  Co18  1  0.750000  0.120136  0.301589  1
  Co  Co19  1  0.750000  0.379864  0.801589  1
  Co  Co20  1  0.250000  0.464808  0.931021  1
  Co  Co21  1  0.250000  0.035192  0.431021  1
  Co  Co22  1  0.750000  0.531180  0.066873  1
  Co  Co23  1  0.750000  0.968820  0.566873  1
  As  As24  1  0.250000  0.418949  0.114014  1
  As  As25  1  0.250000  0.081051  0.614014  1
  As  As26  1  0.750000  0.580828  0.882980  1
  As  As27  1  0.750000  0.919172  0.382980  1
  As  As28  1  0.250000  0.266172  0.867303  1
  As  As29  1  0.250000  0.233828  0.367303  1
  As  As30  1  0.750000  0.731872  0.135179  1
  As  As31  1  0.750000  0.768128  0.635179  1
  As  As32  1  0.250000  0.602242  0.393671  1
  As  As33  1  0.250000  0.897758  0.893671  1
  As  As34  1  0.750000  0.395303  0.607888  1
  As  As35  1  0.750000  0.104697  0.107888  1
