# generated using pymatgen
data_NaAcP7Ru12
_symmetry_space_group_name_H-M   'P 1'
_cell_length_a   9.53793800
_cell_length_b   9.53793821
_cell_length_c   3.94902100
_cell_angle_alpha   90.00000000
_cell_angle_beta   90.00000000
_cell_angle_gamma   119.99999142
_symmetry_Int_Tables_number   1
_chemical_formula_structural   NaAcP7Ru12
_chemical_formula_sum   'Na1 Ac1 P7 Ru12'
_cell_volume   311.12084660
_cell_formula_units_Z   1
loop_
 _symmetry_equiv_pos_site_id
 _symmetry_equiv_pos_as_xyz
  1  'x, y, z'
loop_
 _atom_site_type_symbol
 _atom_site_label
 _atom_site_symmetry_multiplicity
 _atom_site_fract_x
 _atom_site_fract_y
 _atom_site_fract_z
 _atom_site_occupancy
  Na  Na0  1  0.666667  0.333333  0.500000  1
  Ac  Ac1  1  0.333333  0.666667  0.000000  1
  P  P2  1  0.611139  0.710102  0.500000  1
  P  P3  1  0.000000  0.000000  0.000000  1
  P  P4  1  0.289898  0.901037  0.500000  1
  P  P5  1  0.098963  0.388861  0.500000  1
  P  P6  1  0.895318  0.585187  0.000000  1
  P  P7  1  0.414813  0.310131  0.000000  1
  P  P8  1  0.689869  0.104682  0.000000  1
  Ru  Ru9  1  0.563453  0.957699  0.500000  1
  Ru  Ru10  1  0.394247  0.436547  0.500000  1
  Ru  Ru11  1  0.911316  0.115219  0.500000  1
  Ru  Ru12  1  0.203903  0.088684  0.500000  1
  Ru  Ru13  1  0.884781  0.796097  0.500000  1
  Ru  Ru14  1  0.728773  0.882680  0.000000  1
  Ru  Ru15  1  0.117320  0.846093  0.000000  1
  Ru  Ru16  1  0.153907  0.271227  0.000000  1
  Ru  Ru17  1  0.429611  0.075662  0.000000  1
  Ru  Ru18  1  0.924338  0.353950  0.000000  1
  Ru  Ru19  1  0.646050  0.570389  0.000000  1
  Ru  Ru20  1  0.042301  0.605753  0.500000  1
