# generated using pymatgen
data_YbSmPaIr3
_symmetry_space_group_name_H-M   'P 1'
_cell_length_a   5.35410711
_cell_length_b   5.35410780
_cell_length_c   5.35410700
_cell_angle_alpha   65.74620907
_cell_angle_beta   65.74620572
_cell_angle_gamma   65.74620980
_symmetry_Int_Tables_number   1
_chemical_formula_structural   YbSmPaIr3
_chemical_formula_sum   'Yb1 Sm1 Pa1 Ir3'
_cell_volume   122.05647841
_cell_formula_units_Z   1
loop_
 _symmetry_equiv_pos_site_id
 _symmetry_equiv_pos_as_xyz
  1  'x, y, z'
loop_
 _atom_site_type_symbol
 _atom_site_label
 _atom_site_symmetry_multiplicity
 _atom_site_fract_x
 _atom_site_fract_y
 _atom_site_fract_z
 _atom_site_occupancy
  Yb  Yb0  1  0.999748  0.999748  0.999748  1
  Sm  Sm1  1  0.244009  0.244009  0.244009  1
  Pa  Pa2  1  0.626953  0.626953  0.626953  1
  Ir  Ir3  1  0.626419  0.626419  0.126451  1
  Ir  Ir4  1  0.626419  0.126451  0.626419  1
  Ir  Ir5  1  0.126451  0.626419  0.626419  1
