# generated using pymatgen
data_Pa2OsI2
_symmetry_space_group_name_H-M   'P 1'
_cell_length_a   4.08068500
_cell_length_b   4.08068399
_cell_length_c   11.60019600
_cell_angle_alpha   90.00000000
_cell_angle_beta   90.00000000
_cell_angle_gamma   120.00000006
_symmetry_Int_Tables_number   1
_chemical_formula_structural   Pa2OsI2
_chemical_formula_sum   'Pa2 Os1 I2'
_cell_volume   167.28692363
_cell_formula_units_Z   1
loop_
 _symmetry_equiv_pos_site_id
 _symmetry_equiv_pos_as_xyz
  1  'x, y, z'
loop_
 _atom_site_type_symbol
 _atom_site_label
 _atom_site_symmetry_multiplicity
 _atom_site_fract_x
 _atom_site_fract_y
 _atom_site_fract_z
 _atom_site_occupancy
  Pa  Pa0  1  0.333333  0.666667  0.873255  1
  Pa  Pa1  1  0.666667  0.333333  0.126745  1
  Os  Os2  1  0.000000  0.000000  0.000000  1
  I  I3  1  0.666667  0.333333  0.677271  1
  I  I4  1  0.333333  0.666667  0.322729  1
