# generated using pymatgen
data_Tb5Y3(SiI6)2
_symmetry_space_group_name_H-M   'P 1'
_cell_length_a   4.22282500
_cell_length_b   14.05677027
_cell_length_c   14.83129728
_cell_angle_alpha   90.02230090
_cell_angle_beta   90.00000000
_cell_angle_gamma   90.00000000
_symmetry_Int_Tables_number   1
_chemical_formula_structural   Tb5Y3(SiI6)2
_chemical_formula_sum   'Tb5 Y3 Si2 I12'
_cell_volume   880.37507471
_cell_formula_units_Z   1
loop_
 _symmetry_equiv_pos_site_id
 _symmetry_equiv_pos_as_xyz
  1  'x, y, z'
loop_
 _atom_site_type_symbol
 _atom_site_label
 _atom_site_symmetry_multiplicity
 _atom_site_fract_x
 _atom_site_fract_y
 _atom_site_fract_z
 _atom_site_occupancy
  Tb  Tb0  1  0.500000  0.114034  0.347589  1
  Tb  Tb1  1  0.000000  0.111537  0.574574  1
  Tb  Tb2  1  0.000000  0.888444  0.425452  1
  Tb  Tb3  1  0.000000  0.611542  0.925443  1
  Tb  Tb4  1  0.000000  0.388446  0.074559  1
  Y  Y5  1  0.500000  0.886017  0.652338  1
  Y  Y6  1  0.500000  0.613962  0.152315  1
  Y  Y7  1  0.500000  0.386037  0.847687  1
  Si  Si8  1  0.500000  0.999942  0.500077  1
  Si  Si9  1  0.500000  0.500001  0.999999  1
  I  I10  1  0.500000  0.244926  0.161226  1
  I  I11  1  0.500000  0.755119  0.838730  1
  I  I12  1  0.500000  0.744869  0.338716  1
  I  I13  1  0.500000  0.255131  0.661285  1
  I  I14  1  0.000000  0.258745  0.413803  1
  I  I15  1  0.000000  0.741349  0.586262  1
  I  I16  1  0.000000  0.758638  0.086262  1
  I  I17  1  0.000000  0.241361  0.913739  1
  I  I18  1  0.000000  0.999143  0.240403  1
  I  I19  1  0.000000  0.000761  0.759539  1
  I  I20  1  0.000000  0.499237  0.259530  1
  I  I21  1  0.000000  0.500760  0.740472  1
