# generated using pymatgen
data_CaDyOsC2
_symmetry_space_group_name_H-M   'P 1'
_cell_length_a   5.15068700
_cell_length_b   6.45859400
_cell_length_c   10.12476200
_cell_angle_alpha   90.00000000
_cell_angle_beta   90.00000000
_cell_angle_gamma   90.00000000
_symmetry_Int_Tables_number   1
_chemical_formula_structural   CaDyOsC2
_chemical_formula_sum   'Ca4 Dy4 Os4 C8'
_cell_volume   336.81231871
_cell_formula_units_Z   4
loop_
 _symmetry_equiv_pos_site_id
 _symmetry_equiv_pos_as_xyz
  1  'x, y, z'
loop_
 _atom_site_type_symbol
 _atom_site_label
 _atom_site_symmetry_multiplicity
 _atom_site_fract_x
 _atom_site_fract_y
 _atom_site_fract_z
 _atom_site_occupancy
  Ca  Ca0  1  0.250000  0.531534  0.221291  1
  Ca  Ca1  1  0.750000  0.468466  0.778709  1
  Ca  Ca2  1  0.750000  0.968466  0.721291  1
  Ca  Ca3  1  0.250000  0.031534  0.278709  1
  Dy  Dy4  1  0.250000  0.685302  0.558920  1
  Dy  Dy5  1  0.750000  0.314698  0.441080  1
  Dy  Dy6  1  0.750000  0.814698  0.058920  1
  Dy  Dy7  1  0.250000  0.185302  0.941080  1
  Os  Os8  1  0.250000  0.725434  0.860010  1
  Os  Os9  1  0.750000  0.274566  0.139990  1
  Os  Os10  1  0.750000  0.774566  0.360010  1
  Os  Os11  1  0.250000  0.225434  0.639990  1
  C  C12  1  0.250000  0.462364  0.757883  1
  C  C13  1  0.750000  0.537636  0.242117  1
  C  C14  1  0.750000  0.037636  0.257883  1
  C  C15  1  0.250000  0.962364  0.742117  1
  C  C16  1  0.250000  0.817878  0.037197  1
  C  C17  1  0.750000  0.182122  0.962803  1
  C  C18  1  0.750000  0.682122  0.537197  1
  C  C19  1  0.250000  0.317878  0.462803  1
