# generated using pymatgen
data_SmY3(Si5Os3)2
_symmetry_space_group_name_H-M   'P 1'
_cell_length_a   8.14303234
_cell_length_b   8.15126412
_cell_length_c   5.81727676
_cell_angle_alpha   70.50005941
_cell_angle_beta   70.50169297
_cell_angle_gamma   93.90579832
_symmetry_Int_Tables_number   1
_chemical_formula_structural   SmY3(Si5Os3)2
_chemical_formula_sum   'Sm1 Y3 Si10 Os6'
_cell_volume   336.03013256
_cell_formula_units_Z   1
loop_
 _symmetry_equiv_pos_site_id
 _symmetry_equiv_pos_as_xyz
  1  'x, y, z'
loop_
 _atom_site_type_symbol
 _atom_site_label
 _atom_site_symmetry_multiplicity
 _atom_site_fract_x
 _atom_site_fract_y
 _atom_site_fract_z
 _atom_site_occupancy
  Sm  Sm0  1  0.601159  0.868753  0.254351  1
  Y  Y1  1  0.868653  0.602332  0.752267  1
  Y  Y2  1  0.398089  0.131894  0.746367  1
  Y  Y3  1  0.131672  0.397390  0.247321  1
  Si  Si4  1  0.066761  0.260423  0.834624  1
  Si  Si5  1  0.738311  0.933092  0.666275  1
  Si  Si6  1  0.934066  0.738738  0.164859  1
  Si  Si7  1  0.262088  0.067334  0.333623  1
  Si  Si8  1  0.207524  0.793359  0.747804  1
  Si  Si9  1  0.793697  0.207610  0.250969  1
  Si  Si10  1  0.512713  0.487151  0.749791  1
  Si  Si11  1  0.486577  0.511523  0.251361  1
  Si  Si12  1  0.773762  0.226985  0.748361  1
  Si  Si13  1  0.225092  0.773739  0.251126  1
  Os  Os14  1  0.254984  0.542169  0.632515  1
  Os  Os15  1  0.455117  0.743096  0.870522  1
  Os  Os16  1  0.744430  0.457127  0.367510  1
  Os  Os17  1  0.544303  0.257362  0.130682  1
  Os  Os18  1  0.003032  0.997529  0.749731  1
  Os  Os19  1  0.997973  0.002396  0.249938  1
