# generated using pymatgen
data_Zr4Nb4SiP3
_symmetry_space_group_name_H-M   'P 1'
_cell_length_a   3.58745200
_cell_length_b   6.96025582
_cell_length_c   8.38878093
_cell_angle_alpha   89.80712300
_cell_angle_beta   90.00000000
_cell_angle_gamma   90.00000000
_symmetry_Int_Tables_number   1
_chemical_formula_structural   Zr4Nb4SiP3
_chemical_formula_sum   'Zr4 Nb4 Si1 P3'
_cell_volume   209.46318042
_cell_formula_units_Z   1
loop_
 _symmetry_equiv_pos_site_id
 _symmetry_equiv_pos_as_xyz
  1  'x, y, z'
loop_
 _atom_site_type_symbol
 _atom_site_label
 _atom_site_symmetry_multiplicity
 _atom_site_fract_x
 _atom_site_fract_y
 _atom_site_fract_z
 _atom_site_occupancy
  Zr  Zr0  1  0.250000  0.533673  0.834276  1
  Zr  Zr1  1  0.750000  0.963595  0.331281  1
  Zr  Zr2  1  0.250000  0.039722  0.668835  1
  Zr  Zr3  1  0.750000  0.465075  0.169868  1
  Nb  Nb4  1  0.250000  0.140150  0.060394  1
  Nb  Nb5  1  0.750000  0.864092  0.942879  1
  Nb  Nb6  1  0.250000  0.634738  0.436457  1
  Nb  Nb7  1  0.750000  0.360074  0.558862  1
  Si  Si8  1  0.750000  0.740192  0.640369  1
  P  P9  1  0.250000  0.761465  0.140923  1
  P  P10  1  0.750000  0.238819  0.857627  1
  P  P11  1  0.250000  0.258404  0.358228  1
