# generated using pymatgen
data_DyEr2RuO7
_symmetry_space_group_name_H-M   'P 1'
_cell_length_a   6.39539961
_cell_length_b   6.39540112
_cell_length_c   7.40198100
_cell_angle_alpha   90.00000000
_cell_angle_beta   90.00000000
_cell_angle_gamma   109.17169905
_symmetry_Int_Tables_number   1
_chemical_formula_structural   DyEr2RuO7
_chemical_formula_sum   'Dy2 Er4 Ru2 O14'
_cell_volume   285.95862203
_cell_formula_units_Z   2
loop_
 _symmetry_equiv_pos_site_id
 _symmetry_equiv_pos_as_xyz
  1  'x, y, z'
loop_
 _atom_site_type_symbol
 _atom_site_label
 _atom_site_symmetry_multiplicity
 _atom_site_fract_x
 _atom_site_fract_y
 _atom_site_fract_z
 _atom_site_occupancy
  Dy  Dy0  1  0.514551  0.514551  0.500000  1
  Dy  Dy1  1  0.485449  0.485449  0.000000  1
  Er  Er2  1  0.000630  0.463877  0.747364  1
  Er  Er3  1  0.999370  0.536123  0.247364  1
  Er  Er4  1  0.536123  0.999370  0.752636  1
  Er  Er5  1  0.463877  0.000630  0.252636  1
  Ru  Ru6  1  0.999887  0.999887  0.500000  1
  Ru  Ru7  1  0.000113  0.000113  0.000000  1
  O  O8  1  0.638397  0.361603  0.750000  1
  O  O9  1  0.361603  0.638397  0.250000  1
  O  O10  1  0.927857  0.072143  0.750000  1
  O  O11  1  0.072143  0.927857  0.250000  1
  O  O12  1  0.921900  0.674538  0.528165  1
  O  O13  1  0.078100  0.325462  0.028165  1
  O  O14  1  0.325462  0.078100  0.971835  1
  O  O15  1  0.674538  0.921900  0.471835  1
  O  O16  1  0.368058  0.631942  0.750000  1
  O  O17  1  0.631942  0.368058  0.250000  1
  O  O18  1  0.933317  0.682278  0.966521  1
  O  O19  1  0.066683  0.317722  0.466521  1
  O  O20  1  0.317722  0.066683  0.533479  1
  O  O21  1  0.682278  0.933317  0.033479  1
