# generated using pymatgen
data_CaEr3Tm4(B6Os)4
_symmetry_space_group_name_H-M   'P 1'
_cell_length_a   3.62315700
_cell_length_b   9.09748904
_cell_length_c   11.48590284
_cell_angle_alpha   89.90636011
_cell_angle_beta   90.00000000
_cell_angle_gamma   90.00000000
_symmetry_Int_Tables_number   1
_chemical_formula_structural   CaEr3Tm4(B6Os)4
_chemical_formula_sum   'Ca1 Er3 Tm4 B24 Os4'
_cell_volume   378.59358635
_cell_formula_units_Z   1
loop_
 _symmetry_equiv_pos_site_id
 _symmetry_equiv_pos_as_xyz
  1  'x, y, z'
loop_
 _atom_site_type_symbol
 _atom_site_label
 _atom_site_symmetry_multiplicity
 _atom_site_fract_x
 _atom_site_fract_y
 _atom_site_fract_z
 _atom_site_occupancy
  Ca  Ca0  1  0.000000  0.321762  0.413654  1
  Er  Er1  1  0.000000  0.676920  0.585183  1
  Er  Er2  1  0.000000  0.821757  0.086573  1
  Er  Er3  1  0.000000  0.178820  0.914416  1
  Tm  Tm4  1  0.000000  0.944048  0.372019  1
  Tm  Tm5  1  0.000000  0.057416  0.627356  1
  Tm  Tm6  1  0.000000  0.443271  0.128432  1
  Tm  Tm7  1  0.000000  0.556146  0.873005  1
  B  B8  1  0.500000  0.554401  0.432876  1
  B  B9  1  0.500000  0.446696  0.567696  1
  B  B10  1  0.500000  0.052899  0.066137  1
  B  B11  1  0.500000  0.946152  0.932874  1
  B  B12  1  0.500000  0.749056  0.419416  1
  B  B13  1  0.500000  0.251385  0.581539  1
  B  B14  1  0.500000  0.248240  0.080132  1
  B  B15  1  0.500000  0.751160  0.919749  1
  B  B16  1  0.500000  0.792149  0.265932  1
  B  B17  1  0.500000  0.208895  0.734611  1
  B  B18  1  0.500000  0.290327  0.233077  1
  B  B19  1  0.500000  0.708796  0.766242  1
  B  B20  1  0.500000  0.631699  0.185325  1
  B  B21  1  0.500000  0.369041  0.815612  1
  B  B22  1  0.500000  0.130238  0.313851  1
  B  B23  1  0.500000  0.868886  0.684962  1
  B  B24  1  0.500000  0.982148  0.212106  1
  B  B25  1  0.500000  0.017556  0.786965  1
  B  B26  1  0.500000  0.483301  0.286946  1
  B  B27  1  0.500000  0.517640  0.713337  1
  B  B28  1  0.500000  0.606289  0.029549  1
  B  B29  1  0.500000  0.393997  0.970999  1
  B  B30  1  0.500000  0.102321  0.471550  1
  B  B31  1  0.500000  0.895611  0.528888  1
  Os  Os32  1  0.000000  0.640096  0.320083  1
  Os  Os33  1  0.000000  0.362295  0.680802  1
  Os  Os34  1  0.000000  0.135983  0.176935  1
  Os  Os35  1  0.000000  0.862601  0.821172  1
