# generated using pymatgen
data_YEr11Co5Sn
_symmetry_space_group_name_H-M   'P 1'
_cell_length_a   8.18547974
_cell_length_b   8.19763794
_cell_length_c   8.19763895
_cell_angle_alpha   106.99175521
_cell_angle_beta   110.83397722
_cell_angle_gamma   110.68047740
_symmetry_Int_Tables_number   1
_chemical_formula_structural   YEr11Co5Sn
_chemical_formula_sum   'Y1 Er11 Co5 Sn1'
_cell_volume   422.51091893
_cell_formula_units_Z   1
loop_
 _symmetry_equiv_pos_site_id
 _symmetry_equiv_pos_as_xyz
  1  'x, y, z'
loop_
 _atom_site_type_symbol
 _atom_site_label
 _atom_site_symmetry_multiplicity
 _atom_site_fract_x
 _atom_site_fract_y
 _atom_site_fract_z
 _atom_site_occupancy
  Y  Y0  1  0.476949  0.290005  0.186944  1
  Er  Er1  1  0.193114  0.209310  0.403634  1
  Er  Er2  1  0.807544  0.791695  0.598484  1
  Er  Er3  1  0.193114  0.789481  0.983804  1
  Er  Er4  1  0.807544  0.209060  0.015851  1
  Er  Er5  1  0.104578  0.290901  0.813677  1
  Er  Er6  1  0.895593  0.710002  0.185590  1
  Er  Er7  1  0.524396  0.709952  0.814443  1
  Er  Er8  1  0.305517  0.619618  0.313671  1
  Er  Er9  1  0.305517  0.991847  0.685899  1
  Er  Er10  1  0.694836  0.380956  0.687514  1
  Er  Er11  1  0.694836  0.007320  0.313879  1
  Co  Co12  1  0.499188  0.613819  0.111059  1
  Co  Co13  1  0.499188  0.388129  0.885370  1
  Co  Co14  1  0.376273  0.999523  0.376749  1
  Co  Co15  1  0.623230  0.999849  0.623381  1
  Co  Co16  1  0.999071  0.998703  0.000368  1
  Sn  Sn17  1  0.999513  0.499830  0.499683  1
