# generated using pymatgen
data_Dy3Tm3(AlC3)2
_symmetry_space_group_name_H-M   'P 1'
_cell_length_a   3.54412500
_cell_length_b   7.00872450
_cell_length_c   9.91155308
_cell_angle_alpha   89.85504378
_cell_angle_beta   90.00000000
_cell_angle_gamma   90.00000000
_symmetry_Int_Tables_number   1
_chemical_formula_structural   Dy3Tm3(AlC3)2
_chemical_formula_sum   'Dy3 Tm3 Al2 C6'
_cell_volume   246.20016592
_cell_formula_units_Z   1
loop_
 _symmetry_equiv_pos_site_id
 _symmetry_equiv_pos_as_xyz
  1  'x, y, z'
loop_
 _atom_site_type_symbol
 _atom_site_label
 _atom_site_symmetry_multiplicity
 _atom_site_fract_x
 _atom_site_fract_y
 _atom_site_fract_z
 _atom_site_occupancy
  Dy  Dy0  1  0.500000  0.509340  0.199534  1
  Dy  Dy1  1  0.000000  0.750530  0.459660  1
  Dy  Dy2  1  0.000000  0.250203  0.540516  1
  Tm  Tm3  1  0.500000  0.486235  0.800316  1
  Tm  Tm4  1  0.500000  0.987239  0.200603  1
  Tm  Tm5  1  0.500000  0.012948  0.798843  1
  Al  Al6  1  0.000000  0.753242  0.002815  1
  Al  Al7  1  0.000000  0.246238  0.995230  1
  C  C8  1  0.500000  0.509665  0.568543  1
  C  C9  1  0.500000  0.491377  0.435319  1
  C  C10  1  0.500000  0.991257  0.566659  1
  C  C11  1  0.500000  0.009249  0.433277  1
  C  C12  1  0.000000  0.752869  0.207278  1
  C  C13  1  0.000000  0.249607  0.791408  1
