# generated using pymatgen
data_TbEr7Ga3Co
_symmetry_space_group_name_H-M   'P 1'
_cell_length_a   9.93185500
_cell_length_b   9.93185548
_cell_length_c   6.91345500
_cell_angle_alpha   90.00000000
_cell_angle_beta   90.00000000
_cell_angle_gamma   120.00000174
_symmetry_Int_Tables_number   1
_chemical_formula_structural   TbEr7Ga3Co
_chemical_formula_sum   'Tb2 Er14 Ga6 Co2'
_cell_volume   590.59059443
_cell_formula_units_Z   2
loop_
 _symmetry_equiv_pos_site_id
 _symmetry_equiv_pos_as_xyz
  1  'x, y, z'
loop_
 _atom_site_type_symbol
 _atom_site_label
 _atom_site_symmetry_multiplicity
 _atom_site_fract_x
 _atom_site_fract_y
 _atom_site_fract_z
 _atom_site_occupancy
  Tb  Tb0  1  0.000000  0.000000  0.769301  1
  Tb  Tb1  1  0.000000  0.000000  0.269301  1
  Er  Er2  1  0.825990  0.651980  0.488907  1
  Er  Er3  1  0.348020  0.174010  0.488907  1
  Er  Er4  1  0.825990  0.174010  0.488907  1
  Er  Er5  1  0.174010  0.348020  0.988907  1
  Er  Er6  1  0.651980  0.825990  0.988907  1
  Er  Er7  1  0.174010  0.825990  0.988907  1
  Er  Er8  1  0.666667  0.333333  0.172007  1
  Er  Er9  1  0.333333  0.666667  0.672007  1
  Er  Er10  1  0.536645  0.073290  0.792651  1
  Er  Er11  1  0.926710  0.463355  0.792651  1
  Er  Er12  1  0.536645  0.463355  0.792651  1
  Er  Er13  1  0.463355  0.926710  0.292651  1
  Er  Er14  1  0.073290  0.536645  0.292651  1
  Er  Er15  1  0.463355  0.536645  0.292651  1
  Ga  Ga16  1  0.835987  0.671975  0.040235  1
  Ga  Ga17  1  0.328025  0.164013  0.040235  1
  Ga  Ga18  1  0.835987  0.164013  0.040235  1
  Ga  Ga19  1  0.164013  0.328025  0.540235  1
  Ga  Ga20  1  0.671975  0.835987  0.540235  1
  Ga  Ga21  1  0.164013  0.835987  0.540235  1
  Co  Co22  1  0.666667  0.333333  0.556350  1
  Co  Co23  1  0.333333  0.666667  0.056350  1
