# generated using pymatgen
data_ThBe12Pd
_symmetry_space_group_name_H-M   'P 1'
_cell_length_a   7.44137136
_cell_length_b   7.43671439
_cell_length_c   7.51538960
_cell_angle_alpha   119.70137689
_cell_angle_beta   90.27753201
_cell_angle_gamma   120.30169483
_symmetry_Int_Tables_number   1
_chemical_formula_structural   ThBe12Pd
_chemical_formula_sum   'Th2 Be24 Pd2'
_cell_volume   293.34165584
_cell_formula_units_Z   2
loop_
 _symmetry_equiv_pos_site_id
 _symmetry_equiv_pos_as_xyz
  1  'x, y, z'
loop_
 _atom_site_type_symbol
 _atom_site_label
 _atom_site_symmetry_multiplicity
 _atom_site_fract_x
 _atom_site_fract_y
 _atom_site_fract_z
 _atom_site_occupancy
  Th  Th0  1  0.753248  0.506195  0.257962  1
  Th  Th1  1  0.247055  0.497558  0.747488  1
  Be  Be2  1  0.998860  0.001233  0.998088  1
  Be  Be3  1  0.057875  0.352818  0.060902  1
  Be  Be4  1  0.427636  0.650700  0.225215  1
  Be  Be5  1  0.569944  0.005570  0.228446  1
  Be  Be6  1  0.212345  0.774489  0.218357  1
  Be  Be7  1  0.073336  0.007502  0.295730  1
  Be  Be8  1  0.937933  0.228404  0.292983  1
  Be  Be9  1  0.291171  0.361588  0.299741  1
  Be  Be10  1  0.437823  0.223271  0.441419  1
  Be  Be11  1  0.211657  0.648489  0.434461  1
  Be  Be12  1  0.787228  0.003601  0.442542  1
  Be  Be13  1  0.499496  0.000346  0.503723  1
  Be  Be14  1  0.213219  0.999829  0.564439  1
  Be  Be15  1  0.563436  0.778774  0.564253  1
  Be  Be16  1  0.787659  0.351392  0.565291  1
  Be  Be17  1  0.709737  0.645408  0.700043  1
  Be  Be18  1  0.058727  0.768489  0.698998  1
  Be  Be19  1  0.938310  0.001382  0.708158  1
  Be  Be20  1  0.561707  0.338772  0.774690  1
  Be  Be21  1  0.437697  0.997081  0.776624  1
  Be  Be22  1  0.786431  0.219604  0.782965  1
  Be  Be23  1  0.294220  0.243016  0.937064  1
  Be  Be24  1  0.705786  0.005601  0.937559  1
  Be  Be25  1  0.936309  0.634172  0.928179  1
  Pd  Pd26  1  0.303723  0.003571  0.057740  1
  Pd  Pd27  1  0.697430  0.751145  0.056941  1
