# generated using pymatgen
data_DyY7Ti3Si16W9
_symmetry_space_group_name_H-M   'P 1'
_cell_length_a   6.91220586
_cell_length_b   6.91202248
_cell_length_c   12.83451901
_cell_angle_alpha   90.02513376
_cell_angle_beta   89.97060725
_cell_angle_gamma   89.87394000
_symmetry_Int_Tables_number   1
_chemical_formula_structural   DyY7Ti3Si16W9
_chemical_formula_sum   'Dy1 Y7 Ti3 Si16 W9'
_cell_volume   613.19732642
_cell_formula_units_Z   1
loop_
 _symmetry_equiv_pos_site_id
 _symmetry_equiv_pos_as_xyz
  1  'x, y, z'
loop_
 _atom_site_type_symbol
 _atom_site_label
 _atom_site_symmetry_multiplicity
 _atom_site_fract_x
 _atom_site_fract_y
 _atom_site_fract_z
 _atom_site_occupancy
  Dy  Dy0  1  0.339834  0.000990  0.468873  1
  Y  Y1  1  0.998052  0.660737  0.031307  1
  Y  Y2  1  0.001061  0.339733  0.531127  1
  Y  Y3  1  0.660745  0.998036  0.968702  1
  Y  Y4  1  0.161964  0.503121  0.780738  1
  Y  Y5  1  0.838174  0.500423  0.282427  1
  Y  Y6  1  0.503131  0.161917  0.219280  1
  Y  Y7  1  0.500401  0.838166  0.717564  1
  Ti  Ti8  1  0.829382  0.168434  0.748524  1
  Ti  Ti9  1  0.168433  0.829429  0.251496  1
  Ti  Ti10  1  0.331054  0.331067  0.000002  1
  Si  Si11  1  0.036715  0.711526  0.437799  1
  Si  Si12  1  0.959346  0.290010  0.936081  1
  Si  Si13  1  0.711356  0.036671  0.562146  1
  Si  Si14  1  0.208770  0.460406  0.186181  1
  Si  Si15  1  0.790167  0.540523  0.685841  1
  Si  Si16  1  0.460388  0.208787  0.813811  1
  Si  Si17  1  0.540489  0.790299  0.314205  1
  Si  Si18  1  0.289990  0.959343  0.063937  1
  Si  Si19  1  0.800016  0.871141  0.183449  1
  Si  Si20  1  0.302123  0.626326  0.566260  1
  Si  Si21  1  0.700768  0.371458  0.066313  1
  Si  Si22  1  0.626221  0.301975  0.433751  1
  Si  Si23  1  0.371470  0.700758  0.933695  1
  Si  Si24  1  0.127860  0.202642  0.315904  1
  Si  Si25  1  0.202792  0.127807  0.684107  1
  Si  Si26  1  0.871116  0.799998  0.816574  1
  W  W27  1  0.334324  0.505803  0.374913  1
  W  W28  1  0.841452  0.997283  0.373367  1
  W  W29  1  0.006303  0.160636  0.125680  1
  W  W30  1  0.997345  0.841452  0.626586  1
  W  W31  1  0.505816  0.334254  0.625050  1
  W  W32  1  0.160669  0.006321  0.874326  1
  W  W33  1  0.668055  0.668303  0.499990  1
  W  W34  1  0.494091  0.660137  0.124857  1
  W  W35  1  0.660128  0.494091  0.875134  1
