# generated using pymatgen
data_Sc2AlB2Ru5
_symmetry_space_group_name_H-M   'P 1'
_cell_length_a   9.37578800
_cell_length_b   9.37578800
_cell_length_c   3.03284000
_cell_angle_alpha   90.00000000
_cell_angle_beta   90.00000000
_cell_angle_gamma   90.00000000
_symmetry_Int_Tables_number   1
_chemical_formula_structural   Sc2AlB2Ru5
_chemical_formula_sum   'Sc4 Al2 B4 Ru10'
_cell_volume   266.60301522
_cell_formula_units_Z   2
loop_
 _symmetry_equiv_pos_site_id
 _symmetry_equiv_pos_as_xyz
  1  'x, y, z'
loop_
 _atom_site_type_symbol
 _atom_site_label
 _atom_site_symmetry_multiplicity
 _atom_site_fract_x
 _atom_site_fract_y
 _atom_site_fract_z
 _atom_site_occupancy
  Sc  Sc0  1  0.674751  0.174751  0.000000  1
  Sc  Sc1  1  0.325249  0.825249  0.000000  1
  Sc  Sc2  1  0.174751  0.325249  0.000000  1
  Sc  Sc3  1  0.825249  0.674751  0.000000  1
  Al  Al4  1  0.000000  0.000000  0.000000  1
  Al  Al5  1  0.500000  0.500000  0.000000  1
  B  B6  1  0.124915  0.624915  0.000000  1
  B  B7  1  0.875085  0.375085  0.000000  1
  B  B8  1  0.624915  0.875085  0.000000  1
  B  B9  1  0.375085  0.124915  0.000000  1
  Ru  Ru10  1  0.214264  0.070795  0.500000  1
  Ru  Ru11  1  0.785736  0.929205  0.500000  1
  Ru  Ru12  1  0.070795  0.785736  0.500000  1
  Ru  Ru13  1  0.714264  0.429205  0.500000  1
  Ru  Ru14  1  0.929205  0.214264  0.500000  1
  Ru  Ru15  1  0.285736  0.570795  0.500000  1
  Ru  Ru16  1  0.570795  0.714264  0.500000  1
  Ru  Ru17  1  0.429205  0.285736  0.500000  1
  Ru  Ru18  1  0.500000  0.000000  0.500000  1
  Ru  Ru19  1  0.000000  0.500000  0.500000  1
