# generated using pymatgen
data_La2Lu3Pb4
_symmetry_space_group_name_H-M   'P 1'
_cell_length_a   8.29237700
_cell_length_b   8.36571800
_cell_length_c   15.73621200
_cell_angle_alpha   90.00000000
_cell_angle_beta   90.00000000
_cell_angle_gamma   90.00000000
_symmetry_Int_Tables_number   1
_chemical_formula_structural   La2Lu3Pb4
_chemical_formula_sum   'La8 Lu12 Pb16'
_cell_volume   1091.64758180
_cell_formula_units_Z   4
loop_
 _symmetry_equiv_pos_site_id
 _symmetry_equiv_pos_as_xyz
  1  'x, y, z'
loop_
 _atom_site_type_symbol
 _atom_site_label
 _atom_site_symmetry_multiplicity
 _atom_site_fract_x
 _atom_site_fract_y
 _atom_site_fract_z
 _atom_site_occupancy
  La  La0  1  0.023839  0.177412  0.096355  1
  La  La1  1  0.523839  0.322588  0.403645  1
  La  La2  1  0.476161  0.677412  0.903645  1
  La  La3  1  0.976161  0.822588  0.596355  1
  La  La4  1  0.976161  0.822588  0.903645  1
  La  La5  1  0.476161  0.677412  0.596355  1
  La  La6  1  0.523839  0.322588  0.096355  1
  La  La7  1  0.023839  0.177412  0.403645  1
  Lu  Lu8  1  0.863347  0.656624  0.123261  1
  Lu  Lu9  1  0.363347  0.843376  0.376739  1
  Lu  Lu10  1  0.636653  0.156624  0.876739  1
  Lu  Lu11  1  0.136653  0.343376  0.623261  1
  Lu  Lu12  1  0.136653  0.343376  0.876739  1
  Lu  Lu13  1  0.636653  0.156624  0.623261  1
  Lu  Lu14  1  0.363347  0.843376  0.123261  1
  Lu  Lu15  1  0.863347  0.656624  0.376739  1
  Lu  Lu16  1  0.698014  0.992761  0.250000  1
  Lu  Lu17  1  0.198014  0.507239  0.250000  1
  Lu  Lu18  1  0.801986  0.492761  0.750000  1
  Lu  Lu19  1  0.301986  0.007239  0.750000  1
  Pb  Pb20  1  0.059242  0.869445  0.250000  1
  Pb  Pb21  1  0.559242  0.630555  0.250000  1
  Pb  Pb22  1  0.440758  0.369445  0.750000  1
  Pb  Pb23  1  0.940758  0.130555  0.750000  1
  Pb  Pb24  1  0.835953  0.351635  0.250000  1
  Pb  Pb25  1  0.335953  0.148365  0.250000  1
  Pb  Pb26  1  0.664047  0.851635  0.750000  1
  Pb  Pb27  1  0.164047  0.648365  0.750000  1
  Pb  Pb28  1  0.799028  0.456981  0.954674  1
  Pb  Pb29  1  0.299028  0.043019  0.545326  1
  Pb  Pb30  1  0.700972  0.956981  0.045326  1
  Pb  Pb31  1  0.200972  0.543019  0.454674  1
  Pb  Pb32  1  0.200972  0.543019  0.045326  1
  Pb  Pb33  1  0.700972  0.956981  0.454674  1
  Pb  Pb34  1  0.299028  0.043019  0.954674  1
  Pb  Pb35  1  0.799028  0.456981  0.545326  1
