# generated using pymatgen
data_Yb3Sc5(B6Os)4
_symmetry_space_group_name_H-M   'P 1'
_cell_length_a   3.52761900
_cell_length_b   8.95131809
_cell_length_c   11.32145831
_cell_angle_alpha   90.00832201
_cell_angle_beta   90.00000000
_cell_angle_gamma   90.00000000
_symmetry_Int_Tables_number   1
_chemical_formula_structural   Yb3Sc5(B6Os)4
_chemical_formula_sum   'Yb3 Sc5 B24 Os4'
_cell_volume   357.49587139
_cell_formula_units_Z   1
loop_
 _symmetry_equiv_pos_site_id
 _symmetry_equiv_pos_as_xyz
  1  'x, y, z'
loop_
 _atom_site_type_symbol
 _atom_site_label
 _atom_site_symmetry_multiplicity
 _atom_site_fract_x
 _atom_site_fract_y
 _atom_site_fract_z
 _atom_site_occupancy
  Yb  Yb0  1  0.000000  0.322466  0.414481  1
  Yb  Yb1  1  0.000000  0.677291  0.585579  1
  Yb  Yb2  1  0.000000  0.821750  0.085344  1
  Sc  Sc3  1  0.000000  0.178230  0.914963  1
  Sc  Sc4  1  0.000000  0.942881  0.369094  1
  Sc  Sc5  1  0.000000  0.056929  0.630276  1
  Sc  Sc6  1  0.000000  0.443844  0.128506  1
  Sc  Sc7  1  0.000000  0.556159  0.871609  1
  B  B8  1  0.500000  0.553798  0.433084  1
  B  B9  1  0.500000  0.445055  0.568320  1
  B  B10  1  0.500000  0.054525  0.064982  1
  B  B11  1  0.500000  0.947394  0.933540  1
  B  B12  1  0.500000  0.752598  0.417824  1
  B  B13  1  0.500000  0.247167  0.582738  1
  B  B14  1  0.500000  0.252461  0.079334  1
  B  B15  1  0.500000  0.747776  0.918278  1
  B  B16  1  0.500000  0.794213  0.263825  1
  B  B17  1  0.500000  0.205050  0.737769  1
  B  B18  1  0.500000  0.294486  0.234146  1
  B  B19  1  0.500000  0.706682  0.764813  1
  B  B20  1  0.500000  0.629289  0.182926  1
  B  B21  1  0.500000  0.369019  0.819069  1
  B  B22  1  0.500000  0.129921  0.315511  1
  B  B23  1  0.500000  0.871310  0.683220  1
  B  B24  1  0.500000  0.981299  0.211838  1
  B  B25  1  0.500000  0.020271  0.788094  1
  B  B26  1  0.500000  0.481173  0.286692  1
  B  B27  1  0.500000  0.518093  0.714396  1
  B  B28  1  0.500000  0.595945  0.026002  1
  B  B29  1  0.500000  0.401044  0.973225  1
  B  B30  1  0.500000  0.095358  0.473929  1
  B  B31  1  0.500000  0.905248  0.525709  1
  Os  Os32  1  0.000000  0.640290  0.317980  1
  Os  Os33  1  0.000000  0.357635  0.684516  1
  Os  Os34  1  0.000000  0.139919  0.178835  1
  Os  Os35  1  0.000000  0.863431  0.819555  1
