# generated using pymatgen
data_Pr3Dy5(CdPt)2
_symmetry_space_group_name_H-M   'P 1'
_cell_length_a   9.82309405
_cell_length_b   9.82309428
_cell_length_c   9.82309400
_cell_angle_alpha   60.00000094
_cell_angle_beta   60.00000015
_cell_angle_gamma   60.00000089
_symmetry_Int_Tables_number   1
_chemical_formula_structural   Pr3Dy5(CdPt)2
_chemical_formula_sum   'Pr6 Dy10 Cd4 Pt4'
_cell_volume   670.23935154
_cell_formula_units_Z   2
loop_
 _symmetry_equiv_pos_site_id
 _symmetry_equiv_pos_as_xyz
  1  'x, y, z'
loop_
 _atom_site_type_symbol
 _atom_site_label
 _atom_site_symmetry_multiplicity
 _atom_site_fract_x
 _atom_site_fract_y
 _atom_site_fract_z
 _atom_site_occupancy
  Pr  Pr0  1  0.938115  0.561885  0.561885  1
  Pr  Pr1  1  0.561885  0.938115  0.938115  1
  Pr  Pr2  1  0.561885  0.938115  0.561885  1
  Pr  Pr3  1  0.938115  0.561885  0.938115  1
  Pr  Pr4  1  0.561885  0.561885  0.938115  1
  Pr  Pr5  1  0.938115  0.938115  0.561885  1
  Dy  Dy6  1  0.349648  0.349648  0.349648  1
  Dy  Dy7  1  0.349648  0.349648  0.951056  1
  Dy  Dy8  1  0.349648  0.951056  0.349648  1
  Dy  Dy9  1  0.951056  0.349648  0.349648  1
  Dy  Dy10  1  0.811488  0.188512  0.188512  1
  Dy  Dy11  1  0.188512  0.811488  0.811488  1
  Dy  Dy12  1  0.188512  0.811488  0.188512  1
  Dy  Dy13  1  0.811488  0.188512  0.811488  1
  Dy  Dy14  1  0.188512  0.188512  0.811488  1
  Dy  Dy15  1  0.811488  0.811488  0.188512  1
  Cd  Cd16  1  0.579454  0.579454  0.579454  1
  Cd  Cd17  1  0.579454  0.579454  0.261636  1
  Cd  Cd18  1  0.579454  0.261636  0.579454  1
  Cd  Cd19  1  0.261636  0.579454  0.579454  1
  Pt  Pt20  1  0.142437  0.142437  0.142437  1
  Pt  Pt21  1  0.142437  0.142437  0.572688  1
  Pt  Pt22  1  0.142437  0.572688  0.142437  1
  Pt  Pt23  1  0.572688  0.142437  0.142437  1
