# generated using pymatgen
data_AcCu9Sn4
_symmetry_space_group_name_H-M   'P 1'
_cell_length_a   8.77933572
_cell_length_b   8.77933571
_cell_length_c   8.77933605
_cell_angle_alpha   120.52365174
_cell_angle_beta   120.52364733
_cell_angle_gamma   89.09538455
_symmetry_Int_Tables_number   1
_chemical_formula_structural   AcCu9Sn4
_chemical_formula_sum   'Ac2 Cu18 Sn8'
_cell_volume   474.63546092
_cell_formula_units_Z   2
loop_
 _symmetry_equiv_pos_site_id
 _symmetry_equiv_pos_as_xyz
  1  'x, y, z'
loop_
 _atom_site_type_symbol
 _atom_site_label
 _atom_site_symmetry_multiplicity
 _atom_site_fract_x
 _atom_site_fract_y
 _atom_site_fract_z
 _atom_site_occupancy
  Ac  Ac0  1  0.250000  0.250000  0.000000  1
  Ac  Ac1  1  0.750000  0.750000  0.000000  1
  Cu  Cu2  1  0.553744  0.700383  0.254126  1
  Cu  Cu3  1  0.799617  0.946256  0.745874  1
  Cu  Cu4  1  0.946256  0.200383  0.146638  1
  Cu  Cu5  1  0.200383  0.053744  0.254126  1
  Cu  Cu6  1  0.565018  0.282142  0.500000  1
  Cu  Cu7  1  0.717858  0.217858  0.282876  1
  Cu  Cu8  1  0.217858  0.934982  0.500000  1
  Cu  Cu9  1  0.782142  0.065018  0.500000  1
  Cu  Cu10  1  0.934982  0.434982  0.717124  1
  Cu  Cu11  1  0.065018  0.565018  0.282876  1
  Cu  Cu12  1  0.446256  0.299617  0.745874  1
  Cu  Cu13  1  0.053744  0.799617  0.853362  1
  Cu  Cu14  1  0.434982  0.717858  0.500000  1
  Cu  Cu15  1  0.700383  0.446256  0.146638  1
  Cu  Cu16  1  0.500000  0.000000  0.500000  1
  Cu  Cu17  1  0.282142  0.782142  0.717124  1
  Cu  Cu18  1  0.299617  0.553744  0.853362  1
  Cu  Cu19  1  0.000000  0.500000  0.500000  1
  Sn  Sn20  1  0.558609  0.058609  0.869177  1
  Sn  Sn21  1  0.810567  0.310567  0.869177  1
  Sn  Sn22  1  0.941391  0.810567  0.500000  1
  Sn  Sn23  1  0.689433  0.558609  0.500000  1
  Sn  Sn24  1  0.189433  0.689433  0.130823  1
  Sn  Sn25  1  0.310567  0.441391  0.500000  1
  Sn  Sn26  1  0.058609  0.189433  0.500000  1
  Sn  Sn27  1  0.441391  0.941391  0.130823  1
