# generated using pymatgen
data_Er8Re11Si16Rh
_symmetry_space_group_name_H-M   'P 1'
_cell_length_a   6.74713342
_cell_length_b   6.74713292
_cell_length_c   12.78019831
_cell_angle_alpha   90.11241431
_cell_angle_beta   89.88758798
_cell_angle_gamma   90.53340025
_symmetry_Int_Tables_number   1
_chemical_formula_structural   Er8Re11Si16Rh
_chemical_formula_sum   'Er8 Re11 Si16 Rh1'
_cell_volume   581.77583783
_cell_formula_units_Z   1
loop_
 _symmetry_equiv_pos_site_id
 _symmetry_equiv_pos_as_xyz
  1  'x, y, z'
loop_
 _atom_site_type_symbol
 _atom_site_label
 _atom_site_symmetry_multiplicity
 _atom_site_fract_x
 _atom_site_fract_y
 _atom_site_fract_z
 _atom_site_occupancy
  Er  Er0  1  0.005981  0.660234  0.030002  1
  Er  Er1  1  0.994974  0.335610  0.532081  1
  Er  Er2  1  0.335610  0.994974  0.467919  1
  Er  Er3  1  0.165789  0.487826  0.781733  1
  Er  Er4  1  0.834427  0.510047  0.280310  1
  Er  Er5  1  0.487826  0.165789  0.218267  1
  Er  Er6  1  0.510047  0.834427  0.719690  1
  Er  Er7  1  0.660234  0.005981  0.969998  1
  Re  Re8  1  0.160851  0.839119  0.248506  1
  Re  Re9  1  0.334304  0.334304  0.000000  1
  Re  Re10  1  0.026675  0.806319  0.631998  1
  Re  Re11  1  0.974397  0.194907  0.133841  1
  Re  Re12  1  0.806319  0.026675  0.368002  1
  Re  Re13  1  0.315470  0.489698  0.380071  1
  Re  Re14  1  0.686649  0.512111  0.880223  1
  Re  Re15  1  0.489698  0.315470  0.619929  1
  Re  Re16  1  0.512111  0.686649  0.119777  1
  Re  Re17  1  0.194907  0.974397  0.866159  1
  Re  Re18  1  0.839119  0.160851  0.751494  1
  Si  Si19  1  0.020357  0.730805  0.438812  1
  Si  Si20  1  0.610910  0.306003  0.435228  1
  Si  Si21  1  0.387361  0.692497  0.934552  1
  Si  Si22  1  0.199443  0.112513  0.681591  1
  Si  Si23  1  0.306003  0.610910  0.564772  1
  Si  Si24  1  0.692497  0.387361  0.065448  1
  Si  Si25  1  0.801442  0.887346  0.182441  1
  Si  Si26  1  0.112513  0.199443  0.318409  1
  Si  Si27  1  0.983803  0.264740  0.939736  1
  Si  Si28  1  0.730805  0.020357  0.561188  1
  Si  Si29  1  0.219470  0.481730  0.188939  1
  Si  Si30  1  0.780672  0.515731  0.691590  1
  Si  Si31  1  0.481730  0.219470  0.811061  1
  Si  Si32  1  0.515731  0.780672  0.308410  1
  Si  Si33  1  0.264740  0.983803  0.060264  1
  Si  Si34  1  0.887346  0.801442  0.817559  1
  Rh  Rh35  1  0.669794  0.669794  0.500000  1
