# generated using pymatgen
data_HoEr5Co10(P3Ir2)4
_symmetry_space_group_name_H-M   'P 1'
_cell_length_a   3.76743500
_cell_length_b   10.78564100
_cell_length_c   12.47633100
_cell_angle_alpha   90.00000000
_cell_angle_beta   90.00000000
_cell_angle_gamma   90.00000000
_symmetry_Int_Tables_number   1
_chemical_formula_structural   HoEr5Co10(P3Ir2)4
_chemical_formula_sum   'Ho1 Er5 Co10 P12 Ir8'
_cell_volume   506.96574660
_cell_formula_units_Z   1
loop_
 _symmetry_equiv_pos_site_id
 _symmetry_equiv_pos_as_xyz
  1  'x, y, z'
loop_
 _atom_site_type_symbol
 _atom_site_label
 _atom_site_symmetry_multiplicity
 _atom_site_fract_x
 _atom_site_fract_y
 _atom_site_fract_z
 _atom_site_occupancy
  Ho  Ho0  1  0.500000  0.000000  0.478743  1
  Er  Er1  1  0.000000  0.500000  0.521407  1
  Er  Er2  1  0.500000  0.815709  0.197124  1
  Er  Er3  1  0.500000  0.184291  0.197124  1
  Er  Er4  1  0.000000  0.684235  0.802853  1
  Er  Er5  1  0.000000  0.315765  0.802853  1
  Co  Co6  1  0.000000  0.500000  0.991582  1
  Co  Co7  1  0.500000  0.000000  0.008213  1
  Co  Co8  1  0.500000  0.878912  0.716600  1
  Co  Co9  1  0.500000  0.121088  0.716600  1
  Co  Co10  1  0.000000  0.621064  0.283444  1
  Co  Co11  1  0.000000  0.378936  0.283444  1
  Co  Co12  1  0.500000  0.332716  0.995300  1
  Co  Co13  1  0.500000  0.667284  0.995300  1
  Co  Co14  1  0.000000  0.167399  0.004650  1
  Co  Co15  1  0.000000  0.832601  0.004650  1
  P  P16  1  0.500000  0.310233  0.625470  1
  P  P17  1  0.500000  0.689767  0.625470  1
  P  P18  1  0.000000  0.190002  0.374384  1
  P  P19  1  0.000000  0.809998  0.374384  1
  P  P20  1  0.500000  0.500000  0.894139  1
  P  P21  1  0.000000  0.000000  0.105763  1
  P  P22  1  0.500000  0.842351  0.896547  1
  P  P23  1  0.500000  0.157649  0.896547  1
  P  P24  1  0.000000  0.657412  0.103356  1
  P  P25  1  0.000000  0.342588  0.103356  1
  P  P26  1  0.500000  0.500000  0.344721  1
  P  P27  1  0.000000  0.000000  0.655645  1
  Ir  Ir28  1  0.500000  0.299235  0.426359  1
  Ir  Ir29  1  0.500000  0.700765  0.426359  1
  Ir  Ir30  1  0.000000  0.201240  0.573886  1
  Ir  Ir31  1  0.000000  0.798760  0.573886  1
  Ir  Ir32  1  0.500000  0.500000  0.159215  1
  Ir  Ir33  1  0.000000  0.000000  0.840935  1
  Ir  Ir34  1  0.500000  0.500000  0.708805  1
  Ir  Ir35  1  0.000000  0.000000  0.290887  1
