# generated using pymatgen
data_RbPd2O3
_symmetry_space_group_name_H-M   'P 1'
_cell_length_a   6.27113599
_cell_length_b   6.27113590
_cell_length_c   7.43610573
_cell_angle_alpha   65.06006225
_cell_angle_beta   114.93993777
_cell_angle_gamma   120.00000827
_symmetry_Int_Tables_number   1
_chemical_formula_structural   RbPd2O3
_chemical_formula_sum   'Rb2 Pd4 O6'
_cell_volume   221.21288233
_cell_formula_units_Z   2
loop_
 _symmetry_equiv_pos_site_id
 _symmetry_equiv_pos_as_xyz
  1  'x, y, z'
loop_
 _atom_site_type_symbol
 _atom_site_label
 _atom_site_symmetry_multiplicity
 _atom_site_fract_x
 _atom_site_fract_y
 _atom_site_fract_z
 _atom_site_occupancy
  Rb  Rb0  1  0.829927  0.170073  0.489782  1
  Rb  Rb1  1  0.170073  0.829928  0.510218  1
  Pd  Pd2  1  0.000000  0.000000  0.000000  1
  Pd  Pd3  1  0.499999  0.000000  0.000000  1
  Pd  Pd4  1  0.000000  0.500000  0.000000  1
  Pd  Pd5  1  0.500000  0.500000  0.000000  1
  O  O6  1  0.386392  0.116610  0.153172  1
  O  O7  1  0.883390  0.116610  0.153172  1
  O  O8  1  0.883390  0.613609  0.153172  1
  O  O9  1  0.116611  0.386392  0.846828  1
  O  O10  1  0.116611  0.883390  0.846828  1
  O  O11  1  0.613608  0.883390  0.846828  1
