# generated using pymatgen
data_U4Tc7GeAsP4
_symmetry_space_group_name_H-M   'P 1'
_cell_length_a   7.10631543
_cell_length_b   7.11038381
_cell_length_c   7.11038333
_cell_angle_alpha   109.61071854
_cell_angle_beta   109.42728465
_cell_angle_gamma   109.39884561
_symmetry_Int_Tables_number   1
_chemical_formula_structural   U4Tc7GeAsP4
_chemical_formula_sum   'U4 Tc7 Ge1 As1 P4'
_cell_volume   276.49227195
_cell_formula_units_Z   1
loop_
 _symmetry_equiv_pos_site_id
 _symmetry_equiv_pos_as_xyz
  1  'x, y, z'
loop_
 _atom_site_type_symbol
 _atom_site_label
 _atom_site_symmetry_multiplicity
 _atom_site_fract_x
 _atom_site_fract_y
 _atom_site_fract_z
 _atom_site_occupancy
  U  U0  1  0.498027  0.499910  0.496614  1
  U  U1  1  0.999609  0.001508  0.515757  1
  U  U2  1  0.498027  0.001413  0.998117  1
  U  U3  1  0.999609  0.483852  0.998101  1
  Tc  Tc4  1  0.752749  0.249795  0.502954  1
  Tc  Tc5  1  0.500613  0.247439  0.752260  1
  Tc  Tc6  1  0.500613  0.748355  0.253174  1
  Tc  Tc7  1  0.247773  0.497929  0.749844  1
  Tc  Tc8  1  0.752963  0.498003  0.254959  1
  Tc  Tc9  1  0.247716  0.744996  0.502720  1
  Tc  Tc10  1  0.002701  0.017888  0.984813  1
  Ge  Ge11  1  0.700721  0.698653  0.002068  1
  As  As12  1  0.297611  0.996929  0.300682  1
  P  P13  1  0.321693  0.320189  0.001504  1
  P  P14  1  0.999014  0.306999  0.310070  1
  P  P15  1  0.999014  0.688943  0.692014  1
  P  P16  1  0.681548  0.997197  0.684351  1
