# generated using pymatgen
data_Er12GaFe4Bi
_symmetry_space_group_name_H-M   'P 1'
_cell_length_a   8.30994228
_cell_length_b   8.30994084
_cell_length_c   8.30994192
_cell_angle_alpha   110.12419592
_cell_angle_beta   111.41153587
_cell_angle_gamma   106.91061699
_symmetry_Int_Tables_number   1
_chemical_formula_structural   Er12GaFe4Bi
_chemical_formula_sum   'Er12 Ga1 Fe4 Bi1'
_cell_volume   441.02899954
_cell_formula_units_Z   1
loop_
 _symmetry_equiv_pos_site_id
 _symmetry_equiv_pos_as_xyz
  1  'x, y, z'
loop_
 _atom_site_type_symbol
 _atom_site_label
 _atom_site_symmetry_multiplicity
 _atom_site_fract_x
 _atom_site_fract_y
 _atom_site_fract_z
 _atom_site_occupancy
  Er  Er0  1  0.282725  0.184140  0.466865  1
  Er  Er1  1  0.717275  0.815860  0.533135  1
  Er  Er2  1  0.282725  0.815860  0.098586  1
  Er  Er3  1  0.717275  0.184140  0.901414  1
  Er  Er4  1  0.616735  0.312753  0.303982  1
  Er  Er5  1  0.383265  0.687247  0.696018  1
  Er  Er6  1  0.008772  0.312753  0.696018  1
  Er  Er7  1  0.991228  0.687247  0.303982  1
  Er  Er8  1  0.222202  0.434450  0.212248  1
  Er  Er9  1  0.777798  0.565550  0.787752  1
  Er  Er10  1  0.222202  0.009955  0.787752  1
  Er  Er11  1  0.777798  0.990045  0.212248  1
  Ga  Ga12  1  0.000000  0.000000  0.000000  1
  Fe  Fe13  1  0.000000  0.384929  0.384929  1
  Fe  Fe14  1  0.000000  0.615071  0.615071  1
  Fe  Fe15  1  0.391796  0.891796  0.500000  1
  Fe  Fe16  1  0.608204  0.108204  0.500000  1
  Bi  Bi17  1  0.500000  0.500000  0.000000  1
