# generated using pymatgen
data_Np2U(ZnPt)3
_symmetry_space_group_name_H-M   'P 1'
_cell_length_a   7.00661496
_cell_length_b   7.00661400
_cell_length_c   4.12129800
_cell_angle_alpha   90.00000000
_cell_angle_beta   90.00000000
_cell_angle_gamma   119.69048333
_symmetry_Int_Tables_number   1
_chemical_formula_structural   Np2U(ZnPt)3
_chemical_formula_sum   'Np2 U1 Zn3 Pt3'
_cell_volume   175.76288860
_cell_formula_units_Z   1
loop_
 _symmetry_equiv_pos_site_id
 _symmetry_equiv_pos_as_xyz
  1  'x, y, z'
loop_
 _atom_site_type_symbol
 _atom_site_label
 _atom_site_symmetry_multiplicity
 _atom_site_fract_x
 _atom_site_fract_y
 _atom_site_fract_z
 _atom_site_occupancy
  Np  Np0  1  0.418939  0.998539  0.500000  1
  Np  Np1  1  0.998539  0.418939  0.500000  1
  U  U2  1  0.582730  0.582730  0.500000  1
  Zn  Zn3  1  0.762414  0.001278  0.000000  1
  Zn  Zn4  1  0.001278  0.762414  0.000000  1
  Zn  Zn5  1  0.235697  0.235697  0.000000  1
  Pt  Pt6  1  0.340049  0.664505  0.000000  1
  Pt  Pt7  1  0.664505  0.340049  0.000000  1
  Pt  Pt8  1  0.995849  0.995849  0.500000  1
