# generated using pymatgen
data_Y11Er5Cd4(OsPt)2
_symmetry_space_group_name_H-M   'P 1'
_cell_length_a   9.67706431
_cell_length_b   9.69694186
_cell_length_c   9.74445078
_cell_angle_alpha   59.50902964
_cell_angle_beta   59.58955996
_cell_angle_gamma   59.50253925
_symmetry_Int_Tables_number   1
_chemical_formula_structural   Y11Er5Cd4(OsPt)2
_chemical_formula_sum   'Y11 Er5 Cd4 Os2 Pt2'
_cell_volume   639.72151228
_cell_formula_units_Z   1
loop_
 _symmetry_equiv_pos_site_id
 _symmetry_equiv_pos_as_xyz
  1  'x, y, z'
loop_
 _atom_site_type_symbol
 _atom_site_label
 _atom_site_symmetry_multiplicity
 _atom_site_fract_x
 _atom_site_fract_y
 _atom_site_fract_z
 _atom_site_occupancy
  Y  Y0  1  0.187497  0.814187  0.805704  1
  Y  Y1  1  0.188549  0.813761  0.190522  1
  Y  Y2  1  0.814557  0.187422  0.806094  1
  Y  Y3  1  0.188270  0.188854  0.810289  1
  Y  Y4  1  0.808276  0.808163  0.191508  1
  Y  Y5  1  0.939591  0.556538  0.565906  1
  Y  Y6  1  0.557434  0.937476  0.939249  1
  Y  Y7  1  0.556801  0.939876  0.565396  1
  Y  Y8  1  0.937712  0.555928  0.940138  1
  Y  Y9  1  0.563028  0.561931  0.939608  1
  Y  Y10  1  0.940394  0.941026  0.559309  1
  Er  Er11  1  0.349174  0.348640  0.352097  1
  Er  Er12  1  0.350104  0.349383  0.950082  1
  Er  Er13  1  0.345577  0.957349  0.348849  1
  Er  Er14  1  0.956131  0.345732  0.349676  1
  Er  Er15  1  0.813606  0.189166  0.190035  1
  Cd  Cd16  1  0.579224  0.579253  0.579607  1
  Cd  Cd17  1  0.580013  0.580082  0.257821  1
  Cd  Cd18  1  0.580393  0.256252  0.580717  1
  Cd  Cd19  1  0.256138  0.580518  0.580629  1
  Os  Os20  1  0.142492  0.145805  0.140361  1
  Os  Os21  1  0.145986  0.145188  0.571113  1
  Pt  Pt22  1  0.146346  0.570898  0.142256  1
  Pt  Pt23  1  0.572709  0.146572  0.143037  1
