# generated using pymatgen
data_Nd8CdRh6
_symmetry_space_group_name_H-M   'P 1'
_cell_length_a   7.65336493
_cell_length_b   7.65336480
_cell_length_c   7.65336590
_cell_angle_alpha   69.88271469
_cell_angle_beta   69.88271438
_cell_angle_gamma   69.88270720
_symmetry_Int_Tables_number   1
_chemical_formula_structural   Nd8CdRh6
_chemical_formula_sum   'Nd8 Cd1 Rh6'
_cell_volume   382.09418585
_cell_formula_units_Z   1
loop_
 _symmetry_equiv_pos_site_id
 _symmetry_equiv_pos_as_xyz
  1  'x, y, z'
loop_
 _atom_site_type_symbol
 _atom_site_label
 _atom_site_symmetry_multiplicity
 _atom_site_fract_x
 _atom_site_fract_y
 _atom_site_fract_z
 _atom_site_occupancy
  Nd  Nd0  1  0.810850  0.810850  0.810850  1
  Nd  Nd1  1  0.189150  0.189150  0.189150  1
  Nd  Nd2  1  0.146260  0.386612  0.679232  1
  Nd  Nd3  1  0.679232  0.146260  0.386612  1
  Nd  Nd4  1  0.386612  0.679232  0.146260  1
  Nd  Nd5  1  0.853740  0.613388  0.320768  1
  Nd  Nd6  1  0.320768  0.853740  0.613388  1
  Nd  Nd7  1  0.613388  0.320768  0.853740  1
  Cd  Cd8  1  0.000000  0.000000  0.000000  1
  Rh  Rh9  1  0.948847  0.182431  0.576704  1
  Rh  Rh10  1  0.576704  0.948847  0.182431  1
  Rh  Rh11  1  0.182431  0.576704  0.948847  1
  Rh  Rh12  1  0.051153  0.817569  0.423296  1
  Rh  Rh13  1  0.423296  0.051153  0.817569  1
  Rh  Rh14  1  0.817569  0.423296  0.051153  1
