# generated using pymatgen
data_LaAl4SiPd2
_symmetry_space_group_name_H-M   'P 1'
_cell_length_a   5.95399000
_cell_length_b   5.95399000
_cell_length_c   8.33930200
_cell_angle_alpha   90.00000000
_cell_angle_beta   90.00000000
_cell_angle_gamma   90.00000000
_symmetry_Int_Tables_number   1
_chemical_formula_structural   LaAl4SiPd2
_chemical_formula_sum   'La2 Al8 Si2 Pd4'
_cell_volume   295.62823022
_cell_formula_units_Z   2
loop_
 _symmetry_equiv_pos_site_id
 _symmetry_equiv_pos_as_xyz
  1  'x, y, z'
loop_
 _atom_site_type_symbol
 _atom_site_label
 _atom_site_symmetry_multiplicity
 _atom_site_fract_x
 _atom_site_fract_y
 _atom_site_fract_z
 _atom_site_occupancy
  La  La0  1  0.750000  0.250000  0.500000  1
  La  La1  1  0.250000  0.750000  0.500000  1
  Al  Al2  1  0.495675  0.495675  0.173239  1
  Al  Al3  1  0.004325  0.495675  0.173239  1
  Al  Al4  1  0.495675  0.004325  0.173239  1
  Al  Al5  1  0.004325  0.004325  0.173239  1
  Al  Al6  1  0.995675  0.995675  0.826760  1
  Al  Al7  1  0.504325  0.995675  0.826760  1
  Al  Al8  1  0.995675  0.504325  0.826760  1
  Al  Al9  1  0.504325  0.504325  0.826760  1
  Si  Si10  1  0.750000  0.750000  0.357182  1
  Si  Si11  1  0.250000  0.250000  0.642819  1
  Pd  Pd12  1  0.750000  0.250000  0.000000  1
  Pd  Pd13  1  0.250000  0.750000  0.000000  1
  Pd  Pd14  1  0.250000  0.250000  0.352609  1
  Pd  Pd15  1  0.750000  0.750000  0.647392  1
