# generated using pymatgen
data_NdLuB6Ru
_symmetry_space_group_name_H-M   'P 1'
_cell_length_a   3.67812200
_cell_length_b   9.15566500
_cell_length_c   11.58466800
_cell_angle_alpha   90.00000000
_cell_angle_beta   90.00000000
_cell_angle_gamma   90.00000000
_symmetry_Int_Tables_number   1
_chemical_formula_structural   NdLuB6Ru
_chemical_formula_sum   'Nd4 Lu4 B24 Ru4'
_cell_volume   390.12125808
_cell_formula_units_Z   4
loop_
 _symmetry_equiv_pos_site_id
 _symmetry_equiv_pos_as_xyz
  1  'x, y, z'
loop_
 _atom_site_type_symbol
 _atom_site_label
 _atom_site_symmetry_multiplicity
 _atom_site_fract_x
 _atom_site_fract_y
 _atom_site_fract_z
 _atom_site_occupancy
  Nd  Nd0  1  0.000000  0.322331  0.414191  1
  Nd  Nd1  1  0.000000  0.677669  0.585809  1
  Nd  Nd2  1  0.000000  0.822331  0.085809  1
  Nd  Nd3  1  0.000000  0.177669  0.914191  1
  Lu  Lu4  1  0.000000  0.944347  0.372468  1
  Lu  Lu5  1  0.000000  0.055653  0.627532  1
  Lu  Lu6  1  0.000000  0.444347  0.127532  1
  Lu  Lu7  1  0.000000  0.555653  0.872468  1
  B  B8  1  0.500000  0.556469  0.430279  1
  B  B9  1  0.500000  0.443531  0.569721  1
  B  B10  1  0.500000  0.056469  0.069721  1
  B  B11  1  0.500000  0.943531  0.930279  1
  B  B12  1  0.500000  0.750857  0.417378  1
  B  B13  1  0.500000  0.249143  0.582622  1
  B  B14  1  0.500000  0.250857  0.082622  1
  B  B15  1  0.500000  0.749143  0.917378  1
  B  B16  1  0.500000  0.791415  0.266816  1
  B  B17  1  0.500000  0.208585  0.733184  1
  B  B18  1  0.500000  0.291415  0.233184  1
  B  B19  1  0.500000  0.708585  0.766816  1
  B  B20  1  0.500000  0.630020  0.184700  1
  B  B21  1  0.500000  0.369980  0.815300  1
  B  B22  1  0.500000  0.130020  0.315300  1
  B  B23  1  0.500000  0.869980  0.684700  1
  B  B24  1  0.500000  0.984986  0.214751  1
  B  B25  1  0.500000  0.015014  0.785249  1
  B  B26  1  0.500000  0.484986  0.285249  1
  B  B27  1  0.500000  0.515014  0.714751  1
  B  B28  1  0.500000  0.600865  0.027543  1
  B  B29  1  0.500000  0.399135  0.972457  1
  B  B30  1  0.500000  0.100865  0.472457  1
  B  B31  1  0.500000  0.899135  0.527543  1
  Ru  Ru32  1  0.000000  0.639843  0.318811  1
  Ru  Ru33  1  0.000000  0.360157  0.681189  1
  Ru  Ru34  1  0.000000  0.139843  0.181189  1
  Ru  Ru35  1  0.000000  0.860157  0.818811  1
