# generated using pymatgen
data_Y4HfSc3Ir4
_symmetry_space_group_name_H-M   'P 1'
_cell_length_a   4.37611900
_cell_length_b   7.10688347
_cell_length_c   8.55604394
_cell_angle_alpha   90.86648757
_cell_angle_beta   90.00000000
_cell_angle_gamma   90.00000000
_symmetry_Int_Tables_number   1
_chemical_formula_structural   Y4HfSc3Ir4
_chemical_formula_sum   'Y4 Hf1 Sc3 Ir4'
_cell_volume   266.06739612
_cell_formula_units_Z   1
loop_
 _symmetry_equiv_pos_site_id
 _symmetry_equiv_pos_as_xyz
  1  'x, y, z'
loop_
 _atom_site_type_symbol
 _atom_site_label
 _atom_site_symmetry_multiplicity
 _atom_site_fract_x
 _atom_site_fract_y
 _atom_site_fract_z
 _atom_site_occupancy
  Y  Y0  1  0.250000  0.980272  0.324640  1
  Y  Y1  1  0.250000  0.487610  0.173596  1
  Y  Y2  1  0.750000  0.016646  0.678737  1
  Y  Y3  1  0.750000  0.516803  0.825823  1
  Hf  Hf4  1  0.250000  0.356471  0.566311  1
  Sc  Sc5  1  0.250000  0.862051  0.933277  1
  Sc  Sc6  1  0.750000  0.638055  0.432391  1
  Sc  Sc7  1  0.750000  0.147287  0.067295  1
  Ir  Ir8  1  0.250000  0.238781  0.886670  1
  Ir  Ir9  1  0.250000  0.728859  0.600759  1
  Ir  Ir10  1  0.750000  0.767203  0.104605  1
  Ir  Ir11  1  0.750000  0.259960  0.405897  1
