# generated using pymatgen
data_Hf16ReOs3Pt4
_symmetry_space_group_name_H-M   'P 1'
_cell_length_a   8.82487118
_cell_length_b   8.81052659
_cell_length_c   8.81052700
_cell_angle_alpha   60.00000222
_cell_angle_beta   60.05375788
_cell_angle_gamma   60.05375855
_symmetry_Int_Tables_number   1
_chemical_formula_structural   Hf16ReOs3Pt4
_chemical_formula_sum   'Hf16 Re1 Os3 Pt4'
_cell_volume   484.78541733
_cell_formula_units_Z   1
loop_
 _symmetry_equiv_pos_site_id
 _symmetry_equiv_pos_as_xyz
  1  'x, y, z'
loop_
 _atom_site_type_symbol
 _atom_site_label
 _atom_site_symmetry_multiplicity
 _atom_site_fract_x
 _atom_site_fract_y
 _atom_site_fract_z
 _atom_site_occupancy
  Hf  Hf0  1  0.158217  0.613928  0.613928  1
  Hf  Hf1  1  0.613841  0.158293  0.613933  1
  Hf  Hf2  1  0.613841  0.613933  0.158293  1
  Hf  Hf3  1  0.613841  0.613933  0.613933  1
  Hf  Hf4  1  0.817596  0.817883  0.182261  1
  Hf  Hf5  1  0.183165  0.181017  0.817909  1
  Hf  Hf6  1  0.817596  0.182261  0.817883  1
  Hf  Hf7  1  0.183165  0.817909  0.181017  1
  Hf  Hf8  1  0.183165  0.817909  0.817909  1
  Hf  Hf9  1  0.817596  0.182261  0.182261  1
  Hf  Hf10  1  0.458747  0.459454  0.040900  1
  Hf  Hf11  1  0.041158  0.040741  0.459050  1
  Hf  Hf12  1  0.458747  0.040900  0.459454  1
  Hf  Hf13  1  0.041158  0.459050  0.040741  1
  Hf  Hf14  1  0.041158  0.459050  0.459050  1
  Hf  Hf15  1  0.458747  0.040900  0.040900  1
  Re  Re16  1  0.496268  0.834577  0.834577  1
  Os  Os17  1  0.834028  0.496649  0.834662  1
  Os  Os18  1  0.834028  0.834662  0.496649  1
  Os  Os19  1  0.834028  0.834662  0.834662  1
  Pt  Pt20  1  0.817613  0.394129  0.394129  1
  Pt  Pt21  1  0.394099  0.817209  0.394345  1
  Pt  Pt22  1  0.394099  0.394345  0.817209  1
  Pt  Pt23  1  0.394099  0.394345  0.394345  1
