# generated using pymatgen
data_La7Yb12DySi16
_symmetry_space_group_name_H-M   'P 1'
_cell_length_a   7.56576898
_cell_length_b   7.97223448
_cell_length_c   15.28991558
_cell_angle_alpha   89.94453295
_cell_angle_beta   89.92295448
_cell_angle_gamma   89.89508254
_symmetry_Int_Tables_number   1
_chemical_formula_structural   La7Yb12DySi16
_chemical_formula_sum   'La7 Yb12 Dy1 Si16'
_cell_volume   922.22502674
_cell_formula_units_Z   1
loop_
 _symmetry_equiv_pos_site_id
 _symmetry_equiv_pos_as_xyz
  1  'x, y, z'
loop_
 _atom_site_type_symbol
 _atom_site_label
 _atom_site_symmetry_multiplicity
 _atom_site_fract_x
 _atom_site_fract_y
 _atom_site_fract_z
 _atom_site_occupancy
  La  La0  1  0.973822  0.815202  0.098742  1
  La  La1  1  0.472122  0.685980  0.399835  1
  La  La2  1  0.525019  0.317838  0.902797  1
  La  La3  1  0.025761  0.184339  0.594407  1
  La  La4  1  0.025484  0.183093  0.902214  1
  La  La5  1  0.527241  0.317884  0.597660  1
  La  La6  1  0.472146  0.684707  0.100901  1
  Yb  Yb7  1  0.647772  0.999096  0.252133  1
  Yb  Yb8  1  0.142239  0.500788  0.252431  1
  Yb  Yb9  1  0.858406  0.498440  0.750422  1
  Yb  Yb10  1  0.352774  0.001839  0.750458  1
  Yb  Yb11  1  0.971561  0.813985  0.399832  1
  Yb  Yb12  1  0.679510  0.818840  0.877377  1
  Yb  Yb13  1  0.179675  0.683908  0.619891  1
  Yb  Yb14  1  0.820308  0.317551  0.123711  1
  Yb  Yb15  1  0.317307  0.178264  0.378297  1
  Yb  Yb16  1  0.319261  0.180437  0.124320  1
  Yb  Yb17  1  0.819963  0.319427  0.377974  1
  Yb  Yb18  1  0.180521  0.681120  0.877107  1
  Dy  Dy19  1  0.680857  0.817581  0.622830  1
  Si  Si20  1  0.753307  0.622253  0.248684  1
  Si  Si21  1  0.256753  0.876501  0.249165  1
  Si  Si22  1  0.742420  0.120498  0.746965  1
  Si  Si23  1  0.247468  0.379534  0.749418  1
  Si  Si24  1  0.029311  0.091397  0.250538  1
  Si  Si25  1  0.527277  0.406041  0.251441  1
  Si  Si26  1  0.474159  0.597335  0.746819  1
  Si  Si27  1  0.967270  0.904534  0.745939  1
  Si  Si28  1  0.859125  0.526778  0.962244  1
  Si  Si29  1  0.367185  0.972443  0.540683  1
  Si  Si30  1  0.641219  0.028601  0.036919  1
  Si  Si31  1  0.140168  0.471576  0.463239  1
  Si  Si32  1  0.142171  0.470601  0.036691  1
  Si  Si33  1  0.647316  0.026190  0.466053  1
  Si  Si34  1  0.358199  0.973426  0.962420  1
  Si  Si35  1  0.854903  0.531978  0.539443  1
