# generated using pymatgen
data_Yb2Ho2Os7Ru
_symmetry_space_group_name_H-M   'P 1'
_cell_length_a   5.28339908
_cell_length_b   5.28314242
_cell_length_c   8.85625600
_cell_angle_alpha   90.00164037
_cell_angle_beta   89.99923467
_cell_angle_gamma   119.99836278
_symmetry_Int_Tables_number   1
_chemical_formula_structural   Yb2Ho2Os7Ru
_chemical_formula_sum   'Yb2 Ho2 Os7 Ru1'
_cell_volume   214.08867418
_cell_formula_units_Z   1
loop_
 _symmetry_equiv_pos_site_id
 _symmetry_equiv_pos_as_xyz
  1  'x, y, z'
loop_
 _atom_site_type_symbol
 _atom_site_label
 _atom_site_symmetry_multiplicity
 _atom_site_fract_x
 _atom_site_fract_y
 _atom_site_fract_z
 _atom_site_occupancy
  Yb  Yb0  1  0.333337  0.666657  0.058901  1
  Yb  Yb1  1  0.666663  0.333343  0.941099  1
  Ho  Ho2  1  0.666665  0.333340  0.569584  1
  Ho  Ho3  1  0.333335  0.666660  0.430416  1
  Os  Os4  1  0.000000  0.000000  0.500000  1
  Os  Os5  1  0.172013  0.344043  0.748646  1
  Os  Os6  1  0.172012  0.827990  0.748655  1
  Os  Os7  1  0.655956  0.827992  0.748647  1
  Os  Os8  1  0.827987  0.655957  0.251354  1
  Os  Os9  1  0.827988  0.172010  0.251345  1
  Os  Os10  1  0.344044  0.172008  0.251353  1
  Ru  Ru11  1  0.000000  0.000000  0.000000  1
