# generated using pymatgen
data_YEr19Pt16
_symmetry_space_group_name_H-M   'P 1'
_cell_length_a   7.43326534
_cell_length_b   7.52230636
_cell_length_c   14.67121707
_cell_angle_alpha   90.00944265
_cell_angle_beta   90.00609301
_cell_angle_gamma   90.03409653
_symmetry_Int_Tables_number   1
_chemical_formula_structural   YEr19Pt16
_chemical_formula_sum   'Y1 Er19 Pt16'
_cell_volume   820.34533004
_cell_formula_units_Z   1
loop_
 _symmetry_equiv_pos_site_id
 _symmetry_equiv_pos_as_xyz
  1  'x, y, z'
loop_
 _atom_site_type_symbol
 _atom_site_label
 _atom_site_symmetry_multiplicity
 _atom_site_fract_x
 _atom_site_fract_y
 _atom_site_fract_z
 _atom_site_occupancy
  Y  Y0  1  0.998392  0.820254  0.092760  1
  Er  Er1  1  0.681069  0.988587  0.250087  1
  Er  Er2  1  0.181272  0.511284  0.250077  1
  Er  Er3  1  0.818756  0.488562  0.750042  1
  Er  Er4  1  0.318779  0.011486  0.750093  1
  Er  Er5  1  0.656256  0.832603  0.622215  1
  Er  Er6  1  0.156548  0.667197  0.877737  1
  Er  Er7  1  0.843725  0.332601  0.377855  1
  Er  Er8  1  0.343979  0.167585  0.122222  1
  Er  Er9  1  0.343747  0.167406  0.377817  1
  Er  Er10  1  0.843666  0.332578  0.122146  1
  Er  Er11  1  0.156268  0.667457  0.622175  1
  Er  Er12  1  0.656228  0.832522  0.877851  1
  Er  Er13  1  0.997687  0.819843  0.406907  1
  Er  Er14  1  0.497725  0.680134  0.092951  1
  Er  Er15  1  0.502242  0.319759  0.593012  1
  Er  Er16  1  0.002456  0.180518  0.906934  1
  Er  Er17  1  0.002281  0.180194  0.593029  1
  Er  Er18  1  0.502185  0.319803  0.907007  1
  Er  Er19  1  0.497700  0.680250  0.407025  1
  Pt  Pt20  1  0.815726  0.642265  0.250396  1
  Pt  Pt21  1  0.316687  0.857242  0.250078  1
  Pt  Pt22  1  0.683634  0.142769  0.750090  1
  Pt  Pt23  1  0.183603  0.357205  0.750096  1
  Pt  Pt24  1  0.546401  0.387196  0.249916  1
  Pt  Pt25  1  0.046559  0.113193  0.250163  1
  Pt  Pt26  1  0.953541  0.887220  0.750099  1
  Pt  Pt27  1  0.453545  0.612773  0.750089  1
  Pt  Pt28  1  0.816365  0.532193  0.541960  1
  Pt  Pt29  1  0.316700  0.968009  0.957877  1
  Pt  Pt30  1  0.683639  0.032172  0.457959  1
  Pt  Pt31  1  0.183987  0.466897  0.041754  1
  Pt  Pt32  1  0.183673  0.467741  0.457972  1
  Pt  Pt33  1  0.682481  0.032974  0.041787  1
  Pt  Pt34  1  0.316343  0.967797  0.541963  1
  Pt  Pt35  1  0.816158  0.531732  0.957858  1
