# generated using pymatgen
data_YbErPa2(Al8Pt3)3
_symmetry_space_group_name_H-M   'P 1'
_cell_length_a   7.56322067
_cell_length_b   7.56837549
_cell_length_c   13.11937268
_cell_angle_alpha   84.49896527
_cell_angle_beta   101.04207887
_cell_angle_gamma   119.90274722
_symmetry_Int_Tables_number   1
_chemical_formula_structural   YbErPa2(Al8Pt3)3
_chemical_formula_sum   'Yb1 Er1 Pa2 Al24 Pt9'
_cell_volume   638.94330569
_cell_formula_units_Z   1
loop_
 _symmetry_equiv_pos_site_id
 _symmetry_equiv_pos_as_xyz
  1  'x, y, z'
loop_
 _atom_site_type_symbol
 _atom_site_label
 _atom_site_symmetry_multiplicity
 _atom_site_fract_x
 _atom_site_fract_y
 _atom_site_fract_z
 _atom_site_occupancy
  Yb  Yb0  1  0.062660  0.668069  0.192517  1
  Er  Er1  1  0.937906  0.332865  0.807806  1
  Pa  Pa2  1  0.733025  0.998738  0.195816  1
  Pa  Pa3  1  0.266470  0.000445  0.804665  1
  Al  Al4  1  0.807797  0.867699  0.815830  1
  Al  Al5  1  0.191599  0.133758  0.183786  1
  Al  Al6  1  0.981539  0.665681  0.944504  1
  Al  Al7  1  0.018239  0.334376  0.056304  1
  Al  Al8  1  0.400022  0.665248  0.817413  1
  Al  Al9  1  0.598947  0.332849  0.182217  1
  Al  Al10  1  0.879566  0.662968  0.670075  1
  Al  Al11  1  0.120691  0.338272  0.330243  1
  Al  Al12  1  0.601323  0.458659  0.816834  1
  Al  Al13  1  0.400598  0.541664  0.182768  1
  Al  Al14  1  0.229512  0.342889  0.668399  1
  Al  Al15  1  0.771622  0.656781  0.332009  1
  Al  Al16  1  0.852958  0.334795  0.558592  1
  Al  Al17  1  0.186648  0.999271  0.558049  1
  Al  Al18  1  0.813589  0.000444  0.442181  1
  Al  Al19  1  0.351415  0.998679  0.055544  1
  Al  Al20  1  0.648650  0.001334  0.944313  1
  Al  Al21  1  0.558289  0.993705  0.669325  1
  Al  Al22  1  0.440351  0.005139  0.330972  1
  Al  Al23  1  0.519717  0.666223  0.561294  1
  Al  Al24  1  0.479967  0.333637  0.438641  1
  Al  Al25  1  0.684006  0.667719  0.047694  1
  Al  Al26  1  0.316169  0.332299  0.952464  1
  Al  Al27  1  0.147185  0.665640  0.440786  1
  Pt  Pt28  1  0.327503  0.671044  0.999146  1
  Pt  Pt29  1  0.545787  0.324004  0.638858  1
  Pt  Pt30  1  0.455845  0.675877  0.361820  1
  Pt  Pt31  1  0.889292  0.009360  0.639860  1
  Pt  Pt32  1  0.111004  0.992078  0.360713  1
  Pt  Pt33  1  0.671493  0.328273  0.998887  1
  Pt  Pt34  1  0.203931  0.667377  0.640439  1
  Pt  Pt35  1  0.794705  0.331357  0.360362  1
  Pt  Pt36  1  0.999978  0.000783  0.998874  1
