# generated using pymatgen
data_AgSb14
_symmetry_space_group_name_H-M   'P 1'
_cell_length_a   4.35776023
_cell_length_b   4.35776104
_cell_length_c   27.34461600
_cell_angle_alpha   90.30865046
_cell_angle_beta   90.30865051
_cell_angle_gamma   59.67773817
_symmetry_Int_Tables_number   1
_chemical_formula_structural   AgSb14
_chemical_formula_sum   'Ag1 Sb14'
_cell_volume   448.23044829
_cell_formula_units_Z   1
loop_
 _symmetry_equiv_pos_site_id
 _symmetry_equiv_pos_as_xyz
  1  'x, y, z'
loop_
 _atom_site_type_symbol
 _atom_site_label
 _atom_site_symmetry_multiplicity
 _atom_site_fract_x
 _atom_site_fract_y
 _atom_site_fract_z
 _atom_site_occupancy
  Ag  Ag0  1  0.000000  0.000000  0.800000  1
  Sb  Sb1  1  0.667565  0.667565  0.054170  1
  Sb  Sb2  1  0.664786  0.664786  0.272078  1
  Sb  Sb3  1  0.669712  0.669712  0.464814  1
  Sb  Sb4  1  0.665538  0.665538  0.680461  1
  Sb  Sb5  1  0.663886  0.663886  0.860446  1
  Sb  Sb6  1  0.330288  0.330288  0.135186  1
  Sb  Sb7  1  0.335214  0.335214  0.327922  1
  Sb  Sb8  1  0.332435  0.332435  0.545830  1
  Sb  Sb9  1  0.336114  0.336114  0.739554  1
  Sb  Sb10  1  0.334462  0.334462  0.919539  1
  Sb  Sb11  1  0.997577  0.997577  0.997651  1
  Sb  Sb12  1  0.000553  0.000553  0.191083  1
  Sb  Sb13  1  0.999447  0.999447  0.408917  1
  Sb  Sb14  1  0.002423  0.002423  0.602349  1
