# generated using pymatgen
data_TbCeHgPd2
_symmetry_space_group_name_H-M   'P 1'
_cell_length_a   7.78316800
_cell_length_b   7.78034000
_cell_length_c   3.77599600
_cell_angle_alpha   90.00000000
_cell_angle_beta   90.00000000
_cell_angle_gamma   90.00000000
_symmetry_Int_Tables_number   1
_chemical_formula_structural   TbCeHgPd2
_chemical_formula_sum   'Tb2 Ce2 Hg2 Pd4'
_cell_volume   228.65805574
_cell_formula_units_Z   2
loop_
 _symmetry_equiv_pos_site_id
 _symmetry_equiv_pos_as_xyz
  1  'x, y, z'
loop_
 _atom_site_type_symbol
 _atom_site_label
 _atom_site_symmetry_multiplicity
 _atom_site_fract_x
 _atom_site_fract_y
 _atom_site_fract_z
 _atom_site_occupancy
  Tb  Tb0  1  0.173508  0.675465  0.500001  1
  Tb  Tb1  1  0.673508  0.824535  0.500001  1
  Ce  Ce2  1  0.324829  0.173082  0.500001  1
  Ce  Ce3  1  0.824829  0.326918  0.500001  1
  Hg  Hg4  1  0.998596  0.996803  0.000000  1
  Hg  Hg5  1  0.498596  0.503197  0.000000  1
  Pd  Pd6  1  0.629013  0.130744  0.000000  1
  Pd  Pd7  1  0.129013  0.369256  0.000000  1
  Pd  Pd8  1  0.874053  0.623999  0.000000  1
  Pd  Pd9  1  0.374053  0.876001  0.000000  1
