# generated using pymatgen
data_Dy7Ho(Hf3Si4)4
_symmetry_space_group_name_H-M   'P 1'
_cell_length_a   7.28148400
_cell_length_b   7.28111606
_cell_length_c   13.37748911
_cell_angle_alpha   90.01428063
_cell_angle_beta   89.99658351
_cell_angle_gamma   90.00103891
_symmetry_Int_Tables_number   1
_chemical_formula_structural   Dy7Ho(Hf3Si4)4
_chemical_formula_sum   'Dy7 Ho1 Hf12 Si16'
_cell_volume   709.23873258
_cell_formula_units_Z   1
loop_
 _symmetry_equiv_pos_site_id
 _symmetry_equiv_pos_as_xyz
  1  'x, y, z'
loop_
 _atom_site_type_symbol
 _atom_site_label
 _atom_site_symmetry_multiplicity
 _atom_site_fract_x
 _atom_site_fract_y
 _atom_site_fract_z
 _atom_site_occupancy
  Dy  Dy0  1  0.504586  0.846127  0.035169  1
  Dy  Dy1  1  0.653761  0.004667  0.285206  1
  Dy  Dy2  1  0.346093  0.995411  0.785035  1
  Dy  Dy3  1  0.846079  0.504603  0.964943  1
  Dy  Dy4  1  0.153960  0.495323  0.464880  1
  Dy  Dy5  1  0.004651  0.653890  0.714825  1
  Dy  Dy6  1  0.995376  0.346090  0.214942  1
  Ho  Ho7  1  0.495612  0.153733  0.535066  1
  Hf  Hf8  1  0.675798  0.324100  0.749919  1
  Hf  Hf9  1  0.324213  0.675873  0.250054  1
  Hf  Hf10  1  0.824008  0.824278  0.499946  1
  Hf  Hf11  1  0.175844  0.175812  0.000055  1
  Hf  Hf12  1  0.496302  0.352354  0.124860  1
  Hf  Hf13  1  0.503677  0.647440  0.624720  1
  Hf  Hf14  1  0.852342  0.003736  0.874736  1
  Hf  Hf15  1  0.147696  0.996489  0.374871  1
  Hf  Hf16  1  0.647494  0.503672  0.375257  1
  Hf  Hf17  1  0.352412  0.496263  0.875191  1
  Hf  Hf18  1  0.003771  0.852395  0.125279  1
  Hf  Hf19  1  0.996413  0.147632  0.625100  1
  Si  Si20  1  0.795577  0.139585  0.067431  1
  Si  Si21  1  0.204655  0.860660  0.567359  1
  Si  Si22  1  0.639568  0.704389  0.817393  1
  Si  Si23  1  0.360423  0.295544  0.317459  1
  Si  Si24  1  0.860049  0.204318  0.432681  1
  Si  Si25  1  0.139589  0.795580  0.932658  1
  Si  Si26  1  0.704331  0.639575  0.182647  1
  Si  Si27  1  0.295862  0.360064  0.682327  1
  Si  Si28  1  0.550629  0.205630  0.935877  1
  Si  Si29  1  0.449487  0.794761  0.435902  1
  Si  Si30  1  0.705421  0.949631  0.685642  1
  Si  Si31  1  0.294384  0.050605  0.185863  1
  Si  Si32  1  0.794188  0.449172  0.564133  1
  Si  Si33  1  0.205651  0.550642  0.064221  1
  Si  Si34  1  0.949419  0.705644  0.314177  1
  Si  Si35  1  0.050680  0.294312  0.814178  1
