# generated using pymatgen
data_Er8Ga12CuAu3
_symmetry_space_group_name_H-M   'P 1'
_cell_length_a   7.07368400
_cell_length_b   8.86990693
_cell_length_c   8.86990700
_cell_angle_alpha   119.99999653
_cell_angle_beta   90.00000000
_cell_angle_gamma   90.00000000
_symmetry_Int_Tables_number   1
_chemical_formula_structural   Er8Ga12CuAu3
_chemical_formula_sum   'Er8 Ga12 Cu1 Au3'
_cell_volume   481.96381233
_cell_formula_units_Z   1
loop_
 _symmetry_equiv_pos_site_id
 _symmetry_equiv_pos_as_xyz
  1  'x, y, z'
loop_
 _atom_site_type_symbol
 _atom_site_label
 _atom_site_symmetry_multiplicity
 _atom_site_fract_x
 _atom_site_fract_y
 _atom_site_fract_z
 _atom_site_occupancy
  Er  Er0  1  0.743918  0.000000  0.000000  1
  Er  Er1  1  0.249173  0.000000  0.000000  1
  Er  Er2  1  0.750504  0.486667  0.513333  1
  Er  Er3  1  0.253628  0.514195  0.485805  1
  Er  Er4  1  0.750504  0.026665  0.513333  1
  Er  Er5  1  0.253628  0.971611  0.485805  1
  Er  Er6  1  0.750504  0.486667  0.973335  1
  Er  Er7  1  0.253628  0.514195  0.028389  1
  Ga  Ga8  1  0.960380  0.835932  0.164068  1
  Ga  Ga9  1  0.037667  0.164578  0.835422  1
  Ga  Ga10  1  0.960380  0.328139  0.164068  1
  Ga  Ga11  1  0.464244  0.163067  0.836933  1
  Ga  Ga12  1  0.037667  0.670844  0.835422  1
  Ga  Ga13  1  0.534873  0.829055  0.170945  1
  Ga  Ga14  1  0.960380  0.835932  0.671861  1
  Ga  Ga15  1  0.464244  0.673865  0.836933  1
  Ga  Ga16  1  0.037667  0.164578  0.329156  1
  Ga  Ga17  1  0.534873  0.341892  0.170945  1
  Ga  Ga18  1  0.464244  0.163067  0.326135  1
  Ga  Ga19  1  0.534873  0.829055  0.658108  1
  Cu  Cu20  1  0.535516  0.666667  0.333333  1
  Au  Au21  1  0.967281  0.666667  0.333333  1
  Au  Au22  1  0.030692  0.333333  0.666667  1
  Au  Au23  1  0.469536  0.333333  0.666667  1
