# generated using pymatgen
data_Y4Tm4B24RhW3
_symmetry_space_group_name_H-M   'P 1'
_cell_length_a   3.62295900
_cell_length_b   9.23419928
_cell_length_c   11.63860501
_cell_angle_alpha   90.16254089
_cell_angle_beta   90.00000000
_cell_angle_gamma   90.00000000
_symmetry_Int_Tables_number   1
_chemical_formula_structural   Y4Tm4B24RhW3
_chemical_formula_sum   'Y4 Tm4 B24 Rh1 W3'
_cell_volume   389.36942317
_cell_formula_units_Z   1
loop_
 _symmetry_equiv_pos_site_id
 _symmetry_equiv_pos_as_xyz
  1  'x, y, z'
loop_
 _atom_site_type_symbol
 _atom_site_label
 _atom_site_symmetry_multiplicity
 _atom_site_fract_x
 _atom_site_fract_y
 _atom_site_fract_z
 _atom_site_occupancy
  Y  Y0  1  0.500000  0.318220  0.414690  1
  Y  Y1  1  0.500000  0.679307  0.588492  1
  Y  Y2  1  0.500000  0.179140  0.913352  1
  Y  Y3  1  0.500000  0.823677  0.082995  1
  Tm  Tm4  1  0.500000  0.444161  0.129354  1
  Tm  Tm5  1  0.500000  0.556178  0.873105  1
  Tm  Tm6  1  0.500000  0.054695  0.627211  1
  Tm  Tm7  1  0.500000  0.941835  0.371095  1
  B  B8  1  0.000000  0.097992  0.471778  1
  B  B9  1  0.000000  0.896282  0.526810  1
  B  B10  1  0.000000  0.399786  0.973160  1
  B  B11  1  0.000000  0.602124  0.030029  1
  B  B12  1  0.000000  0.130422  0.318037  1
  B  B13  1  0.000000  0.868551  0.682867  1
  B  B14  1  0.000000  0.369981  0.816184  1
  B  B15  1  0.000000  0.631710  0.184432  1
  B  B16  1  0.000000  0.052324  0.065670  1
  B  B17  1  0.000000  0.948944  0.934171  1
  B  B18  1  0.000000  0.448811  0.564036  1
  B  B19  1  0.000000  0.554868  0.432422  1
  B  B20  1  0.000000  0.484006  0.287941  1
  B  B21  1  0.000000  0.521698  0.713141  1
  B  B22  1  0.000000  0.020821  0.785775  1
  B  B23  1  0.000000  0.978406  0.213064  1
  B  B24  1  0.000000  0.252817  0.080182  1
  B  B25  1  0.000000  0.748806  0.920867  1
  B  B26  1  0.000000  0.246689  0.578782  1
  B  B27  1  0.000000  0.749376  0.419007  1
  B  B28  1  0.000000  0.295686  0.237219  1
  B  B29  1  0.000000  0.704906  0.765219  1
  B  B30  1  0.000000  0.205403  0.734647  1
  B  B31  1  0.000000  0.791124  0.264945  1
  Rh  Rh32  1  0.500000  0.639037  0.320325  1
  W  W33  1  0.500000  0.139836  0.181509  1
  W  W34  1  0.500000  0.860533  0.819736  1
  W  W35  1  0.500000  0.361842  0.677748  1
