# generated using pymatgen
data_NaEr(ThIr4)2
_symmetry_space_group_name_H-M   'P 1'
_cell_length_a   9.33451572
_cell_length_b   9.33451561
_cell_length_c   9.33451658
_cell_angle_alpha   33.60908107
_cell_angle_beta   33.60907946
_cell_angle_gamma   33.60908349
_symmetry_Int_Tables_number   1
_chemical_formula_structural   NaEr(ThIr4)2
_chemical_formula_sum   'Na1 Er1 Th2 Ir8'
_cell_volume   221.98701054
_cell_formula_units_Z   1
loop_
 _symmetry_equiv_pos_site_id
 _symmetry_equiv_pos_as_xyz
  1  'x, y, z'
loop_
 _atom_site_type_symbol
 _atom_site_label
 _atom_site_symmetry_multiplicity
 _atom_site_fract_x
 _atom_site_fract_y
 _atom_site_fract_z
 _atom_site_occupancy
  Na  Na0  1  0.127408  0.127408  0.127408  1
  Er  Er1  1  0.622876  0.622876  0.622876  1
  Th  Th2  1  0.004812  0.004812  0.004812  1
  Th  Th3  1  0.495457  0.495457  0.495457  1
  Ir  Ir4  1  0.563453  0.563453  0.057993  1
  Ir  Ir5  1  0.063278  0.063278  0.563563  1
  Ir  Ir6  1  0.563453  0.057993  0.563453  1
  Ir  Ir7  1  0.063278  0.563563  0.063278  1
  Ir  Ir8  1  0.812285  0.812285  0.812285  1
  Ir  Ir9  1  0.312143  0.312143  0.312143  1
  Ir  Ir10  1  0.057993  0.563453  0.563453  1
  Ir  Ir11  1  0.563563  0.063278  0.063278  1
