# generated using pymatgen
data_ErTm(CoOs)2
_symmetry_space_group_name_H-M   'P 1'
_cell_length_a   5.20744407
_cell_length_b   5.20744433
_cell_length_c   5.20744333
_cell_angle_alpha   121.37954444
_cell_angle_beta   120.33158708
_cell_angle_gamma   88.52684968
_symmetry_Int_Tables_number   1
_chemical_formula_structural   ErTm(CoOs)2
_chemical_formula_sum   'Er1 Tm1 Co2 Os2'
_cell_volume   98.51522048
_cell_formula_units_Z   1
loop_
 _symmetry_equiv_pos_site_id
 _symmetry_equiv_pos_as_xyz
  1  'x, y, z'
loop_
 _atom_site_type_symbol
 _atom_site_label
 _atom_site_symmetry_multiplicity
 _atom_site_fract_x
 _atom_site_fract_y
 _atom_site_fract_z
 _atom_site_occupancy
  Er  Er0  1  0.872945  0.122945  0.750000  1
  Tm  Tm1  1  0.127392  0.877392  0.250000  1
  Co  Co2  1  0.000019  0.499967  0.500052  1
  Co  Co3  1  0.499915  0.499967  0.999948  1
  Os  Os4  1  0.499864  0.999860  0.999996  1
  Os  Os5  1  0.499864  0.499868  0.500004  1
