# generated using pymatgen
data_YErTm2(NiP)4
_symmetry_space_group_name_H-M   'P 1'
_cell_length_a   3.88363100
_cell_length_b   3.88363203
_cell_length_c   15.26502600
_cell_angle_alpha   90.00000000
_cell_angle_beta   90.00000000
_cell_angle_gamma   119.99999979
_symmetry_Int_Tables_number   1
_chemical_formula_structural   YErTm2(NiP)4
_chemical_formula_sum   'Y1 Er1 Tm2 Ni4 P4'
_cell_volume   199.39038583
_cell_formula_units_Z   1
loop_
 _symmetry_equiv_pos_site_id
 _symmetry_equiv_pos_as_xyz
  1  'x, y, z'
loop_
 _atom_site_type_symbol
 _atom_site_label
 _atom_site_symmetry_multiplicity
 _atom_site_fract_x
 _atom_site_fract_y
 _atom_site_fract_z
 _atom_site_occupancy
  Y  Y0  1  0.000000  0.000000  0.000000  1
  Er  Er1  1  0.000000  0.000000  0.500000  1
  Tm  Tm2  1  0.000000  0.000000  0.251209  1
  Tm  Tm3  1  0.000000  0.000000  0.748791  1
  Ni  Ni4  1  0.333333  0.666667  0.368522  1
  Ni  Ni5  1  0.666667  0.333333  0.631478  1
  Ni  Ni6  1  0.666667  0.333333  0.868526  1
  Ni  Ni7  1  0.333333  0.666667  0.131474  1
  P  P8  1  0.333333  0.666667  0.875172  1
  P  P9  1  0.666667  0.333333  0.124828  1
  P  P10  1  0.666667  0.333333  0.378436  1
  P  P11  1  0.333333  0.666667  0.621564  1
