# generated using pymatgen
data_Tm6Fe17P12Ir
_symmetry_space_group_name_H-M   'P 1'
_cell_length_a   3.68575700
_cell_length_b   10.50258500
_cell_length_c   12.17973000
_cell_angle_alpha   90.00000000
_cell_angle_beta   90.00000000
_cell_angle_gamma   90.00000000
_symmetry_Int_Tables_number   1
_chemical_formula_structural   Tm6Fe17P12Ir
_chemical_formula_sum   'Tm6 Fe17 P12 Ir1'
_cell_volume   471.47705820
_cell_formula_units_Z   1
loop_
 _symmetry_equiv_pos_site_id
 _symmetry_equiv_pos_as_xyz
  1  'x, y, z'
loop_
 _atom_site_type_symbol
 _atom_site_label
 _atom_site_symmetry_multiplicity
 _atom_site_fract_x
 _atom_site_fract_y
 _atom_site_fract_z
 _atom_site_occupancy
  Tm  Tm0  1  0.000000  0.500000  0.526234  1
  Tm  Tm1  1  0.500000  0.000000  0.480121  1
  Tm  Tm2  1  0.500000  0.815076  0.205167  1
  Tm  Tm3  1  0.500000  0.184924  0.205167  1
  Tm  Tm4  1  0.000000  0.679029  0.792837  1
  Tm  Tm5  1  0.000000  0.320971  0.792837  1
  Fe  Fe6  1  0.500000  0.500000  0.153551  1
  Fe  Fe7  1  0.000000  0.000000  0.846461  1
  Fe  Fe8  1  0.500000  0.500000  0.699346  1
  Fe  Fe9  1  0.000000  0.500000  0.988882  1
  Fe  Fe10  1  0.500000  0.000000  0.008499  1
  Fe  Fe11  1  0.500000  0.328495  0.996355  1
  Fe  Fe12  1  0.500000  0.671505  0.996355  1
  Fe  Fe13  1  0.000000  0.174154  0.001730  1
  Fe  Fe14  1  0.000000  0.825846  0.001730  1
  Fe  Fe15  1  0.500000  0.301795  0.431624  1
  Fe  Fe16  1  0.500000  0.698205  0.431624  1
  Fe  Fe17  1  0.000000  0.201425  0.571054  1
  Fe  Fe18  1  0.000000  0.798575  0.571054  1
  Fe  Fe19  1  0.500000  0.882192  0.708699  1
  Fe  Fe20  1  0.500000  0.117808  0.708699  1
  Fe  Fe21  1  0.000000  0.616460  0.290857  1
  Fe  Fe22  1  0.000000  0.383540  0.290857  1
  P  P23  1  0.500000  0.500000  0.882800  1
  P  P24  1  0.000000  0.000000  0.108123  1
  P  P25  1  0.500000  0.500000  0.341549  1
  P  P26  1  0.000000  0.000000  0.660313  1
  P  P27  1  0.500000  0.307215  0.615936  1
  P  P28  1  0.500000  0.692785  0.615936  1
  P  P29  1  0.000000  0.201979  0.388314  1
  P  P30  1  0.000000  0.798021  0.388314  1
  P  P31  1  0.500000  0.849591  0.887397  1
  P  P32  1  0.500000  0.150409  0.887397  1
  P  P33  1  0.000000  0.648326  0.111465  1
  P  P34  1  0.000000  0.351674  0.111465  1
  Ir  Ir35  1  0.000000  0.000000  0.301252  1
