# generated using pymatgen
data_NdDy2Er(Mo2O7)2
_symmetry_space_group_name_H-M   'P 1'
_cell_length_a   7.44764650
_cell_length_b   7.36943011
_cell_length_c   7.36943086
_cell_angle_alpha   59.54566032
_cell_angle_beta   60.21243843
_cell_angle_gamma   60.21242822
_symmetry_Int_Tables_number   1
_chemical_formula_structural   NdDy2Er(Mo2O7)2
_chemical_formula_sum   'Nd1 Dy2 Er1 Mo4 O14'
_cell_volume   285.91445225
_cell_formula_units_Z   1
loop_
 _symmetry_equiv_pos_site_id
 _symmetry_equiv_pos_as_xyz
  1  'x, y, z'
loop_
 _atom_site_type_symbol
 _atom_site_label
 _atom_site_symmetry_multiplicity
 _atom_site_fract_x
 _atom_site_fract_y
 _atom_site_fract_z
 _atom_site_occupancy
  Nd  Nd0  1  0.625000  0.125000  0.125000  1
  Dy  Dy1  1  0.125000  0.625000  0.125000  1
  Dy  Dy2  1  0.125000  0.125000  0.625000  1
  Er  Er3  1  0.125000  0.125000  0.125000  1
  Mo  Mo4  1  0.125000  0.625000  0.625000  1
  Mo  Mo5  1  0.625000  0.125000  0.625000  1
  Mo  Mo6  1  0.625000  0.625000  0.125000  1
  Mo  Mo7  1  0.625000  0.625000  0.625000  1
  O  O8  1  0.715355  0.707529  0.286978  1
  O  O9  1  0.286662  0.288153  0.710759  1
  O  O10  1  0.715355  0.286978  0.707529  1
  O  O11  1  0.286662  0.710759  0.288153  1
  O  O12  1  0.284237  0.718545  0.718545  1
  O  O13  1  0.727823  0.285207  0.285207  1
  O  O14  1  0.534645  0.542471  0.963022  1
  O  O15  1  0.963338  0.961847  0.539241  1
  O  O16  1  0.534645  0.963022  0.542471  1
  O  O17  1  0.963338  0.539241  0.961847  1
  O  O18  1  0.965763  0.531455  0.531455  1
  O  O19  1  0.522177  0.964793  0.964793  1
  O  O20  1  0.241981  0.250688  0.250688  1
  O  O21  1  0.008019  0.999312  0.999312  1
