# generated using pymatgen
data_La3OsO8
_symmetry_space_group_name_H-M   'P 1'
_cell_length_a   7.59705940
_cell_length_b   7.59929153
_cell_length_c   6.32344510
_cell_angle_alpha   89.98589646
_cell_angle_beta   90.01813629
_cell_angle_gamma   109.75206284
_symmetry_Int_Tables_number   1
_chemical_formula_structural   La3OsO8
_chemical_formula_sum   'La6 Os2 O16'
_cell_volume   343.58768546
_cell_formula_units_Z   2
loop_
 _symmetry_equiv_pos_site_id
 _symmetry_equiv_pos_as_xyz
  1  'x, y, z'
loop_
 _atom_site_type_symbol
 _atom_site_label
 _atom_site_symmetry_multiplicity
 _atom_site_fract_x
 _atom_site_fract_y
 _atom_site_fract_z
 _atom_site_occupancy
  La  La0  1  0.337741  0.106080  0.250326  1
  La  La1  1  0.397248  0.601567  0.250190  1
  La  La2  1  0.893753  0.664272  0.250389  1
  La  La3  1  0.106247  0.335729  0.749612  1
  La  La4  1  0.602753  0.398434  0.749811  1
  La  La5  1  0.662258  0.893920  0.749675  1
  Os  Os6  1  0.818920  0.183121  0.250049  1
  Os  Os7  1  0.181081  0.816879  0.749952  1
  O  O8  1  0.336477  0.335826  0.000182  1
  O  O9  1  0.194207  0.805299  0.051405  1
  O  O10  1  0.969122  0.035399  0.250215  1
  O  O11  1  0.663496  0.338521  0.250175  1
  O  O12  1  0.031255  0.409470  0.250286  1
  O  O13  1  0.593120  0.969964  0.250214  1
  O  O14  1  0.194212  0.805332  0.448738  1
  O  O15  1  0.336540  0.335865  0.499797  1
  O  O16  1  0.663459  0.664135  0.500203  1
  O  O17  1  0.805788  0.194668  0.551261  1
  O  O18  1  0.406880  0.030035  0.749787  1
  O  O19  1  0.968744  0.590529  0.749715  1
  O  O20  1  0.336503  0.661478  0.749826  1
  O  O21  1  0.030877  0.964600  0.749786  1
  O  O22  1  0.805793  0.194701  0.948595  1
  O  O23  1  0.663522  0.664174  0.999817  1
