# generated using pymatgen
data_LaY2(Ga2Ni3)3
_symmetry_space_group_name_H-M   'P 1'
_cell_length_a   8.81434900
_cell_length_b   8.81434812
_cell_length_c   4.10629000
_cell_angle_alpha   90.00000000
_cell_angle_beta   90.00000000
_cell_angle_gamma   119.99999205
_symmetry_Int_Tables_number   1
_chemical_formula_structural   LaY2(Ga2Ni3)3
_chemical_formula_sum   'La1 Y2 Ga6 Ni9'
_cell_volume   276.28717442
_cell_formula_units_Z   1
loop_
 _symmetry_equiv_pos_site_id
 _symmetry_equiv_pos_as_xyz
  1  'x, y, z'
loop_
 _atom_site_type_symbol
 _atom_site_label
 _atom_site_symmetry_multiplicity
 _atom_site_fract_x
 _atom_site_fract_y
 _atom_site_fract_z
 _atom_site_occupancy
  La  La0  1  0.666667  0.333333  0.500000  1
  Y  Y1  1  0.333333  0.666667  0.500000  1
  Y  Y2  1  0.000000  0.000000  0.000000  1
  Ga  Ga3  1  0.477153  0.481422  0.000000  1
  Ga  Ga4  1  0.518578  0.995731  0.000000  1
  Ga  Ga5  1  0.004269  0.522847  0.000000  1
  Ga  Ga6  1  0.731293  0.732861  0.500000  1
  Ga  Ga7  1  0.267139  0.998432  0.500000  1
  Ga  Ga8  1  0.001568  0.268707  0.500000  1
  Ni  Ni9  1  0.828551  0.195435  0.000000  1
  Ni  Ni10  1  0.804565  0.633116  0.000000  1
  Ni  Ni11  1  0.366884  0.171449  0.000000  1
  Ni  Ni12  1  0.201196  0.827827  0.000000  1
  Ni  Ni13  1  0.626632  0.798804  0.000000  1
  Ni  Ni14  1  0.172173  0.373368  0.000000  1
  Ni  Ni15  1  0.290642  0.291861  0.500000  1
  Ni  Ni16  1  0.708139  0.998781  0.500000  1
  Ni  Ni17  1  0.001219  0.709358  0.500000  1
