# generated using pymatgen
data_Tb2U(SnRu)3
_symmetry_space_group_name_H-M   'P 1'
_cell_length_a   7.08991600
_cell_length_b   7.08991568
_cell_length_c   4.09096500
_cell_angle_alpha   90.00000000
_cell_angle_beta   90.00000000
_cell_angle_gamma   116.36214963
_symmetry_Int_Tables_number   1
_chemical_formula_structural   Tb2U(SnRu)3
_chemical_formula_sum   'Tb2 U1 Sn3 Ru3'
_cell_volume   184.25466859
_cell_formula_units_Z   1
loop_
 _symmetry_equiv_pos_site_id
 _symmetry_equiv_pos_as_xyz
  1  'x, y, z'
loop_
 _atom_site_type_symbol
 _atom_site_label
 _atom_site_symmetry_multiplicity
 _atom_site_fract_x
 _atom_site_fract_y
 _atom_site_fract_z
 _atom_site_occupancy
  Tb  Tb0  1  0.409069  0.002610  0.500000  1
  Tb  Tb1  1  0.002610  0.409069  0.500000  1
  U  U2  1  0.599957  0.599957  0.500000  1
  Sn  Sn3  1  0.741077  0.030072  0.000000  1
  Sn  Sn4  1  0.030072  0.741077  0.000000  1
  Sn  Sn5  1  0.221566  0.221566  0.000000  1
  Ru  Ru6  1  0.385687  0.645167  0.000000  1
  Ru  Ru7  1  0.645167  0.385687  0.000000  1
  Ru  Ru8  1  0.964795  0.964795  0.500000  1
