# generated using pymatgen
data_Y4Ge6Rh7
_symmetry_space_group_name_H-M   'P 1'
_cell_length_a   7.29100645
_cell_length_b   7.29099467
_cell_length_c   7.29099601
_cell_angle_alpha   109.46625493
_cell_angle_beta   109.47368356
_cell_angle_gamma   109.47367160
_symmetry_Int_Tables_number   1
_chemical_formula_structural   Y4Ge6Rh7
_chemical_formula_sum   'Y4 Ge6 Rh7'
_cell_volume   298.35925148
_cell_formula_units_Z   1
loop_
 _symmetry_equiv_pos_site_id
 _symmetry_equiv_pos_as_xyz
  1  'x, y, z'
loop_
 _atom_site_type_symbol
 _atom_site_label
 _atom_site_symmetry_multiplicity
 _atom_site_fract_x
 _atom_site_fract_y
 _atom_site_fract_z
 _atom_site_occupancy
  Y  Y0  1  0.000023  0.000012  0.500012  1
  Y  Y1  1  0.999982  0.499991  0.999991  1
  Y  Y2  1  0.499998  0.000006  0.999986  1
  Y  Y3  1  0.499998  0.499992  0.500012  1
  Ge  Ge4  1  0.678790  0.678789  0.999998  1
  Ge  Ge5  1  0.321210  0.000003  0.321212  1
  Ge  Ge6  1  0.000000  0.321216  0.321218  1
  Ge  Ge7  1  0.321210  0.321207  0.999998  1
  Ge  Ge8  1  0.678790  0.000002  0.678792  1
  Ge  Ge9  1  0.000000  0.678784  0.678782  1
  Rh  Rh10  1  0.749995  0.249992  0.499994  1
  Rh  Rh11  1  0.749995  0.500003  0.250001  1
  Rh  Rh12  1  0.500002  0.250001  0.750001  1
  Rh  Rh13  1  0.250003  0.500006  0.750009  1
  Rh  Rh14  1  0.250003  0.749997  0.499995  1
  Rh  Rh15  1  0.499999  0.750000  0.250000  1
  Rh  Rh16  1  0.000000  0.000000  0.000000  1
