# generated using pymatgen
data_Gd5Te9
_symmetry_space_group_name_H-M   'P 1'
_cell_length_a   13.26168487
_cell_length_b   13.26168488
_cell_length_c   10.88455100
_cell_angle_alpha   80.75113483
_cell_angle_beta   80.75113482
_cell_angle_gamma   26.94095393
_symmetry_Int_Tables_number   1
_chemical_formula_structural   Gd5Te9
_chemical_formula_sum   'Gd10 Te18'
_cell_volume   855.38475912
_cell_formula_units_Z   2
loop_
 _symmetry_equiv_pos_site_id
 _symmetry_equiv_pos_as_xyz
  1  'x, y, z'
loop_
 _atom_site_type_symbol
 _atom_site_label
 _atom_site_symmetry_multiplicity
 _atom_site_fract_x
 _atom_site_fract_y
 _atom_site_fract_z
 _atom_site_occupancy
  Gd  Gd0  1  0.947045  0.043418  0.240418  1
  Gd  Gd1  1  0.147404  0.247082  0.841574  1
  Gd  Gd2  1  0.344112  0.450401  0.436330  1
  Gd  Gd3  1  0.537226  0.654486  0.034933  1
  Gd  Gd4  1  0.754260  0.834832  0.636649  1
  Gd  Gd5  1  0.345514  0.462774  0.965067  1
  Gd  Gd6  1  0.549599  0.655888  0.563670  1
  Gd  Gd7  1  0.752918  0.852596  0.158426  1
  Gd  Gd8  1  0.956582  0.052955  0.759582  1
  Gd  Gd9  1  0.165168  0.245740  0.363351  1
  Te  Te10  1  0.474557  0.570054  0.821106  1
  Te  Te11  1  0.070407  0.178912  0.620398  1
  Te  Te12  1  0.868279  0.980421  0.019393  1
  Te  Te13  1  0.681311  0.762494  0.422293  1
  Te  Te14  1  0.273046  0.375128  0.220567  1
  Te  Te15  1  0.019579  0.131721  0.980607  1
  Te  Te16  1  0.624872  0.726954  0.779433  1
  Te  Te17  1  0.429946  0.525443  0.178894  1
  Te  Te18  1  0.237506  0.318689  0.577707  1
  Te  Te19  1  0.821088  0.929593  0.379602  1
  Te  Te20  1  0.699434  0.300566  0.500000  1
  Te  Te21  1  0.299872  0.900690  0.299671  1
  Te  Te22  1  0.099310  0.700128  0.700329  1
  Te  Te23  1  0.893186  0.492016  0.114771  1
  Te  Te24  1  0.507984  0.106814  0.885229  1
  Te  Te25  1  0.002214  0.601534  0.895804  1
  Te  Te26  1  0.199110  0.800890  0.500000  1
  Te  Te27  1  0.398466  0.997786  0.104196  1
