# generated using pymatgen
data_Tb5Pr(RuBr3)2
_symmetry_space_group_name_H-M   'P 1'
_cell_length_a   4.15108400
_cell_length_b   8.61349627
_cell_length_c   12.01972871
_cell_angle_alpha   85.66398864
_cell_angle_beta   90.00000000
_cell_angle_gamma   90.00000000
_symmetry_Int_Tables_number   1
_chemical_formula_structural   Tb5Pr(RuBr3)2
_chemical_formula_sum   'Tb5 Pr1 Ru2 Br6'
_cell_volume   428.53948356
_cell_formula_units_Z   1
loop_
 _symmetry_equiv_pos_site_id
 _symmetry_equiv_pos_as_xyz
  1  'x, y, z'
loop_
 _atom_site_type_symbol
 _atom_site_label
 _atom_site_symmetry_multiplicity
 _atom_site_fract_x
 _atom_site_fract_y
 _atom_site_fract_z
 _atom_site_occupancy
  Tb  Tb0  1  0.250000  0.283959  0.396473  1
  Tb  Tb1  1  0.750000  0.713555  0.606753  1
  Tb  Tb2  1  0.250000  0.870720  0.369317  1
  Tb  Tb3  1  0.750000  0.126084  0.629176  1
  Tb  Tb4  1  0.250000  0.879783  0.824839  1
  Pr  Pr5  1  0.750000  0.123182  0.167636  1
  Ru  Ru6  1  0.250000  0.930153  0.596964  1
  Ru  Ru7  1  0.750000  0.066888  0.402382  1
  Br  Br8  1  0.250000  0.417714  0.631536  1
  Br  Br9  1  0.750000  0.577922  0.376166  1
  Br  Br10  1  0.250000  0.875728  0.106240  1
  Br  Br11  1  0.750000  0.112773  0.885716  1
  Br  Br12  1  0.250000  0.377495  0.145828  1
  Br  Br13  1  0.750000  0.644043  0.860975  1
