# generated using pymatgen
data_Nd20Ge5Bi3Ru4
_symmetry_space_group_name_H-M   'P 1'
_cell_length_a   8.10688781
_cell_length_b   9.02273684
_cell_length_c   12.47582637
_cell_angle_alpha   89.86742407
_cell_angle_beta   90.04871552
_cell_angle_gamma   89.87140490
_symmetry_Int_Tables_number   1
_chemical_formula_structural   Nd20Ge5Bi3Ru4
_chemical_formula_sum   'Nd20 Ge5 Bi3 Ru4'
_cell_volume   912.55565433
_cell_formula_units_Z   1
loop_
 _symmetry_equiv_pos_site_id
 _symmetry_equiv_pos_as_xyz
  1  'x, y, z'
loop_
 _atom_site_type_symbol
 _atom_site_label
 _atom_site_symmetry_multiplicity
 _atom_site_fract_x
 _atom_site_fract_y
 _atom_site_fract_z
 _atom_site_occupancy
  Nd  Nd0  1  0.667037  0.731589  0.714399  1
  Nd  Nd1  1  0.337847  0.259766  0.282856  1
  Nd  Nd2  1  0.167661  0.267559  0.789091  1
  Nd  Nd3  1  0.826116  0.742895  0.212881  1
  Nd  Nd4  1  0.140222  0.733494  0.798952  1
  Nd  Nd5  1  0.849384  0.257752  0.201902  1
  Nd  Nd6  1  0.640022  0.265839  0.701970  1
  Nd  Nd7  1  0.366649  0.742119  0.293830  1
  Nd  Nd8  1  0.542245  0.741807  0.003411  1
  Nd  Nd9  1  0.463872  0.258806  0.007539  1
  Nd  Nd10  1  0.043290  0.268198  0.500575  1
  Nd  Nd11  1  0.957977  0.731347  0.497837  1
  Nd  Nd12  1  0.821627  0.463890  0.929817  1
  Nd  Nd13  1  0.174011  0.535053  0.072516  1
  Nd  Nd14  1  0.324909  0.537690  0.569342  1
  Nd  Nd15  1  0.183536  0.965990  0.066429  1
  Nd  Nd16  1  0.676203  0.462846  0.427972  1
  Nd  Nd17  1  0.825102  0.035191  0.938912  1
  Nd  Nd18  1  0.671183  0.034020  0.426587  1
  Nd  Nd19  1  0.324248  0.965339  0.564708  1
  Ge  Ge20  1  0.060554  0.504690  0.326475  1
  Ge  Ge21  1  0.562268  0.004387  0.169975  1
  Ge  Ge22  1  0.938506  0.495086  0.672341  1
  Ge  Ge23  1  0.562592  0.496503  0.171533  1
  Ge  Ge24  1  0.438918  0.504500  0.830740  1
  Bi  Bi25  1  0.931969  0.006032  0.672028  1
  Bi  Bi26  1  0.068188  0.994094  0.328845  1
  Bi  Bi27  1  0.433166  0.994217  0.826928  1
  Ru  Ru28  1  0.921929  0.747516  0.984562  1
  Ru  Ru29  1  0.077923  0.251151  0.017878  1
  Ru  Ru30  1  0.421931  0.252464  0.514453  1
  Ru  Ru31  1  0.578915  0.748169  0.482715  1
