# generated using pymatgen
data_Cs2Pr10Au2Br17
_symmetry_space_group_name_H-M   'P 1'
_cell_length_a   9.61257163
_cell_length_b   11.24708756
_cell_length_c   11.24733900
_cell_angle_alpha   106.62888794
_cell_angle_beta   94.42285978
_cell_angle_gamma   94.42724834
_symmetry_Int_Tables_number   1
_chemical_formula_structural   Cs2Pr10Au2Br17
_chemical_formula_sum   'Cs2 Pr10 Au2 Br17'
_cell_volume   1155.37651739
_cell_formula_units_Z   1
loop_
 _symmetry_equiv_pos_site_id
 _symmetry_equiv_pos_as_xyz
  1  'x, y, z'
loop_
 _atom_site_type_symbol
 _atom_site_label
 _atom_site_symmetry_multiplicity
 _atom_site_fract_x
 _atom_site_fract_y
 _atom_site_fract_z
 _atom_site_occupancy
  Cs  Cs0  1  0.999530  0.815337  0.183846  1
  Cs  Cs1  1  0.999523  0.183815  0.815360  1
  Pr  Pr2  1  0.437702  0.148274  0.148286  1
  Pr  Pr3  1  0.575471  0.512835  0.190406  1
  Pr  Pr4  1  0.849420  0.286445  0.286449  1
  Pr  Pr5  1  0.303165  0.431960  0.431967  1
  Pr  Pr6  1  0.424601  0.809684  0.487232  1
  Pr  Pr7  1  0.575435  0.190400  0.512836  1
  Pr  Pr8  1  0.696886  0.568120  0.568114  1
  Pr  Pr9  1  0.150688  0.713624  0.713634  1
  Pr  Pr10  1  0.424589  0.487237  0.809681  1
  Pr  Pr11  1  0.562341  0.851850  0.851838  1
  Au  Au12  1  0.575941  0.352206  0.352202  1
  Au  Au13  1  0.424128  0.647885  0.647890  1
  Br  Br14  1  0.585561  0.692509  0.025030  1
  Br  Br15  1  0.723122  0.068535  0.068534  1
  Br  Br16  1  0.861002  0.452754  0.119476  1
  Br  Br17  1  0.141164  0.206235  0.206211  1
  Br  Br18  1  0.288801  0.603391  0.257277  1
  Br  Br19  1  0.414656  0.974991  0.307534  1
  Br  Br20  1  0.711294  0.742777  0.396710  1
  Br  Br21  1  0.860891  0.119397  0.452702  1
  Br  Br22  1  0.000052  0.500035  0.500036  1
  Br  Br23  1  0.139025  0.880481  0.547207  1
  Br  Br24  1  0.288782  0.257288  0.603390  1
  Br  Br25  1  0.585500  0.025035  0.692514  1
  Br  Br26  1  0.711264  0.396697  0.742777  1
  Br  Br27  1  0.858890  0.793916  0.793823  1
  Br  Br28  1  0.138984  0.547216  0.880501  1
  Br  Br29  1  0.276924  0.931531  0.931532  1
  Br  Br30  1  0.414675  0.307537  0.975006  1
