# generated using pymatgen
data_Ho20Ir3Os2Rh7
_symmetry_space_group_name_H-M   'P 1'
_cell_length_a   10.81697058
_cell_length_b   10.81646048
_cell_length_c   6.37693907
_cell_angle_alpha   89.99519862
_cell_angle_beta   90.01661042
_cell_angle_gamma   89.96620040
_symmetry_Int_Tables_number   1
_chemical_formula_structural   Ho20Ir3Os2Rh7
_chemical_formula_sum   'Ho20 Ir3 Os2 Rh7'
_cell_volume   746.11021987
_cell_formula_units_Z   1
loop_
 _symmetry_equiv_pos_site_id
 _symmetry_equiv_pos_as_xyz
  1  'x, y, z'
loop_
 _atom_site_type_symbol
 _atom_site_label
 _atom_site_symmetry_multiplicity
 _atom_site_fract_x
 _atom_site_fract_y
 _atom_site_fract_z
 _atom_site_occupancy
  Ho  Ho0  1  0.295009  0.086995  0.377141  1
  Ho  Ho1  1  0.295239  0.912805  0.877025  1
  Ho  Ho2  1  0.705100  0.085667  0.877172  1
  Ho  Ho3  1  0.704952  0.912859  0.376863  1
  Ho  Ho4  1  0.585320  0.793636  0.878174  1
  Ho  Ho5  1  0.584836  0.205684  0.377084  1
  Ho  Ho6  1  0.414728  0.793863  0.377791  1
  Ho  Ho7  1  0.413375  0.205764  0.878250  1
  Ho  Ho8  1  0.210395  0.412609  0.621394  1
  Ho  Ho9  1  0.210258  0.587362  0.121656  1
  Ho  Ho10  1  0.790363  0.412999  0.122051  1
  Ho  Ho11  1  0.790307  0.588899  0.620806  1
  Ho  Ho12  1  0.910234  0.709195  0.122346  1
  Ho  Ho13  1  0.911812  0.290774  0.622055  1
  Ho  Ho14  1  0.089667  0.708961  0.622227  1
  Ho  Ho15  1  0.089690  0.290904  0.122586  1
  Ho  Ho16  1  0.999952  0.999928  0.498199  1
  Ho  Ho17  1  0.000055  0.000025  0.998353  1
  Ho  Ho18  1  0.499688  0.500240  0.997934  1
  Ho  Ho19  1  0.499659  0.500224  0.498194  1
  Ir  Ir20  1  0.655364  0.650777  0.250586  1
  Ir  Ir21  1  0.345284  0.348500  0.250175  1
  Ir  Ir22  1  0.344636  0.651471  0.750025  1
  Os  Os23  1  0.500264  0.000515  0.124909  1
  Os  Os24  1  0.500271  0.000515  0.625314  1
  Rh  Rh25  1  0.849333  0.154576  0.250708  1
  Rh  Rh26  1  0.849716  0.845999  0.750675  1
  Rh  Rh27  1  0.150161  0.154017  0.750805  1
  Rh  Rh28  1  0.150216  0.846038  0.250623  1
  Rh  Rh29  1  0.655222  0.348719  0.750516  1
  Rh  Rh30  1  0.999376  0.499733  0.878933  1
  Rh  Rh31  1  0.999520  0.499746  0.379438  1
