# generated using pymatgen
data_La11Nd5Cd4(PdRu)2
_symmetry_space_group_name_H-M   'P 1'
_cell_length_a   10.11410590
_cell_length_b   10.09485064
_cell_length_c   10.19199544
_cell_angle_alpha   59.60525655
_cell_angle_beta   59.63373808
_cell_angle_gamma   59.75187145
_symmetry_Int_Tables_number   1
_chemical_formula_structural   La11Nd5Cd4(PdRu)2
_chemical_formula_sum   'La11 Nd5 Cd4 Pd2 Ru2'
_cell_volume   730.19382583
_cell_formula_units_Z   1
loop_
 _symmetry_equiv_pos_site_id
 _symmetry_equiv_pos_as_xyz
  1  'x, y, z'
loop_
 _atom_site_type_symbol
 _atom_site_label
 _atom_site_symmetry_multiplicity
 _atom_site_fract_x
 _atom_site_fract_y
 _atom_site_fract_z
 _atom_site_occupancy
  La  La0  1  0.346161  0.345319  0.356900  1
  La  La1  1  0.347458  0.347049  0.948335  1
  La  La2  1  0.342808  0.957777  0.348942  1
  La  La3  1  0.958070  0.342309  0.347986  1
  La  La4  1  0.816981  0.190931  0.191607  1
  La  La5  1  0.189882  0.816287  0.801142  1
  La  La6  1  0.191242  0.818106  0.190400  1
  La  La7  1  0.815972  0.189100  0.801819  1
  La  La8  1  0.189997  0.188456  0.811308  1
  La  La9  1  0.803757  0.804641  0.194723  1
  La  La10  1  0.934987  0.561187  0.567524  1
  Nd  Nd11  1  0.560925  0.934688  0.936542  1
  Nd  Nd12  1  0.561643  0.935682  0.567822  1
  Nd  Nd13  1  0.934985  0.560920  0.937779  1
  Nd  Nd14  1  0.563476  0.565143  0.937382  1
  Nd  Nd15  1  0.935821  0.936650  0.564337  1
  Cd  Cd16  1  0.579227  0.580281  0.580447  1
  Cd  Cd17  1  0.580427  0.580359  0.258529  1
  Cd  Cd18  1  0.581811  0.256619  0.580497  1
  Cd  Cd19  1  0.257405  0.581874  0.580662  1
  Pd  Pd20  1  0.147318  0.574456  0.139243  1
  Pd  Pd21  1  0.574193  0.147107  0.140040  1
  Ru  Ru22  1  0.142817  0.142722  0.136445  1
  Ru  Ru23  1  0.142637  0.142338  0.579590  1
