# generated using pymatgen
data_Ca(CePb)4
_symmetry_space_group_name_H-M   'P 1'
_cell_length_a   8.32872500
_cell_length_b   8.42581500
_cell_length_c   16.21430000
_cell_angle_alpha   90.00000000
_cell_angle_beta   90.00000000
_cell_angle_gamma   90.00000000
_symmetry_Int_Tables_number   1
_chemical_formula_structural   Ca(CePb)4
_chemical_formula_sum   'Ca4 Ce16 Pb16'
_cell_volume   1137.85951681
_cell_formula_units_Z   4
loop_
 _symmetry_equiv_pos_site_id
 _symmetry_equiv_pos_as_xyz
  1  'x, y, z'
loop_
 _atom_site_type_symbol
 _atom_site_label
 _atom_site_symmetry_multiplicity
 _atom_site_fract_x
 _atom_site_fract_y
 _atom_site_fract_z
 _atom_site_occupancy
  Ca  Ca0  1  0.707436  0.996072  0.250000  1
  Ca  Ca1  1  0.207436  0.503928  0.250000  1
  Ca  Ca2  1  0.792564  0.496072  0.750000  1
  Ca  Ca3  1  0.292564  0.003928  0.750000  1
  Ce  Ce4  1  0.880240  0.660609  0.117078  1
  Ce  Ce5  1  0.380240  0.839391  0.382922  1
  Ce  Ce6  1  0.619760  0.160609  0.882922  1
  Ce  Ce7  1  0.119760  0.339391  0.617078  1
  Ce  Ce8  1  0.119760  0.339391  0.882922  1
  Ce  Ce9  1  0.619760  0.160609  0.617078  1
  Ce  Ce10  1  0.380240  0.839391  0.117078  1
  Ce  Ce11  1  0.880240  0.660609  0.382922  1
  Ce  Ce12  1  0.026899  0.181531  0.097089  1
  Ce  Ce13  1  0.526899  0.318469  0.402911  1
  Ce  Ce14  1  0.473101  0.681531  0.902911  1
  Ce  Ce15  1  0.973101  0.818469  0.597089  1
  Ce  Ce16  1  0.973101  0.818469  0.902911  1
  Ce  Ce17  1  0.473101  0.681531  0.597089  1
  Ce  Ce18  1  0.526899  0.318469  0.097089  1
  Ce  Ce19  1  0.026899  0.181531  0.402911  1
  Pb  Pb20  1  0.075180  0.880825  0.250000  1
  Pb  Pb21  1  0.575180  0.619175  0.250000  1
  Pb  Pb22  1  0.424820  0.380825  0.750000  1
  Pb  Pb23  1  0.924820  0.119175  0.750000  1
  Pb  Pb24  1  0.834112  0.357405  0.250000  1
  Pb  Pb25  1  0.334112  0.142595  0.250000  1
  Pb  Pb26  1  0.665888  0.857405  0.750000  1
  Pb  Pb27  1  0.165888  0.642595  0.750000  1
  Pb  Pb28  1  0.782522  0.466276  0.958088  1
  Pb  Pb29  1  0.282522  0.033724  0.541912  1
  Pb  Pb30  1  0.717478  0.966276  0.041912  1
  Pb  Pb31  1  0.217478  0.533724  0.458088  1
  Pb  Pb32  1  0.217478  0.533724  0.041912  1
  Pb  Pb33  1  0.717478  0.966276  0.458088  1
  Pb  Pb34  1  0.282522  0.033724  0.958088  1
  Pb  Pb35  1  0.782522  0.466276  0.541912  1
