# generated using pymatgen
data_Nd8Zn2CoSi12Pd
_symmetry_space_group_name_H-M   'P 1'
_cell_length_a   8.18308300
_cell_length_b   8.18308382
_cell_length_c   8.56299000
_cell_angle_alpha   90.00000000
_cell_angle_beta   90.00000000
_cell_angle_gamma   119.99999262
_symmetry_Int_Tables_number   1
_chemical_formula_structural   Nd8Zn2CoSi12Pd
_chemical_formula_sum   'Nd8 Zn2 Co1 Si12 Pd1'
_cell_volume   496.58095225
_cell_formula_units_Z   1
loop_
 _symmetry_equiv_pos_site_id
 _symmetry_equiv_pos_as_xyz
  1  'x, y, z'
loop_
 _atom_site_type_symbol
 _atom_site_label
 _atom_site_symmetry_multiplicity
 _atom_site_fract_x
 _atom_site_fract_y
 _atom_site_fract_z
 _atom_site_occupancy
  Nd  Nd0  1  0.501859  0.498141  0.753414  1
  Nd  Nd1  1  0.502482  0.497518  0.246924  1
  Nd  Nd2  1  0.996283  0.498141  0.753414  1
  Nd  Nd3  1  0.995034  0.497518  0.246924  1
  Nd  Nd4  1  0.501859  0.003717  0.753414  1
  Nd  Nd5  1  0.502482  0.004966  0.246924  1
  Nd  Nd6  1  0.000000  0.000000  0.750866  1
  Nd  Nd7  1  0.000000  0.000000  0.249065  1
  Zn  Zn8  1  0.333333  0.666667  0.002485  1
  Zn  Zn9  1  0.333333  0.666667  0.498023  1
  Co  Co10  1  0.666667  0.333333  0.997225  1
  Si  Si11  1  0.824821  0.175179  0.000332  1
  Si  Si12  1  0.162913  0.837087  0.999633  1
  Si  Si13  1  0.350358  0.175179  0.000332  1
  Si  Si14  1  0.164568  0.835432  0.499964  1
  Si  Si15  1  0.674175  0.837087  0.999633  1
  Si  Si16  1  0.832456  0.167544  0.500149  1
  Si  Si17  1  0.824821  0.649642  0.000332  1
  Si  Si18  1  0.670863  0.835432  0.499964  1
  Si  Si19  1  0.162913  0.325825  0.999633  1
  Si  Si20  1  0.335088  0.167544  0.500149  1
  Si  Si21  1  0.164568  0.329137  0.499964  1
  Si  Si22  1  0.832456  0.664912  0.500149  1
  Pd  Pd23  1  0.666667  0.333333  0.501086  1
