# generated using pymatgen
data_Nd16Cd3InOs4
_symmetry_space_group_name_H-M   'P 1'
_cell_length_a   10.00157877
_cell_length_b   10.00157965
_cell_length_c   10.00157962
_cell_angle_alpha   59.49840669
_cell_angle_beta   59.49840037
_cell_angle_gamma   59.49840901
_symmetry_Int_Tables_number   1
_chemical_formula_structural   Nd16Cd3InOs4
_chemical_formula_sum   'Nd16 Cd3 In1 Os4'
_cell_volume   699.37156672
_cell_formula_units_Z   1
loop_
 _symmetry_equiv_pos_site_id
 _symmetry_equiv_pos_as_xyz
  1  'x, y, z'
loop_
 _atom_site_type_symbol
 _atom_site_label
 _atom_site_symmetry_multiplicity
 _atom_site_fract_x
 _atom_site_fract_y
 _atom_site_fract_z
 _atom_site_occupancy
  Nd  Nd0  1  0.345629  0.345629  0.345629  1
  Nd  Nd1  1  0.346340  0.346340  0.961603  1
  Nd  Nd2  1  0.346340  0.961603  0.346340  1
  Nd  Nd3  1  0.961603  0.346340  0.346340  1
  Nd  Nd4  1  0.808656  0.190821  0.190821  1
  Nd  Nd5  1  0.192055  0.808111  0.808111  1
  Nd  Nd6  1  0.190821  0.808656  0.190821  1
  Nd  Nd7  1  0.808111  0.192055  0.808111  1
  Nd  Nd8  1  0.190821  0.190821  0.808656  1
  Nd  Nd9  1  0.808111  0.808111  0.192055  1
  Nd  Nd10  1  0.940946  0.560244  0.560244  1
  Nd  Nd11  1  0.557852  0.942699  0.942699  1
  Nd  Nd12  1  0.560244  0.940946  0.560244  1
  Nd  Nd13  1  0.942699  0.557852  0.942699  1
  Nd  Nd14  1  0.560244  0.560244  0.940946  1
  Nd  Nd15  1  0.942699  0.942699  0.557852  1
  Cd  Cd16  1  0.578260  0.578260  0.261532  1
  Cd  Cd17  1  0.578260  0.261532  0.578260  1
  Cd  Cd18  1  0.261532  0.578260  0.578260  1
  In  In19  1  0.579736  0.579736  0.579736  1
  Os  Os20  1  0.138234  0.138234  0.138234  1
  Os  Os21  1  0.137804  0.137804  0.585197  1
  Os  Os22  1  0.137804  0.585197  0.137804  1
  Os  Os23  1  0.585197  0.137804  0.137804  1
