# generated using pymatgen
data_Hf9TaMn3Ni
_symmetry_space_group_name_H-M   'P 1'
_cell_length_a   8.61221300
_cell_length_b   8.61221304
_cell_length_c   8.14683700
_cell_angle_alpha   90.00000000
_cell_angle_beta   90.00000000
_cell_angle_gamma   120.00000368
_symmetry_Int_Tables_number   1
_chemical_formula_structural   Hf9TaMn3Ni
_chemical_formula_sum   'Hf18 Ta2 Mn6 Ni2'
_cell_volume   523.29811410
_cell_formula_units_Z   2
loop_
 _symmetry_equiv_pos_site_id
 _symmetry_equiv_pos_as_xyz
  1  'x, y, z'
loop_
 _atom_site_type_symbol
 _atom_site_label
 _atom_site_symmetry_multiplicity
 _atom_site_fract_x
 _atom_site_fract_y
 _atom_site_fract_z
 _atom_site_occupancy
  Hf  Hf0  1  0.197559  0.802441  0.443835  1
  Hf  Hf1  1  0.197559  0.395120  0.443835  1
  Hf  Hf2  1  0.604880  0.802441  0.443835  1
  Hf  Hf3  1  0.802441  0.197559  0.556165  1
  Hf  Hf4  1  0.802441  0.604880  0.556165  1
  Hf  Hf5  1  0.395120  0.197559  0.556165  1
  Hf  Hf6  1  0.802441  0.197559  0.943835  1
  Hf  Hf7  1  0.802441  0.604880  0.943835  1
  Hf  Hf8  1  0.395120  0.197559  0.943835  1
  Hf  Hf9  1  0.197559  0.802441  0.056165  1
  Hf  Hf10  1  0.197559  0.395120  0.056165  1
  Hf  Hf11  1  0.604880  0.802441  0.056165  1
  Hf  Hf12  1  0.542230  0.457770  0.250000  1
  Hf  Hf13  1  0.542230  0.084459  0.250000  1
  Hf  Hf14  1  0.915541  0.457770  0.250000  1
  Hf  Hf15  1  0.457770  0.542230  0.750000  1
  Hf  Hf16  1  0.457770  0.915541  0.750000  1
  Hf  Hf17  1  0.084459  0.542230  0.750000  1
  Ta  Ta18  1  0.000000  0.000000  0.500000  1
  Ta  Ta19  1  0.000000  0.000000  0.000000  1
  Mn  Mn20  1  0.885709  0.114291  0.250000  1
  Mn  Mn21  1  0.885709  0.771419  0.250000  1
  Mn  Mn22  1  0.228581  0.114291  0.250000  1
  Mn  Mn23  1  0.114291  0.885709  0.750000  1
  Mn  Mn24  1  0.114291  0.228581  0.750000  1
  Mn  Mn25  1  0.771419  0.885709  0.750000  1
  Ni  Ni26  1  0.333333  0.666667  0.250000  1
  Ni  Ni27  1  0.666667  0.333333  0.750000  1
