# generated using pymatgen
data_K2AuClF6
_symmetry_space_group_name_H-M   'P 1'
_cell_length_a   6.68400211
_cell_length_b   6.33415055
_cell_length_c   9.53073116
_cell_angle_alpha   90.02672866
_cell_angle_beta   98.05861261
_cell_angle_gamma   90.05927103
_symmetry_Int_Tables_number   1
_chemical_formula_structural   K2AuClF6
_chemical_formula_sum   'K4 Au2 Cl2 F12'
_cell_volume   399.52224792
_cell_formula_units_Z   2
loop_
 _symmetry_equiv_pos_site_id
 _symmetry_equiv_pos_as_xyz
  1  'x, y, z'
loop_
 _atom_site_type_symbol
 _atom_site_label
 _atom_site_symmetry_multiplicity
 _atom_site_fract_x
 _atom_site_fract_y
 _atom_site_fract_z
 _atom_site_occupancy
  K  K0  1  0.032478  0.445796  0.224693  1
  K  K1  1  0.467004  0.946057  0.275199  1
  K  K2  1  0.532995  0.053943  0.724801  1
  K  K3  1  0.967523  0.554203  0.775307  1
  Au  Au4  1  0.500001  0.500000  0.000000  1
  Au  Au5  1  0.000000  0.000000  0.500000  1
  Cl  Cl6  1  0.000000  0.000000  0.000000  1
  Cl  Cl7  1  0.500001  0.500000  0.500000  1
  F  F8  1  0.386803  0.312210  0.133270  1
  F  F9  1  0.151175  0.748903  0.042904  1
  F  F10  1  0.832519  0.135594  0.339295  1
  F  F11  1  0.667990  0.637430  0.159999  1
  F  F12  1  0.349481  0.247891  0.457780  1
  F  F13  1  0.113352  0.810566  0.367863  1
  F  F14  1  0.886648  0.189434  0.632137  1
  F  F15  1  0.650521  0.752109  0.542220  1
  F  F16  1  0.332010  0.362571  0.840001  1
  F  F17  1  0.167480  0.864405  0.660705  1
  F  F18  1  0.848825  0.251096  0.957096  1
  F  F19  1  0.613198  0.687789  0.866730  1
