# generated using pymatgen
data_Dy2Pa(P2Rh3)3
_symmetry_space_group_name_H-M   'P 1'
_cell_length_a   3.94285600
_cell_length_b   11.20330500
_cell_length_c   12.73585100
_cell_angle_alpha   90.00000000
_cell_angle_beta   90.00000000
_cell_angle_gamma   90.00000000
_symmetry_Int_Tables_number   1
_chemical_formula_structural   Dy2Pa(P2Rh3)3
_chemical_formula_sum   'Dy4 Pa2 P12 Rh18'
_cell_volume   562.58097979
_cell_formula_units_Z   2
loop_
 _symmetry_equiv_pos_site_id
 _symmetry_equiv_pos_as_xyz
  1  'x, y, z'
loop_
 _atom_site_type_symbol
 _atom_site_label
 _atom_site_symmetry_multiplicity
 _atom_site_fract_x
 _atom_site_fract_y
 _atom_site_fract_z
 _atom_site_occupancy
  Dy  Dy0  1  0.500000  0.814335  0.205954  1
  Dy  Dy1  1  0.500000  0.185665  0.205954  1
  Dy  Dy2  1  0.000000  0.685665  0.794046  1
  Dy  Dy3  1  0.000000  0.314335  0.794046  1
  Pa  Pa4  1  0.000000  0.500000  0.527873  1
  Pa  Pa5  1  0.500000  0.000000  0.472127  1
  P  P6  1  0.500000  0.500000  0.875953  1
  P  P7  1  0.000000  0.000000  0.124047  1
  P  P8  1  0.500000  0.500000  0.351849  1
  P  P9  1  0.000000  0.000000  0.648151  1
  P  P10  1  0.500000  0.313240  0.619731  1
  P  P11  1  0.500000  0.686760  0.619731  1
  P  P12  1  0.000000  0.186760  0.380269  1
  P  P13  1  0.000000  0.813240  0.380269  1
  P  P14  1  0.500000  0.846627  0.893644  1
  P  P15  1  0.500000  0.153373  0.893644  1
  P  P16  1  0.000000  0.653373  0.106356  1
  P  P17  1  0.000000  0.346627  0.106356  1
  Rh  Rh18  1  0.500000  0.500000  0.168779  1
  Rh  Rh19  1  0.000000  0.000000  0.831221  1
  Rh  Rh20  1  0.500000  0.500000  0.696848  1
  Rh  Rh21  1  0.000000  0.000000  0.303152  1
  Rh  Rh22  1  0.000000  0.500000  0.978943  1
  Rh  Rh23  1  0.500000  0.000000  0.021057  1
  Rh  Rh24  1  0.500000  0.334147  0.991483  1
  Rh  Rh25  1  0.500000  0.665853  0.991483  1
  Rh  Rh26  1  0.000000  0.165853  0.008517  1
  Rh  Rh27  1  0.000000  0.834147  0.008517  1
  Rh  Rh28  1  0.500000  0.301727  0.434061  1
  Rh  Rh29  1  0.500000  0.698273  0.434061  1
  Rh  Rh30  1  0.000000  0.198273  0.565939  1
  Rh  Rh31  1  0.000000  0.801727  0.565939  1
  Rh  Rh32  1  0.500000  0.872839  0.710924  1
  Rh  Rh33  1  0.500000  0.127161  0.710924  1
  Rh  Rh34  1  0.000000  0.627161  0.289076  1
  Rh  Rh35  1  0.000000  0.372839  0.289076  1
