# generated using pymatgen
data_Y20GaGe3Bi8
_symmetry_space_group_name_H-M   'P 1'
_cell_length_a   12.13213466
_cell_length_b   9.25196800
_cell_length_c   8.11679079
_cell_angle_alpha   90.00000000
_cell_angle_beta   90.07604590
_cell_angle_gamma   90.00000000
_symmetry_Int_Tables_number   1
_chemical_formula_structural   Y20GaGe3Bi8
_chemical_formula_sum   'Y20 Ga1 Ge3 Bi8'
_cell_volume   911.07748448
_cell_formula_units_Z   1
loop_
 _symmetry_equiv_pos_site_id
 _symmetry_equiv_pos_as_xyz
  1  'x, y, z'
loop_
 _atom_site_type_symbol
 _atom_site_label
 _atom_site_symmetry_multiplicity
 _atom_site_fract_x
 _atom_site_fract_y
 _atom_site_fract_z
 _atom_site_occupancy
  Y  Y0  1  0.563692  0.053053  0.319217  1
  Y  Y1  1  0.063677  0.447402  0.180664  1
  Y  Y2  1  0.436256  0.553173  0.680680  1
  Y  Y3  1  0.936332  0.947125  0.819329  1
  Y  Y4  1  0.436256  0.946827  0.680680  1
  Y  Y5  1  0.936332  0.552875  0.819329  1
  Y  Y6  1  0.563692  0.446947  0.319217  1
  Y  Y7  1  0.063677  0.052598  0.180664  1
  Y  Y8  1  0.713683  0.250000  0.666584  1
  Y  Y9  1  0.213846  0.250000  0.833367  1
  Y  Y10  1  0.286663  0.750000  0.333534  1
  Y  Y11  1  0.786578  0.750000  0.166540  1
  Y  Y12  1  0.501432  0.250000  0.962955  1
  Y  Y13  1  0.001843  0.250000  0.537099  1
  Y  Y14  1  0.498334  0.750000  0.036958  1
  Y  Y15  1  0.998504  0.750000  0.463271  1
  Y  Y16  1  0.794250  0.250000  0.140260  1
  Y  Y17  1  0.294757  0.250000  0.360016  1
  Y  Y18  1  0.205459  0.750000  0.860161  1
  Y  Y19  1  0.705209  0.750000  0.639955  1
  Ga  Ga20  1  0.977324  0.250000  0.910829  1
  Ge  Ge21  1  0.477999  0.250000  0.588610  1
  Ge  Ge22  1  0.022073  0.750000  0.088649  1
  Ge  Ge23  1  0.522023  0.750000  0.411560  1
  Bi  Bi24  1  0.825763  0.009905  0.433657  1
  Bi  Bi25  1  0.326141  0.490090  0.066452  1
  Bi  Bi26  1  0.174200  0.510224  0.566274  1
  Bi  Bi27  1  0.673949  0.989810  0.933556  1
  Bi  Bi28  1  0.174200  0.989776  0.566274  1
  Bi  Bi29  1  0.673949  0.510190  0.933556  1
  Bi  Bi30  1  0.825763  0.490095  0.433657  1
  Bi  Bi31  1  0.326141  0.009910  0.066452  1
