# generated using pymatgen
data_Sc8Mn7Si14W
_symmetry_space_group_name_H-M   'P 1'
_cell_length_a   5.17035329
_cell_length_b   9.68824126
_cell_length_c   9.65409423
_cell_angle_alpha   85.90773145
_cell_angle_beta   74.47932179
_cell_angle_gamma   74.69885531
_symmetry_Int_Tables_number   1
_chemical_formula_structural   Sc8Mn7Si14W
_chemical_formula_sum   'Sc8 Mn7 Si14 W1'
_cell_volume   449.43748077
_cell_formula_units_Z   1
loop_
 _symmetry_equiv_pos_site_id
 _symmetry_equiv_pos_as_xyz
  1  'x, y, z'
loop_
 _atom_site_type_symbol
 _atom_site_label
 _atom_site_symmetry_multiplicity
 _atom_site_fract_x
 _atom_site_fract_y
 _atom_site_fract_z
 _atom_site_occupancy
  Sc  Sc0  1  0.190469  0.804785  0.801411  1
  Sc  Sc1  1  0.799031  0.195729  0.195972  1
  Sc  Sc2  1  0.008077  0.195085  0.801780  1
  Sc  Sc3  1  0.004981  0.804277  0.196169  1
  Sc  Sc4  1  0.361788  0.000020  0.276736  1
  Sc  Sc5  1  0.638371  0.999897  0.722763  1
  Sc  Sc6  1  0.631326  0.724445  0.999351  1
  Sc  Sc7  1  0.369382  0.275723  0.999425  1
  Mn  Mn8  1  0.597469  0.500057  0.805342  1
  Mn  Mn9  1  0.109048  0.499859  0.781854  1
  Mn  Mn10  1  0.597730  0.801806  0.501313  1
  Mn  Mn11  1  0.898373  0.500244  0.203538  1
  Mn  Mn12  1  0.393724  0.211917  0.500364  1
  Mn  Mn13  1  0.900384  0.198761  0.501312  1
  Mn  Mn14  1  0.106561  0.787476  0.500170  1
  Si  Si15  1  0.442466  0.592187  0.592283  1
  Si  Si16  1  0.629389  0.406014  0.415610  1
  Si  Si17  1  0.964683  0.407688  0.592602  1
  Si  Si18  1  0.954490  0.594267  0.416012  1
  Si  Si19  1  0.249423  0.999995  0.999526  1
  Si  Si20  1  0.751201  0.999917  0.999368  1
  Si  Si21  1  0.182808  0.289327  0.297126  1
  Si  Si22  1  0.777024  0.703468  0.703779  1
  Si  Si23  1  0.520311  0.710700  0.297154  1
  Si  Si24  1  0.519294  0.296649  0.703886  1
  Si  Si25  1  0.208297  0.999918  0.580700  1
  Si  Si26  1  0.790785  0.999819  0.421248  1
  Si  Si27  1  0.822842  0.415394  0.993818  1
  Si  Si28  1  0.183367  0.584456  0.993647  1
  W  W29  1  0.396911  0.500118  0.205735  1
