# generated using pymatgen
data_TbDy5Nb2(Co4P3)4
_symmetry_space_group_name_H-M   'P 1'
_cell_length_a   3.71123100
_cell_length_b   10.64215700
_cell_length_c   12.33820200
_cell_angle_alpha   90.00000000
_cell_angle_beta   90.00000000
_cell_angle_gamma   90.00000000
_symmetry_Int_Tables_number   1
_chemical_formula_structural   TbDy5Nb2(Co4P3)4
_chemical_formula_sum   'Tb1 Dy5 Nb2 Co16 P12'
_cell_volume   487.30349368
_cell_formula_units_Z   1
loop_
 _symmetry_equiv_pos_site_id
 _symmetry_equiv_pos_as_xyz
  1  'x, y, z'
loop_
 _atom_site_type_symbol
 _atom_site_label
 _atom_site_symmetry_multiplicity
 _atom_site_fract_x
 _atom_site_fract_y
 _atom_site_fract_z
 _atom_site_occupancy
  Tb  Tb0  1  0.000000  0.500000  0.526302  1
  Dy  Dy1  1  0.500000  0.000000  0.473710  1
  Dy  Dy2  1  0.500000  0.820232  0.205321  1
  Dy  Dy3  1  0.500000  0.179768  0.205321  1
  Dy  Dy4  1  0.000000  0.679903  0.794779  1
  Dy  Dy5  1  0.000000  0.320097  0.794779  1
  Nb  Nb6  1  0.500000  0.500000  0.156553  1
  Nb  Nb7  1  0.000000  0.000000  0.843170  1
  Co  Co8  1  0.500000  0.500000  0.702420  1
  Co  Co9  1  0.000000  0.000000  0.297916  1
  Co  Co10  1  0.000000  0.500000  0.985756  1
  Co  Co11  1  0.500000  0.000000  0.014287  1
  Co  Co12  1  0.500000  0.332432  0.991571  1
  Co  Co13  1  0.500000  0.667568  0.991571  1
  Co  Co14  1  0.000000  0.167468  0.008477  1
  Co  Co15  1  0.000000  0.832532  0.008477  1
  Co  Co16  1  0.500000  0.294907  0.432299  1
  Co  Co17  1  0.500000  0.705093  0.432299  1
  Co  Co18  1  0.000000  0.204464  0.567657  1
  Co  Co19  1  0.000000  0.795536  0.567657  1
  Co  Co20  1  0.500000  0.877579  0.704670  1
  Co  Co21  1  0.500000  0.122421  0.704670  1
  Co  Co22  1  0.000000  0.622645  0.295216  1
  Co  Co23  1  0.000000  0.377355  0.295216  1
  P  P24  1  0.500000  0.500000  0.882155  1
  P  P25  1  0.000000  0.000000  0.118006  1
  P  P26  1  0.500000  0.500000  0.354955  1
  P  P27  1  0.000000  0.000000  0.644615  1
  P  P28  1  0.500000  0.310389  0.615601  1
  P  P29  1  0.500000  0.689611  0.615601  1
  P  P30  1  0.000000  0.189141  0.384484  1
  P  P31  1  0.000000  0.810859  0.384484  1
  P  P32  1  0.500000  0.841433  0.893453  1
  P  P33  1  0.500000  0.158567  0.893453  1
  P  P34  1  0.000000  0.658687  0.106549  1
  P  P35  1  0.000000  0.341313  0.106549  1
