# generated using pymatgen
data_Ho6CoSi12Rh17
_symmetry_space_group_name_H-M   'P 1'
_cell_length_a   3.96024900
_cell_length_b   11.29900900
_cell_length_c   12.80411700
_cell_angle_alpha   90.00000000
_cell_angle_beta   90.00000000
_cell_angle_gamma   90.00000000
_symmetry_Int_Tables_number   1
_chemical_formula_structural   Ho6CoSi12Rh17
_chemical_formula_sum   'Ho6 Co1 Si12 Rh17'
_cell_volume   572.94440334
_cell_formula_units_Z   1
loop_
 _symmetry_equiv_pos_site_id
 _symmetry_equiv_pos_as_xyz
  1  'x, y, z'
loop_
 _atom_site_type_symbol
 _atom_site_label
 _atom_site_symmetry_multiplicity
 _atom_site_fract_x
 _atom_site_fract_y
 _atom_site_fract_z
 _atom_site_occupancy
  Ho  Ho0  1  0.000000  0.500000  0.525171  1
  Ho  Ho1  1  0.500000  0.000000  0.474721  1
  Ho  Ho2  1  0.500000  0.817447  0.203498  1
  Ho  Ho3  1  0.500000  0.182553  0.203498  1
  Ho  Ho4  1  0.000000  0.688738  0.796558  1
  Ho  Ho5  1  0.000000  0.311262  0.796558  1
  Co  Co6  1  0.500000  0.000000  0.025268  1
  Si  Si7  1  0.500000  0.304355  0.617241  1
  Si  Si8  1  0.500000  0.695645  0.617241  1
  Si  Si9  1  0.000000  0.195504  0.382692  1
  Si  Si10  1  0.000000  0.804496  0.382692  1
  Si  Si11  1  0.500000  0.500000  0.877064  1
  Si  Si12  1  0.000000  0.000000  0.120771  1
  Si  Si13  1  0.500000  0.859176  0.900112  1
  Si  Si14  1  0.500000  0.140824  0.900112  1
  Si  Si15  1  0.000000  0.649488  0.102335  1
  Si  Si16  1  0.000000  0.350512  0.102335  1
  Si  Si17  1  0.500000  0.500000  0.339391  1
  Si  Si18  1  0.000000  0.000000  0.659730  1
  Rh  Rh19  1  0.000000  0.500000  0.975491  1
  Rh  Rh20  1  0.500000  0.302186  0.430556  1
  Rh  Rh21  1  0.500000  0.697814  0.430556  1
  Rh  Rh22  1  0.000000  0.197654  0.569257  1
  Rh  Rh23  1  0.000000  0.802346  0.569257  1
  Rh  Rh24  1  0.500000  0.877821  0.713753  1
  Rh  Rh25  1  0.500000  0.122179  0.713753  1
  Rh  Rh26  1  0.000000  0.622756  0.286252  1
  Rh  Rh27  1  0.000000  0.377244  0.286252  1
  Rh  Rh28  1  0.500000  0.328615  0.987326  1
  Rh  Rh29  1  0.500000  0.671385  0.987326  1
  Rh  Rh30  1  0.000000  0.164152  0.012377  1
  Rh  Rh31  1  0.000000  0.835848  0.012377  1
  Rh  Rh32  1  0.500000  0.500000  0.154539  1
  Rh  Rh33  1  0.000000  0.000000  0.844848  1
  Rh  Rh34  1  0.500000  0.500000  0.692123  1
  Rh  Rh35  1  0.000000  0.000000  0.306967  1
