# generated using pymatgen
data_TbY7(Sc3Ge4)4
_symmetry_space_group_name_H-M   'P 1'
_cell_length_a   7.28835112
_cell_length_b   7.46477511
_cell_length_c   14.11657404
_cell_angle_alpha   90.00001507
_cell_angle_beta   90.00854255
_cell_angle_gamma   90.01938673
_symmetry_Int_Tables_number   1
_chemical_formula_structural   TbY7(Sc3Ge4)4
_chemical_formula_sum   'Tb1 Y7 Sc12 Ge16'
_cell_volume   768.02489188
_cell_formula_units_Z   1
loop_
 _symmetry_equiv_pos_site_id
 _symmetry_equiv_pos_as_xyz
  1  'x, y, z'
loop_
 _atom_site_type_symbol
 _atom_site_label
 _atom_site_symmetry_multiplicity
 _atom_site_fract_x
 _atom_site_fract_y
 _atom_site_fract_z
 _atom_site_occupancy
  Tb  Tb0  1  0.006955  0.822791  0.096388  1
  Y  Y1  1  0.507249  0.677179  0.403711  1
  Y  Y2  1  0.492706  0.322743  0.903608  1
  Y  Y3  1  0.992698  0.177235  0.596382  1
  Y  Y4  1  0.992774  0.177253  0.903577  1
  Y  Y5  1  0.492752  0.322792  0.596371  1
  Y  Y6  1  0.507309  0.677133  0.096348  1
  Y  Y7  1  0.007329  0.822751  0.403572  1
  Sc  Sc8  1  0.814200  0.502133  0.749984  1
  Sc  Sc9  1  0.314271  0.997846  0.750043  1
  Sc  Sc10  1  0.685786  0.002250  0.250074  1
  Sc  Sc11  1  0.185854  0.497867  0.250032  1
  Sc  Sc12  1  0.351400  0.166741  0.123970  1
  Sc  Sc13  1  0.851470  0.333386  0.376060  1
  Sc  Sc14  1  0.148577  0.666608  0.876006  1
  Sc  Sc15  1  0.648529  0.833421  0.624031  1
  Sc  Sc16  1  0.648436  0.833440  0.875948  1
  Sc  Sc17  1  0.148542  0.666648  0.624033  1
  Sc  Sc18  1  0.851389  0.333385  0.123998  1
  Sc  Sc19  1  0.351395  0.166601  0.376043  1
  Ge  Ge20  1  0.314588  0.862541  0.250068  1
  Ge  Ge21  1  0.814494  0.637192  0.250038  1
  Ge  Ge22  1  0.185496  0.362484  0.750013  1
  Ge  Ge23  1  0.685379  0.137297  0.749989  1
  Ge  Ge24  1  0.050804  0.127212  0.249866  1
  Ge  Ge25  1  0.551036  0.372951  0.249986  1
  Ge  Ge26  1  0.449008  0.627216  0.749961  1
  Ge  Ge27  1  0.949103  0.872840  0.749955  1
  Ge  Ge28  1  0.186849  0.457330  0.042280  1
  Ge  Ge29  1  0.686835  0.042519  0.457751  1
  Ge  Ge30  1  0.313755  0.957546  0.957596  1
  Ge  Ge31  1  0.813164  0.542662  0.542260  1
  Ge  Ge32  1  0.813166  0.542606  0.957786  1
  Ge  Ge33  1  0.313311  0.957383  0.542334  1
  Ge  Ge34  1  0.686628  0.042623  0.042213  1
  Ge  Ge35  1  0.186763  0.457397  0.457725  1
