# generated using pymatgen
data_CaDy(MgAl4)2
_symmetry_space_group_name_H-M   'P 1'
_cell_length_a   9.43792887
_cell_length_b   9.43792894
_cell_length_c   9.43792822
_cell_angle_alpha   34.24860058
_cell_angle_beta   34.24860020
_cell_angle_gamma   34.24859644
_symmetry_Int_Tables_number   1
_chemical_formula_structural   CaDy(MgAl4)2
_chemical_formula_sum   'Ca1 Dy1 Mg2 Al8'
_cell_volume   237.44112671
_cell_formula_units_Z   1
loop_
 _symmetry_equiv_pos_site_id
 _symmetry_equiv_pos_as_xyz
  1  'x, y, z'
loop_
 _atom_site_type_symbol
 _atom_site_label
 _atom_site_symmetry_multiplicity
 _atom_site_fract_x
 _atom_site_fract_y
 _atom_site_fract_z
 _atom_site_occupancy
  Ca  Ca0  1  0.064403  0.064403  0.064403  1
  Dy  Dy1  1  0.935952  0.935952  0.935952  1
  Mg  Mg2  1  0.560912  0.560912  0.560912  1
  Mg  Mg3  1  0.439418  0.439418  0.439418  1
  Al  Al4  1  0.750500  0.750500  0.750500  1
  Al  Al5  1  0.249871  0.249871  0.249871  1
  Al  Al6  1  0.997585  0.499477  0.499477  1
  Al  Al7  1  0.502189  0.000108  0.000108  1
  Al  Al8  1  0.499477  0.997585  0.499477  1
  Al  Al9  1  0.000108  0.502189  0.000108  1
  Al  Al10  1  0.499477  0.499477  0.997585  1
  Al  Al11  1  0.000108  0.000108  0.502189  1
