# generated using pymatgen
data_Lu10Zn3Bi2Pd
_symmetry_space_group_name_H-M   'P 1'
_cell_length_a   8.47953252
_cell_length_b   8.47953218
_cell_length_c   8.50950317
_cell_angle_alpha   124.22516529
_cell_angle_beta   124.22516121
_cell_angle_gamma   82.59575806
_symmetry_Int_Tables_number   1
_chemical_formula_structural   Lu10Zn3Bi2Pd
_chemical_formula_sum   'Lu10 Zn3 Bi2 Pd1'
_cell_volume   402.26101094
_cell_formula_units_Z   1
loop_
 _symmetry_equiv_pos_site_id
 _symmetry_equiv_pos_as_xyz
  1  'x, y, z'
loop_
 _atom_site_type_symbol
 _atom_site_label
 _atom_site_symmetry_multiplicity
 _atom_site_fract_x
 _atom_site_fract_y
 _atom_site_fract_z
 _atom_site_occupancy
  Lu  Lu0  1  0.002146  0.000002  0.002148  1
  Lu  Lu1  1  0.499998  0.497854  0.997852  1
  Lu  Lu2  1  0.789490  0.294673  0.801673  1
  Lu  Lu3  1  0.205327  0.710510  0.198327  1
  Lu  Lu4  1  0.487818  0.993001  0.198327  1
  Lu  Lu5  1  0.297123  0.480861  0.500000  1
  Lu  Lu6  1  0.019139  0.202877  0.500000  1
  Lu  Lu7  1  0.506999  0.012182  0.801673  1
  Lu  Lu8  1  0.706658  0.512486  0.500000  1
  Lu  Lu9  1  0.987514  0.793342  0.500000  1
  Zn  Zn10  1  0.137505  0.640607  0.778112  1
  Zn  Zn11  1  0.859393  0.362495  0.221888  1
  Zn  Zn12  1  0.637290  0.862710  0.500000  1
  Bi  Bi13  1  0.247123  0.252877  0.000000  1
  Bi  Bi14  1  0.747123  0.752877  0.000000  1
  Pd  Pd15  1  0.369353  0.130647  0.500000  1
