# generated using pymatgen
data_Pr16Mg2TlAgIr4
_symmetry_space_group_name_H-M   'P 1'
_cell_length_a   10.03691794
_cell_length_b   10.03692256
_cell_length_c   10.04962874
_cell_angle_alpha   60.21892656
_cell_angle_beta   60.21900449
_cell_angle_gamma   60.31850182
_symmetry_Int_Tables_number   1
_chemical_formula_structural   Pr16Mg2TlAgIr4
_chemical_formula_sum   'Pr16 Mg2 Tl1 Ag1 Ir4'
_cell_volume   719.95744033
_cell_formula_units_Z   1
loop_
 _symmetry_equiv_pos_site_id
 _symmetry_equiv_pos_as_xyz
  1  'x, y, z'
loop_
 _atom_site_type_symbol
 _atom_site_label
 _atom_site_symmetry_multiplicity
 _atom_site_fract_x
 _atom_site_fract_y
 _atom_site_fract_z
 _atom_site_occupancy
  Pr  Pr0  1  0.347095  0.347092  0.347146  1
  Pr  Pr1  1  0.348566  0.348565  0.956921  1
  Pr  Pr2  1  0.348859  0.954915  0.348348  1
  Pr  Pr3  1  0.954916  0.348858  0.348351  1
  Pr  Pr4  1  0.809431  0.190833  0.189769  1
  Pr  Pr5  1  0.186711  0.809632  0.811463  1
  Pr  Pr6  1  0.190833  0.809432  0.189768  1
  Pr  Pr7  1  0.809631  0.186712  0.811460  1
  Pr  Pr8  1  0.188039  0.188041  0.811727  1
  Pr  Pr9  1  0.805501  0.805502  0.193362  1
  Pr  Pr10  1  0.937195  0.560663  0.560980  1
  Pr  Pr11  1  0.557311  0.940124  0.939177  1
  Pr  Pr12  1  0.560662  0.937193  0.560981  1
  Pr  Pr13  1  0.940122  0.557314  0.939179  1
  Pr  Pr14  1  0.560283  0.560283  0.935015  1
  Pr  Pr15  1  0.938928  0.938930  0.557691  1
  Mg  Mg16  1  0.579974  0.271165  0.576980  1
  Mg  Mg17  1  0.271165  0.579972  0.576982  1
  Tl  Tl18  1  0.582464  0.582463  0.253935  1
  Ag  Ag19  1  0.580114  0.580113  0.586336  1
  Ir  Ir20  1  0.141699  0.141700  0.142075  1
  Ir  Ir21  1  0.142333  0.142327  0.575970  1
  Ir  Ir22  1  0.142449  0.575723  0.143192  1
  Ir  Ir23  1  0.575723  0.142449  0.143192  1
