# generated using pymatgen
data_La2Nd2HoOs2
_symmetry_space_group_name_H-M   'P 1'
_cell_length_a   6.70621669
_cell_length_b   7.25843080
_cell_length_c   9.03417000
_cell_angle_alpha   96.19565002
_cell_angle_beta   111.78707050
_cell_angle_gamma   89.99999406
_symmetry_Int_Tables_number   1
_chemical_formula_structural   La2Nd2HoOs2
_chemical_formula_sum   'La4 Nd4 Ho2 Os4'
_cell_volume   405.57364804
_cell_formula_units_Z   2
loop_
 _symmetry_equiv_pos_site_id
 _symmetry_equiv_pos_as_xyz
  1  'x, y, z'
loop_
 _atom_site_type_symbol
 _atom_site_label
 _atom_site_symmetry_multiplicity
 _atom_site_fract_x
 _atom_site_fract_y
 _atom_site_fract_z
 _atom_site_occupancy
  La  La0  1  0.979820  0.911700  0.185452  1
  La  La1  1  0.794368  0.588300  0.814548  1
  La  La2  1  0.020180  0.088300  0.814548  1
  La  La3  1  0.205632  0.411700  0.185452  1
  Nd  Nd4  1  0.639045  0.815687  0.428727  1
  Nd  Nd5  1  0.210319  0.684313  0.571273  1
  Nd  Nd6  1  0.360955  0.184313  0.571273  1
  Nd  Nd7  1  0.789681  0.315687  0.428727  1
  Ho  Ho8  1  0.436445  0.750000  0.000000  1
  Ho  Ho9  1  0.563555  0.250000  0.000000  1
  Os  Os10  1  0.820369  0.575150  0.213722  1
  Os  Os11  1  0.606649  0.924850  0.786278  1
  Os  Os12  1  0.179631  0.424850  0.786278  1
  Os  Os13  1  0.393351  0.075150  0.213722  1
