# generated using pymatgen
data_TbHoTlF7
_symmetry_space_group_name_H-M   'P 1'
_cell_length_a   6.73052300
_cell_length_b   6.73052232
_cell_length_c   4.38513500
_cell_angle_alpha   90.00000000
_cell_angle_beta   90.00000000
_cell_angle_gamma   116.65948516
_symmetry_Int_Tables_number   1
_chemical_formula_structural   TbHoTlF7
_chemical_formula_sum   'Tb1 Ho1 Tl1 F7'
_cell_volume   177.52801903
_cell_formula_units_Z   1
loop_
 _symmetry_equiv_pos_site_id
 _symmetry_equiv_pos_as_xyz
  1  'x, y, z'
loop_
 _atom_site_type_symbol
 _atom_site_label
 _atom_site_symmetry_multiplicity
 _atom_site_fract_x
 _atom_site_fract_y
 _atom_site_fract_z
 _atom_site_occupancy
  Tb  Tb0  1  0.692496  0.307504  0.500000  1
  Ho  Ho1  1  0.306868  0.693132  0.500000  1
  Tl  Tl2  1  0.000075  0.999925  0.000000  1
  F  F3  1  0.707400  0.292599  0.000000  1
  F  F4  1  0.293459  0.706540  0.000000  1
  F  F5  1  0.333373  0.041296  0.500000  1
  F  F6  1  0.045495  0.336441  0.500000  1
  F  F7  1  0.498569  0.501431  0.500000  1
  F  F8  1  0.958704  0.666627  0.500000  1
  F  F9  1  0.663559  0.954505  0.500000  1
