# generated using pymatgen
data_Ho16MgCd3(OsPd)2
_symmetry_space_group_name_H-M   'P 1'
_cell_length_a   9.66783848
_cell_length_b   9.66783774
_cell_length_c   9.73079105
_cell_angle_alpha   59.26188594
_cell_angle_beta   59.26188898
_cell_angle_gamma   59.00288346
_symmetry_Int_Tables_number   1
_chemical_formula_structural   Ho16MgCd3(OsPd)2
_chemical_formula_sum   'Ho16 Mg1 Cd3 Os2 Pd2'
_cell_volume   631.02895591
_cell_formula_units_Z   1
loop_
 _symmetry_equiv_pos_site_id
 _symmetry_equiv_pos_as_xyz
  1  'x, y, z'
loop_
 _atom_site_type_symbol
 _atom_site_label
 _atom_site_symmetry_multiplicity
 _atom_site_fract_x
 _atom_site_fract_y
 _atom_site_fract_z
 _atom_site_occupancy
  Ho  Ho0  1  0.350730  0.350730  0.355245  1
  Ho  Ho1  1  0.349853  0.349853  0.946299  1
  Ho  Ho2  1  0.343879  0.957307  0.349389  1
  Ho  Ho3  1  0.957307  0.343879  0.349389  1
  Ho  Ho4  1  0.815751  0.187791  0.190817  1
  Ho  Ho5  1  0.185281  0.817684  0.807196  1
  Ho  Ho6  1  0.187791  0.815751  0.190817  1
  Ho  Ho7  1  0.817684  0.185281  0.807196  1
  Ho  Ho8  1  0.188070  0.188070  0.811059  1
  Ho  Ho9  1  0.810119  0.810119  0.190289  1
  Ho  Ho10  1  0.937867  0.557304  0.569142  1
  Ho  Ho11  1  0.556879  0.936829  0.938605  1
  Ho  Ho12  1  0.557304  0.937867  0.569142  1
  Ho  Ho13  1  0.936829  0.556879  0.938605  1
  Ho  Ho14  1  0.565421  0.565421  0.937623  1
  Ho  Ho15  1  0.938262  0.938262  0.562208  1
  Mg  Mg16  1  0.575195  0.575195  0.575651  1
  Cd  Cd17  1  0.580487  0.580487  0.256015  1
  Cd  Cd18  1  0.581435  0.253957  0.581300  1
  Cd  Cd19  1  0.253957  0.581435  0.581300  1
  Os  Os20  1  0.145071  0.145071  0.137617  1
  Os  Os21  1  0.146704  0.146704  0.572485  1
  Pd  Pd22  1  0.145992  0.572135  0.141305  1
  Pd  Pd23  1  0.572135  0.145992  0.141305  1
