# generated using pymatgen
data_Dy3YAl18(Co2Pt)2
_symmetry_space_group_name_H-M   'P 1'
_cell_length_a   7.46073310
_cell_length_b   7.46060763
_cell_length_c   9.34762201
_cell_angle_alpha   90.00264022
_cell_angle_beta   90.00122701
_cell_angle_gamma   119.53486468
_symmetry_Int_Tables_number   1
_chemical_formula_structural   Dy3YAl18(Co2Pt)2
_chemical_formula_sum   'Dy3 Y1 Al18 Co4 Pt2'
_cell_volume   452.69322867
_cell_formula_units_Z   1
loop_
 _symmetry_equiv_pos_site_id
 _symmetry_equiv_pos_as_xyz
  1  'x, y, z'
loop_
 _atom_site_type_symbol
 _atom_site_label
 _atom_site_symmetry_multiplicity
 _atom_site_fract_x
 _atom_site_fract_y
 _atom_site_fract_z
 _atom_site_occupancy
  Dy  Dy0  1  0.993475  0.669604  0.250373  1
  Dy  Dy1  1  0.006585  0.330394  0.750399  1
  Dy  Dy2  1  0.669593  0.993423  0.249602  1
  Y  Y3  1  0.330406  0.006575  0.749624  1
  Al  Al4  1  0.121526  0.121532  0.249995  1
  Al  Al5  1  0.878391  0.878504  0.750006  1
  Al  Al6  1  0.331030  0.325081  0.545971  1
  Al  Al7  1  0.668954  0.674922  0.046090  1
  Al  Al8  1  0.325035  0.331106  0.954029  1
  Al  Al9  1  0.674939  0.668966  0.453911  1
  Al  Al10  1  0.341145  0.549657  0.241802  1
  Al  Al11  1  0.659047  0.450470  0.741790  1
  Al  Al12  1  0.549631  0.341153  0.258192  1
  Al  Al13  1  0.450357  0.658875  0.758212  1
  Al  Al14  1  0.006156  0.334274  0.073277  1
  Al  Al15  1  0.993754  0.665614  0.573145  1
  Al  Al16  1  0.334300  0.006164  0.426660  1
  Al  Al17  1  0.665784  0.993846  0.926838  1
  Al  Al18  1  0.009812  0.673629  0.926943  1
  Al  Al19  1  0.990108  0.326319  0.426802  1
  Al  Al20  1  0.673756  0.009868  0.573080  1
  Al  Al21  1  0.326307  0.990087  0.073264  1
  Co  Co22  1  0.000076  0.999849  0.000007  1
  Co  Co23  1  0.999805  0.000122  0.499993  1
  Co  Co24  1  0.329142  0.670809  0.999991  1
  Co  Co25  1  0.670872  0.329176  0.500013  1
  Pt  Pt26  1  0.672100  0.327940  0.999979  1
  Pt  Pt27  1  0.327914  0.672042  0.500011  1
