# generated using pymatgen
data_Sc9Tc4
_symmetry_space_group_name_H-M   'P 1'
_cell_length_a   8.60092100
_cell_length_b   8.60092018
_cell_length_c   8.39148600
_cell_angle_alpha   90.00000000
_cell_angle_beta   90.00000000
_cell_angle_gamma   119.99999162
_symmetry_Int_Tables_number   1
_chemical_formula_structural   Sc9Tc4
_chemical_formula_sum   'Sc18 Tc8'
_cell_volume   537.60019626
_cell_formula_units_Z   2
loop_
 _symmetry_equiv_pos_site_id
 _symmetry_equiv_pos_as_xyz
  1  'x, y, z'
loop_
 _atom_site_type_symbol
 _atom_site_label
 _atom_site_symmetry_multiplicity
 _atom_site_fract_x
 _atom_site_fract_y
 _atom_site_fract_z
 _atom_site_occupancy
  Sc  Sc0  1  0.399990  0.199995  0.054723  1
  Sc  Sc1  1  0.800005  0.199995  0.054723  1
  Sc  Sc2  1  0.800004  0.600009  0.054723  1
  Sc  Sc3  1  0.095471  0.547735  0.250000  1
  Sc  Sc4  1  0.452265  0.547735  0.250000  1
  Sc  Sc5  1  0.452265  0.904530  0.250000  1
  Sc  Sc6  1  0.399990  0.199995  0.445277  1
  Sc  Sc7  1  0.800005  0.199995  0.445277  1
  Sc  Sc8  1  0.800004  0.600009  0.445277  1
  Sc  Sc9  1  0.199995  0.399991  0.554724  1
  Sc  Sc10  1  0.199994  0.800005  0.554724  1
  Sc  Sc11  1  0.600010  0.800005  0.554724  1
  Sc  Sc12  1  0.547734  0.095470  0.750001  1
  Sc  Sc13  1  0.547735  0.452265  0.750001  1
  Sc  Sc14  1  0.904530  0.452265  0.750001  1
  Sc  Sc15  1  0.199995  0.399991  0.945276  1
  Sc  Sc16  1  0.199994  0.800005  0.945276  1
  Sc  Sc17  1  0.600010  0.800005  0.945276  1
  Tc  Tc18  1  0.108855  0.217711  0.250000  1
  Tc  Tc19  1  0.108854  0.891145  0.250000  1
  Tc  Tc20  1  0.782290  0.891145  0.250000  1
  Tc  Tc21  1  0.217711  0.108855  0.750001  1
  Tc  Tc22  1  0.891145  0.108855  0.750001  1
  Tc  Tc23  1  0.891144  0.782289  0.750001  1
  Tc  Tc24  1  0.000000  0.000000  0.000000  1
  Tc  Tc25  1  0.000000  0.000000  0.500000  1
