# generated using pymatgen
data_YbPr6CoI12
_symmetry_space_group_name_H-M   'P 1'
_cell_length_a   10.09910794
_cell_length_b   10.09910813
_cell_length_c   10.09910861
_cell_angle_alpha   107.15900497
_cell_angle_beta   107.15899839
_cell_angle_gamma   107.15899808
_symmetry_Int_Tables_number   1
_chemical_formula_structural   YbPr6CoI12
_chemical_formula_sum   'Yb1 Pr6 Co1 I12'
_cell_volume   854.06930066
_cell_formula_units_Z   1
loop_
 _symmetry_equiv_pos_site_id
 _symmetry_equiv_pos_as_xyz
  1  'x, y, z'
loop_
 _atom_site_type_symbol
 _atom_site_label
 _atom_site_symmetry_multiplicity
 _atom_site_fract_x
 _atom_site_fract_y
 _atom_site_fract_z
 _atom_site_occupancy
  Yb  Yb0  1  0.500000  0.500000  0.500000  1
  Pr  Pr1  1  0.975838  0.902503  0.700989  1
  Pr  Pr2  1  0.024162  0.097497  0.299011  1
  Pr  Pr3  1  0.097497  0.299011  0.024162  1
  Pr  Pr4  1  0.299011  0.024162  0.097497  1
  Pr  Pr5  1  0.902503  0.700989  0.975838  1
  Pr  Pr6  1  0.700989  0.975838  0.902503  1
  Co  Co7  1  0.000000  0.000000  0.000000  1
  I  I8  1  0.539099  0.617190  0.837564  1
  I  I9  1  0.460901  0.382810  0.162436  1
  I  I10  1  0.319076  0.927363  0.774777  1
  I  I11  1  0.382810  0.162436  0.460901  1
  I  I12  1  0.927363  0.774777  0.319076  1
  I  I13  1  0.680924  0.072637  0.225223  1
  I  I14  1  0.072637  0.225223  0.680924  1
  I  I15  1  0.774777  0.319076  0.927363  1
  I  I16  1  0.225223  0.680924  0.072637  1
  I  I17  1  0.837564  0.539099  0.617190  1
  I  I18  1  0.162436  0.460901  0.382810  1
  I  I19  1  0.617190  0.837564  0.539099  1
