# generated using pymatgen
data_PrIn2Ir9
_symmetry_space_group_name_H-M   'P 1'
_cell_length_a   8.93085000
_cell_length_b   8.93085000
_cell_length_c   5.22640900
_cell_angle_alpha   90.00000000
_cell_angle_beta   90.00000000
_cell_angle_gamma   90.00000000
_symmetry_Int_Tables_number   1
_chemical_formula_structural   PrIn2Ir9
_chemical_formula_sum   'Pr2 In4 Ir18'
_cell_volume   416.85880896
_cell_formula_units_Z   2
loop_
 _symmetry_equiv_pos_site_id
 _symmetry_equiv_pos_as_xyz
  1  'x, y, z'
loop_
 _atom_site_type_symbol
 _atom_site_label
 _atom_site_symmetry_multiplicity
 _atom_site_fract_x
 _atom_site_fract_y
 _atom_site_fract_z
 _atom_site_occupancy
  Pr  Pr0  1  0.500000  0.500000  0.000000  1
  Pr  Pr1  1  0.000000  0.000000  0.000000  1
  In  In2  1  0.120349  0.620349  0.000000  1
  In  In3  1  0.879651  0.379651  0.000000  1
  In  In4  1  0.379651  0.120349  0.000000  1
  In  In5  1  0.620349  0.879651  0.000000  1
  Ir  Ir6  1  0.000000  0.500000  0.500000  1
  Ir  Ir7  1  0.500000  0.000000  0.500000  1
  Ir  Ir8  1  0.557255  0.703402  0.500000  1
  Ir  Ir9  1  0.442745  0.296598  0.500000  1
  Ir  Ir10  1  0.942745  0.203402  0.500000  1
  Ir  Ir11  1  0.057255  0.796598  0.500000  1
  Ir  Ir12  1  0.703402  0.442745  0.500000  1
  Ir  Ir13  1  0.296598  0.557255  0.500000  1
  Ir  Ir14  1  0.203402  0.057255  0.500000  1
  Ir  Ir15  1  0.796598  0.942745  0.500000  1
  Ir  Ir16  1  0.319504  0.819504  0.756331  1
  Ir  Ir17  1  0.680496  0.180496  0.756331  1
  Ir  Ir18  1  0.180496  0.319504  0.756331  1
  Ir  Ir19  1  0.819504  0.680496  0.756331  1
  Ir  Ir20  1  0.680496  0.180496  0.243669  1
  Ir  Ir21  1  0.319504  0.819504  0.243669  1
  Ir  Ir22  1  0.819504  0.680496  0.243669  1
  Ir  Ir23  1  0.180496  0.319504  0.243669  1
