# generated using pymatgen
data_SmYCS
_symmetry_space_group_name_H-M   'P 1'
_cell_length_a   6.80559303
_cell_length_b   6.80559289
_cell_length_c   6.80559346
_cell_angle_alpha   32.26422791
_cell_angle_beta   32.26423419
_cell_angle_gamma   32.26423310
_symmetry_Int_Tables_number   1
_chemical_formula_structural   SmYCS
_chemical_formula_sum   'Sm1 Y1 C1 S1'
_cell_volume   79.84189174
_cell_formula_units_Z   1
loop_
 _symmetry_equiv_pos_site_id
 _symmetry_equiv_pos_as_xyz
  1  'x, y, z'
loop_
 _atom_site_type_symbol
 _atom_site_label
 _atom_site_symmetry_multiplicity
 _atom_site_fract_x
 _atom_site_fract_y
 _atom_site_fract_z
 _atom_site_occupancy
  Sm  Sm0  1  0.986319  0.986319  0.986319  1
  Y  Y1  1  0.511527  0.511527  0.511527  1
  C  C2  1  0.249279  0.249279  0.249279  1
  S  S3  1  0.752875  0.752875  0.752875  1
