# generated using pymatgen
data_YbCe6TmH24
_symmetry_space_group_name_H-M   'P 1'
_cell_length_a   6.76123900
_cell_length_b   6.76123900
_cell_length_c   6.76123900
_cell_angle_alpha   90.00000000
_cell_angle_beta   90.00000000
_cell_angle_gamma   90.00000000
_symmetry_Int_Tables_number   1
_chemical_formula_structural   YbCe6TmH24
_chemical_formula_sum   'Yb1 Ce6 Tm1 H24'
_cell_volume   309.08566511
_cell_formula_units_Z   1
loop_
 _symmetry_equiv_pos_site_id
 _symmetry_equiv_pos_as_xyz
  1  'x, y, z'
loop_
 _atom_site_type_symbol
 _atom_site_label
 _atom_site_symmetry_multiplicity
 _atom_site_fract_x
 _atom_site_fract_y
 _atom_site_fract_z
 _atom_site_occupancy
  Yb  Yb0  1  0.500000  0.500000  0.500000  1
  Ce  Ce1  1  0.249632  0.000000  0.500000  1
  Ce  Ce2  1  0.750368  0.000000  0.500000  1
  Ce  Ce3  1  0.000000  0.500000  0.249632  1
  Ce  Ce4  1  0.000000  0.500000  0.750368  1
  Ce  Ce5  1  0.500000  0.750368  0.000000  1
  Ce  Ce6  1  0.500000  0.249632  0.000000  1
  Tm  Tm7  1  0.000000  0.000000  0.000000  1
  H  H8  1  0.000000  0.152396  0.296834  1
  H  H9  1  0.500000  0.187602  0.656018  1
  H  H10  1  0.500000  0.812398  0.343982  1
  H  H11  1  0.812398  0.656018  0.500000  1
  H  H12  1  0.187602  0.656018  0.500000  1
  H  H13  1  0.343982  0.500000  0.812398  1
  H  H14  1  0.656018  0.500000  0.812398  1
  H  H15  1  0.296834  0.000000  0.152396  1
  H  H16  1  0.152396  0.296834  0.000000  1
  H  H17  1  0.847604  0.703166  0.000000  1
  H  H18  1  0.296834  0.000000  0.847604  1
  H  H19  1  0.847604  0.296834  0.000000  1
  H  H20  1  0.703166  0.000000  0.152396  1
  H  H21  1  0.703166  0.000000  0.847604  1
  H  H22  1  0.152396  0.703166  0.000000  1
  H  H23  1  0.000000  0.847604  0.703166  1
  H  H24  1  0.000000  0.152396  0.703166  1
  H  H25  1  0.000000  0.847604  0.296834  1
  H  H26  1  0.656018  0.500000  0.187602  1
  H  H27  1  0.343982  0.500000  0.187602  1
  H  H28  1  0.812398  0.343982  0.500000  1
  H  H29  1  0.187602  0.343982  0.500000  1
  H  H30  1  0.500000  0.812398  0.656018  1
  H  H31  1  0.500000  0.187602  0.343982  1
