# generated using pymatgen
data_Tb3Dy(OF)4
_symmetry_space_group_name_H-M   'P 1'
_cell_length_a   5.56837657
_cell_length_b   5.69193919
_cell_length_c   5.64758502
_cell_angle_alpha   80.26476738
_cell_angle_beta   90.05682219
_cell_angle_gamma   90.02207102
_symmetry_Int_Tables_number   1
_chemical_formula_structural   Tb3Dy(OF)4
_chemical_formula_sum   'Tb3 Dy1 O4 F4'
_cell_volume   176.42168032
_cell_formula_units_Z   1
loop_
 _symmetry_equiv_pos_site_id
 _symmetry_equiv_pos_as_xyz
  1  'x, y, z'
loop_
 _atom_site_type_symbol
 _atom_site_label
 _atom_site_symmetry_multiplicity
 _atom_site_fract_x
 _atom_site_fract_y
 _atom_site_fract_z
 _atom_site_occupancy
  Tb  Tb0  1  0.475853  0.695132  0.712720  1
  Tb  Tb1  1  0.525021  0.305233  0.286552  1
  Tb  Tb2  1  0.976202  0.305276  0.786909  1
  Dy  Dy3  1  0.024958  0.693670  0.212919  1
  O  O4  1  0.247512  0.465267  0.508743  1
  O  O5  1  0.753880  0.536379  0.489642  1
  O  O6  1  0.748497  0.534937  0.990705  1
  O  O7  1  0.253015  0.465807  0.009455  1
  F  F8  1  0.174463  0.941384  0.848609  1
  F  F9  1  0.824870  0.055160  0.154046  1
  F  F10  1  0.673313  0.059517  0.653364  1
  F  F11  1  0.322416  0.942237  0.346337  1
