# generated using pymatgen
data_Y5Mg3Co15NiP12
_symmetry_space_group_name_H-M   'P 1'
_cell_length_a   12.17191629
_cell_length_b   12.14400572
_cell_length_c   3.73500500
_cell_angle_alpha   90.00000000
_cell_angle_beta   90.00000000
_cell_angle_gamma   119.93423211
_symmetry_Int_Tables_number   1
_chemical_formula_structural   Y5Mg3Co15NiP12
_chemical_formula_sum   'Y5 Mg3 Co15 Ni1 P12'
_cell_volume   478.44296576
_cell_formula_units_Z   1
loop_
 _symmetry_equiv_pos_site_id
 _symmetry_equiv_pos_as_xyz
  1  'x, y, z'
loop_
 _atom_site_type_symbol
 _atom_site_label
 _atom_site_symmetry_multiplicity
 _atom_site_fract_x
 _atom_site_fract_y
 _atom_site_fract_z
 _atom_site_occupancy
  Y  Y0  1  0.186168  0.186022  0.500000  1
  Y  Y1  1  0.812916  0.999728  0.500000  1
  Y  Y2  1  0.999576  0.813089  0.500000  1
  Y  Y3  1  0.333946  0.666624  0.000000  1
  Y  Y4  1  0.666712  0.333226  0.000000  1
  Mg  Mg5  1  0.561027  0.561075  0.000000  1
  Mg  Mg6  1  0.438187  0.999255  0.000000  1
  Mg  Mg7  1  0.999578  0.438476  0.000000  1
  Co  Co8  1  0.720041  0.720208  0.500000  1
  Co  Co9  1  0.279845  0.000112  0.500000  1
  Co  Co10  1  0.999813  0.279777  0.500000  1
  Co  Co11  1  0.177016  0.375837  0.000000  1
  Co  Co12  1  0.624682  0.803185  0.000000  1
  Co  Co13  1  0.196817  0.821512  0.000000  1
  Co  Co14  1  0.803679  0.624841  0.000000  1
  Co  Co15  1  0.821411  0.196893  0.000000  1
  Co  Co16  1  0.375924  0.179399  0.000000  1
  Co  Co17  1  0.357004  0.480144  0.500000  1
  Co  Co18  1  0.516911  0.875090  0.500000  1
  Co  Co19  1  0.125274  0.641801  0.500000  1
  Co  Co20  1  0.876578  0.516727  0.500000  1
  Co  Co21  1  0.641930  0.124976  0.500000  1
  Co  Co22  1  0.000016  0.000276  0.000000  1
  Ni  Ni23  1  0.484694  0.359435  0.500000  1
  P  P24  1  0.820589  0.820927  0.000000  1
  P  P25  1  0.179548  0.000196  0.000000  1
  P  P26  1  0.999582  0.179275  0.000000  1
  P  P27  1  0.171983  0.479004  0.500000  1
  P  P28  1  0.521542  0.693596  0.500000  1
  P  P29  1  0.306242  0.827622  0.500000  1
  P  P30  1  0.698543  0.524403  0.500000  1
  P  P31  1  0.827790  0.306152  0.500000  1
  P  P32  1  0.478022  0.170365  0.500000  1
  P  P33  1  0.356363  0.360923  0.000000  1
  P  P34  1  0.638903  0.000177  0.000000  1
  P  P35  1  0.001148  0.639651  0.000000  1
