# generated using pymatgen
data_Hf3BeMo(AsRu)2
_symmetry_space_group_name_H-M   'P 1'
_cell_length_a   7.66661064
_cell_length_b   7.66661078
_cell_length_c   7.66661127
_cell_angle_alpha   126.65802904
_cell_angle_beta   125.36177783
_cell_angle_gamma   79.87625430
_symmetry_Int_Tables_number   1
_chemical_formula_structural   Hf3BeMo(AsRu)2
_chemical_formula_sum   'Hf6 Be2 Mo2 As4 Ru4'
_cell_volume   284.70564177
_cell_formula_units_Z   2
loop_
 _symmetry_equiv_pos_site_id
 _symmetry_equiv_pos_as_xyz
  1  'x, y, z'
loop_
 _atom_site_type_symbol
 _atom_site_label
 _atom_site_symmetry_multiplicity
 _atom_site_fract_x
 _atom_site_fract_y
 _atom_site_fract_z
 _atom_site_occupancy
  Hf  Hf0  1  0.445117  0.647908  0.702791  1
  Hf  Hf1  1  0.554883  0.257674  0.202791  1
  Hf  Hf2  1  0.749814  0.863596  0.613783  1
  Hf  Hf3  1  0.250186  0.863970  0.113783  1
  Hf  Hf4  1  0.055306  0.257709  0.702403  1
  Hf  Hf5  1  0.944694  0.647097  0.202403  1
  Be  Be6  1  0.250772  0.246429  0.495658  1
  Be  Be7  1  0.749228  0.244885  0.995658  1
  Mo  Mo8  1  0.500000  0.493619  0.993619  1
  Mo  Mo9  1  0.000000  0.493619  0.493619  1
  As  As10  1  0.332581  0.586639  0.253835  1
  As  As11  1  0.667419  0.921254  0.254058  1
  As  As12  1  0.167197  0.921254  0.753835  1
  As  As13  1  0.832803  0.586639  0.754058  1
  Ru  Ru14  1  0.119304  0.252432  0.130525  1
  Ru  Ru15  1  0.880696  0.011221  0.133127  1
  Ru  Ru16  1  0.378093  0.011221  0.630525  1
  Ru  Ru17  1  0.621907  0.252432  0.633127  1
