# generated using pymatgen
data_Zr6Ta4Al5SiN2
_symmetry_space_group_name_H-M   'P 1'
_cell_length_a   8.01332900
_cell_length_b   8.02993279
_cell_length_c   5.48841000
_cell_angle_alpha   90.00000000
_cell_angle_beta   90.00000000
_cell_angle_gamma   119.93162745
_symmetry_Int_Tables_number   1
_chemical_formula_structural   Zr6Ta4Al5SiN2
_chemical_formula_sum   'Zr6 Ta4 Al5 Si1 N2'
_cell_volume   306.05597700
_cell_formula_units_Z   1
loop_
 _symmetry_equiv_pos_site_id
 _symmetry_equiv_pos_as_xyz
  1  'x, y, z'
loop_
 _atom_site_type_symbol
 _atom_site_label
 _atom_site_symmetry_multiplicity
 _atom_site_fract_x
 _atom_site_fract_y
 _atom_site_fract_z
 _atom_site_occupancy
  Zr  Zr0  1  0.233846  0.000000  0.250000  1
  Zr  Zr1  1  0.766187  0.000000  0.750000  1
  Zr  Zr2  1  0.995926  0.228529  0.250000  1
  Zr  Zr3  1  0.000297  0.770681  0.750000  1
  Zr  Zr4  1  0.767396  0.771471  0.250000  1
  Zr  Zr5  1  0.229616  0.229319  0.750000  1
  Ta  Ta6  1  0.338561  0.672732  0.001093  1
  Ta  Ta7  1  0.665830  0.327268  0.001093  1
  Ta  Ta8  1  0.665830  0.327268  0.498907  1
  Ta  Ta9  1  0.338561  0.672732  0.498907  1
  Al  Al10  1  0.409752  0.000000  0.750000  1
  Al  Al11  1  0.999904  0.587457  0.250000  1
  Al  Al12  1  0.002472  0.414915  0.750000  1
  Al  Al13  1  0.412447  0.412543  0.250000  1
  Al  Al14  1  0.587557  0.585085  0.750000  1
  Si  Si15  1  0.587291  0.000000  0.250000  1
  N  N16  1  0.999263  0.000000  0.999942  1
  N  N17  1  0.999263  0.000000  0.500058  1
