# generated using pymatgen
data_Tb4Er2Al24Ru5Pt3
_symmetry_space_group_name_H-M   'P 1'
_cell_length_a   8.82958094
_cell_length_b   8.80501388
_cell_length_c   9.55878078
_cell_angle_alpha   90.13131453
_cell_angle_beta   89.93916332
_cell_angle_gamma   119.55787062
_symmetry_Int_Tables_number   1
_chemical_formula_structural   Tb4Er2Al24Ru5Pt3
_chemical_formula_sum   'Tb4 Er2 Al24 Ru5 Pt3'
_cell_volume   646.42746912
_cell_formula_units_Z   1
loop_
 _symmetry_equiv_pos_site_id
 _symmetry_equiv_pos_as_xyz
  1  'x, y, z'
loop_
 _atom_site_type_symbol
 _atom_site_label
 _atom_site_symmetry_multiplicity
 _atom_site_fract_x
 _atom_site_fract_y
 _atom_site_fract_z
 _atom_site_occupancy
  Tb  Tb0  1  0.811024  0.615176  0.248506  1
  Tb  Tb1  1  0.616162  0.809724  0.749599  1
  Tb  Tb2  1  0.191224  0.806901  0.750080  1
  Tb  Tb3  1  0.188887  0.384576  0.751495  1
  Er  Er4  1  0.386618  0.191003  0.249958  1
  Er  Er5  1  0.807435  0.194349  0.249586  1
  Al  Al6  1  0.438485  0.875197  0.246732  1
  Al  Al7  1  0.122463  0.559376  0.250289  1
  Al  Al8  1  0.435370  0.563294  0.250373  1
  Al  Al9  1  0.562087  0.125549  0.753786  1
  Al  Al10  1  0.876785  0.439462  0.749761  1
  Al  Al11  1  0.564271  0.435828  0.749630  1
  Al  Al12  1  0.158864  0.832307  0.420788  1
  Al  Al13  1  0.157999  0.324643  0.422541  1
  Al  Al14  1  0.676495  0.837472  0.422056  1
  Al  Al15  1  0.841063  0.168048  0.577499  1
  Al  Al16  1  0.841385  0.674210  0.576074  1
  Al  Al17  1  0.323813  0.162927  0.576388  1
  Al  Al18  1  0.835395  0.163578  0.923992  1
  Al  Al19  1  0.840959  0.673559  0.924719  1
  Al  Al20  1  0.325404  0.158297  0.926467  1
  Al  Al21  1  0.164769  0.837072  0.077859  1
  Al  Al22  1  0.158491  0.325501  0.076559  1
  Al  Al23  1  0.674932  0.842408  0.075268  1
  Al  Al24  1  0.327110  0.663794  0.529605  1
  Al  Al25  1  0.672534  0.335587  0.468072  1
  Al  Al26  1  0.669429  0.329992  0.030276  1
  Al  Al27  1  0.330463  0.669886  0.971670  1
  Al  Al28  1  0.004969  0.001431  0.249838  1
  Al  Al29  1  0.996251  0.000716  0.750119  1
  Ru  Ru30  1  0.999881  0.999766  0.499827  1
  Ru  Ru31  1  0.999879  0.999803  0.000092  1
  Ru  Ru32  1  0.999515  0.499313  0.499500  1
  Ru  Ru33  1  0.500250  0.000603  0.001091  1
  Ru  Ru34  1  0.999640  0.499488  0.000600  1
  Pt  Pt35  1  0.500189  0.000523  0.499305  1
  Pt  Pt36  1  0.499713  0.499270  0.499434  1
  Pt  Pt37  1  0.499798  0.499374  0.000565  1
