# generated using pymatgen
data_Nb3Zn(InRh3)2
_symmetry_space_group_name_H-M   'P 1'
_cell_length_a   4.15364100
_cell_length_b   7.47709200
_cell_length_c   12.36654300
_cell_angle_alpha   90.00000000
_cell_angle_beta   90.00000000
_cell_angle_gamma   90.00000000
_symmetry_Int_Tables_number   1
_chemical_formula_structural   Nb3Zn(InRh3)2
_chemical_formula_sum   'Nb6 Zn2 In4 Rh12'
_cell_volume   384.06965380
_cell_formula_units_Z   2
loop_
 _symmetry_equiv_pos_site_id
 _symmetry_equiv_pos_as_xyz
  1  'x, y, z'
loop_
 _atom_site_type_symbol
 _atom_site_label
 _atom_site_symmetry_multiplicity
 _atom_site_fract_x
 _atom_site_fract_y
 _atom_site_fract_z
 _atom_site_occupancy
  Nb  Nb0  1  0.000000  0.499999  0.988662  1
  Nb  Nb1  1  0.500007  0.000000  0.164919  1
  Nb  Nb2  1  0.000000  0.499999  0.335081  1
  Nb  Nb3  1  0.499999  0.000000  0.511338  1
  Nb  Nb4  1  0.000000  0.499999  0.674942  1
  Nb  Nb5  1  0.499992  0.000000  0.825058  1
  Zn  Zn6  1  0.000000  0.000000  0.668067  1
  Zn  Zn7  1  0.499994  0.499999  0.831933  1
  In  In8  1  0.000000  0.000000  0.996569  1
  In  In9  1  0.500004  0.499999  0.163989  1
  In  In10  1  0.000000  0.000000  0.336011  1
  In  In11  1  0.499999  0.499999  0.503431  1
  Rh  Rh12  1  0.499999  0.254194  0.994233  1
  Rh  Rh13  1  0.499999  0.745806  0.994233  1
  Rh  Rh14  1  0.000000  0.250269  0.165581  1
  Rh  Rh15  1  0.000000  0.749732  0.165581  1
  Rh  Rh16  1  0.500009  0.249731  0.334418  1
  Rh  Rh17  1  0.500009  0.750269  0.334418  1
  Rh  Rh18  1  0.000000  0.245807  0.505767  1
  Rh  Rh19  1  0.000000  0.754193  0.505767  1
  Rh  Rh20  1  0.499992  0.248099  0.670483  1
  Rh  Rh21  1  0.499992  0.751901  0.670483  1
  Rh  Rh22  1  0.000000  0.251901  0.829517  1
  Rh  Rh23  1  0.000000  0.748100  0.829517  1
