# generated using pymatgen
data_YbCe2(SnRh)3
_symmetry_space_group_name_H-M   'P 1'
_cell_length_a   7.39332500
_cell_length_b   7.51470953
_cell_length_c   4.07045000
_cell_angle_alpha   90.00000000
_cell_angle_beta   90.00000000
_cell_angle_gamma   119.46708438
_symmetry_Int_Tables_number   1
_chemical_formula_structural   YbCe2(SnRh)3
_chemical_formula_sum   'Yb1 Ce2 Sn3 Rh3'
_cell_volume   196.89389909
_cell_formula_units_Z   1
loop_
 _symmetry_equiv_pos_site_id
 _symmetry_equiv_pos_as_xyz
  1  'x, y, z'
loop_
 _atom_site_type_symbol
 _atom_site_label
 _atom_site_symmetry_multiplicity
 _atom_site_fract_x
 _atom_site_fract_y
 _atom_site_fract_z
 _atom_site_occupancy
  Yb  Yb0  1  0.407613  0.000000  0.000000  1
  Ce  Ce1  1  0.999042  0.412785  0.000000  1
  Ce  Ce2  1  0.586257  0.587215  0.000000  1
  Sn  Sn3  1  0.254462  0.244310  0.500000  1
  Sn  Sn4  1  0.010153  0.755690  0.500000  1
  Sn  Sn5  1  0.735978  0.000000  0.500000  1
  Rh  Rh6  1  0.683912  0.353112  0.500000  1
  Rh  Rh7  1  0.330800  0.646888  0.500000  1
  Rh  Rh8  1  0.991783  0.000000  0.000000  1
