# generated using pymatgen
data_Tm7PtRhSe2
_symmetry_space_group_name_H-M   'P 1'
_cell_length_a   9.01847792
_cell_length_b   9.04988911
_cell_length_c   9.04988900
_cell_angle_alpha   155.11412723
_cell_angle_beta   118.37533535
_cell_angle_gamma   67.53804332
_symmetry_Int_Tables_number   1
_chemical_formula_structural   Tm7PtRhSe2
_chemical_formula_sum   'Tm7 Pt1 Rh1 Se2'
_cell_volume   271.06520832
_cell_formula_units_Z   1
loop_
 _symmetry_equiv_pos_site_id
 _symmetry_equiv_pos_as_xyz
  1  'x, y, z'
loop_
 _atom_site_type_symbol
 _atom_site_label
 _atom_site_symmetry_multiplicity
 _atom_site_fract_x
 _atom_site_fract_y
 _atom_site_fract_z
 _atom_site_occupancy
  Tm  Tm0  1  0.709350  0.124867  0.584482  1
  Tm  Tm1  1  0.463955  0.877485  0.586469  1
  Tm  Tm2  1  0.692668  0.318520  0.374146  1
  Tm  Tm3  1  0.055844  0.682784  0.373060  1
  Tm  Tm4  1  0.098043  0.360994  0.737048  1
  Tm  Tm5  1  0.378086  0.637659  0.740427  1
  Tm  Tm6  1  0.993670  0.999673  0.993997  1
  Pt  Pt7  1  0.310460  0.237053  0.073406  1
  Rh  Rh8  1  0.829877  0.761384  0.068493  1
  Se  Se9  1  0.738590  0.500009  0.238581  1
  Se  Se10  1  0.338598  0.999571  0.339027  1
