# generated using pymatgen
data_Sc4Al3Os4W
_symmetry_space_group_name_H-M   'P 1'
_cell_length_a   5.16547700
_cell_length_b   5.19628135
_cell_length_c   8.65401400
_cell_angle_alpha   90.00000000
_cell_angle_beta   90.00000000
_cell_angle_gamma   120.50704979
_symmetry_Int_Tables_number   1
_chemical_formula_structural   Sc4Al3Os4W
_chemical_formula_sum   'Sc4 Al3 Os4 W1'
_cell_volume   200.12879968
_cell_formula_units_Z   1
loop_
 _symmetry_equiv_pos_site_id
 _symmetry_equiv_pos_as_xyz
  1  'x, y, z'
loop_
 _atom_site_type_symbol
 _atom_site_label
 _atom_site_symmetry_multiplicity
 _atom_site_fract_x
 _atom_site_fract_y
 _atom_site_fract_z
 _atom_site_occupancy
  Sc  Sc0  1  0.329294  0.666896  0.436280  1
  Sc  Sc1  1  0.659563  0.325923  0.558141  1
  Sc  Sc2  1  0.659563  0.325923  0.941859  1
  Sc  Sc3  1  0.329294  0.666896  0.063720  1
  Al  Al4  1  0.184023  0.339602  0.750000  1
  Al  Al5  1  0.185614  0.836707  0.750000  1
  Al  Al6  1  0.336358  0.175468  0.250000  1
  Os  Os7  1  0.672827  0.832138  0.750000  1
  Os  Os8  1  0.989633  0.987670  0.997743  1
  Os  Os9  1  0.829814  0.185613  0.250000  1
  Os  Os10  1  0.989633  0.987670  0.502257  1
  W  W11  1  0.834382  0.669498  0.250000  1
