# generated using pymatgen
data_Gd3Lu2Pb3
_symmetry_space_group_name_H-M   'P 1'
_cell_length_a   9.03591300
_cell_length_b   9.03591257
_cell_length_c   6.56555400
_cell_angle_alpha   90.00000000
_cell_angle_beta   90.00000000
_cell_angle_gamma   119.99999790
_symmetry_Int_Tables_number   1
_chemical_formula_structural   Gd3Lu2Pb3
_chemical_formula_sum   'Gd6 Lu4 Pb6'
_cell_volume   464.24376485
_cell_formula_units_Z   2
loop_
 _symmetry_equiv_pos_site_id
 _symmetry_equiv_pos_as_xyz
  1  'x, y, z'
loop_
 _atom_site_type_symbol
 _atom_site_label
 _atom_site_symmetry_multiplicity
 _atom_site_fract_x
 _atom_site_fract_y
 _atom_site_fract_z
 _atom_site_occupancy
  Gd  Gd0  1  0.760121  0.760121  0.750000  1
  Gd  Gd1  1  0.239879  0.000000  0.750000  1
  Gd  Gd2  1  0.000000  0.239879  0.750000  1
  Gd  Gd3  1  0.239879  0.239879  0.250000  1
  Gd  Gd4  1  0.760121  0.000000  0.250000  1
  Gd  Gd5  1  0.000000  0.760121  0.250000  1
  Lu  Lu6  1  0.666667  0.333333  0.000000  1
  Lu  Lu7  1  0.333333  0.666667  0.000000  1
  Lu  Lu8  1  0.333333  0.666667  0.500000  1
  Lu  Lu9  1  0.666667  0.333333  0.500000  1
  Pb  Pb10  1  0.397665  0.397665  0.750000  1
  Pb  Pb11  1  0.602335  0.000000  0.750000  1
  Pb  Pb12  1  0.000000  0.602335  0.750000  1
  Pb  Pb13  1  0.602335  0.602335  0.250000  1
  Pb  Pb14  1  0.397665  0.000000  0.250000  1
  Pb  Pb15  1  0.000000  0.397665  0.250000  1
