# generated using pymatgen
data_Li7Eu3UP6
_symmetry_space_group_name_H-M   'P 1'
_cell_length_a   7.97132682
_cell_length_b   7.97132683
_cell_length_c   11.40786505
_cell_angle_alpha   58.59756892
_cell_angle_beta   58.59756799
_cell_angle_gamma   29.69050462
_symmetry_Int_Tables_number   1
_chemical_formula_structural   Li7Eu3UP6
_chemical_formula_sum   'Li7 Eu3 U1 P6'
_cell_volume   302.41545903
_cell_formula_units_Z   1
loop_
 _symmetry_equiv_pos_site_id
 _symmetry_equiv_pos_as_xyz
  1  'x, y, z'
loop_
 _atom_site_type_symbol
 _atom_site_label
 _atom_site_symmetry_multiplicity
 _atom_site_fract_x
 _atom_site_fract_y
 _atom_site_fract_z
 _atom_site_occupancy
  Li  Li0  1  0.057458  0.057458  0.676671  1
  Li  Li1  1  0.944783  0.944783  0.323110  1
  Li  Li2  1  0.238698  0.238698  0.906624  1
  Li  Li3  1  0.761139  0.761139  0.090027  1
  Li  Li4  1  0.415634  0.415634  0.656574  1
  Li  Li5  1  0.584305  0.584305  0.338398  1
  Li  Li6  1  0.000874  0.000874  0.497645  1
  Eu  Eu7  1  0.738195  0.738195  0.665376  1
  Eu  Eu8  1  0.431567  0.431567  0.928150  1
  Eu  Eu9  1  0.560070  0.560070  0.084894  1
  U  U10  1  0.261602  0.261602  0.336585  1
  P  P11  1  0.099636  0.099636  0.860692  1
  P  P12  1  0.883097  0.883097  0.165748  1
  P  P13  1  0.156560  0.156560  0.190684  1
  P  P14  1  0.853064  0.853064  0.811225  1
  P  P15  1  0.385561  0.385561  0.453707  1
  P  P16  1  0.627758  0.627758  0.513888  1
