# generated using pymatgen
data_Er3Pa(MoN2)4
_symmetry_space_group_name_H-M   'P 1'
_cell_length_a   3.19440900
_cell_length_b   5.65586649
_cell_length_c   10.72167205
_cell_angle_alpha   89.51063974
_cell_angle_beta   90.00000000
_cell_angle_gamma   90.00000000
_symmetry_Int_Tables_number   1
_chemical_formula_structural   Er3Pa(MoN2)4
_chemical_formula_sum   'Er3 Pa1 Mo4 N8'
_cell_volume   193.70300048
_cell_formula_units_Z   1
loop_
 _symmetry_equiv_pos_site_id
 _symmetry_equiv_pos_as_xyz
  1  'x, y, z'
loop_
 _atom_site_type_symbol
 _atom_site_label
 _atom_site_symmetry_multiplicity
 _atom_site_fract_x
 _atom_site_fract_y
 _atom_site_fract_z
 _atom_site_occupancy
  Er  Er0  1  0.250000  0.573863  0.642401  1
  Er  Er1  1  0.750000  0.924860  0.152138  1
  Er  Er2  1  0.750000  0.420570  0.352402  1
  Pa  Pa3  1  0.250000  0.075987  0.855584  1
  Mo  Mo4  1  0.250000  0.440342  0.098623  1
  Mo  Mo5  1  0.250000  0.929544  0.405938  1
  Mo  Mo6  1  0.750000  0.572716  0.899230  1
  Mo  Mo7  1  0.750000  0.063494  0.588344  1
  N  N8  1  0.250000  0.165282  0.248256  1
  N  N9  1  0.250000  0.665895  0.255379  1
  N  N10  1  0.750000  0.839951  0.751259  1
  N  N11  1  0.750000  0.324833  0.746629  1
  N  N12  1  0.250000  0.763858  0.998430  1
  N  N13  1  0.250000  0.258220  0.504141  1
  N  N14  1  0.750000  0.247561  0.005685  1
  N  N15  1  0.750000  0.733023  0.495562  1
