# generated using pymatgen
data_KZr4InCl18
_symmetry_space_group_name_H-M   'P 1'
_cell_length_a   7.21724000
_cell_length_b   9.98674512
_cell_length_c   12.24783900
_cell_angle_alpha   63.26962218
_cell_angle_beta   90.00000000
_cell_angle_gamma   90.00000000
_symmetry_Int_Tables_number   1
_chemical_formula_structural   KZr4InCl18
_chemical_formula_sum   'K1 Zr4 In1 Cl18'
_cell_volume   788.44378945
_cell_formula_units_Z   1
loop_
 _symmetry_equiv_pos_site_id
 _symmetry_equiv_pos_as_xyz
  1  'x, y, z'
loop_
 _atom_site_type_symbol
 _atom_site_label
 _atom_site_symmetry_multiplicity
 _atom_site_fract_x
 _atom_site_fract_y
 _atom_site_fract_z
 _atom_site_occupancy
  K  K0  1  0.475419  0.500000  0.250000  1
  Zr  Zr1  1  0.282490  0.812216  0.869236  1
  Zr  Zr2  1  0.719819  0.183365  0.123251  1
  Zr  Zr3  1  0.282490  0.187784  0.630764  1
  Zr  Zr4  1  0.719819  0.816635  0.376749  1
  In  In5  1  0.511459  0.500000  0.750000  1
  Cl  Cl6  1  0.145695  0.739203  0.064838  1
  Cl  Cl7  1  0.846344  0.234043  0.929705  1
  Cl  Cl8  1  0.145695  0.260797  0.435162  1
  Cl  Cl9  1  0.846344  0.765957  0.570295  1
  Cl  Cl10  1  0.154134  0.620536  0.824649  1
  Cl  Cl11  1  0.855784  0.382055  0.154265  1
  Cl  Cl12  1  0.154134  0.379464  0.675351  1
  Cl  Cl13  1  0.855784  0.617945  0.345735  1
  Cl  Cl14  1  0.018726  0.000000  0.750000  1
  Cl  Cl15  1  0.982507  0.000000  0.250000  1
  Cl  Cl16  1  0.414284  0.060479  0.855888  1
  Cl  Cl17  1  0.583898  0.926610  0.153186  1
  Cl  Cl18  1  0.414284  0.939521  0.644112  1
  Cl  Cl19  1  0.583898  0.073390  0.346814  1
  Cl  Cl20  1  0.579891  0.695773  0.936788  1
  Cl  Cl21  1  0.423605  0.302801  0.050686  1
  Cl  Cl22  1  0.579891  0.304227  0.563212  1
  Cl  Cl23  1  0.423605  0.697199  0.449314  1
