# generated using pymatgen
data_AcLa2(ZnPt)4
_symmetry_space_group_name_H-M   'P 1'
_cell_length_a   8.49557340
_cell_length_b   8.49557341
_cell_length_c   8.49557287
_cell_angle_alpha   151.30415211
_cell_angle_beta   126.72218642
_cell_angle_gamma   61.63306262
_symmetry_Int_Tables_number   1
_chemical_formula_structural   AcLa2(ZnPt)4
_chemical_formula_sum   'Ac1 La2 Zn4 Pt4'
_cell_volume   234.03827931
_cell_formula_units_Z   1
loop_
 _symmetry_equiv_pos_site_id
 _symmetry_equiv_pos_as_xyz
  1  'x, y, z'
loop_
 _atom_site_type_symbol
 _atom_site_label
 _atom_site_symmetry_multiplicity
 _atom_site_fract_x
 _atom_site_fract_y
 _atom_site_fract_z
 _atom_site_occupancy
  Ac  Ac0  1  0.500000  0.000000  0.500000  1
  La  La1  1  0.871915  0.871915  0.000000  1
  La  La2  1  0.128085  0.128085  0.000000  1
  Zn  Zn3  1  0.480479  0.674141  0.806338  1
  Zn  Zn4  1  0.867803  0.674141  0.193662  1
  Zn  Zn5  1  0.132197  0.325859  0.806338  1
  Zn  Zn6  1  0.519521  0.325859  0.193662  1
  Pt  Pt7  1  0.281623  0.781623  0.500000  1
  Pt  Pt8  1  0.718377  0.218377  0.500000  1
  Pt  Pt9  1  0.803448  0.500000  0.303448  1
  Pt  Pt10  1  0.196552  0.500000  0.696552  1
