# generated using pymatgen
data_Hf4CoCu2Si4Ni
_symmetry_space_group_name_H-M   'P 1'
_cell_length_a   3.83075800
_cell_length_b   6.45033847
_cell_length_c   7.25997166
_cell_angle_alpha   90.51490174
_cell_angle_beta   90.00000000
_cell_angle_gamma   90.00000000
_symmetry_Int_Tables_number   1
_chemical_formula_structural   Hf4CoCu2Si4Ni
_chemical_formula_sum   'Hf4 Co1 Cu2 Si4 Ni1'
_cell_volume   179.38437388
_cell_formula_units_Z   1
loop_
 _symmetry_equiv_pos_site_id
 _symmetry_equiv_pos_as_xyz
  1  'x, y, z'
loop_
 _atom_site_type_symbol
 _atom_site_label
 _atom_site_symmetry_multiplicity
 _atom_site_fract_x
 _atom_site_fract_y
 _atom_site_fract_z
 _atom_site_occupancy
  Hf  Hf0  1  0.250000  0.517407  0.681184  1
  Hf  Hf1  1  0.750000  0.483426  0.320436  1
  Hf  Hf2  1  0.250000  0.011873  0.806157  1
  Hf  Hf3  1  0.750000  0.983651  0.192144  1
  Co  Co4  1  0.750000  0.861718  0.558791  1
  Cu  Cu5  1  0.750000  0.345971  0.933107  1
  Cu  Cu6  1  0.250000  0.654641  0.068196  1
  Si  Si7  1  0.250000  0.268109  0.118816  1
  Si  Si8  1  0.750000  0.730931  0.878313  1
  Si  Si9  1  0.250000  0.776161  0.396726  1
  Si  Si10  1  0.750000  0.222501  0.608059  1
  Ni  Ni11  1  0.250000  0.143611  0.438070  1
