# generated using pymatgen
data_Tb2Dy2ScPt3O14
_symmetry_space_group_name_H-M   'P 1'
_cell_length_a   7.26695357
_cell_length_b   7.26695271
_cell_length_c   7.33675619
_cell_angle_alpha   60.37061904
_cell_angle_beta   60.37063062
_cell_angle_gamma   60.04545051
_symmetry_Int_Tables_number   1
_chemical_formula_structural   Tb2Dy2ScPt3O14
_chemical_formula_sum   'Tb2 Dy2 Sc1 Pt3 O14'
_cell_volume   275.58447309
_cell_formula_units_Z   1
loop_
 _symmetry_equiv_pos_site_id
 _symmetry_equiv_pos_as_xyz
  1  'x, y, z'
loop_
 _atom_site_type_symbol
 _atom_site_label
 _atom_site_symmetry_multiplicity
 _atom_site_fract_x
 _atom_site_fract_y
 _atom_site_fract_z
 _atom_site_occupancy
  Tb  Tb0  1  0.625000  0.125000  0.625000  1
  Tb  Tb1  1  0.125000  0.625000  0.625000  1
  Dy  Dy2  1  0.625000  0.625000  0.125000  1
  Dy  Dy3  1  0.625000  0.625000  0.625000  1
  Sc  Sc4  1  0.125000  0.125000  0.625000  1
  Pt  Pt5  1  0.125000  0.125000  0.125000  1
  Pt  Pt6  1  0.625000  0.125000  0.125000  1
  Pt  Pt7  1  0.125000  0.625000  0.125000  1
  O  O8  1  0.031214  0.476649  0.460104  1
  O  O9  1  0.788781  0.788781  0.203351  1
  O  O10  1  0.788955  0.219166  0.202927  1
  O  O11  1  0.476649  0.031214  0.460104  1
  O  O12  1  0.030834  0.461045  0.047073  1
  O  O13  1  0.746540  0.746540  0.758522  1
  O  O14  1  0.031867  0.031867  0.459808  1
  O  O15  1  0.219166  0.788955  0.202927  1
  O  O16  1  0.218133  0.218133  0.790192  1
  O  O17  1  0.503460  0.503460  0.491478  1
  O  O18  1  0.773351  0.218786  0.789896  1
  O  O19  1  0.461045  0.030834  0.047073  1
  O  O20  1  0.461219  0.461219  0.046649  1
  O  O21  1  0.218786  0.773351  0.789896  1
