# generated using pymatgen
data_K3V(IO3)6
_symmetry_space_group_name_H-M   'P 1'
_cell_length_a   6.96198390
_cell_length_b   7.13944994
_cell_length_c   10.69762313
_cell_angle_alpha   97.66460343
_cell_angle_beta   108.90589298
_cell_angle_gamma   103.15387762
_symmetry_Int_Tables_number   1
_chemical_formula_structural   K3V(IO3)6
_chemical_formula_sum   'K3 V1 I6 O18'
_cell_volume   477.29920991
_cell_formula_units_Z   1
loop_
 _symmetry_equiv_pos_site_id
 _symmetry_equiv_pos_as_xyz
  1  'x, y, z'
loop_
 _atom_site_type_symbol
 _atom_site_label
 _atom_site_symmetry_multiplicity
 _atom_site_fract_x
 _atom_site_fract_y
 _atom_site_fract_z
 _atom_site_occupancy
  K  K0  1  0.375175  0.537961  0.293984  1
  K  K1  1  0.624825  0.462039  0.706016  1
  K  K2  1  0.000000  0.500000  0.500000  1
  V  V3  1  0.000000  0.000000  0.000000  1
  I  I4  1  0.554653  0.036569  0.192756  1
  I  I5  1  0.445347  0.963431  0.807244  1
  I  I6  1  0.785119  0.543064  0.100968  1
  I  I7  1  0.214881  0.456936  0.899032  1
  I  I8  1  0.133676  0.055384  0.374390  1
  I  I9  1  0.866324  0.944616  0.625610  1
  O  O10  1  0.585203  0.658146  0.123433  1
  O  O11  1  0.414797  0.341854  0.876567  1
  O  O12  1  0.001376  0.352858  0.733777  1
  O  O13  1  0.998624  0.647142  0.266223  1
  O  O14  1  0.613763  0.306215  0.234040  1
  O  O15  1  0.386237  0.693785  0.765960  1
  O  O16  1  0.049516  0.104820  0.201391  1
  O  O17  1  0.950484  0.895180  0.798609  1
  O  O18  1  0.296135  0.967670  0.039860  1
  O  O19  1  0.703865  0.032330  0.960140  1
  O  O20  1  0.293502  0.305234  0.465188  1
  O  O21  1  0.706498  0.694766  0.534812  1
  O  O22  1  0.881582  0.074410  0.394916  1
  O  O23  1  0.118418  0.925590  0.605084  1
  O  O24  1  0.561674  0.034466  0.683776  1
  O  O25  1  0.438326  0.965534  0.316224  1
  O  O26  1  0.108986  0.302508  0.003702  1
  O  O27  1  0.891014  0.697492  0.996298  1
