# generated using pymatgen
data_Pr10Sn2Bi4PBr
_symmetry_space_group_name_H-M   'P 1'
_cell_length_a   9.63467268
_cell_length_b   9.59091405
_cell_length_c   6.90495296
_cell_angle_alpha   90.10318615
_cell_angle_beta   89.79455872
_cell_angle_gamma   120.15103821
_symmetry_Int_Tables_number   1
_chemical_formula_structural   Pr10Sn2Bi4PBr
_chemical_formula_sum   'Pr10 Sn2 Bi4 P1 Br1'
_cell_volume   551.72483667
_cell_formula_units_Z   1
loop_
 _symmetry_equiv_pos_site_id
 _symmetry_equiv_pos_as_xyz
  1  'x, y, z'
loop_
 _atom_site_type_symbol
 _atom_site_label
 _atom_site_symmetry_multiplicity
 _atom_site_fract_x
 _atom_site_fract_y
 _atom_site_fract_z
 _atom_site_occupancy
  Pr  Pr0  1  0.254498  0.000000  0.733164  1
  Pr  Pr1  1  0.745502  0.000000  0.266836  1
  Pr  Pr2  1  0.995956  0.248580  0.732905  1
  Pr  Pr3  1  0.004044  0.751420  0.267095  1
  Pr  Pr4  1  0.747376  0.751420  0.732905  1
  Pr  Pr5  1  0.252624  0.248580  0.267095  1
  Pr  Pr6  1  0.336181  0.672363  0.500000  1
  Pr  Pr7  1  0.663819  0.327637  0.500000  1
  Pr  Pr8  1  0.663161  0.326322  0.000000  1
  Pr  Pr9  1  0.336839  0.673678  0.000000  1
  Sn  Sn10  1  0.606678  0.000000  0.750375  1
  Sn  Sn11  1  0.393322  0.000000  0.249625  1
  Bi  Bi12  1  0.999331  0.607333  0.751603  1
  Bi  Bi13  1  0.000669  0.392667  0.248397  1
  Bi  Bi14  1  0.391998  0.392667  0.751603  1
  Bi  Bi15  1  0.608002  0.607333  0.248397  1
  P  P16  1  0.000000  0.000000  0.500000  1
  Br  Br17  1  0.000000  0.000000  0.000000  1
