# generated using pymatgen
data_CaTlRh2O7
_symmetry_space_group_name_H-M   'P 1'
_cell_length_a   7.21827587
_cell_length_b   7.21827534
_cell_length_c   7.21827700
_cell_angle_alpha   120.25637472
_cell_angle_beta   119.92279252
_cell_angle_gamma   89.84514612
_symmetry_Int_Tables_number   1
_chemical_formula_structural   CaTlRh2O7
_chemical_formula_sum   'Ca2 Tl2 Rh4 O14'
_cell_volume   265.57713939
_cell_formula_units_Z   2
loop_
 _symmetry_equiv_pos_site_id
 _symmetry_equiv_pos_as_xyz
  1  'x, y, z'
loop_
 _atom_site_type_symbol
 _atom_site_label
 _atom_site_symmetry_multiplicity
 _atom_site_fract_x
 _atom_site_fract_y
 _atom_site_fract_z
 _atom_site_occupancy
  Ca  Ca0  1  0.500000  0.500000  0.500000  1
  Ca  Ca1  1  0.500000  0.000000  0.000000  1
  Tl  Tl2  1  0.500000  0.500000  0.000000  1
  Tl  Tl3  1  0.000000  0.500000  0.500000  1
  Rh  Rh4  1  0.000000  0.000000  0.500000  1
  Rh  Rh5  1  0.000000  0.500000  0.000000  1
  Rh  Rh6  1  0.000000  0.000000  0.000000  1
  Rh  Rh7  1  0.500000  0.000000  0.500000  1
  O  O8  1  0.365123  0.615123  0.750000  1
  O  O9  1  0.634877  0.384877  0.250000  1
  O  O10  1  0.328439  0.078439  0.250000  1
  O  O11  1  0.922921  0.672921  0.250000  1
  O  O12  1  0.326748  0.671498  0.244180  1
  O  O13  1  0.927318  0.082569  0.255820  1
  O  O14  1  0.326753  0.082567  0.655257  1
  O  O15  1  0.927311  0.671497  0.844743  1
  O  O16  1  0.671561  0.921561  0.750000  1
  O  O17  1  0.077079  0.327079  0.750000  1
  O  O18  1  0.673252  0.328502  0.755820  1
  O  O19  1  0.072682  0.917431  0.744180  1
  O  O20  1  0.673247  0.917433  0.344743  1
  O  O21  1  0.072689  0.328503  0.155257  1
