# generated using pymatgen
data_LaYbB2Pt7Rh
_symmetry_space_group_name_H-M   'P 1'
_cell_length_a   5.48171721
_cell_length_b   5.46631368
_cell_length_c   7.60956300
_cell_angle_alpha   90.00000000
_cell_angle_beta   90.00000000
_cell_angle_gamma   119.90708054
_symmetry_Int_Tables_number   1
_chemical_formula_structural   LaYbB2Pt7Rh
_chemical_formula_sum   'La1 Yb1 B2 Pt7 Rh1'
_cell_volume   197.65481685
_cell_formula_units_Z   1
loop_
 _symmetry_equiv_pos_site_id
 _symmetry_equiv_pos_as_xyz
  1  'x, y, z'
loop_
 _atom_site_type_symbol
 _atom_site_label
 _atom_site_symmetry_multiplicity
 _atom_site_fract_x
 _atom_site_fract_y
 _atom_site_fract_z
 _atom_site_occupancy
  La  La0  1  0.000000  0.000000  0.496288  1
  Yb  Yb1  1  0.000000  0.000000  0.002908  1
  B  B2  1  0.330425  0.665213  0.002616  1
  B  B3  1  0.669575  0.334787  0.002616  1
  Pt  Pt4  1  0.325636  0.662818  0.498854  1
  Pt  Pt5  1  0.674364  0.337182  0.498854  1
  Pt  Pt6  1  0.500000  0.000000  0.197664  1
  Pt  Pt7  1  0.500000  0.000000  0.803196  1
  Pt  Pt8  1  0.000000  0.500000  0.805826  1
  Pt  Pt9  1  0.500000  0.500000  0.197664  1
  Pt  Pt10  1  0.500000  0.500000  0.803196  1
  Rh  Rh11  1  0.000000  0.500000  0.190318  1
