# generated using pymatgen
data_Hf4MoIr2Ru
_symmetry_space_group_name_H-M   'P 1'
_cell_length_a   6.58228500
_cell_length_b   4.62168400
_cell_length_c   9.22250000
_cell_angle_alpha   90.00000000
_cell_angle_beta   90.00019266
_cell_angle_gamma   90.00000000
_symmetry_Int_Tables_number   1
_chemical_formula_structural   Hf4MoIr2Ru
_chemical_formula_sum   'Hf8 Mo2 Ir4 Ru2'
_cell_volume   280.55989759
_cell_formula_units_Z   2
loop_
 _symmetry_equiv_pos_site_id
 _symmetry_equiv_pos_as_xyz
  1  'x, y, z'
loop_
 _atom_site_type_symbol
 _atom_site_label
 _atom_site_symmetry_multiplicity
 _atom_site_fract_x
 _atom_site_fract_y
 _atom_site_fract_z
 _atom_site_occupancy
  Hf  Hf0  1  0.000426  0.750000  0.124454  1
  Hf  Hf1  1  0.499556  0.750000  0.124457  1
  Hf  Hf2  1  0.999645  0.250001  0.375657  1
  Hf  Hf3  1  0.500349  0.250001  0.375656  1
  Hf  Hf4  1  0.500089  0.750000  0.625193  1
  Hf  Hf5  1  0.999920  0.750000  0.625193  1
  Hf  Hf6  1  0.499906  0.250001  0.874711  1
  Hf  Hf7  1  0.000116  0.250001  0.874710  1
  Mo  Mo8  1  0.750007  0.250001  0.623379  1
  Mo  Mo9  1  0.250009  0.750000  0.876576  1
  Ir  Ir10  1  0.249993  0.250001  0.126810  1
  Ir  Ir11  1  0.749992  0.750000  0.373196  1
  Ir  Ir12  1  0.250009  0.250001  0.623069  1
  Ir  Ir13  1  0.750008  0.750000  0.876924  1
  Ru  Ru14  1  0.749989  0.250001  0.127222  1
  Ru  Ru15  1  0.249988  0.750000  0.372795  1
