# generated using pymatgen
data_Ca14MgBi11
_symmetry_space_group_name_H-M   'P 1'
_cell_length_a   16.60538127
_cell_length_b   16.60538090
_cell_length_c   16.60538100
_cell_angle_alpha   117.56788670
_cell_angle_beta   117.56788604
_cell_angle_gamma   94.26683545
_symmetry_Int_Tables_number   1
_chemical_formula_structural   Ca14MgBi11
_chemical_formula_sum   'Ca56 Mg4 Bi44'
_cell_volume   3346.64356403
_cell_formula_units_Z   4
loop_
 _symmetry_equiv_pos_site_id
 _symmetry_equiv_pos_as_xyz
  1  'x, y, z'
loop_
 _atom_site_type_symbol
 _atom_site_label
 _atom_site_symmetry_multiplicity
 _atom_site_fract_x
 _atom_site_fract_y
 _atom_site_fract_z
 _atom_site_occupancy
  Ca  Ca0  1  0.306983  0.645249  0.017486  1
  Ca  Ca1  1  0.400800  0.004263  0.650413  1
  Ca  Ca2  1  0.395249  0.877762  0.838266  1
  Ca  Ca3  1  0.161690  0.378541  0.134341  1
  Ca  Ca4  1  0.039497  0.556983  0.161734  1
  Ca  Ca5  1  0.254263  0.150800  0.150413  1
  Ca  Ca6  1  0.995737  0.646151  0.396537  1
  Ca  Ca7  1  0.210503  0.872238  0.017486  1
  Ca  Ca8  1  0.478991  0.875000  0.103992  1
  Ca  Ca9  1  0.849200  0.999615  0.103463  1
  Ca  Ca10  1  0.625000  0.521009  0.396009  1
  Ca  Ca11  1  0.349200  0.245737  0.849587  1
  Ca  Ca12  1  0.854751  0.193017  0.982514  1
  Ca  Ca13  1  0.744200  0.878541  0.216851  1
  Ca  Ca14  1  0.771008  0.375000  0.896008  1
  Ca  Ca15  1  0.121459  0.338310  0.865659  1
  Ca  Ca16  1  0.943017  0.460503  0.838266  1
  Ca  Ca17  1  0.754263  0.603849  0.103463  1
  Ca  Ca18  1  0.710503  0.693017  0.338266  1
  Ca  Ca19  1  0.495737  0.099200  0.349587  1
  Ca  Ca20  1  0.900800  0.250385  0.396537  1
  Ca  Ca21  1  0.353849  0.750385  0.349587  1
  Ca  Ca22  1  0.354751  0.372238  0.661734  1
  Ca  Ca23  1  0.505800  0.222651  0.634341  1
  Ca  Ca24  1  0.244200  0.027349  0.865659  1
  Ca  Ca25  1  0.622238  0.104751  0.161734  1
  Ca  Ca26  1  0.853849  0.504263  0.603463  1
  Ca  Ca27  1  0.896151  0.745737  0.896537  1
  Ca  Ca28  1  0.895249  0.056983  0.517486  1
  Ca  Ca29  1  0.122238  0.960503  0.517486  1
  Ca  Ca30  1  0.628541  0.911690  0.634341  1
  Ca  Ca31  1  0.088310  0.722651  0.716851  1
  Ca  Ca32  1  0.127762  0.145249  0.338266  1
  Ca  Ca33  1  0.271009  0.375000  0.396008  1
  Ca  Ca34  1  0.539497  0.377762  0.482514  1
  Ca  Ca35  1  0.625000  0.021008  0.896008  1
  Ca  Ca36  1  0.749615  0.146151  0.650413  1
  Ca  Ca37  1  0.005800  0.371459  0.283149  1
  Ca  Ca38  1  0.128541  0.494200  0.716851  1
  Ca  Ca39  1  0.500385  0.650800  0.896537  1
  Ca  Ca40  1  0.972651  0.838310  0.216851  1
  Ca  Ca41  1  0.588310  0.871459  0.365659  1
  Ca  Ca42  1  0.125000  0.228992  0.603992  1
  Ca  Ca43  1  0.249615  0.599200  0.603463  1
  Ca  Ca44  1  0.777349  0.411690  0.283149  1
  Ca  Ca45  1  0.621459  0.755800  0.783149  1
  Ca  Ca46  1  0.443017  0.604751  0.482514  1
  Ca  Ca47  1  0.125000  0.728992  0.103992  1
  Ca  Ca48  1  0.627762  0.289497  0.982514  1
  Ca  Ca49  1  0.978992  0.875000  0.603992  1
  Ca  Ca50  1  0.396151  0.499615  0.150413  1
  Ca  Ca51  1  0.277349  0.994200  0.365659  1
  Ca  Ca52  1  0.661690  0.527349  0.783149  1
  Ca  Ca53  1  0.000385  0.103849  0.849587  1
  Ca  Ca54  1  0.806983  0.789497  0.661734  1
  Ca  Ca55  1  0.472651  0.255800  0.134341  1
  Mg  Mg56  1  0.000000  0.000000  0.000000  1
  Mg  Mg57  1  0.500000  0.500000  0.000000  1
  Mg  Mg58  1  0.250000  0.750000  0.500000  1
  Mg  Mg59  1  0.750000  0.250000  0.500000  1
  Bi  Bi60  1  0.291604  0.429233  0.851147  1
  Bi  Bi61  1  0.362367  0.862367  0.224735  1
  Bi  Bi62  1  0.791604  0.940457  0.862371  1
  Bi  Bi63  1  0.171914  0.809543  0.351147  1
  Bi  Bi64  1  0.958566  0.050190  0.353622  1
  Bi  Bi65  1  0.179233  0.828086  0.637629  1
  Bi  Bi66  1  0.112367  0.112367  0.724735  1
  Bi  Bi67  1  0.791434  0.199810  0.146378  1
  Bi  Bi68  1  0.354945  0.208566  0.408377  1
  Bi  Bi69  1  0.250000  0.250000  0.000000  1
  Bi  Bi70  1  0.800190  0.946567  0.591623  1
  Bi  Bi71  1  0.458396  0.820767  0.648853  1
  Bi  Bi72  1  0.059543  0.921914  0.851147  1
  Bi  Bi73  1  0.862367  0.637633  0.500000  1
  Bi  Bi74  1  0.553433  0.699810  0.408377  1
  Bi  Bi75  1  0.679233  0.041604  0.351147  1
  Bi  Bi76  1  0.070767  0.208396  0.148853  1
  Bi  Bi77  1  0.137633  0.362367  0.500000  1
  Bi  Bi78  1  0.190457  0.541604  0.362371  1
  Bi  Bi79  1  0.387633  0.387633  0.275265  1
  Bi  Bi80  1  0.500000  0.000000  0.500000  1
  Bi  Bi81  1  0.078086  0.929233  0.137629  1
  Bi  Bi82  1  0.570767  0.421914  0.862371  1
  Bi  Bi83  1  0.449810  0.541434  0.646378  1
  Bi  Bi84  1  0.671914  0.320767  0.362371  1
  Bi  Bi85  1  0.458566  0.104945  0.908377  1
  Bi  Bi86  1  0.395055  0.041434  0.091623  1
  Bi  Bi87  1  0.895055  0.803433  0.353622  1
  Bi  Bi88  1  0.696567  0.604945  0.646378  1
  Bi  Bi89  1  0.690457  0.328086  0.648853  1
  Bi  Bi90  1  0.750000  0.750000  0.000000  1
  Bi  Bi91  1  0.196567  0.550190  0.091623  1
  Bi  Bi92  1  0.958396  0.309543  0.637629  1
  Bi  Bi93  1  0.854945  0.446567  0.146378  1
  Bi  Bi94  1  0.887633  0.612367  0.000000  1
  Bi  Bi95  1  0.300190  0.708566  0.853622  1
  Bi  Bi96  1  0.000000  0.500000  0.500000  1
  Bi  Bi97  1  0.291434  0.145055  0.591623  1
  Bi  Bi98  1  0.637633  0.137633  0.775265  1
  Bi  Bi99  1  0.559543  0.708396  0.137629  1
  Bi  Bi100  1  0.578086  0.440457  0.148853  1
  Bi  Bi101  1  0.053433  0.645055  0.853622  1
  Bi  Bi102  1  0.949810  0.303433  0.908377  1
  Bi  Bi103  1  0.612367  0.887633  0.000000  1
