# generated using pymatgen
data_TiMnBeB2Rh5
_symmetry_space_group_name_H-M   'P 1'
_cell_length_a   2.90899600
_cell_length_b   9.14571200
_cell_length_c   9.09946100
_cell_angle_alpha   90.00000000
_cell_angle_beta   90.00000000
_cell_angle_gamma   90.00000000
_symmetry_Int_Tables_number   1
_chemical_formula_structural   TiMnBeB2Rh5
_chemical_formula_sum   'Ti2 Mn2 Be2 B4 Rh10'
_cell_volume   242.08970058
_cell_formula_units_Z   2
loop_
 _symmetry_equiv_pos_site_id
 _symmetry_equiv_pos_as_xyz
  1  'x, y, z'
loop_
 _atom_site_type_symbol
 _atom_site_label
 _atom_site_symmetry_multiplicity
 _atom_site_fract_x
 _atom_site_fract_y
 _atom_site_fract_z
 _atom_site_occupancy
  Ti  Ti0  1  0.000000  0.675853  0.673286  1
  Ti  Ti1  1  0.000000  0.175854  0.826714  1
  Mn  Mn2  1  0.000000  0.822923  0.179188  1
  Mn  Mn3  1  0.000000  0.322923  0.320813  1
  Be  Be4  1  0.000000  0.499086  0.996808  1
  Be  Be5  1  0.000000  0.999086  0.503192  1
  B  B6  1  0.000000  0.132122  0.135501  1
  B  B7  1  0.000000  0.632122  0.364500  1
  B  B8  1  0.000000  0.371678  0.626222  1
  B  B9  1  0.000000  0.871678  0.873779  1
  Rh  Rh10  1  0.499999  0.000194  0.002239  1
  Rh  Rh11  1  0.499999  0.291689  0.064443  1
  Rh  Rh12  1  0.499999  0.568022  0.204059  1
  Rh  Rh13  1  0.499999  0.068021  0.295943  1
  Rh  Rh14  1  0.499999  0.791689  0.435558  1
  Rh  Rh15  1  0.499999  0.500194  0.497761  1
  Rh  Rh16  1  0.499999  0.207122  0.573417  1
  Rh  Rh17  1  0.499999  0.931316  0.709780  1
  Rh  Rh18  1  0.499999  0.431316  0.790222  1
  Rh  Rh19  1  0.499999  0.707122  0.926585  1
