# generated using pymatgen
data_Ac4Ni9IrC6
_symmetry_space_group_name_H-M   'P 1'
_cell_length_a   8.40056300
_cell_length_b   8.40056300
_cell_length_c   4.24918400
_cell_angle_alpha   90.00000000
_cell_angle_beta   90.00000000
_cell_angle_gamma   90.00000000
_symmetry_Int_Tables_number   1
_chemical_formula_structural   Ac4Ni9IrC6
_chemical_formula_sum   'Ac4 Ni9 Ir1 C6'
_cell_volume   299.86261487
_cell_formula_units_Z   1
loop_
 _symmetry_equiv_pos_site_id
 _symmetry_equiv_pos_as_xyz
  1  'x, y, z'
loop_
 _atom_site_type_symbol
 _atom_site_label
 _atom_site_symmetry_multiplicity
 _atom_site_fract_x
 _atom_site_fract_y
 _atom_site_fract_z
 _atom_site_occupancy
  Ac  Ac0  1  0.334966  0.164167  0.000000  1
  Ac  Ac1  1  0.665034  0.835833  0.000000  1
  Ac  Ac2  1  0.164167  0.665034  0.000000  1
  Ac  Ac3  1  0.835833  0.334966  0.000000  1
  Ni  Ni4  1  0.926930  0.787591  0.500000  1
  Ni  Ni5  1  0.714797  0.573818  0.500000  1
  Ni  Ni6  1  0.426182  0.714797  0.500000  1
  Ni  Ni7  1  0.285203  0.426182  0.500000  1
  Ni  Ni8  1  0.573818  0.285203  0.500000  1
  Ni  Ni9  1  0.787591  0.073070  0.500000  1
  Ni  Ni10  1  0.073070  0.212409  0.500000  1
  Ni  Ni11  1  0.212409  0.926930  0.500000  1
  Ni  Ni12  1  0.000000  0.000000  0.000000  1
  Ir  Ir13  1  0.500000  0.500000  0.000000  1
  C  C14  1  0.442452  0.943271  0.500000  1
  C  C15  1  0.056729  0.442452  0.500000  1
  C  C16  1  0.943271  0.557548  0.500000  1
  C  C17  1  0.500000  0.500000  0.500000  1
  C  C18  1  0.557548  0.056729  0.500000  1
  C  C19  1  0.000000  0.000000  0.500000  1
