# generated using pymatgen
data_Er3ThZnRh
_symmetry_space_group_name_H-M   'P 1'
_cell_length_a   9.55805040
_cell_length_b   9.55805109
_cell_length_c   9.55805100
_cell_angle_alpha   59.99999685
_cell_angle_beta   59.99999448
_cell_angle_gamma   60.00000069
_symmetry_Int_Tables_number   1
_chemical_formula_structural   Er3ThZnRh
_chemical_formula_sum   'Er12 Th4 Zn4 Rh4'
_cell_volume   617.43747269
_cell_formula_units_Z   4
loop_
 _symmetry_equiv_pos_site_id
 _symmetry_equiv_pos_as_xyz
  1  'x, y, z'
loop_
 _atom_site_type_symbol
 _atom_site_label
 _atom_site_symmetry_multiplicity
 _atom_site_fract_x
 _atom_site_fract_y
 _atom_site_fract_z
 _atom_site_occupancy
  Er  Er0  1  0.811291  0.188709  0.188709  1
  Er  Er1  1  0.188709  0.811291  0.811291  1
  Er  Er2  1  0.188709  0.811291  0.188709  1
  Er  Er3  1  0.811291  0.188709  0.811291  1
  Er  Er4  1  0.188709  0.188709  0.811291  1
  Er  Er5  1  0.811291  0.811291  0.188709  1
  Er  Er6  1  0.933363  0.566637  0.566637  1
  Er  Er7  1  0.566637  0.933363  0.933363  1
  Er  Er8  1  0.566637  0.933363  0.566637  1
  Er  Er9  1  0.933363  0.566637  0.933363  1
  Er  Er10  1  0.566637  0.566637  0.933363  1
  Er  Er11  1  0.933363  0.933363  0.566637  1
  Th  Th12  1  0.353914  0.353914  0.353914  1
  Th  Th13  1  0.353914  0.353914  0.938255  1
  Th  Th14  1  0.353914  0.938255  0.353914  1
  Th  Th15  1  0.938255  0.353914  0.353914  1
  Zn  Zn16  1  0.581580  0.581580  0.581580  1
  Zn  Zn17  1  0.581580  0.581580  0.255259  1
  Zn  Zn18  1  0.581580  0.255259  0.581580  1
  Zn  Zn19  1  0.255259  0.581580  0.581580  1
  Rh  Rh20  1  0.143825  0.143825  0.143825  1
  Rh  Rh21  1  0.143825  0.143825  0.568522  1
  Rh  Rh22  1  0.143825  0.568522  0.143825  1
  Rh  Rh23  1  0.568522  0.143825  0.143825  1
