# generated using pymatgen
data_FeCu2(IrO4)3
_symmetry_space_group_name_H-M   'P 1'
_cell_length_a   4.57455303
_cell_length_b   4.51790088
_cell_length_c   9.38464576
_cell_angle_alpha   89.97115114
_cell_angle_beta   90.05199964
_cell_angle_gamma   90.75219241
_symmetry_Int_Tables_number   1
_chemical_formula_structural   FeCu2(IrO4)3
_chemical_formula_sum   'Fe1 Cu2 Ir3 O12'
_cell_volume   193.93919610
_cell_formula_units_Z   1
loop_
 _symmetry_equiv_pos_site_id
 _symmetry_equiv_pos_as_xyz
  1  'x, y, z'
loop_
 _atom_site_type_symbol
 _atom_site_label
 _atom_site_symmetry_multiplicity
 _atom_site_fract_x
 _atom_site_fract_y
 _atom_site_fract_z
 _atom_site_occupancy
  Fe  Fe0  1  0.499426  0.501517  0.166830  1
  Cu  Cu1  1  0.500085  0.500057  0.497437  1
  Cu  Cu2  1  0.999697  0.000293  0.999766  1
  Ir  Ir3  1  0.999986  0.998693  0.666843  1
  Ir  Ir4  1  0.500164  0.498649  0.834404  1
  Ir  Ir5  1  0.999879  0.001381  0.331100  1
  O  O6  1  0.690674  0.704085  0.670226  1
  O  O7  1  0.187125  0.798297  0.173965  1
  O  O8  1  0.302563  0.289653  0.332448  1
  O  O9  1  0.806613  0.206851  0.827613  1
  O  O10  1  0.193501  0.789331  0.827182  1
  O  O11  1  0.697271  0.713513  0.332036  1
  O  O12  1  0.812610  0.206015  0.174507  1
  O  O13  1  0.309806  0.292393  0.670565  1
  O  O14  1  0.182324  0.802360  0.501087  1
  O  O15  1  0.688806  0.703449  0.996109  1
  O  O16  1  0.817851  0.197823  0.501456  1
  O  O17  1  0.311618  0.295641  0.996427  1
