# generated using pymatgen
data_Hf5ScSn6Ir5Rh
_symmetry_space_group_name_H-M   'P 1'
_cell_length_a   7.45272167
_cell_length_b   7.42269336
_cell_length_c   7.19308400
_cell_angle_alpha   90.00000000
_cell_angle_beta   90.00000000
_cell_angle_gamma   119.90853019
_symmetry_Int_Tables_number   1
_chemical_formula_structural   Hf5ScSn6Ir5Rh
_chemical_formula_sum   'Hf5 Sc1 Sn6 Ir5 Rh1'
_cell_volume   344.92267202
_cell_formula_units_Z   1
loop_
 _symmetry_equiv_pos_site_id
 _symmetry_equiv_pos_as_xyz
  1  'x, y, z'
loop_
 _atom_site_type_symbol
 _atom_site_label
 _atom_site_symmetry_multiplicity
 _atom_site_fract_x
 _atom_site_fract_y
 _atom_site_fract_z
 _atom_site_occupancy
  Hf  Hf0  1  0.596083  0.609527  0.750000  1
  Hf  Hf1  1  0.390143  0.985174  0.750000  1
  Hf  Hf2  1  0.989020  0.386654  0.250000  1
  Hf  Hf3  1  0.613591  0.601597  0.250000  1
  Hf  Hf4  1  0.400306  0.015890  0.250000  1
  Sc  Sc5  1  0.012631  0.403536  0.750000  1
  Sn  Sn6  1  0.267072  0.271849  0.504918  1
  Sn  Sn7  1  0.001596  0.726316  0.499867  1
  Sn  Sn8  1  0.001596  0.726316  0.000133  1
  Sn  Sn9  1  0.731132  0.001522  0.503792  1
  Sn  Sn10  1  0.731132  0.001522  0.996208  1
  Sn  Sn11  1  0.267072  0.271849  0.995082  1
  Ir  Ir12  1  0.338243  0.670880  0.466377  1
  Ir  Ir13  1  0.661103  0.332305  0.518597  1
  Ir  Ir14  1  0.338243  0.670880  0.033623  1
  Ir  Ir15  1  0.000739  0.000687  0.250000  1
  Ir  Ir16  1  0.661103  0.332305  0.981403  1
  Rh  Rh17  1  0.999196  0.991191  0.750000  1
