# generated using pymatgen
data_DyHo5Sc4(In2Rh)4
_symmetry_space_group_name_H-M   'P 1'
_cell_length_a   3.54286900
_cell_length_b   7.87984508
_cell_length_c   17.94135918
_cell_angle_alpha   89.98386716
_cell_angle_beta   90.00000000
_cell_angle_gamma   90.00000000
_symmetry_Int_Tables_number   1
_chemical_formula_structural   DyHo5Sc4(In2Rh)4
_chemical_formula_sum   'Dy1 Ho5 Sc4 In8 Rh4'
_cell_volume   500.87354847
_cell_formula_units_Z   1
loop_
 _symmetry_equiv_pos_site_id
 _symmetry_equiv_pos_as_xyz
  1  'x, y, z'
loop_
 _atom_site_type_symbol
 _atom_site_label
 _atom_site_symmetry_multiplicity
 _atom_site_fract_x
 _atom_site_fract_y
 _atom_site_fract_z
 _atom_site_occupancy
  Dy  Dy0  1  0.000000  0.000000  0.000000  1
  Ho  Ho1  1  0.000000  0.500000  0.500000  1
  Ho  Ho2  1  0.000000  0.748062  0.781296  1
  Ho  Ho3  1  0.000000  0.251938  0.218704  1
  Ho  Ho4  1  0.000000  0.248042  0.718667  1
  Ho  Ho5  1  0.000000  0.751958  0.281333  1
  Sc  Sc6  1  0.000000  0.878093  0.588363  1
  Sc  Sc7  1  0.000000  0.121907  0.411637  1
  Sc  Sc8  1  0.000000  0.378081  0.911593  1
  Sc  Sc9  1  0.000000  0.621919  0.088407  1
  In  In10  1  0.500000  0.808191  0.437684  1
  In  In11  1  0.500000  0.191809  0.562316  1
  In  In12  1  0.500000  0.308606  0.062410  1
  In  In13  1  0.500000  0.691394  0.937590  1
  In  In14  1  0.500000  0.926075  0.149636  1
  In  In15  1  0.500000  0.073925  0.850364  1
  In  In16  1  0.500000  0.426177  0.350602  1
  In  In17  1  0.500000  0.573823  0.649398  1
  Rh  Rh18  1  0.500000  0.962872  0.692079  1
  Rh  Rh19  1  0.500000  0.037128  0.307921  1
  Rh  Rh20  1  0.500000  0.462872  0.807893  1
  Rh  Rh21  1  0.500000  0.537128  0.192107  1
