# generated using pymatgen
data_Ta2FePb4WO13
_symmetry_space_group_name_H-M   'P 1'
_cell_length_a   7.52757022
_cell_length_b   7.56877838
_cell_length_c   7.56877700
_cell_angle_alpha   60.30465241
_cell_angle_beta   60.36920863
_cell_angle_gamma   60.36919720
_symmetry_Int_Tables_number   1
_chemical_formula_structural   Ta2FePb4WO13
_chemical_formula_sum   'Ta2 Fe1 Pb4 W1 O13'
_cell_volume   307.32189955
_cell_formula_units_Z   1
loop_
 _symmetry_equiv_pos_site_id
 _symmetry_equiv_pos_as_xyz
  1  'x, y, z'
loop_
 _atom_site_type_symbol
 _atom_site_label
 _atom_site_symmetry_multiplicity
 _atom_site_fract_x
 _atom_site_fract_y
 _atom_site_fract_z
 _atom_site_occupancy
  Ta  Ta0  1  0.502429  0.502390  0.003857  1
  Ta  Ta1  1  0.502429  0.003857  0.502390  1
  Fe  Fe2  1  0.497117  0.500983  0.500983  1
  Pb  Pb3  1  0.992321  0.006953  0.006953  1
  Pb  Pb4  1  0.506836  0.007771  0.007771  1
  Pb  Pb5  1  0.028426  0.985063  0.500642  1
  Pb  Pb6  1  0.028426  0.500642  0.985063  1
  W  W7  1  0.996679  0.498725  0.498725  1
  O  O8  1  0.818604  0.436881  0.436881  1
  O  O9  1  0.439086  0.808450  0.808450  1
  O  O10  1  0.417517  0.424381  0.831725  1
  O  O11  1  0.815614  0.822677  0.422887  1
  O  O12  1  0.815614  0.422887  0.822677  1
  O  O13  1  0.417517  0.831725  0.424381  1
  O  O14  1  0.168032  0.568525  0.568525  1
  O  O15  1  0.567814  0.181688  0.181688  1
  O  O16  1  0.556870  0.562871  0.185745  1
  O  O17  1  0.183325  0.179911  0.567864  1
  O  O18  1  0.183325  0.567864  0.179911  1
  O  O19  1  0.556870  0.185745  0.562871  1
  O  O20  1  0.130147  0.125008  0.125008  1
