# generated using pymatgen
data_Tb4Hf2Sn5
_symmetry_space_group_name_H-M   'P 1'
_cell_length_a   11.40653638
_cell_length_b   11.40653651
_cell_length_c   11.40653509
_cell_angle_alpha   148.52668049
_cell_angle_beta   131.87171827
_cell_angle_gamma   58.64437228
_symmetry_Int_Tables_number   1
_chemical_formula_structural   Tb4Hf2Sn5
_chemical_formula_sum   'Tb8 Hf4 Sn10'
_cell_volume   572.39705843
_cell_formula_units_Z   2
loop_
 _symmetry_equiv_pos_site_id
 _symmetry_equiv_pos_as_xyz
  1  'x, y, z'
loop_
 _atom_site_type_symbol
 _atom_site_label
 _atom_site_symmetry_multiplicity
 _atom_site_fract_x
 _atom_site_fract_y
 _atom_site_fract_z
 _atom_site_occupancy
  Tb  Tb0  1  0.671050  0.440452  0.230598  1
  Tb  Tb1  1  0.328950  0.559548  0.769402  1
  Tb  Tb2  1  0.209855  0.940452  0.269402  1
  Tb  Tb3  1  0.790145  0.059548  0.730598  1
  Tb  Tb4  1  0.258118  0.145686  0.112432  1
  Tb  Tb5  1  0.741882  0.854314  0.887568  1
  Tb  Tb6  1  0.033254  0.645686  0.387568  1
  Tb  Tb7  1  0.966746  0.354314  0.612432  1
  Hf  Hf8  1  0.304119  0.554119  0.250000  1
  Hf  Hf9  1  0.695881  0.445881  0.750000  1
  Hf  Hf10  1  0.695881  0.945881  0.250000  1
  Hf  Hf11  1  0.304119  0.054119  0.750000  1
  Sn  Sn12  1  0.588130  0.289750  0.298380  1
  Sn  Sn13  1  0.411870  0.710250  0.701620  1
  Sn  Sn14  1  0.991370  0.789750  0.201620  1
  Sn  Sn15  1  0.008630  0.210250  0.798380  1
  Sn  Sn16  1  0.000000  0.250000  0.250000  1
  Sn  Sn17  1  0.000000  0.750000  0.750000  1
  Sn  Sn18  1  0.480607  0.079380  0.401226  1
  Sn  Sn19  1  0.519393  0.920620  0.598774  1
  Sn  Sn20  1  0.678155  0.579380  0.098774  1
  Sn  Sn21  1  0.321845  0.420620  0.901226  1
