# generated using pymatgen
data_Pr2GaNiBr2
_symmetry_space_group_name_H-M   'P 1'
_cell_length_a   4.17087300
_cell_length_b   4.17087191
_cell_length_c   11.44088200
_cell_angle_alpha   90.00000000
_cell_angle_beta   90.00000000
_cell_angle_gamma   120.00000074
_symmetry_Int_Tables_number   1
_chemical_formula_structural   Pr2GaNiBr2
_chemical_formula_sum   'Pr2 Ga1 Ni1 Br2'
_cell_volume   172.36296377
_cell_formula_units_Z   1
loop_
 _symmetry_equiv_pos_site_id
 _symmetry_equiv_pos_as_xyz
  1  'x, y, z'
loop_
 _atom_site_type_symbol
 _atom_site_label
 _atom_site_symmetry_multiplicity
 _atom_site_fract_x
 _atom_site_fract_y
 _atom_site_fract_z
 _atom_site_occupancy
  Pr  Pr0  1  0.000000  0.000000  0.174125  1
  Pr  Pr1  1  0.000000  0.000000  0.824991  1
  Ga  Ga2  1  0.666667  0.333333  0.996826  1
  Ni  Ni3  1  0.333333  0.666667  0.003351  1
  Br  Br4  1  0.333333  0.666667  0.657633  1
  Br  Br5  1  0.666667  0.333333  0.343073  1
