# generated using pymatgen
data_Lu10In8Ir3Rh
_symmetry_space_group_name_H-M   'P 1'
_cell_length_a   3.51904100
_cell_length_b   7.97361077
_cell_length_c   18.10508376
_cell_angle_alpha   89.94956077
_cell_angle_beta   90.00000000
_cell_angle_gamma   90.00000000
_symmetry_Int_Tables_number   1
_chemical_formula_structural   Lu10In8Ir3Rh
_chemical_formula_sum   'Lu10 In8 Ir3 Rh1'
_cell_volume   508.01873495
_cell_formula_units_Z   1
loop_
 _symmetry_equiv_pos_site_id
 _symmetry_equiv_pos_as_xyz
  1  'x, y, z'
loop_
 _atom_site_type_symbol
 _atom_site_label
 _atom_site_symmetry_multiplicity
 _atom_site_fract_x
 _atom_site_fract_y
 _atom_site_fract_z
 _atom_site_occupancy
  Lu  Lu0  1  0.000000  0.881681  0.087190  1
  Lu  Lu1  1  0.000000  0.756002  0.277945  1
  Lu  Lu2  1  0.000000  0.745671  0.778085  1
  Lu  Lu3  1  0.000000  0.382594  0.412383  1
  Lu  Lu4  1  0.000000  0.117440  0.912681  1
  Lu  Lu5  1  0.000000  0.245953  0.721878  1
  Lu  Lu6  1  0.000000  0.500252  0.000055  1
  Lu  Lu7  1  0.000000  0.251994  0.221561  1
  Lu  Lu8  1  0.000000  0.618220  0.587260  1
  Lu  Lu9  1  0.000000  0.999970  0.499909  1
  In  In10  1  0.500000  0.207088  0.066846  1
  In  In11  1  0.500000  0.429685  0.852209  1
  In  In12  1  0.500000  0.569857  0.149278  1
  In  In13  1  0.500000  0.071618  0.351460  1
  In  In14  1  0.500000  0.929396  0.648503  1
  In  In15  1  0.500000  0.793308  0.933250  1
  In  In16  1  0.500000  0.705559  0.433261  1
  In  In17  1  0.500000  0.293511  0.565648  1
  Ir  Ir18  1  0.500000  0.975420  0.196527  1
  Ir  Ir19  1  0.500000  0.024791  0.803346  1
  Ir  Ir20  1  0.500000  0.524235  0.696343  1
  Rh  Rh21  1  0.500000  0.475754  0.304384  1
