# generated using pymatgen
data_Er15Tm(LuIr3)4
_symmetry_space_group_name_H-M   'P 1'
_cell_length_a   10.77069908
_cell_length_b   10.77027708
_cell_length_c   6.30765900
_cell_angle_alpha   90.00265622
_cell_angle_beta   89.99876509
_cell_angle_gamma   90.01359717
_symmetry_Int_Tables_number   1
_chemical_formula_structural   Er15Tm(LuIr3)4
_chemical_formula_sum   'Er15 Tm1 Lu4 Ir12'
_cell_volume   731.70995315
_cell_formula_units_Z   1
loop_
 _symmetry_equiv_pos_site_id
 _symmetry_equiv_pos_as_xyz
  1  'x, y, z'
loop_
 _atom_site_type_symbol
 _atom_site_label
 _atom_site_symmetry_multiplicity
 _atom_site_fract_x
 _atom_site_fract_y
 _atom_site_fract_z
 _atom_site_occupancy
  Er  Er0  1  0.290833  0.087578  0.377101  1
  Er  Er1  1  0.290866  0.912447  0.877105  1
  Er  Er2  1  0.709135  0.087574  0.877129  1
  Er  Er3  1  0.709137  0.912456  0.377152  1
  Er  Er4  1  0.587544  0.790850  0.877117  1
  Er  Er5  1  0.587551  0.209146  0.377136  1
  Er  Er6  1  0.412446  0.790858  0.377141  1
  Er  Er7  1  0.412451  0.209148  0.877125  1
  Er  Er8  1  0.209123  0.412420  0.622890  1
  Er  Er9  1  0.209112  0.587498  0.122840  1
  Er  Er10  1  0.790899  0.412419  0.122859  1
  Er  Er11  1  0.790870  0.587556  0.622880  1
  Er  Er12  1  0.912466  0.709134  0.122899  1
  Er  Er13  1  0.912469  0.290857  0.622859  1
  Er  Er14  1  0.087546  0.709131  0.622860  1
  Tm  Tm15  1  0.087511  0.290953  0.122807  1
  Lu  Lu16  1  0.000011  0.000003  0.499975  1
  Lu  Lu17  1  0.000021  0.000050  0.000042  1
  Lu  Lu18  1  0.499998  0.499991  0.999991  1
  Lu  Lu19  1  0.499991  0.500002  0.500026  1
  Ir  Ir20  1  0.847348  0.152733  0.249959  1
  Ir  Ir21  1  0.847293  0.847286  0.749998  1
  Ir  Ir22  1  0.152689  0.152756  0.750171  1
  Ir  Ir23  1  0.152713  0.847288  0.249998  1
  Ir  Ir24  1  0.652708  0.347291  0.749970  1
  Ir  Ir25  1  0.652700  0.652716  0.250018  1
  Ir  Ir26  1  0.347213  0.347276  0.249974  1
  Ir  Ir27  1  0.347285  0.652713  0.749962  1
  Ir  Ir28  1  0.499988  0.000005  0.122258  1
  Ir  Ir29  1  0.500007  0.000001  0.622256  1
  Ir  Ir30  1  0.000034  0.499924  0.877825  1
  Ir  Ir31  1  0.000043  0.499939  0.377680  1
