# generated using pymatgen
data_Rb2WSeS3
_symmetry_space_group_name_H-M   'P 1'
_cell_length_a   7.23121100
_cell_length_b   10.28534100
_cell_length_c   12.92324500
_cell_angle_alpha   90.00000000
_cell_angle_beta   90.00000000
_cell_angle_gamma   90.00000000
_symmetry_Int_Tables_number   1
_chemical_formula_structural   Rb2WSeS3
_chemical_formula_sum   'Rb8 W4 Se4 S12'
_cell_volume   961.17243344
_cell_formula_units_Z   4
loop_
 _symmetry_equiv_pos_site_id
 _symmetry_equiv_pos_as_xyz
  1  'x, y, z'
loop_
 _atom_site_type_symbol
 _atom_site_label
 _atom_site_symmetry_multiplicity
 _atom_site_fract_x
 _atom_site_fract_y
 _atom_site_fract_z
 _atom_site_occupancy
  Rb  Rb0  1  0.250000  0.850884  0.099699  1
  Rb  Rb1  1  0.750000  0.149116  0.900301  1
  Rb  Rb2  1  0.250000  0.350884  0.400301  1
  Rb  Rb3  1  0.750000  0.649116  0.599699  1
  Rb  Rb4  1  0.250000  0.533767  0.828871  1
  Rb  Rb5  1  0.750000  0.466233  0.171129  1
  Rb  Rb6  1  0.250000  0.033767  0.671129  1
  Rb  Rb7  1  0.750000  0.966233  0.328871  1
  W  W8  1  0.250000  0.752447  0.426067  1
  W  W9  1  0.750000  0.247553  0.573933  1
  W  W10  1  0.250000  0.252447  0.073933  1
  W  W11  1  0.750000  0.747553  0.926067  1
  Se  Se12  1  0.250000  0.977733  0.392179  1
  Se  Se13  1  0.750000  0.022267  0.607821  1
  Se  Se14  1  0.250000  0.477733  0.107821  1
  Se  Se15  1  0.750000  0.522267  0.892179  1
  S  S16  1  0.503605  0.336896  0.644180  1
  S  S17  1  0.003605  0.663104  0.355820  1
  S  S18  1  0.996395  0.836896  0.855820  1
  S  S19  1  0.496395  0.163104  0.144180  1
  S  S20  1  0.496395  0.663104  0.355820  1
  S  S21  1  0.996395  0.336896  0.644180  1
  S  S22  1  0.003605  0.163104  0.144180  1
  S  S23  1  0.503605  0.836896  0.855820  1
  S  S24  1  0.750000  0.788051  0.094132  1
  S  S25  1  0.250000  0.211949  0.905868  1
  S  S26  1  0.750000  0.288051  0.405868  1
  S  S27  1  0.250000  0.711949  0.594132  1
