# generated using pymatgen
data_DyYMn3Co9As7
_symmetry_space_group_name_H-M   'P 1'
_cell_length_a   3.73694500
_cell_length_b   9.45556742
_cell_length_c   9.45556700
_cell_angle_alpha   119.99999504
_cell_angle_beta   90.00000000
_cell_angle_gamma   90.00000000
_symmetry_Int_Tables_number   1
_chemical_formula_structural   DyYMn3Co9As7
_chemical_formula_sum   'Dy1 Y1 Mn3 Co9 As7'
_cell_volume   289.34936336
_cell_formula_units_Z   1
loop_
 _symmetry_equiv_pos_site_id
 _symmetry_equiv_pos_as_xyz
  1  'x, y, z'
loop_
 _atom_site_type_symbol
 _atom_site_label
 _atom_site_symmetry_multiplicity
 _atom_site_fract_x
 _atom_site_fract_y
 _atom_site_fract_z
 _atom_site_occupancy
  Dy  Dy0  1  0.500000  0.333333  0.666667  1
  Y  Y1  1  0.000000  0.666667  0.333333  1
  Mn  Mn2  1  0.500000  0.777817  0.895374  1
  Mn  Mn3  1  0.500000  0.117557  0.222183  1
  Mn  Mn4  1  0.500000  0.104626  0.882443  1
  Co  Co5  1  0.000000  0.570855  0.940788  1
  Co  Co6  1  0.000000  0.369933  0.429145  1
  Co  Co7  1  0.000000  0.059212  0.630067  1
  Co  Co8  1  0.000000  0.881483  0.158504  1
  Co  Co9  1  0.000000  0.277022  0.118517  1
  Co  Co10  1  0.000000  0.841496  0.722978  1
  Co  Co11  1  0.500000  0.949471  0.384648  1
  Co  Co12  1  0.500000  0.435177  0.050529  1
  Co  Co13  1  0.500000  0.615352  0.564823  1
  As  As14  1  0.000000  0.000000  0.000000  1
  As  As15  1  0.500000  0.709605  0.118625  1
  As  As16  1  0.500000  0.409021  0.290395  1
  As  As17  1  0.500000  0.881375  0.590979  1
  As  As18  1  0.000000  0.585250  0.699578  1
  As  As19  1  0.000000  0.114329  0.414750  1
  As  As20  1  0.000000  0.300422  0.885671  1
