# generated using pymatgen
data_Ac2Ge2O7
_symmetry_space_group_name_H-M   'P 1'
_cell_length_a   7.14604764
_cell_length_b   7.30811264
_cell_length_c   7.34910702
_cell_angle_alpha   64.10379865
_cell_angle_beta   87.79701043
_cell_angle_gamma   88.79329955
_symmetry_Int_Tables_number   1
_chemical_formula_structural   Ac2Ge2O7
_chemical_formula_sum   'Ac4 Ge4 O14'
_cell_volume   345.00290495
_cell_formula_units_Z   2
loop_
 _symmetry_equiv_pos_site_id
 _symmetry_equiv_pos_as_xyz
  1  'x, y, z'
loop_
 _atom_site_type_symbol
 _atom_site_label
 _atom_site_symmetry_multiplicity
 _atom_site_fract_x
 _atom_site_fract_y
 _atom_site_fract_z
 _atom_site_occupancy
  Ac  Ac0  1  0.145158  0.746282  0.996342  1
  Ac  Ac1  1  0.569304  0.311664  0.149517  1
  Ac  Ac2  1  0.634753  0.829491  0.630000  1
  Ac  Ac3  1  0.878559  0.304708  0.640944  1
  Ge  Ge4  1  0.378412  0.317139  0.649135  1
  Ge  Ge5  1  0.146061  0.742573  0.500031  1
  Ge  Ge6  1  0.033477  0.180948  0.193720  1
  Ge  Ge7  1  0.680371  0.790197  0.117503  1
  O  O8  1  0.216917  0.355668  0.139770  1
  O  O9  1  0.540487  0.422539  0.756948  1
  O  O10  1  0.897139  0.118199  0.419879  1
  O  O11  1  0.240381  0.528841  0.459554  1
  O  O12  1  0.816804  0.926093  0.885544  1
  O  O13  1  0.873275  0.275354  0.998956  1
  O  O14  1  0.203251  0.147523  0.795653  1
  O  O15  1  0.128505  0.926343  0.238405  1
  O  O16  1  0.594016  0.922689  0.253993  1
  O  O17  1  0.931634  0.653865  0.629455  1
  O  O18  1  0.534433  0.209104  0.526875  1
  O  O19  1  0.822051  0.572591  0.248622  1
  O  O20  1  0.497391  0.698952  0.014677  1
  O  O21  1  0.283420  0.813141  0.647779  1
