# generated using pymatgen
data_NaLuGaPt3
_symmetry_space_group_name_H-M   'P 1'
_cell_length_a   5.54087776
_cell_length_b   5.54087708
_cell_length_c   5.15564212
_cell_angle_alpha   57.49584922
_cell_angle_beta   57.49586132
_cell_angle_gamma   59.99998835
_symmetry_Int_Tables_number   1
_chemical_formula_structural   NaLuGaPt3
_chemical_formula_sum   'Na1 Lu1 Ga1 Pt3'
_cell_volume   107.49913609
_cell_formula_units_Z   1
loop_
 _symmetry_equiv_pos_site_id
 _symmetry_equiv_pos_as_xyz
  1  'x, y, z'
loop_
 _atom_site_type_symbol
 _atom_site_label
 _atom_site_symmetry_multiplicity
 _atom_site_fract_x
 _atom_site_fract_y
 _atom_site_fract_z
 _atom_site_occupancy
  Na  Na0  1  0.750413  0.750413  0.748761  1
  Lu  Lu1  1  0.501936  0.501936  0.494191  1
  Ga  Ga2  1  0.123876  0.123876  0.628372  1
  Pt  Pt3  1  0.124053  0.124053  0.126225  1
  Pt  Pt4  1  0.625668  0.124053  0.126225  1
  Pt  Pt5  1  0.124053  0.625668  0.126225  1
