# generated using pymatgen
data_Tb4Lu6AlSb5
_symmetry_space_group_name_H-M   'P 1'
_cell_length_a   8.87670308
_cell_length_b   8.86259566
_cell_length_c   6.26801600
_cell_angle_alpha   90.00000000
_cell_angle_beta   90.00000000
_cell_angle_gamma   120.18673213
_symmetry_Int_Tables_number   1
_chemical_formula_structural   Tb4Lu6AlSb5
_chemical_formula_sum   'Tb4 Lu6 Al1 Sb5'
_cell_volume   426.23891129
_cell_formula_units_Z   1
loop_
 _symmetry_equiv_pos_site_id
 _symmetry_equiv_pos_as_xyz
  1  'x, y, z'
loop_
 _atom_site_type_symbol
 _atom_site_label
 _atom_site_symmetry_multiplicity
 _atom_site_fract_x
 _atom_site_fract_y
 _atom_site_fract_z
 _atom_site_occupancy
  Tb  Tb0  1  0.998877  0.244817  0.250000  1
  Tb  Tb1  1  0.756574  0.756679  0.250000  1
  Tb  Tb2  1  0.244281  0.235995  0.750000  1
  Tb  Tb3  1  0.242175  0.999239  0.250000  1
  Lu  Lu4  1  0.010694  0.764108  0.750000  1
  Lu  Lu5  1  0.751806  0.000218  0.750000  1
  Lu  Lu6  1  0.335025  0.673084  0.502434  1
  Lu  Lu7  1  0.660912  0.326467  0.997549  1
  Lu  Lu8  1  0.660912  0.326467  0.502451  1
  Lu  Lu9  1  0.335025  0.673084  0.997566  1
  Al  Al10  1  0.398860  0.998052  0.750000  1
  Sb  Sb11  1  0.392252  0.395222  0.250000  1
  Sb  Sb12  1  0.996490  0.604395  0.250000  1
  Sb  Sb13  1  0.999474  0.392206  0.750000  1
  Sb  Sb14  1  0.612380  0.609926  0.750000  1
  Sb  Sb15  1  0.604262  0.000041  0.250000  1
