# generated using pymatgen
data_YHo9Pt8
_symmetry_space_group_name_H-M   'P 1'
_cell_length_a   7.45234800
_cell_length_b   7.53628000
_cell_length_c   14.75385800
_cell_angle_alpha   90.00256573
_cell_angle_beta   90.00000000
_cell_angle_gamma   90.00000000
_symmetry_Int_Tables_number   1
_chemical_formula_structural   YHo9Pt8
_chemical_formula_sum   'Y2 Ho18 Pt16'
_cell_volume   828.62064885
_cell_formula_units_Z   2
loop_
 _symmetry_equiv_pos_site_id
 _symmetry_equiv_pos_as_xyz
  1  'x, y, z'
loop_
 _atom_site_type_symbol
 _atom_site_label
 _atom_site_symmetry_multiplicity
 _atom_site_fract_x
 _atom_site_fract_y
 _atom_site_fract_z
 _atom_site_occupancy
  Y  Y0  1  0.498551  0.679153  0.407242  1
  Y  Y1  1  0.998551  0.820847  0.092758  1
  Ho  Ho2  1  0.680824  0.988103  0.249935  1
  Ho  Ho3  1  0.180824  0.511897  0.250065  1
  Ho  Ho4  1  0.819093  0.488273  0.749874  1
  Ho  Ho5  1  0.319093  0.011727  0.750126  1
  Ho  Ho6  1  0.656350  0.832429  0.622211  1
  Ho  Ho7  1  0.156350  0.667571  0.877789  1
  Ho  Ho8  1  0.844234  0.332052  0.377941  1
  Ho  Ho9  1  0.344234  0.167948  0.122059  1
  Ho  Ho10  1  0.344130  0.167730  0.378041  1
  Ho  Ho11  1  0.844130  0.332270  0.121959  1
  Ho  Ho12  1  0.156239  0.668055  0.622057  1
  Ho  Ho13  1  0.656239  0.831945  0.877943  1
  Ho  Ho14  1  0.997693  0.820397  0.406842  1
  Ho  Ho15  1  0.497693  0.679603  0.093158  1
  Ho  Ho16  1  0.502590  0.319568  0.593221  1
  Ho  Ho17  1  0.002590  0.180432  0.906779  1
  Ho  Ho18  1  0.002113  0.179869  0.593102  1
  Ho  Ho19  1  0.502113  0.320131  0.906898  1
  Pt  Pt20  1  0.817336  0.642902  0.250655  1
  Pt  Pt21  1  0.317336  0.857098  0.249345  1
  Pt  Pt22  1  0.681861  0.143624  0.749983  1
  Pt  Pt23  1  0.181861  0.356376  0.750017  1
  Pt  Pt24  1  0.547082  0.386043  0.249605  1
  Pt  Pt25  1  0.047082  0.113957  0.250395  1
  Pt  Pt26  1  0.952785  0.887089  0.750057  1
  Pt  Pt27  1  0.452785  0.612911  0.749943  1
  Pt  Pt28  1  0.816353  0.531405  0.542365  1
  Pt  Pt29  1  0.316353  0.968595  0.957635  1
  Pt  Pt30  1  0.684819  0.033210  0.458838  1
  Pt  Pt31  1  0.184819  0.466790  0.041162  1
  Pt  Pt32  1  0.182305  0.466737  0.458737  1
  Pt  Pt33  1  0.682305  0.033263  0.041263  1
  Pt  Pt34  1  0.315642  0.969290  0.542469  1
  Pt  Pt35  1  0.815642  0.530710  0.957531  1
