# generated using pymatgen
data_LiNd6Ho10Cd3Pt4
_symmetry_space_group_name_H-M   'P 1'
_cell_length_a   9.75379616
_cell_length_b   9.75379649
_cell_length_c   9.75379541
_cell_angle_alpha   60.13965391
_cell_angle_beta   60.13965446
_cell_angle_gamma   60.13965533
_symmetry_Int_Tables_number   1
_chemical_formula_structural   LiNd6Ho10Cd3Pt4
_chemical_formula_sum   'Li1 Nd6 Ho10 Cd3 Pt4'
_cell_volume   658.23010223
_cell_formula_units_Z   1
loop_
 _symmetry_equiv_pos_site_id
 _symmetry_equiv_pos_as_xyz
  1  'x, y, z'
loop_
 _atom_site_type_symbol
 _atom_site_label
 _atom_site_symmetry_multiplicity
 _atom_site_fract_x
 _atom_site_fract_y
 _atom_site_fract_z
 _atom_site_occupancy
  Li  Li0  1  0.571477  0.571477  0.571477  1
  Nd  Nd1  1  0.937550  0.562167  0.562167  1
  Nd  Nd2  1  0.560733  0.938547  0.938547  1
  Nd  Nd3  1  0.562167  0.937550  0.562167  1
  Nd  Nd4  1  0.938547  0.560733  0.938547  1
  Nd  Nd5  1  0.562167  0.562167  0.937550  1
  Nd  Nd6  1  0.938547  0.938547  0.560733  1
  Ho  Ho7  1  0.350280  0.350280  0.350280  1
  Ho  Ho8  1  0.349849  0.349849  0.950424  1
  Ho  Ho9  1  0.349849  0.950424  0.349849  1
  Ho  Ho10  1  0.950424  0.349849  0.349849  1
  Ho  Ho11  1  0.812309  0.189432  0.189432  1
  Ho  Ho12  1  0.184188  0.814571  0.814571  1
  Ho  Ho13  1  0.189432  0.812309  0.189432  1
  Ho  Ho14  1  0.814571  0.184188  0.814571  1
  Ho  Ho15  1  0.189432  0.189432  0.812309  1
  Ho  Ho16  1  0.814571  0.814571  0.184188  1
  Cd  Cd17  1  0.581329  0.581329  0.259685  1
  Cd  Cd18  1  0.581329  0.259685  0.581329  1
  Cd  Cd19  1  0.259685  0.581329  0.581329  1
  Pt  Pt20  1  0.143380  0.143380  0.143380  1
  Pt  Pt21  1  0.143160  0.143160  0.571864  1
  Pt  Pt22  1  0.143160  0.571864  0.143160  1
  Pt  Pt23  1  0.571864  0.143160  0.143160  1
