# generated using pymatgen
data_Er2Al9Co2Pd
_symmetry_space_group_name_H-M   'P 1'
_cell_length_a   7.42725719
_cell_length_b   7.42723405
_cell_length_c   9.31557100
_cell_angle_alpha   90.00000000
_cell_angle_beta   90.00000000
_cell_angle_gamma   118.94484900
_symmetry_Int_Tables_number   1
_chemical_formula_structural   Er2Al9Co2Pd
_chemical_formula_sum   'Er4 Al18 Co4 Pd2'
_cell_volume   449.69263027
_cell_formula_units_Z   2
loop_
 _symmetry_equiv_pos_site_id
 _symmetry_equiv_pos_as_xyz
  1  'x, y, z'
loop_
 _atom_site_type_symbol
 _atom_site_label
 _atom_site_symmetry_multiplicity
 _atom_site_fract_x
 _atom_site_fract_y
 _atom_site_fract_z
 _atom_site_occupancy
  Er  Er0  1  0.995799  0.679215  0.250000  1
  Er  Er1  1  0.004201  0.320785  0.750000  1
  Er  Er2  1  0.679214  0.995799  0.250000  1
  Er  Er3  1  0.320786  0.004201  0.750000  1
  Al  Al4  1  0.142221  0.142221  0.250000  1
  Al  Al5  1  0.857779  0.857779  0.750000  1
  Al  Al6  1  0.999195  0.345389  0.074381  1
  Al  Al7  1  0.000805  0.654611  0.925619  1
  Al  Al8  1  0.000805  0.654611  0.574381  1
  Al  Al9  1  0.345389  0.999196  0.425619  1
  Al  Al10  1  0.999195  0.345389  0.425619  1
  Al  Al11  1  0.654611  0.000804  0.574381  1
  Al  Al12  1  0.654611  0.000804  0.925619  1
  Al  Al13  1  0.345389  0.999196  0.074381  1
  Al  Al14  1  0.339974  0.339974  0.548048  1
  Al  Al15  1  0.660026  0.660026  0.451952  1
  Al  Al16  1  0.660026  0.660026  0.048048  1
  Al  Al17  1  0.339974  0.339974  0.951952  1
  Al  Al18  1  0.340359  0.560395  0.250000  1
  Al  Al19  1  0.659641  0.439605  0.750000  1
  Al  Al20  1  0.560394  0.340359  0.250000  1
  Al  Al21  1  0.439606  0.659641  0.750000  1
  Co  Co22  1  0.671585  0.328414  0.000001  1
  Co  Co23  1  0.328415  0.671586  0.999999  1
  Co  Co24  1  0.328415  0.671586  0.500001  1
  Co  Co25  1  0.671585  0.328414  0.499999  1
  Pd  Pd26  1  0.000000  0.000000  0.000000  1
  Pd  Pd27  1  0.000000  0.000000  0.500000  1
