# generated using pymatgen
data_Rb12Na7Li(SiP3)4
_symmetry_space_group_name_H-M   'P 1'
_cell_length_a   10.42352297
_cell_length_b   10.42352315
_cell_length_c   15.28414536
_cell_angle_alpha   89.93994213
_cell_angle_beta   89.93994506
_cell_angle_gamma   142.85905644
_symmetry_Int_Tables_number   1
_chemical_formula_structural   Rb12Na7Li(SiP3)4
_chemical_formula_sum   'Rb12 Na7 Li1 Si4 P12'
_cell_volume   1002.63994230
_cell_formula_units_Z   1
loop_
 _symmetry_equiv_pos_site_id
 _symmetry_equiv_pos_as_xyz
  1  'x, y, z'
loop_
 _atom_site_type_symbol
 _atom_site_label
 _atom_site_symmetry_multiplicity
 _atom_site_fract_x
 _atom_site_fract_y
 _atom_site_fract_z
 _atom_site_occupancy
  Rb  Rb0  1  0.938970  0.609516  0.827223  1
  Rb  Rb1  1  0.561100  0.890890  0.326856  1
  Rb  Rb2  1  0.390484  0.061030  0.172777  1
  Rb  Rb3  1  0.061687  0.389563  0.170760  1
  Rb  Rb4  1  0.890639  0.560793  0.326954  1
  Rb  Rb5  1  0.439207  0.109361  0.673046  1
  Rb  Rb6  1  0.610437  0.938313  0.829240  1
  Rb  Rb7  1  0.267359  0.267368  0.318132  1
  Rb  Rb8  1  0.767709  0.768462  0.180029  1
  Rb  Rb9  1  0.231538  0.232291  0.819971  1
  Rb  Rb10  1  0.732632  0.732641  0.681868  1
  Rb  Rb11  1  0.109110  0.438900  0.673144  1
  Na  Na12  1  0.578455  0.421545  0.500000  1
  Na  Na13  1  0.076917  0.923083  0.000000  1
  Na  Na14  1  0.421562  0.578438  0.500000  1
  Na  Na15  1  0.757028  0.242972  0.000000  1
  Na  Na16  1  0.744056  0.255944  0.500000  1
  Na  Na17  1  0.244684  0.755316  0.000000  1
  Na  Na18  1  0.255924  0.744076  0.500000  1
  Li  Li19  1  0.920547  0.079453  0.000000  1
  Si  Si20  1  0.583172  0.416828  0.000000  1
  Si  Si21  1  0.915858  0.084142  0.500000  1
  Si  Si22  1  0.416288  0.583712  0.000000  1
  Si  Si23  1  0.084197  0.915803  0.500000  1
  P  P24  1  0.846948  0.546464  0.090594  1
  P  P25  1  0.453536  0.153052  0.909406  1
  P  P26  1  0.650861  0.952306  0.591024  1
  P  P27  1  0.952271  0.650834  0.590982  1
  P  P28  1  0.139989  0.436532  0.914118  1
  P  P29  1  0.563468  0.860011  0.085882  1
  P  P30  1  0.349166  0.047729  0.409018  1
  P  P31  1  0.178972  0.178993  0.578346  1
  P  P32  1  0.685684  0.689156  0.923584  1
  P  P33  1  0.310844  0.314316  0.076416  1
  P  P34  1  0.047694  0.349139  0.408976  1
  P  P35  1  0.821007  0.821028  0.421654  1
