# generated using pymatgen
data_Tm4Lu13(ScBi4)3
_symmetry_space_group_name_H-M   'P 1'
_cell_length_a   8.06552502
_cell_length_b   9.33276700
_cell_length_c   11.77749203
_cell_angle_alpha   90.00000000
_cell_angle_beta   89.99235284
_cell_angle_gamma   90.00000000
_symmetry_Int_Tables_number   1
_chemical_formula_structural   Tm4Lu13(ScBi4)3
_chemical_formula_sum   'Tm4 Lu13 Sc3 Bi12'
_cell_volume   886.53498997
_cell_formula_units_Z   1
loop_
 _symmetry_equiv_pos_site_id
 _symmetry_equiv_pos_as_xyz
  1  'x, y, z'
loop_
 _atom_site_type_symbol
 _atom_site_label
 _atom_site_symmetry_multiplicity
 _atom_site_fract_x
 _atom_site_fract_y
 _atom_site_fract_z
 _atom_site_occupancy
  Tm  Tm0  1  0.186558  0.250000  0.780719  1
  Tm  Tm1  1  0.813804  0.750000  0.218611  1
  Tm  Tm2  1  0.313396  0.750000  0.281517  1
  Tm  Tm3  1  0.687805  0.250000  0.717023  1
  Lu  Lu4  1  0.524998  0.250000  0.989013  1
  Lu  Lu5  1  0.354623  0.250000  0.282446  1
  Lu  Lu6  1  0.645774  0.750000  0.717086  1
  Lu  Lu7  1  0.144565  0.750000  0.782337  1
  Lu  Lu8  1  0.855525  0.250000  0.217980  1
  Lu  Lu9  1  0.194087  0.066246  0.060798  1
  Lu  Lu10  1  0.804391  0.931823  0.939955  1
  Lu  Lu11  1  0.303534  0.932641  0.559550  1
  Lu  Lu12  1  0.804391  0.568177  0.939955  1
  Lu  Lu13  1  0.696443  0.067410  0.440479  1
  Lu  Lu14  1  0.194087  0.433754  0.060798  1
  Lu  Lu15  1  0.696443  0.432590  0.440479  1
  Lu  Lu16  1  0.303534  0.567359  0.559550  1
  Sc  Sc17  1  0.024564  0.250000  0.511682  1
  Sc  Sc18  1  0.975172  0.750000  0.488497  1
  Sc  Sc19  1  0.475298  0.750000  0.011655  1
  Bi  Bi20  1  0.401968  0.250000  0.541777  1
  Bi  Bi21  1  0.597748  0.750000  0.458349  1
  Bi  Bi22  1  0.098022  0.750000  0.041873  1
  Bi  Bi23  1  0.905436  0.250000  0.957507  1
  Bi  Bi24  1  0.065964  0.004011  0.329231  1
  Bi  Bi25  1  0.934065  0.995557  0.670896  1
  Bi  Bi26  1  0.432708  0.993640  0.827460  1
  Bi  Bi27  1  0.934065  0.504443  0.670896  1
  Bi  Bi28  1  0.566181  0.001969  0.172596  1
  Bi  Bi29  1  0.065964  0.495989  0.329231  1
  Bi  Bi30  1  0.566181  0.498031  0.172596  1
  Bi  Bi31  1  0.432708  0.506360  0.827460  1
