# generated using pymatgen
data_YbF18
_symmetry_space_group_name_H-M   'P 1'
_cell_length_a   6.78377238
_cell_length_b   9.02647282
_cell_length_c   12.35315441
_cell_angle_alpha   100.43921407
_cell_angle_beta   85.84793009
_cell_angle_gamma   115.29954952
_symmetry_Int_Tables_number   1
_chemical_formula_structural   YbF18
_chemical_formula_sum   'Yb2 F36'
_cell_volume   672.54482459
_cell_formula_units_Z   2
loop_
 _symmetry_equiv_pos_site_id
 _symmetry_equiv_pos_as_xyz
  1  'x, y, z'
loop_
 _atom_site_type_symbol
 _atom_site_label
 _atom_site_symmetry_multiplicity
 _atom_site_fract_x
 _atom_site_fract_y
 _atom_site_fract_z
 _atom_site_occupancy
  Yb  Yb0  1  0.095125  0.889864  0.178460  1
  Yb  Yb1  1  0.904875  0.110136  0.821540  1
  F  F2  1  0.771541  0.626961  0.334474  1
  F  F3  1  0.228459  0.373039  0.665526  1
  F  F4  1  0.075212  0.357154  0.374926  1
  F  F5  1  0.924788  0.642846  0.625074  1
  F  F6  1  0.212179  0.925018  0.957214  1
  F  F7  1  0.787821  0.074982  0.042786  1
  F  F8  1  0.945277  0.892632  0.361375  1
  F  F9  1  0.054723  0.107368  0.638625  1
  F  F10  1  0.013062  0.655997  0.221529  1
  F  F11  1  0.986938  0.344003  0.778471  1
  F  F12  1  0.581142  0.579505  0.414263  1
  F  F13  1  0.418858  0.420495  0.585737  1
  F  F14  1  0.876279  0.995462  0.142491  1
  F  F15  1  0.123721  0.004538  0.857509  1
  F  F16  1  0.082305  0.075447  0.360410  1
  F  F17  1  0.917695  0.924553  0.639590  1
  F  F18  1  0.059297  0.465249  0.305798  1
  F  F19  1  0.940703  0.534751  0.694202  1
  F  F20  1  0.787735  0.736068  0.057822  1
  F  F21  1  0.212265  0.263932  0.942178  1
  F  F22  1  0.772927  0.571776  0.005432  1
  F  F23  1  0.227073  0.428224  0.994568  1
  F  F24  1  0.589312  0.649671  0.827324  1
  F  F25  1  0.410688  0.350329  0.172676  1
  F  F26  1  0.500155  0.069900  0.253977  1
  F  F27  1  0.499845  0.930100  0.746023  1
  F  F28  1  0.272705  0.862238  0.502629  1
  F  F29  1  0.727295  0.137762  0.497371  1
  F  F30  1  0.305738  0.848366  0.042525  1
  F  F31  1  0.694262  0.151634  0.957475  1
  F  F32  1  0.397675  0.896554  0.272510  1
  F  F33  1  0.602325  0.103446  0.727490  1
  F  F34  1  0.596473  0.313966  0.165475  1
  F  F35  1  0.403527  0.686034  0.834525  1
  F  F36  1  0.390170  0.762371  0.468969  1
  F  F37  1  0.609830  0.237629  0.531031  1
