# generated using pymatgen
data_AcSb3F18
_symmetry_space_group_name_H-M   'P 1'
_cell_length_a   9.73042800
_cell_length_b   9.73042814
_cell_length_c   8.87579500
_cell_angle_alpha   90.00000000
_cell_angle_beta   90.00000000
_cell_angle_gamma   119.99999952
_symmetry_Int_Tables_number   1
_chemical_formula_structural   AcSb3F18
_chemical_formula_sum   'Ac2 Sb6 F36'
_cell_volume   727.78280408
_cell_formula_units_Z   2
loop_
 _symmetry_equiv_pos_site_id
 _symmetry_equiv_pos_as_xyz
  1  'x, y, z'
loop_
 _atom_site_type_symbol
 _atom_site_label
 _atom_site_symmetry_multiplicity
 _atom_site_fract_x
 _atom_site_fract_y
 _atom_site_fract_z
 _atom_site_occupancy
  Ac  Ac0  1  0.333333  0.666667  0.581240  1
  Ac  Ac1  1  0.666667  0.333333  0.418760  1
  Sb  Sb2  1  0.976373  0.333059  0.776190  1
  Sb  Sb3  1  0.356687  0.023627  0.776190  1
  Sb  Sb4  1  0.666941  0.643313  0.776190  1
  Sb  Sb5  1  0.023627  0.666941  0.223810  1
  Sb  Sb6  1  0.643313  0.976373  0.223810  1
  Sb  Sb7  1  0.333059  0.356687  0.223810  1
  F  F8  1  0.483957  0.872351  0.386641  1
  F  F9  1  0.388394  0.516043  0.386641  1
  F  F10  1  0.127649  0.611606  0.386641  1
  F  F11  1  0.516043  0.127649  0.613359  1
  F  F12  1  0.611606  0.483957  0.613359  1
  F  F13  1  0.872351  0.388394  0.613359  1
  F  F14  1  0.096999  0.295476  0.917912  1
  F  F15  1  0.198476  0.903001  0.917912  1
  F  F16  1  0.704524  0.801524  0.917912  1
  F  F17  1  0.903001  0.704524  0.082088  1
  F  F18  1  0.801524  0.096999  0.082088  1
  F  F19  1  0.295476  0.198476  0.082088  1
  F  F20  1  0.844862  0.359973  0.913121  1
  F  F21  1  0.515112  0.155138  0.913121  1
  F  F22  1  0.640027  0.484888  0.913121  1
  F  F23  1  0.155138  0.640027  0.086879  1
  F  F24  1  0.484888  0.844862  0.086879  1
  F  F25  1  0.359973  0.515112  0.086879  1
  F  F26  1  0.233576  0.873505  0.615591  1
  F  F27  1  0.639930  0.766424  0.615591  1
  F  F28  1  0.126495  0.360070  0.615591  1
  F  F29  1  0.766424  0.126495  0.384409  1
  F  F30  1  0.360070  0.233576  0.384409  1
  F  F31  1  0.873505  0.639930  0.384409  1
  F  F32  1  0.839098  0.118353  0.727279  1
  F  F33  1  0.279255  0.160902  0.727279  1
  F  F34  1  0.881647  0.720745  0.727279  1
  F  F35  1  0.160902  0.881647  0.272721  1
  F  F36  1  0.720745  0.839098  0.272721  1
  F  F37  1  0.118353  0.279255  0.272721  1
  F  F38  1  0.121492  0.564562  0.782154  1
  F  F39  1  0.443070  0.878508  0.782154  1
  F  F40  1  0.435438  0.556930  0.782154  1
  F  F41  1  0.878508  0.435438  0.217846  1
  F  F42  1  0.556930  0.121492  0.217846  1
  F  F43  1  0.564562  0.443070  0.217846  1
