# generated using pymatgen
data_Gd6Y3HoPb6
_symmetry_space_group_name_H-M   'P 1'
_cell_length_a   9.09498000
_cell_length_b   9.09498074
_cell_length_c   6.64584600
_cell_angle_alpha   90.00000000
_cell_angle_beta   90.00000000
_cell_angle_gamma   120.00000460
_symmetry_Int_Tables_number   1
_chemical_formula_structural   Gd6Y3HoPb6
_chemical_formula_sum   'Gd6 Y3 Ho1 Pb6'
_cell_volume   476.08491072
_cell_formula_units_Z   1
loop_
 _symmetry_equiv_pos_site_id
 _symmetry_equiv_pos_as_xyz
  1  'x, y, z'
loop_
 _atom_site_type_symbol
 _atom_site_label
 _atom_site_symmetry_multiplicity
 _atom_site_fract_x
 _atom_site_fract_y
 _atom_site_fract_z
 _atom_site_occupancy
  Gd  Gd0  1  0.237982  0.999884  0.251714  1
  Gd  Gd1  1  0.237982  0.238098  0.748286  1
  Gd  Gd2  1  0.000116  0.762018  0.748286  1
  Gd  Gd3  1  0.000116  0.238098  0.251714  1
  Gd  Gd4  1  0.761902  0.762018  0.251714  1
  Gd  Gd5  1  0.761902  0.999884  0.748286  1
  Y  Y6  1  0.333333  0.666667  0.000000  1
  Y  Y7  1  0.666667  0.333333  0.500000  1
  Y  Y8  1  0.666667  0.333333  0.000000  1
  Ho  Ho9  1  0.333333  0.666667  0.500000  1
  Pb  Pb10  1  0.603744  0.999608  0.250382  1
  Pb  Pb11  1  0.603744  0.604136  0.749618  1
  Pb  Pb12  1  0.000392  0.396256  0.749618  1
  Pb  Pb13  1  0.000392  0.604136  0.250382  1
  Pb  Pb14  1  0.395864  0.396256  0.250382  1
  Pb  Pb15  1  0.395864  0.999608  0.749618  1
