# generated using pymatgen
data_HfZr2Ga2Sn
_symmetry_space_group_name_H-M   'P 1'
_cell_length_a   5.75368000
_cell_length_b   8.81824100
_cell_length_c   9.41276500
_cell_angle_alpha   90.00000000
_cell_angle_beta   90.00000000
_cell_angle_gamma   90.00000000
_symmetry_Int_Tables_number   1
_chemical_formula_structural   HfZr2Ga2Sn
_chemical_formula_sum   'Hf4 Zr8 Ga8 Sn4'
_cell_volume   477.57862875
_cell_formula_units_Z   4
loop_
 _symmetry_equiv_pos_site_id
 _symmetry_equiv_pos_as_xyz
  1  'x, y, z'
loop_
 _atom_site_type_symbol
 _atom_site_label
 _atom_site_symmetry_multiplicity
 _atom_site_fract_x
 _atom_site_fract_y
 _atom_site_fract_z
 _atom_site_occupancy
  Hf  Hf0  1  0.000000  0.750000  0.122017  1
  Hf  Hf1  1  0.500000  0.250000  0.877983  1
  Hf  Hf2  1  0.000000  0.250000  0.877983  1
  Hf  Hf3  1  0.500000  0.750000  0.122017  1
  Zr  Zr4  1  0.750000  0.470250  0.609864  1
  Zr  Zr5  1  0.250000  0.529750  0.390136  1
  Zr  Zr6  1  0.750000  0.970250  0.390136  1
  Zr  Zr7  1  0.250000  0.029750  0.609864  1
  Zr  Zr8  1  0.750000  0.372851  0.199087  1
  Zr  Zr9  1  0.250000  0.627149  0.800913  1
  Zr  Zr10  1  0.750000  0.872851  0.800913  1
  Zr  Zr11  1  0.250000  0.127149  0.199087  1
  Ga  Ga12  1  0.000000  0.750000  0.569652  1
  Ga  Ga13  1  0.500000  0.250000  0.430348  1
  Ga  Ga14  1  0.000000  0.250000  0.430348  1
  Ga  Ga15  1  0.500000  0.750000  0.569652  1
  Ga  Ga16  1  0.750000  0.137106  0.646638  1
  Ga  Ga17  1  0.250000  0.862894  0.353362  1
  Ga  Ga18  1  0.750000  0.637106  0.353362  1
  Ga  Ga19  1  0.250000  0.362894  0.646638  1
  Sn  Sn20  1  0.750000  0.051272  0.084914  1
  Sn  Sn21  1  0.250000  0.948728  0.915086  1
  Sn  Sn22  1  0.750000  0.551272  0.915086  1
  Sn  Sn23  1  0.250000  0.448728  0.084914  1
