# generated using pymatgen
data_Pr2In4CoIr17
_symmetry_space_group_name_H-M   'P 1'
_cell_length_a   8.89942582
_cell_length_b   8.89942593
_cell_length_c   5.24775900
_cell_angle_alpha   90.00000000
_cell_angle_beta   90.00000000
_cell_angle_gamma   90.73356063
_symmetry_Int_Tables_number   1
_chemical_formula_structural   Pr2In4CoIr17
_chemical_formula_sum   'Pr2 In4 Co1 Ir17'
_cell_volume   415.58729945
_cell_formula_units_Z   1
loop_
 _symmetry_equiv_pos_site_id
 _symmetry_equiv_pos_as_xyz
  1  'x, y, z'
loop_
 _atom_site_type_symbol
 _atom_site_label
 _atom_site_symmetry_multiplicity
 _atom_site_fract_x
 _atom_site_fract_y
 _atom_site_fract_z
 _atom_site_occupancy
  Pr  Pr0  1  0.000000  0.000000  0.000000  1
  Pr  Pr1  1  0.500000  0.500000  0.000000  1
  In  In2  1  0.124103  0.624103  0.000000  1
  In  In3  1  0.875897  0.375897  0.000000  1
  In  In4  1  0.620783  0.879217  0.000000  1
  In  In5  1  0.379217  0.120783  0.000000  1
  Co  Co6  1  0.500000  0.000000  0.500000  1
  Ir  Ir7  1  0.000000  0.500000  0.500000  1
  Ir  Ir8  1  0.209248  0.062124  0.500000  1
  Ir  Ir9  1  0.790752  0.937876  0.500000  1
  Ir  Ir10  1  0.061377  0.798160  0.500000  1
  Ir  Ir11  1  0.701840  0.438623  0.500000  1
  Ir  Ir12  1  0.938623  0.201840  0.500000  1
  Ir  Ir13  1  0.298160  0.561377  0.500000  1
  Ir  Ir14  1  0.562124  0.709248  0.500000  1
  Ir  Ir15  1  0.437876  0.290752  0.500000  1
  Ir  Ir16  1  0.673480  0.173480  0.244191  1
  Ir  Ir17  1  0.326520  0.826520  0.755809  1
  Ir  Ir18  1  0.326520  0.826520  0.244191  1
  Ir  Ir19  1  0.178240  0.321760  0.242980  1
  Ir  Ir20  1  0.178240  0.321760  0.757020  1
  Ir  Ir21  1  0.673480  0.173480  0.755809  1
  Ir  Ir22  1  0.821760  0.678240  0.757020  1
  Ir  Ir23  1  0.821760  0.678240  0.242980  1
