# generated using pymatgen
data_TmTaCrB6
_symmetry_space_group_name_H-M   'P 1'
_cell_length_a   3.38203900
_cell_length_b   8.87747500
_cell_length_c   11.22211400
_cell_angle_alpha   90.00000000
_cell_angle_beta   90.00000000
_cell_angle_gamma   90.00000000
_symmetry_Int_Tables_number   1
_chemical_formula_structural   TmTaCrB6
_chemical_formula_sum   'Tm4 Ta4 Cr4 B24'
_cell_volume   336.93237672
_cell_formula_units_Z   4
loop_
 _symmetry_equiv_pos_site_id
 _symmetry_equiv_pos_as_xyz
  1  'x, y, z'
loop_
 _atom_site_type_symbol
 _atom_site_label
 _atom_site_symmetry_multiplicity
 _atom_site_fract_x
 _atom_site_fract_y
 _atom_site_fract_z
 _atom_site_occupancy
  Tm  Tm0  1  0.000000  0.822823  0.086111  1
  Tm  Tm1  1  0.000000  0.177177  0.913889  1
  Tm  Tm2  1  0.000000  0.322823  0.413889  1
  Tm  Tm3  1  0.000000  0.677177  0.586111  1
  Ta  Ta4  1  0.000000  0.445095  0.127677  1
  Ta  Ta5  1  0.000000  0.554905  0.872323  1
  Ta  Ta6  1  0.000000  0.945095  0.372323  1
  Ta  Ta7  1  0.000000  0.054905  0.627677  1
  Cr  Cr8  1  0.000000  0.143420  0.183141  1
  Cr  Cr9  1  0.000000  0.856580  0.816859  1
  Cr  Cr10  1  0.000000  0.643420  0.316859  1
  Cr  Cr11  1  0.000000  0.356580  0.683141  1
  B  B12  1  0.500000  0.054140  0.066961  1
  B  B13  1  0.500000  0.945860  0.933039  1
  B  B14  1  0.500000  0.554140  0.433039  1
  B  B15  1  0.500000  0.445860  0.566961  1
  B  B16  1  0.500000  0.253272  0.081996  1
  B  B17  1  0.500000  0.746728  0.918004  1
  B  B18  1  0.500000  0.753272  0.418004  1
  B  B19  1  0.500000  0.246728  0.581996  1
  B  B20  1  0.500000  0.296916  0.236462  1
  B  B21  1  0.500000  0.703084  0.763538  1
  B  B22  1  0.500000  0.796916  0.263538  1
  B  B23  1  0.500000  0.203084  0.736462  1
  B  B24  1  0.500000  0.130617  0.317748  1
  B  B25  1  0.500000  0.869383  0.682252  1
  B  B26  1  0.500000  0.630617  0.182252  1
  B  B27  1  0.500000  0.369383  0.817748  1
  B  B28  1  0.500000  0.482071  0.286891  1
  B  B29  1  0.500000  0.517929  0.713109  1
  B  B30  1  0.500000  0.982071  0.213109  1
  B  B31  1  0.500000  0.017929  0.786891  1
  B  B32  1  0.500000  0.099950  0.473594  1
  B  B33  1  0.500000  0.900050  0.526406  1
  B  B34  1  0.500000  0.599950  0.026406  1
  B  B35  1  0.500000  0.400050  0.973594  1
