# generated using pymatgen
data_Ho4Zr4IrPt3
_symmetry_space_group_name_H-M   'P 1'
_cell_length_a   4.69329700
_cell_length_b   7.11076263
_cell_length_c   8.19069781
_cell_angle_alpha   90.24992811
_cell_angle_beta   89.99990914
_cell_angle_gamma   90.00004064
_symmetry_Int_Tables_number   1
_chemical_formula_structural   Ho4Zr4IrPt3
_chemical_formula_sum   'Ho4 Zr4 Ir1 Pt3'
_cell_volume   273.34490970
_cell_formula_units_Z   1
loop_
 _symmetry_equiv_pos_site_id
 _symmetry_equiv_pos_as_xyz
  1  'x, y, z'
loop_
 _atom_site_type_symbol
 _atom_site_label
 _atom_site_symmetry_multiplicity
 _atom_site_fract_x
 _atom_site_fract_y
 _atom_site_fract_z
 _atom_site_occupancy
  Ho  Ho0  1  0.250000  0.017226  0.676697  1
  Ho  Ho1  1  0.250000  0.514231  0.819186  1
  Ho  Ho2  1  0.749999  0.988132  0.324750  1
  Ho  Ho3  1  0.750002  0.482539  0.178210  1
  Zr  Zr4  1  0.249999  0.147651  0.082478  1
  Zr  Zr5  1  0.250000  0.642575  0.417076  1
  Zr  Zr6  1  0.750000  0.851818  0.919963  1
  Zr  Zr7  1  0.750002  0.353151  0.577802  1
  Ir  Ir8  1  0.250001  0.271393  0.411835  1
  Pt  Pt9  1  0.250000  0.770256  0.091020  1
  Pt  Pt10  1  0.749998  0.732089  0.592525  1
  Pt  Pt11  1  0.749999  0.228941  0.908456  1
