# generated using pymatgen
data_Tb2TcB8Mo
_symmetry_space_group_name_H-M   'P 1'
_cell_length_a   3.62040900
_cell_length_b   6.01042475
_cell_length_c   11.62364818
_cell_angle_alpha   89.91801674
_cell_angle_beta   90.00000000
_cell_angle_gamma   90.00000000
_symmetry_Int_Tables_number   1
_chemical_formula_structural   Tb2TcB8Mo
_chemical_formula_sum   'Tb4 Tc2 B16 Mo2'
_cell_volume   252.93260217
_cell_formula_units_Z   2
loop_
 _symmetry_equiv_pos_site_id
 _symmetry_equiv_pos_as_xyz
  1  'x, y, z'
loop_
 _atom_site_type_symbol
 _atom_site_label
 _atom_site_symmetry_multiplicity
 _atom_site_fract_x
 _atom_site_fract_y
 _atom_site_fract_z
 _atom_site_occupancy
  Tb  Tb0  1  0.000000  0.627043  0.348562  1
  Tb  Tb1  1  0.000000  0.372957  0.651438  1
  Tb  Tb2  1  0.000000  0.127389  0.148877  1
  Tb  Tb3  1  0.000000  0.872611  0.851123  1
  Tc  Tc4  1  0.000000  0.633700  0.086169  1
  Tc  Tc5  1  0.000000  0.366300  0.913831  1
  B  B6  1  0.500000  0.784886  0.184220  1
  B  B7  1  0.500000  0.215114  0.815780  1
  B  B8  1  0.500000  0.288856  0.313125  1
  B  B9  1  0.500000  0.711144  0.686875  1
  B  B10  1  0.500000  0.863288  0.031144  1
  B  B11  1  0.500000  0.136712  0.968856  1
  B  B12  1  0.500000  0.366964  0.467592  1
  B  B13  1  0.500000  0.633036  0.532408  1
  B  B14  1  0.500000  0.885405  0.452586  1
  B  B15  1  0.500000  0.114595  0.547414  1
  B  B16  1  0.500000  0.387399  0.046950  1
  B  B17  1  0.500000  0.612601  0.953050  1
  B  B18  1  0.500000  0.975805  0.305729  1
  B  B19  1  0.500000  0.024195  0.694271  1
  B  B20  1  0.500000  0.477314  0.191201  1
  B  B21  1  0.500000  0.522686  0.808799  1
  Mo  Mo22  1  0.000000  0.129097  0.415373  1
  Mo  Mo23  1  0.000000  0.870903  0.584627  1
