# generated using pymatgen
data_MgPaF6
_symmetry_space_group_name_H-M   'P 1'
_cell_length_a   5.92070044
_cell_length_b   5.92069965
_cell_length_c   5.92070027
_cell_angle_alpha   56.98976744
_cell_angle_beta   56.98976954
_cell_angle_gamma   56.98977516
_symmetry_Int_Tables_number   1
_chemical_formula_structural   MgPaF6
_chemical_formula_sum   'Mg1 Pa1 F6'
_cell_volume   136.57192045
_cell_formula_units_Z   1
loop_
 _symmetry_equiv_pos_site_id
 _symmetry_equiv_pos_as_xyz
  1  'x, y, z'
loop_
 _atom_site_type_symbol
 _atom_site_label
 _atom_site_symmetry_multiplicity
 _atom_site_fract_x
 _atom_site_fract_y
 _atom_site_fract_z
 _atom_site_occupancy
  Mg  Mg0  1  0.500000  0.500000  0.500000  1
  Pa  Pa1  1  0.000000  0.000000  0.000000  1
  F  F2  1  0.645534  0.828484  0.266564  1
  F  F3  1  0.828484  0.266564  0.645534  1
  F  F4  1  0.733436  0.354466  0.171516  1
  F  F5  1  0.171516  0.733436  0.354466  1
  F  F6  1  0.354466  0.171516  0.733436  1
  F  F7  1  0.266564  0.645534  0.828484  1
