# generated using pymatgen
data_Rb3Pa2Br10N
_symmetry_space_group_name_H-M   'P 1'
_cell_length_a   7.89107500
_cell_length_b   7.89107500
_cell_length_c   20.28617400
_cell_angle_alpha   90.00000000
_cell_angle_beta   90.00000000
_cell_angle_gamma   90.00000000
_symmetry_Int_Tables_number   1
_chemical_formula_structural   Rb3Pa2Br10N
_chemical_formula_sum   'Rb6 Pa4 Br20 N2'
_cell_volume   1263.20108042
_cell_formula_units_Z   2
loop_
 _symmetry_equiv_pos_site_id
 _symmetry_equiv_pos_as_xyz
  1  'x, y, z'
loop_
 _atom_site_type_symbol
 _atom_site_label
 _atom_site_symmetry_multiplicity
 _atom_site_fract_x
 _atom_site_fract_y
 _atom_site_fract_z
 _atom_site_occupancy
  Rb  Rb0  1  0.500000  0.500000  0.000000  1
  Rb  Rb1  1  0.000000  0.000000  0.500000  1
  Rb  Rb2  1  0.000000  0.500000  0.250000  1
  Rb  Rb3  1  0.500000  0.000000  0.750000  1
  Rb  Rb4  1  0.500000  0.000000  0.250000  1
  Rb  Rb5  1  0.000000  0.500000  0.750000  1
  Pa  Pa6  1  0.500000  0.500000  0.400546  1
  Pa  Pa7  1  0.000000  0.000000  0.900546  1
  Pa  Pa8  1  0.500000  0.500000  0.599454  1
  Pa  Pa9  1  0.000000  0.000000  0.099454  1
  Br  Br10  1  0.797298  0.691037  0.393061  1
  Br  Br11  1  0.202702  0.308963  0.393061  1
  Br  Br12  1  0.702702  0.191037  0.893061  1
  Br  Br13  1  0.297298  0.808963  0.893061  1
  Br  Br14  1  0.691037  0.202702  0.393061  1
  Br  Br15  1  0.308963  0.797298  0.393061  1
  Br  Br16  1  0.191037  0.297298  0.893061  1
  Br  Br17  1  0.808963  0.702702  0.893061  1
  Br  Br18  1  0.202702  0.308963  0.606939  1
  Br  Br19  1  0.797298  0.691037  0.606939  1
  Br  Br20  1  0.297298  0.808963  0.106939  1
  Br  Br21  1  0.702702  0.191037  0.106939  1
  Br  Br22  1  0.308963  0.797298  0.606939  1
  Br  Br23  1  0.691037  0.202702  0.606939  1
  Br  Br24  1  0.808963  0.702702  0.106939  1
  Br  Br25  1  0.191037  0.297298  0.106939  1
  Br  Br26  1  0.500000  0.500000  0.261205  1
  Br  Br27  1  0.000000  0.000000  0.761205  1
  Br  Br28  1  0.500000  0.500000  0.738795  1
  Br  Br29  1  0.000000  0.000000  0.238795  1
  N  N30  1  0.500000  0.500000  0.500000  1
  N  N31  1  0.000000  0.000000  0.000000  1
