# generated using pymatgen
data_Cs7TaTl3As5
_symmetry_space_group_name_H-M   'P 1'
_cell_length_a   9.02173739
_cell_length_b   9.89453373
_cell_length_c   15.09583600
_cell_angle_alpha   85.39123921
_cell_angle_beta   85.11895041
_cell_angle_gamma   85.64228171
_symmetry_Int_Tables_number   1
_chemical_formula_structural   Cs7TaTl3As5
_chemical_formula_sum   'Cs14 Ta2 Tl6 As10'
_cell_volume   1335.06734383
_cell_formula_units_Z   2
loop_
 _symmetry_equiv_pos_site_id
 _symmetry_equiv_pos_as_xyz
  1  'x, y, z'
loop_
 _atom_site_type_symbol
 _atom_site_label
 _atom_site_symmetry_multiplicity
 _atom_site_fract_x
 _atom_site_fract_y
 _atom_site_fract_z
 _atom_site_occupancy
  Cs  Cs0  1  0.815006  0.812844  0.131890  1
  Cs  Cs1  1  0.184994  0.187156  0.868110  1
  Cs  Cs2  1  0.270320  0.253227  0.252370  1
  Cs  Cs3  1  0.729680  0.746773  0.747630  1
  Cs  Cs4  1  0.740531  0.501617  0.974420  1
  Cs  Cs5  1  0.259469  0.498383  0.025580  1
  Cs  Cs6  1  0.684939  0.082971  0.885315  1
  Cs  Cs7  1  0.315061  0.917029  0.114685  1
  Cs  Cs8  1  0.679870  0.659147  0.397581  1
  Cs  Cs9  1  0.320130  0.340853  0.602419  1
  Cs  Cs10  1  0.759216  0.991905  0.529956  1
  Cs  Cs11  1  0.240784  0.008095  0.470044  1
  Cs  Cs12  1  0.829345  0.367463  0.645112  1
  Cs  Cs13  1  0.170655  0.632537  0.354888  1
  Ta  Ta14  1  0.646689  0.394049  0.227746  1
  Ta  Ta15  1  0.353311  0.605951  0.772254  1
  Tl  Tl16  1  0.910915  0.276628  0.379792  1
  Tl  Tl17  1  0.089085  0.723372  0.620208  1
  Tl  Tl18  1  0.944357  0.183778  0.129092  1
  Tl  Tl19  1  0.055643  0.816222  0.870908  1
  Tl  Tl20  1  0.633886  0.044092  0.297320  1
  Tl  Tl21  1  0.366114  0.955908  0.702680  1
  As  As22  1  0.488161  0.598358  0.192264  1
  As  As23  1  0.511839  0.401642  0.807736  1
  As  As24  1  0.914023  0.453910  0.211279  1
  As  As25  1  0.085977  0.546090  0.788721  1
  As  As26  1  0.583584  0.302515  0.387447  1
  As  As27  1  0.416416  0.697485  0.612553  1
  As  As28  1  0.618658  0.208292  0.123914  1
  As  As29  1  0.381342  0.791708  0.876086  1
  As  As30  1  0.973427  0.993681  0.300705  1
  As  As31  1  0.026573  0.006319  0.699295  1
