# generated using pymatgen
data_Zr2Sc6Nb12Si15Ge
_symmetry_space_group_name_H-M   'P 1'
_cell_length_a   6.72252475
_cell_length_b   6.91817076
_cell_length_c   13.16528137
_cell_angle_alpha   89.88731338
_cell_angle_beta   90.07879478
_cell_angle_gamma   90.02537355
_symmetry_Int_Tables_number   1
_chemical_formula_structural   Zr2Sc6Nb12Si15Ge
_chemical_formula_sum   'Zr2 Sc6 Nb12 Si15 Ge1'
_cell_volume   612.28347748
_cell_formula_units_Z   1
loop_
 _symmetry_equiv_pos_site_id
 _symmetry_equiv_pos_as_xyz
  1  'x, y, z'
loop_
 _atom_site_type_symbol
 _atom_site_label
 _atom_site_symmetry_multiplicity
 _atom_site_fract_x
 _atom_site_fract_y
 _atom_site_fract_z
 _atom_site_occupancy
  Zr  Zr0  1  0.499473  0.673862  0.596982  1
  Zr  Zr1  1  0.001027  0.824908  0.903541  1
  Sc  Sc2  1  0.500064  0.326057  0.095676  1
  Sc  Sc3  1  0.003043  0.175700  0.403648  1
  Sc  Sc4  1  0.498909  0.328221  0.404088  1
  Sc  Sc5  1  0.999651  0.173359  0.095609  1
  Sc  Sc6  1  0.498308  0.674781  0.905069  1
  Sc  Sc7  1  0.999271  0.824048  0.595730  1
  Nb  Nb8  1  0.660268  0.175747  0.626133  1
  Nb  Nb9  1  0.161423  0.326662  0.875672  1
  Nb  Nb10  1  0.337266  0.826250  0.124394  1
  Nb  Nb11  1  0.839527  0.670135  0.374275  1
  Nb  Nb12  1  0.335882  0.825569  0.375124  1
  Nb  Nb13  1  0.837864  0.673817  0.124434  1
  Nb  Nb14  1  0.664301  0.172522  0.875065  1
  Nb  Nb15  1  0.163881  0.327896  0.625197  1
  Nb  Nb16  1  0.836980  0.495936  0.750944  1
  Nb  Nb17  1  0.337331  0.004256  0.749298  1
  Nb  Nb18  1  0.163096  0.505045  0.249833  1
  Nb  Nb19  1  0.662657  0.993989  0.248341  1
  Si  Si20  1  0.168724  0.531922  0.040112  1
  Si  Si21  1  0.331136  0.034497  0.960658  1
  Si  Si22  1  0.830691  0.465492  0.539277  1
  Si  Si23  1  0.326088  0.034272  0.539719  1
  Si  Si24  1  0.829838  0.466015  0.960844  1
  Si  Si25  1  0.669707  0.967344  0.039767  1
  Si  Si26  1  0.169937  0.532642  0.460310  1
  Si  Si27  1  0.459453  0.386949  0.751466  1
  Si  Si28  1  0.960190  0.113607  0.749364  1
  Si  Si29  1  0.540204  0.613435  0.249727  1
  Si  Si30  1  0.039994  0.886975  0.249925  1
  Si  Si31  1  0.704254  0.863739  0.750205  1
  Si  Si32  1  0.204388  0.636186  0.750204  1
  Si  Si33  1  0.295717  0.137258  0.249814  1
  Si  Si34  1  0.794949  0.361847  0.249776  1
  Ge  Ge35  1  0.674503  0.969063  0.459777  1
