# generated using pymatgen
data_Li4Sm3Dy(Si2Pb)2
_symmetry_space_group_name_H-M   'P 1'
_cell_length_a   9.75016921
_cell_length_b   9.75017088
_cell_length_c   6.85208900
_cell_angle_alpha   90.00000000
_cell_angle_beta   90.00000000
_cell_angle_gamma   153.58397070
_symmetry_Int_Tables_number   1
_chemical_formula_structural   Li4Sm3Dy(Si2Pb)2
_chemical_formula_sum   'Li4 Sm3 Dy1 Si4 Pb2'
_cell_volume   289.79832467
_cell_formula_units_Z   1
loop_
 _symmetry_equiv_pos_site_id
 _symmetry_equiv_pos_as_xyz
  1  'x, y, z'
loop_
 _atom_site_type_symbol
 _atom_site_label
 _atom_site_symmetry_multiplicity
 _atom_site_fract_x
 _atom_site_fract_y
 _atom_site_fract_z
 _atom_site_occupancy
  Li  Li0  1  0.816996  0.183004  0.553185  1
  Li  Li1  1  0.182853  0.817147  0.446400  1
  Li  Li2  1  0.182853  0.817147  0.053600  1
  Li  Li3  1  0.816996  0.183004  0.946815  1
  Sm  Sm4  1  0.452942  0.547058  0.750000  1
  Sm  Sm5  1  0.352607  0.647393  0.250000  1
  Sm  Sm6  1  0.647387  0.352613  0.750000  1
  Dy  Dy7  1  0.546851  0.453149  0.250000  1
  Si  Si8  1  0.943613  0.056387  0.074856  1
  Si  Si9  1  0.057028  0.942972  0.927226  1
  Si  Si10  1  0.057028  0.942972  0.572774  1
  Si  Si11  1  0.943613  0.056387  0.425144  1
  Pb  Pb12  1  0.718173  0.281827  0.250000  1
  Pb  Pb13  1  0.281059  0.718941  0.750000  1
