# generated using pymatgen
data_Sm4SiOs3I2
_symmetry_space_group_name_H-M   'P 1'
_cell_length_a   4.24183700
_cell_length_b   4.24183810
_cell_length_c   17.36952800
_cell_angle_alpha   90.00000000
_cell_angle_beta   90.00000000
_cell_angle_gamma   120.00001485
_symmetry_Int_Tables_number   1
_chemical_formula_structural   Sm4SiOs3I2
_chemical_formula_sum   'Sm4 Si1 Os3 I2'
_cell_volume   270.66160196
_cell_formula_units_Z   1
loop_
 _symmetry_equiv_pos_site_id
 _symmetry_equiv_pos_as_xyz
  1  'x, y, z'
loop_
 _atom_site_type_symbol
 _atom_site_label
 _atom_site_symmetry_multiplicity
 _atom_site_fract_x
 _atom_site_fract_y
 _atom_site_fract_z
 _atom_site_occupancy
  Sm  Sm0  1  0.000000  0.000000  0.109546  1
  Sm  Sm1  1  0.000000  0.000000  0.889253  1
  Sm  Sm2  1  0.000000  0.000000  0.605375  1
  Sm  Sm3  1  0.000000  0.000000  0.397387  1
  Si  Si4  1  0.333333  0.666667  0.501723  1
  Os  Os5  1  0.666667  0.333333  0.498942  1
  Os  Os6  1  0.666667  0.333333  0.009258  1
  Os  Os7  1  0.333333  0.666667  0.989870  1
  I  I8  1  0.333333  0.666667  0.251120  1
  I  I9  1  0.666667  0.333333  0.747525  1
