# generated using pymatgen
data_TbTm3(FeOs)4
_symmetry_space_group_name_H-M   'P 1'
_cell_length_a   5.25075805
_cell_length_b   5.25680912
_cell_length_c   8.99659513
_cell_angle_alpha   73.01295268
_cell_angle_beta   91.13218853
_cell_angle_gamma   120.03812498
_symmetry_Int_Tables_number   1
_chemical_formula_structural   TbTm3(FeOs)4
_chemical_formula_sum   'Tb1 Tm3 Fe4 Os4'
_cell_volume   203.18139819
_cell_formula_units_Z   1
loop_
 _symmetry_equiv_pos_site_id
 _symmetry_equiv_pos_as_xyz
  1  'x, y, z'
loop_
 _atom_site_type_symbol
 _atom_site_label
 _atom_site_symmetry_multiplicity
 _atom_site_fract_x
 _atom_site_fract_y
 _atom_site_fract_z
 _atom_site_occupancy
  Tb  Tb0  1  0.877322  0.751359  0.374602  1
  Tm  Tm1  1  0.377841  0.751783  0.874274  1
  Tm  Tm2  1  0.997455  0.998768  0.999919  1
  Tm  Tm3  1  0.496874  0.997769  0.501335  1
  Fe  Fe4  1  0.187577  0.374840  0.437900  1
  Fe  Fe5  1  0.687615  0.375094  0.937428  1
  Fe  Fe6  1  0.937866  0.375990  0.185885  1
  Fe  Fe7  1  0.436769  0.373926  0.688917  1
  Os  Os8  1  0.437502  0.376319  0.185710  1
  Os  Os9  1  0.937837  0.373759  0.689161  1
  Os  Os10  1  0.437502  0.875474  0.185710  1
  Os  Os11  1  0.937837  0.874916  0.689161  1
