# generated using pymatgen
data_Lu10Zn4SnBi
_symmetry_space_group_name_H-M   'P 1'
_cell_length_a   8.49032892
_cell_length_b   8.49032866
_cell_length_c   8.49033001
_cell_angle_alpha   124.48222127
_cell_angle_beta   124.48221777
_cell_angle_gamma   82.39742652
_symmetry_Int_Tables_number   1
_chemical_formula_structural   Lu10Zn4SnBi
_chemical_formula_sum   'Lu10 Zn4 Sn1 Bi1'
_cell_volume   399.58452068
_cell_formula_units_Z   1
loop_
 _symmetry_equiv_pos_site_id
 _symmetry_equiv_pos_as_xyz
  1  'x, y, z'
loop_
 _atom_site_type_symbol
 _atom_site_label
 _atom_site_symmetry_multiplicity
 _atom_site_fract_x
 _atom_site_fract_y
 _atom_site_fract_z
 _atom_site_occupancy
  Lu  Lu0  1  0.003433  0.003433  0.000000  1
  Lu  Lu1  1  0.496567  0.496567  0.000000  1
  Lu  Lu2  1  0.800044  0.295332  0.808844  1
  Lu  Lu3  1  0.204668  0.699956  0.191156  1
  Lu  Lu4  1  0.486489  0.991201  0.191156  1
  Lu  Lu5  1  0.295332  0.486489  0.495288  1
  Lu  Lu6  1  0.013511  0.204668  0.504712  1
  Lu  Lu7  1  0.508799  0.013511  0.808844  1
  Lu  Lu8  1  0.699956  0.508799  0.495288  1
  Lu  Lu9  1  0.991201  0.800044  0.504712  1
  Zn  Zn10  1  0.135418  0.635418  0.770837  1
  Zn  Zn11  1  0.864582  0.364582  0.229163  1
  Zn  Zn12  1  0.635418  0.864582  0.500000  1
  Zn  Zn13  1  0.364582  0.135418  0.500000  1
  Sn  Sn14  1  0.250000  0.250000  0.000000  1
  Bi  Bi15  1  0.750000  0.750000  0.000000  1
