# generated using pymatgen
data_Zr10AlSn7
_symmetry_space_group_name_H-M   'P 1'
_cell_length_a   8.81788900
_cell_length_b   8.81788835
_cell_length_c   5.93571800
_cell_angle_alpha   90.00000000
_cell_angle_beta   90.00000000
_cell_angle_gamma   119.99999118
_symmetry_Int_Tables_number   1
_chemical_formula_structural   Zr10AlSn7
_chemical_formula_sum   'Zr10 Al1 Sn7'
_cell_volume   399.69908448
_cell_formula_units_Z   1
loop_
 _symmetry_equiv_pos_site_id
 _symmetry_equiv_pos_as_xyz
  1  'x, y, z'
loop_
 _atom_site_type_symbol
 _atom_site_label
 _atom_site_symmetry_multiplicity
 _atom_site_fract_x
 _atom_site_fract_y
 _atom_site_fract_z
 _atom_site_occupancy
  Zr  Zr0  1  0.333333  0.666667  0.000000  1
  Zr  Zr1  1  0.666667  0.333333  0.500000  1
  Zr  Zr2  1  0.666667  0.333333  0.000000  1
  Zr  Zr3  1  0.333333  0.666667  0.500000  1
  Zr  Zr4  1  0.275540  0.000000  0.238863  1
  Zr  Zr5  1  0.275540  0.275540  0.761137  1
  Zr  Zr6  1  0.000000  0.724460  0.761137  1
  Zr  Zr7  1  0.000000  0.275540  0.238863  1
  Zr  Zr8  1  0.724460  0.724460  0.238863  1
  Zr  Zr9  1  0.724460  0.000000  0.761137  1
  Al  Al10  1  0.000000  0.000000  0.000000  1
  Sn  Sn11  1  0.000000  0.000000  0.500000  1
  Sn  Sn12  1  0.613883  0.000000  0.252258  1
  Sn  Sn13  1  0.613883  0.613883  0.747742  1
  Sn  Sn14  1  0.000000  0.386117  0.747742  1
  Sn  Sn15  1  0.000000  0.613883  0.252258  1
  Sn  Sn16  1  0.386117  0.386117  0.252258  1
  Sn  Sn17  1  0.386117  0.000000  0.747742  1
