# generated using pymatgen
data_Pt4Pb3O14
_symmetry_space_group_name_H-M   'P 1'
_cell_length_a   7.15559003
_cell_length_b   7.15559078
_cell_length_c   7.15559016
_cell_angle_alpha   61.94561617
_cell_angle_beta   61.94560223
_cell_angle_gamma   61.94561789
_symmetry_Int_Tables_number   1
_chemical_formula_structural   Pt4Pb3O14
_chemical_formula_sum   'Pt4 Pb3 O14'
_cell_volume   270.35147029
_cell_formula_units_Z   1
loop_
 _symmetry_equiv_pos_site_id
 _symmetry_equiv_pos_as_xyz
  1  'x, y, z'
loop_
 _atom_site_type_symbol
 _atom_site_label
 _atom_site_symmetry_multiplicity
 _atom_site_fract_x
 _atom_site_fract_y
 _atom_site_fract_z
 _atom_site_occupancy
  Pt  Pt0  1  0.000000  0.000000  0.000000  1
  Pt  Pt1  1  0.500000  0.000000  0.000000  1
  Pt  Pt2  1  0.000000  0.000000  0.500000  1
  Pt  Pt3  1  0.000000  0.500000  0.000000  1
  Pb  Pb4  1  0.000000  0.500000  0.500000  1
  Pb  Pb5  1  0.500000  0.500000  0.000000  1
  Pb  Pb6  1  0.500000  0.000000  0.500000  1
  O  O7  1  0.926460  0.333686  0.333686  1
  O  O8  1  0.331811  0.914266  0.914266  1
  O  O9  1  0.333686  0.333686  0.926460  1
  O  O10  1  0.914266  0.914266  0.331811  1
  O  O11  1  0.914266  0.331811  0.914266  1
  O  O12  1  0.333686  0.926460  0.333686  1
  O  O13  1  0.073540  0.666314  0.666314  1
  O  O14  1  0.668189  0.085734  0.085734  1
  O  O15  1  0.666314  0.666314  0.073540  1
  O  O16  1  0.085734  0.085734  0.668189  1
  O  O17  1  0.085734  0.668189  0.085734  1
  O  O18  1  0.666314  0.073540  0.666314  1
  O  O19  1  0.368642  0.368642  0.368642  1
  O  O20  1  0.631358  0.631358  0.631358  1
