# generated using pymatgen
data_Nd11In9CuIr3
_symmetry_space_group_name_H-M   'P 1'
_cell_length_a   13.42436567
_cell_length_b   13.41633651
_cell_length_c   3.83737300
_cell_angle_alpha   90.00000000
_cell_angle_beta   90.00000000
_cell_angle_gamma   111.43752842
_symmetry_Int_Tables_number   1
_chemical_formula_structural   Nd11In9CuIr3
_chemical_formula_sum   'Nd11 In9 Cu1 Ir3'
_cell_volume   643.31823684
_cell_formula_units_Z   1
loop_
 _symmetry_equiv_pos_site_id
 _symmetry_equiv_pos_as_xyz
  1  'x, y, z'
loop_
 _atom_site_type_symbol
 _atom_site_label
 _atom_site_symmetry_multiplicity
 _atom_site_fract_x
 _atom_site_fract_y
 _atom_site_fract_z
 _atom_site_occupancy
  Nd  Nd0  1  0.313079  0.312362  0.000000  1
  Nd  Nd1  1  0.693851  0.683453  0.000000  1
  Nd  Nd2  1  0.998906  0.999827  0.000000  1
  Nd  Nd3  1  0.077815  0.418180  0.000000  1
  Nd  Nd4  1  0.923187  0.581270  0.000000  1
  Nd  Nd5  1  0.420087  0.077896  0.000000  1
  Nd  Nd6  1  0.583906  0.928983  0.000000  1
  Nd  Nd7  1  0.840447  0.158280  0.000000  1
  Nd  Nd8  1  0.158503  0.840428  0.000000  1
  Nd  Nd9  1  0.623539  0.372304  0.000000  1
  Nd  Nd10  1  0.365391  0.620768  0.000000  1
  In  In11  1  0.837042  0.365022  0.500000  1
  In  In12  1  0.162440  0.635547  0.500000  1
  In  In13  1  0.367727  0.839766  0.500000  1
  In  In14  1  0.634795  0.162852  0.500000  1
  In  In15  1  0.078355  0.219369  0.500000  1
  In  In16  1  0.921842  0.780147  0.500000  1
  In  In17  1  0.219309  0.078605  0.500000  1
  In  In18  1  0.779486  0.923238  0.500000  1
  In  In19  1  0.500239  0.502198  0.500000  1
  Cu  Cu20  1  0.549912  0.751594  0.500000  1
  Ir  Ir21  1  0.246452  0.452677  0.500000  1
  Ir  Ir22  1  0.755238  0.551820  0.500000  1
  Ir  Ir23  1  0.448454  0.243415  0.500000  1
