# generated using pymatgen
data_Nd4InTe3
_symmetry_space_group_name_H-M   'P 1'
_cell_length_a   7.81624353
_cell_length_b   7.81624359
_cell_length_c   7.81624406
_cell_angle_alpha   131.83935535
_cell_angle_beta   131.83935571
_cell_angle_gamma   70.48286663
_symmetry_Int_Tables_number   1
_chemical_formula_structural   Nd4InTe3
_chemical_formula_sum   'Nd4 In1 Te3'
_cell_volume   259.70959766
_cell_formula_units_Z   1
loop_
 _symmetry_equiv_pos_site_id
 _symmetry_equiv_pos_as_xyz
  1  'x, y, z'
loop_
 _atom_site_type_symbol
 _atom_site_label
 _atom_site_symmetry_multiplicity
 _atom_site_fract_x
 _atom_site_fract_y
 _atom_site_fract_z
 _atom_site_occupancy
  Nd  Nd0  1  0.250079  0.250079  0.000000  1
  Nd  Nd1  1  0.749921  0.749921  0.000000  1
  Nd  Nd2  1  0.500000  0.000000  0.500000  1
  Nd  Nd3  1  0.000000  0.500000  0.500000  1
  In  In4  1  0.000000  0.000000  0.000000  1
  Te  Te5  1  0.500000  0.500000  0.000000  1
  Te  Te6  1  0.750000  0.250000  0.500000  1
  Te  Te7  1  0.250000  0.750000  0.500000  1
