# generated using pymatgen
data_Pr3Ho5Cd2RuPt
_symmetry_space_group_name_H-M   'P 1'
_cell_length_a   9.77327862
_cell_length_b   9.77327934
_cell_length_c   9.78547800
_cell_angle_alpha   59.95868890
_cell_angle_beta   59.95868647
_cell_angle_gamma   60.08564241
_symmetry_Int_Tables_number   1
_chemical_formula_structural   Pr3Ho5Cd2RuPt
_chemical_formula_sum   'Pr6 Ho10 Cd4 Ru2 Pt2'
_cell_volume   660.93099771
_cell_formula_units_Z   2
loop_
 _symmetry_equiv_pos_site_id
 _symmetry_equiv_pos_as_xyz
  1  'x, y, z'
loop_
 _atom_site_type_symbol
 _atom_site_label
 _atom_site_symmetry_multiplicity
 _atom_site_fract_x
 _atom_site_fract_y
 _atom_site_fract_z
 _atom_site_occupancy
  Pr  Pr0  1  0.940117  0.555797  0.562293  1
  Pr  Pr1  1  0.555797  0.940117  0.941793  1
  Pr  Pr2  1  0.555797  0.940117  0.562293  1
  Pr  Pr3  1  0.940117  0.555797  0.941793  1
  Pr  Pr4  1  0.559802  0.559802  0.940198  1
  Pr  Pr5  1  0.940891  0.940891  0.559109  1
  Ho  Ho6  1  0.347139  0.347139  0.351708  1
  Ho  Ho7  1  0.347139  0.347139  0.954014  1
  Ho  Ho8  1  0.343801  0.961348  0.347426  1
  Ho  Ho9  1  0.961348  0.343801  0.347426  1
  Ho  Ho10  1  0.817926  0.185464  0.187523  1
  Ho  Ho11  1  0.185464  0.817926  0.809086  1
  Ho  Ho12  1  0.185464  0.817926  0.187523  1
  Ho  Ho13  1  0.817926  0.185464  0.809086  1
  Ho  Ho14  1  0.185778  0.185778  0.814222  1
  Ho  Ho15  1  0.810954  0.810954  0.189046  1
  Cd  Cd16  1  0.579003  0.579003  0.578830  1
  Cd  Cd17  1  0.579003  0.579003  0.263163  1
  Cd  Cd18  1  0.580032  0.261462  0.579253  1
  Cd  Cd19  1  0.261462  0.580032  0.579253  1
  Ru  Ru20  1  0.143131  0.143131  0.137756  1
  Ru  Ru21  1  0.143131  0.143131  0.575983  1
  Pt  Pt22  1  0.143306  0.575472  0.140611  1
  Pt  Pt23  1  0.575472  0.143306  0.140611  1
