# generated using pymatgen
data_LiY3ThCo
_symmetry_space_group_name_H-M   'P 1'
_cell_length_a   9.62284232
_cell_length_b   9.62284146
_cell_length_c   9.62284300
_cell_angle_alpha   59.99999813
_cell_angle_beta   60.00000111
_cell_angle_gamma   59.99999975
_symmetry_Int_Tables_number   1
_chemical_formula_structural   LiY3ThCo
_chemical_formula_sum   'Li4 Y12 Th4 Co4'
_cell_volume   630.07913626
_cell_formula_units_Z   4
loop_
 _symmetry_equiv_pos_site_id
 _symmetry_equiv_pos_as_xyz
  1  'x, y, z'
loop_
 _atom_site_type_symbol
 _atom_site_label
 _atom_site_symmetry_multiplicity
 _atom_site_fract_x
 _atom_site_fract_y
 _atom_site_fract_z
 _atom_site_occupancy
  Li  Li0  1  0.579097  0.579097  0.579097  1
  Li  Li1  1  0.579097  0.579097  0.262707  1
  Li  Li2  1  0.579097  0.262707  0.579097  1
  Li  Li3  1  0.262707  0.579097  0.579097  1
  Y  Y4  1  0.813829  0.186171  0.186171  1
  Y  Y5  1  0.186171  0.813829  0.813829  1
  Y  Y6  1  0.186171  0.813829  0.186171  1
  Y  Y7  1  0.813829  0.186171  0.813829  1
  Y  Y8  1  0.186171  0.186171  0.813829  1
  Y  Y9  1  0.813829  0.813829  0.186171  1
  Y  Y10  1  0.935976  0.564024  0.564024  1
  Y  Y11  1  0.564024  0.935976  0.935976  1
  Y  Y12  1  0.564024  0.935976  0.564024  1
  Y  Y13  1  0.935976  0.564024  0.935976  1
  Y  Y14  1  0.564024  0.564024  0.935976  1
  Y  Y15  1  0.935976  0.935976  0.564024  1
  Th  Th16  1  0.343422  0.343422  0.343422  1
  Th  Th17  1  0.343422  0.343422  0.969735  1
  Th  Th18  1  0.343422  0.969735  0.343422  1
  Th  Th19  1  0.969735  0.343422  0.343422  1
  Co  Co20  1  0.145791  0.145791  0.145791  1
  Co  Co21  1  0.145791  0.145791  0.562626  1
  Co  Co22  1  0.145791  0.562626  0.145791  1
  Co  Co23  1  0.562626  0.145791  0.145791  1
