# generated using pymatgen
data_Y2Er18Si15Hg
_symmetry_space_group_name_H-M   'P 1'
_cell_length_a   7.38632506
_cell_length_b   7.65575609
_cell_length_c   14.53726405
_cell_angle_alpha   90.07558384
_cell_angle_beta   90.84538244
_cell_angle_gamma   90.07459703
_symmetry_Int_Tables_number   1
_chemical_formula_structural   Y2Er18Si15Hg
_chemical_formula_sum   'Y2 Er18 Si15 Hg1'
_cell_volume   821.96088590
_cell_formula_units_Z   1
loop_
 _symmetry_equiv_pos_site_id
 _symmetry_equiv_pos_as_xyz
  1  'x, y, z'
loop_
 _atom_site_type_symbol
 _atom_site_label
 _atom_site_symmetry_multiplicity
 _atom_site_fract_x
 _atom_site_fract_y
 _atom_site_fract_z
 _atom_site_occupancy
  Y  Y0  1  0.022208  0.817609  0.601036  1
  Y  Y1  1  0.519928  0.675006  0.601709  1
  Er  Er2  1  0.318159  0.820585  0.121348  1
  Er  Er3  1  0.818400  0.677260  0.121698  1
  Er  Er4  1  0.849168  0.508201  0.750429  1
  Er  Er5  1  0.470827  0.318241  0.097786  1
  Er  Er6  1  0.027325  0.815888  0.900916  1
  Er  Er7  1  0.475133  0.324613  0.400226  1
  Er  Er8  1  0.652660  0.009945  0.248056  1
  Er  Er9  1  0.529207  0.683354  0.900196  1
  Er  Er10  1  0.679959  0.178375  0.877556  1
  Er  Er11  1  0.174479  0.323116  0.624637  1
  Er  Er12  1  0.180485  0.322133  0.877853  1
  Er  Er13  1  0.829140  0.669446  0.373287  1
  Er  Er14  1  0.319965  0.825246  0.376291  1
  Er  Er15  1  0.346944  0.990063  0.748775  1
  Er  Er16  1  0.675740  0.179789  0.627329  1
  Er  Er17  1  0.153581  0.489081  0.249623  1
  Er  Er18  1  0.971176  0.183806  0.098051  1
  Er  Er19  1  0.983821  0.187886  0.398920  1
  Si  Si20  1  0.229232  0.628532  0.752769  1
  Si  Si21  1  0.337578  0.031838  0.542311  1
  Si  Si22  1  0.024234  0.894673  0.247233  1
  Si  Si23  1  0.729501  0.869353  0.752924  1
  Si  Si24  1  0.272435  0.129251  0.247119  1
  Si  Si25  1  0.844620  0.468150  0.540803  1
  Si  Si26  1  0.475631  0.394956  0.752944  1
  Si  Si27  1  0.155346  0.532142  0.461198  1
  Si  Si28  1  0.145806  0.528165  0.040932  1
  Si  Si29  1  0.975741  0.105718  0.753060  1
  Si  Si30  1  0.768940  0.371405  0.247544  1
  Si  Si31  1  0.352053  0.029710  0.959707  1
  Si  Si32  1  0.852656  0.471684  0.958303  1
  Si  Si33  1  0.646111  0.969811  0.039440  1
  Si  Si34  1  0.524071  0.608800  0.247034  1
  Hg  Hg35  1  0.667740  0.966163  0.460960  1
