# generated using pymatgen
data_Tb5Tm7Tc4
_symmetry_space_group_name_H-M   'P 1'
_cell_length_a   7.42373112
_cell_length_b   9.03696613
_cell_length_c   6.23568239
_cell_angle_alpha   89.83254966
_cell_angle_beta   89.95288856
_cell_angle_gamma   89.93928196
_symmetry_Int_Tables_number   1
_chemical_formula_structural   Tb5Tm7Tc4
_chemical_formula_sum   'Tb5 Tm7 Tc4'
_cell_volume   418.33733999
_cell_formula_units_Z   1
loop_
 _symmetry_equiv_pos_site_id
 _symmetry_equiv_pos_as_xyz
  1  'x, y, z'
loop_
 _atom_site_type_symbol
 _atom_site_label
 _atom_site_symmetry_multiplicity
 _atom_site_fract_x
 _atom_site_fract_y
 _atom_site_fract_z
 _atom_site_occupancy
  Tb  Tb0  1  0.038785  0.251360  0.625336  1
  Tb  Tb1  1  0.959863  0.749115  0.375528  1
  Tb  Tb2  1  0.460470  0.748984  0.124559  1
  Tb  Tb3  1  0.541257  0.250690  0.873354  1
  Tb  Tb4  1  0.175938  0.062937  0.158786  1
  Tm  Tm5  1  0.824880  0.936261  0.841716  1
  Tm  Tm6  1  0.325976  0.936644  0.659661  1
  Tm  Tm7  1  0.825164  0.562774  0.842215  1
  Tm  Tm8  1  0.673752  0.062998  0.342586  1
  Tm  Tm9  1  0.174420  0.438127  0.157702  1
  Tm  Tm10  1  0.674676  0.437197  0.341933  1
  Tm  Tm11  1  0.325433  0.563014  0.657118  1
  Tc  Tc12  1  0.383740  0.251744  0.459080  1
  Tc  Tc13  1  0.616799  0.750361  0.543256  1
  Tc  Tc14  1  0.116502  0.747388  0.954042  1
  Tc  Tc15  1  0.882346  0.250406  0.043127  1
