# generated using pymatgen
data_TbDy3(Ga3Ir)6
_symmetry_space_group_name_H-M   'P 1'
_cell_length_a   7.59752606
_cell_length_b   7.59851788
_cell_length_c   9.50133900
_cell_angle_alpha   90.00000000
_cell_angle_beta   90.00000000
_cell_angle_gamma   119.94766060
_symmetry_Int_Tables_number   1
_chemical_formula_structural   TbDy3(Ga3Ir)6
_chemical_formula_sum   'Tb1 Dy3 Ga18 Ir6'
_cell_volume   475.27540612
_cell_formula_units_Z   1
loop_
 _symmetry_equiv_pos_site_id
 _symmetry_equiv_pos_as_xyz
  1  'x, y, z'
loop_
 _atom_site_type_symbol
 _atom_site_label
 _atom_site_symmetry_multiplicity
 _atom_site_fract_x
 _atom_site_fract_y
 _atom_site_fract_z
 _atom_site_occupancy
  Tb  Tb0  1  0.997175  0.668093  0.250000  1
  Dy  Dy1  1  0.002797  0.331912  0.750000  1
  Dy  Dy2  1  0.668090  0.997216  0.250000  1
  Dy  Dy3  1  0.331897  0.002772  0.750000  1
  Ga  Ga4  1  0.126851  0.126994  0.250000  1
  Ga  Ga5  1  0.873218  0.873237  0.750000  1
  Ga  Ga6  1  0.999184  0.333737  0.080189  1
  Ga  Ga7  1  0.000807  0.665986  0.919413  1
  Ga  Ga8  1  0.000807  0.665986  0.580587  1
  Ga  Ga9  1  0.334309  0.999450  0.419815  1
  Ga  Ga10  1  0.999184  0.333737  0.419811  1
  Ga  Ga11  1  0.665991  0.000842  0.580398  1
  Ga  Ga12  1  0.665991  0.000842  0.919602  1
  Ga  Ga13  1  0.334309  0.999450  0.080185  1
  Ga  Ga14  1  0.332455  0.332445  0.563986  1
  Ga  Ga15  1  0.667321  0.667559  0.436238  1
  Ga  Ga16  1  0.667321  0.667559  0.063762  1
  Ga  Ga17  1  0.332455  0.332445  0.936014  1
  Ga  Ga18  1  0.339531  0.546526  0.250000  1
  Ga  Ga19  1  0.660601  0.453379  0.750000  1
  Ga  Ga20  1  0.546325  0.339184  0.250000  1
  Ga  Ga21  1  0.453442  0.660650  0.750000  1
  Ir  Ir22  1  0.671389  0.328474  0.999897  1
  Ir  Ir23  1  0.328544  0.671416  0.999899  1
  Ir  Ir24  1  0.328544  0.671416  0.500101  1
  Ir  Ir25  1  0.671389  0.328474  0.500103  1
  Ir  Ir26  1  0.000037  0.000109  0.999886  1
  Ir  Ir27  1  0.000037  0.000109  0.500114  1
