# generated using pymatgen
data_Y2Er3Rh2
_symmetry_space_group_name_H-M   'P 1'
_cell_length_a   6.37278384
_cell_length_b   7.19248994
_cell_length_c   8.58400276
_cell_angle_alpha   96.95986863
_cell_angle_beta   111.78970656
_cell_angle_gamma   89.99999447
_symmetry_Int_Tables_number   1
_chemical_formula_structural   Y2Er3Rh2
_chemical_formula_sum   'Y4 Er6 Rh4'
_cell_volume   362.22212987
_cell_formula_units_Z   2
loop_
 _symmetry_equiv_pos_site_id
 _symmetry_equiv_pos_as_xyz
  1  'x, y, z'
loop_
 _atom_site_type_symbol
 _atom_site_label
 _atom_site_symmetry_multiplicity
 _atom_site_fract_x
 _atom_site_fract_y
 _atom_site_fract_z
 _atom_site_occupancy
  Y  Y0  1  0.789549  0.581405  0.810135  1
  Y  Y1  1  0.979414  0.918595  0.189865  1
  Y  Y2  1  0.210451  0.418595  0.189865  1
  Y  Y3  1  0.020586  0.081405  0.810135  1
  Er  Er4  1  0.206496  0.685972  0.563218  1
  Er  Er5  1  0.643278  0.814028  0.436782  1
  Er  Er6  1  0.793504  0.314028  0.436782  1
  Er  Er7  1  0.356722  0.185972  0.563218  1
  Er  Er8  1  0.421869  0.750000  0.000000  1
  Er  Er9  1  0.578131  0.250000  0.000000  1
  Rh  Rh10  1  0.591975  0.925885  0.777690  1
  Rh  Rh11  1  0.814284  0.574115  0.222310  1
  Rh  Rh12  1  0.408025  0.074115  0.222310  1
  Rh  Rh13  1  0.185716  0.425885  0.777690  1
