# generated using pymatgen
data_LaNd2TaO7
_symmetry_space_group_name_H-M   'P 1'
_cell_length_a   6.70609652
_cell_length_b   6.70609602
_cell_length_c   7.75030700
_cell_angle_alpha   90.00000000
_cell_angle_beta   90.00000000
_cell_angle_gamma   110.61564403
_symmetry_Int_Tables_number   1
_chemical_formula_structural   LaNd2TaO7
_chemical_formula_sum   'La2 Nd4 Ta2 O14'
_cell_volume   326.22508663
_cell_formula_units_Z   2
loop_
 _symmetry_equiv_pos_site_id
 _symmetry_equiv_pos_as_xyz
  1  'x, y, z'
loop_
 _atom_site_type_symbol
 _atom_site_label
 _atom_site_symmetry_multiplicity
 _atom_site_fract_x
 _atom_site_fract_y
 _atom_site_fract_z
 _atom_site_occupancy
  La  La0  1  0.000000  0.000000  0.000000  1
  La  La1  1  0.000000  0.000000  0.500000  1
  Nd  Nd2  1  0.479169  0.933549  0.750000  1
  Nd  Nd3  1  0.520831  0.066451  0.250000  1
  Nd  Nd4  1  0.933549  0.479169  0.750000  1
  Nd  Nd5  1  0.066451  0.520831  0.250000  1
  Ta  Ta6  1  0.500000  0.500000  0.000000  1
  Ta  Ta7  1  0.500000  0.500000  0.500000  1
  O  O8  1  0.844915  0.109978  0.750000  1
  O  O9  1  0.155085  0.890022  0.250000  1
  O  O10  1  0.109978  0.844915  0.750000  1
  O  O11  1  0.890022  0.155085  0.250000  1
  O  O12  1  0.441343  0.187460  0.966810  1
  O  O13  1  0.558657  0.812540  0.466810  1
  O  O14  1  0.187460  0.441343  0.533190  1
  O  O15  1  0.812540  0.558657  0.033190  1
  O  O16  1  0.434109  0.434109  0.250000  1
  O  O17  1  0.565891  0.565891  0.750000  1
  O  O18  1  0.187460  0.441343  0.966810  1
  O  O19  1  0.812540  0.558657  0.466810  1
  O  O20  1  0.441343  0.187460  0.533190  1
  O  O21  1  0.558657  0.812540  0.033190  1
