# generated using pymatgen
data_Eu2Zr2CoNiAs4
_symmetry_space_group_name_H-M   'P 1'
_cell_length_a   4.10748300
_cell_length_b   4.10748344
_cell_length_c   13.74901900
_cell_angle_alpha   90.00000000
_cell_angle_beta   90.00000000
_cell_angle_gamma   119.99997228
_symmetry_Int_Tables_number   1
_chemical_formula_structural   Eu2Zr2CoNiAs4
_chemical_formula_sum   'Eu2 Zr2 Co1 Ni1 As4'
_cell_volume   200.88803059
_cell_formula_units_Z   1
loop_
 _symmetry_equiv_pos_site_id
 _symmetry_equiv_pos_as_xyz
  1  'x, y, z'
loop_
 _atom_site_type_symbol
 _atom_site_label
 _atom_site_symmetry_multiplicity
 _atom_site_fract_x
 _atom_site_fract_y
 _atom_site_fract_z
 _atom_site_occupancy
  Eu  Eu0  1  0.666667  0.333333  0.391439  1
  Eu  Eu1  1  0.333333  0.666667  0.887947  1
  Zr  Zr2  1  0.333333  0.666667  0.625893  1
  Zr  Zr3  1  0.666667  0.333333  0.121836  1
  Co  Co4  1  0.000000  0.000000  0.708023  1
  Ni  Ni5  1  0.000000  0.000000  0.209908  1
  As  As6  1  0.333333  0.666667  0.253620  1
  As  As7  1  0.000000  0.000000  0.024105  1
  As  As8  1  0.000000  0.000000  0.526451  1
  As  As9  1  0.666667  0.333333  0.750780  1
