# generated using pymatgen
data_Er12Th4Mg4Os3Rh
_symmetry_space_group_name_H-M   'P 1'
_cell_length_a   9.68853524
_cell_length_b   9.76979275
_cell_length_c   9.76979200
_cell_angle_alpha   60.00000253
_cell_angle_beta   59.72217364
_cell_angle_gamma   59.72217567
_symmetry_Int_Tables_number   1
_chemical_formula_structural   Er12Th4Mg4Os3Rh
_chemical_formula_sum   'Er12 Th4 Mg4 Os3 Rh1'
_cell_volume   651.14428779
_cell_formula_units_Z   1
loop_
 _symmetry_equiv_pos_site_id
 _symmetry_equiv_pos_as_xyz
  1  'x, y, z'
loop_
 _atom_site_type_symbol
 _atom_site_label
 _atom_site_symmetry_multiplicity
 _atom_site_fract_x
 _atom_site_fract_y
 _atom_site_fract_z
 _atom_site_occupancy
  Er  Er0  1  0.816235  0.186358  0.186358  1
  Er  Er1  1  0.182103  0.814370  0.814370  1
  Er  Er2  1  0.182103  0.814370  0.189159  1
  Er  Er3  1  0.816235  0.186358  0.811050  1
  Er  Er4  1  0.182103  0.189159  0.814370  1
  Er  Er5  1  0.816235  0.811050  0.186358  1
  Er  Er6  1  0.931897  0.565684  0.565684  1
  Er  Er7  1  0.557425  0.936609  0.936609  1
  Er  Er8  1  0.557425  0.936609  0.569357  1
  Er  Er9  1  0.931897  0.565684  0.936734  1
  Er  Er10  1  0.557425  0.569357  0.936609  1
  Er  Er11  1  0.931897  0.936734  0.565684  1
  Th  Th12  1  0.349373  0.348716  0.348716  1
  Th  Th13  1  0.349373  0.348716  0.953194  1
  Th  Th14  1  0.349373  0.953194  0.348716  1
  Th  Th15  1  0.962060  0.345979  0.345979  1
  Mg  Mg16  1  0.580979  0.580110  0.580110  1
  Mg  Mg17  1  0.580979  0.580110  0.258799  1
  Mg  Mg18  1  0.580979  0.258799  0.580110  1
  Mg  Mg19  1  0.255310  0.581563  0.581563  1
  Os  Os20  1  0.150391  0.139917  0.139917  1
  Os  Os21  1  0.150391  0.139917  0.569774  1
  Os  Os22  1  0.150391  0.569774  0.139917  1
  Rh  Rh23  1  0.577419  0.140859  0.140859  1
