# generated using pymatgen
data_RbAuSe5
_symmetry_space_group_name_H-M   'P 1'
_cell_length_a   11.32012815
_cell_length_b   11.32012871
_cell_length_c   11.32012811
_cell_angle_alpha   129.07007040
_cell_angle_beta   118.72684165
_cell_angle_gamma   83.63252763
_symmetry_Int_Tables_number   1
_chemical_formula_structural   RbAuSe5
_chemical_formula_sum   'Rb4 Au4 Se20'
_cell_volume   947.51525082
_cell_formula_units_Z   4
loop_
 _symmetry_equiv_pos_site_id
 _symmetry_equiv_pos_as_xyz
  1  'x, y, z'
loop_
 _atom_site_type_symbol
 _atom_site_label
 _atom_site_symmetry_multiplicity
 _atom_site_fract_x
 _atom_site_fract_y
 _atom_site_fract_z
 _atom_site_occupancy
  Rb  Rb0  1  0.500000  0.500000  0.000000  1
  Rb  Rb1  1  0.000000  0.000000  0.000000  1
  Rb  Rb2  1  0.750000  0.250000  0.500000  1
  Rb  Rb3  1  0.250000  0.750000  0.500000  1
  Au  Au4  1  0.616487  0.750000  0.866487  1
  Au  Au5  1  0.883513  0.750000  0.133513  1
  Au  Au6  1  0.383513  0.250000  0.133513  1
  Au  Au7  1  0.116487  0.250000  0.866487  1
  Se  Se8  1  0.214546  0.147854  0.678011  1
  Se  Se9  1  0.285454  0.963465  0.933307  1
  Se  Se10  1  0.030157  0.352146  0.066693  1
  Se  Se11  1  0.469843  0.536535  0.321989  1
  Se  Se12  1  0.785454  0.852146  0.321989  1
  Se  Se13  1  0.714546  0.036535  0.066693  1
  Se  Se14  1  0.969843  0.647854  0.933307  1
  Se  Se15  1  0.530157  0.463465  0.678011  1
  Se  Se16  1  0.938224  0.839812  0.548145  1
  Se  Se17  1  0.561776  0.109921  0.901588  1
  Se  Se18  1  0.208334  0.660188  0.098412  1
  Se  Se19  1  0.291666  0.390079  0.451855  1
  Se  Se20  1  0.061776  0.160188  0.451855  1
  Se  Se21  1  0.438224  0.890079  0.098412  1
  Se  Se22  1  0.791667  0.339812  0.901588  1
  Se  Se23  1  0.708334  0.609921  0.548145  1
  Se  Se24  1  0.647002  0.086657  0.733659  1
  Se  Se25  1  0.852998  0.586657  0.439655  1
  Se  Se26  1  0.147002  0.413343  0.560345  1
  Se  Se27  1  0.352998  0.913343  0.266341  1
