# generated using pymatgen
data_Hf2Mn(FeSi2)2
_symmetry_space_group_name_H-M   'P 1'
_cell_length_a   9.50949532
_cell_length_b   9.49579480
_cell_length_c   12.71773600
_cell_angle_alpha   53.67757137
_cell_angle_beta   53.70019104
_cell_angle_gamma   31.09490861
_symmetry_Int_Tables_number   1
_chemical_formula_structural   Hf2Mn(FeSi2)2
_chemical_formula_sum   'Hf8 Mn4 Fe8 Si16'
_cell_volume   467.83759110
_cell_formula_units_Z   4
loop_
 _symmetry_equiv_pos_site_id
 _symmetry_equiv_pos_as_xyz
  1  'x, y, z'
loop_
 _atom_site_type_symbol
 _atom_site_label
 _atom_site_symmetry_multiplicity
 _atom_site_fract_x
 _atom_site_fract_y
 _atom_site_fract_z
 _atom_site_occupancy
  Hf  Hf0  1  0.291380  0.565001  0.644105  1
  Hf  Hf1  1  0.433003  0.712420  0.853653  1
  Hf  Hf2  1  0.708287  0.433117  0.357902  1
  Hf  Hf3  1  0.565684  0.291715  0.143669  1
  Hf  Hf4  1  0.037735  0.294785  0.640459  1
  Hf  Hf5  1  0.705318  0.963744  0.857757  1
  Hf  Hf6  1  0.964434  0.705877  0.358572  1
  Hf  Hf7  1  0.295071  0.035720  0.142276  1
  Mn  Mn8  1  0.240504  0.515874  0.935390  1
  Mn  Mn9  1  0.482543  0.757430  0.563999  1
  Mn  Mn10  1  0.516159  0.244952  0.432404  1
  Mn  Mn11  1  0.347193  0.172555  0.722984  1
  Fe  Fe12  1  0.652276  0.827674  0.276218  1
  Fe  Fe13  1  0.172192  0.348643  0.222553  1
  Fe  Fe14  1  0.761678  0.478688  0.067572  1
  Fe  Fe15  1  0.826649  0.651830  0.779444  1
  Fe  Fe16  1  0.893259  0.147455  0.583260  1
  Fe  Fe17  1  0.851783  0.108057  0.916808  1
  Fe  Fe18  1  0.105070  0.855174  0.416351  1
  Fe  Fe19  1  0.143718  0.894474  0.085249  1
  Si  Si20  1  0.879819  0.120341  0.250237  1
  Si  Si21  1  0.120055  0.880222  0.749877  1
  Si  Si22  1  0.383850  0.616751  0.250056  1
  Si  Si23  1  0.614157  0.385839  0.749896  1
  Si  Si24  1  0.968509  0.259784  0.895766  1
  Si  Si25  1  0.739151  0.034539  0.603383  1
  Si  Si26  1  0.033528  0.739620  0.103322  1
  Si  Si27  1  0.260956  0.966365  0.396362  1
  Si  Si28  1  0.571298  0.088063  0.064490  1
  Si  Si29  1  0.912608  0.429571  0.434527  1
  Si  Si30  1  0.431256  0.906782  0.937200  1
  Si  Si31  1  0.087783  0.570977  0.566057  1
  Si  Si32  1  0.394384  0.134052  0.396357  1
  Si  Si33  1  0.864789  0.606484  0.103954  1
  Si  Si34  1  0.606206  0.865555  0.601820  1
  Si  Si35  1  0.137715  0.389873  0.896077  1
