# generated using pymatgen
data_Nd3Sm(SeO3)6
_symmetry_space_group_name_H-M   'P 1'
_cell_length_a   7.14739575
_cell_length_b   8.09365674
_cell_length_c   9.32534035
_cell_angle_alpha   69.72568193
_cell_angle_beta   76.50770195
_cell_angle_gamma   64.66878260
_symmetry_Int_Tables_number   1
_chemical_formula_structural   Nd3Sm(SeO3)6
_chemical_formula_sum   'Nd3 Sm1 Se6 O18'
_cell_volume   455.07217859
_cell_formula_units_Z   1
loop_
 _symmetry_equiv_pos_site_id
 _symmetry_equiv_pos_as_xyz
  1  'x, y, z'
loop_
 _atom_site_type_symbol
 _atom_site_label
 _atom_site_symmetry_multiplicity
 _atom_site_fract_x
 _atom_site_fract_y
 _atom_site_fract_z
 _atom_site_occupancy
  Nd  Nd0  1  0.628529  0.349515  0.325267  1
  Nd  Nd1  1  0.372175  0.649200  0.675368  1
  Nd  Nd2  1  0.229057  0.309790  0.127341  1
  Sm  Sm3  1  0.768957  0.691765  0.872684  1
  Se  Se4  1  0.452880  0.175204  0.745822  1
  Se  Se5  1  0.193284  0.763613  0.030713  1
  Se  Se6  1  0.863200  0.781490  0.495735  1
  Se  Se7  1  0.806300  0.239235  0.966766  1
  Se  Se8  1  0.549181  0.822725  0.252015  1
  Se  Se9  1  0.134508  0.217617  0.507925  1
  O  O10  1  0.672229  0.017767  0.835337  1
  O  O11  1  0.328269  0.977572  0.163992  1
  O  O12  1  0.637314  0.789510  0.621564  1
  O  O13  1  0.359821  0.213756  0.382184  1
  O  O14  1  0.394472  0.778289  0.890167  1
  O  O15  1  0.327283  0.333787  0.856191  1
  O  O16  1  0.902157  0.348035  0.051920  1
  O  O17  1  0.537554  0.333882  0.594334  1
  O  O18  1  0.699350  0.441176  0.822862  1
  O  O19  1  0.096559  0.655717  0.944606  1
  O  O20  1  0.173102  0.986187  0.582997  1
  O  O21  1  0.023733  0.688131  0.645875  1
  O  O22  1  0.607853  0.221467  0.109071  1
  O  O23  1  0.675379  0.664271  0.141373  1
  O  O24  1  0.468056  0.663281  0.405683  1
  O  O25  1  0.298608  0.563065  0.176203  1
  O  O26  1  0.827456  0.012118  0.417465  1
  O  O27  1  0.972735  0.311833  0.358540  1
