# generated using pymatgen
data_La2Ga3Tc14C3
_symmetry_space_group_name_H-M   'P 1'
_cell_length_a   6.99776948
_cell_length_b   6.99776899
_cell_length_c   6.99776856
_cell_angle_alpha   82.69458449
_cell_angle_beta   82.69458696
_cell_angle_gamma   82.69459105
_symmetry_Int_Tables_number   1
_chemical_formula_structural   La2Ga3Tc14C3
_chemical_formula_sum   'La2 Ga3 Tc14 C3'
_cell_volume   334.97922865
_cell_formula_units_Z   1
loop_
 _symmetry_equiv_pos_site_id
 _symmetry_equiv_pos_as_xyz
  1  'x, y, z'
loop_
 _atom_site_type_symbol
 _atom_site_label
 _atom_site_symmetry_multiplicity
 _atom_site_fract_x
 _atom_site_fract_y
 _atom_site_fract_z
 _atom_site_occupancy
  La  La0  1  0.655964  0.655964  0.655964  1
  La  La1  1  0.344036  0.344036  0.344036  1
  Ga  Ga2  1  0.000000  0.000000  0.500000  1
  Ga  Ga3  1  0.500000  0.000000  0.000000  1
  Ga  Ga4  1  0.000000  0.500000  0.000000  1
  Tc  Tc5  1  0.723948  0.276052  0.000000  1
  Tc  Tc6  1  0.000000  0.723948  0.276052  1
  Tc  Tc7  1  0.276052  0.000000  0.723948  1
  Tc  Tc8  1  0.000000  0.276052  0.723948  1
  Tc  Tc9  1  0.723948  0.000000  0.276052  1
  Tc  Tc10  1  0.276052  0.723948  0.000000  1
  Tc  Tc11  1  0.350403  0.851982  0.350403  1
  Tc  Tc12  1  0.350403  0.350403  0.851982  1
  Tc  Tc13  1  0.851982  0.350403  0.350403  1
  Tc  Tc14  1  0.649597  0.148018  0.649597  1
  Tc  Tc15  1  0.649597  0.649597  0.148018  1
  Tc  Tc16  1  0.148018  0.649597  0.649597  1
  Tc  Tc17  1  0.905696  0.905696  0.905696  1
  Tc  Tc18  1  0.094304  0.094304  0.094304  1
  C  C19  1  0.500000  0.500000  0.000000  1
  C  C20  1  0.000000  0.500000  0.500000  1
  C  C21  1  0.500000  0.000000  0.500000  1
