# generated using pymatgen
data_Nd8Mn(Si4Au)3
_symmetry_space_group_name_H-M   'P 1'
_cell_length_a   8.27614300
_cell_length_b   8.27614941
_cell_length_c   8.58163900
_cell_angle_alpha   89.99998763
_cell_angle_beta   90.00006849
_cell_angle_gamma   120.00013340
_symmetry_Int_Tables_number   1
_chemical_formula_structural   Nd8Mn(Si4Au)3
_chemical_formula_sum   'Nd8 Mn1 Si12 Au3'
_cell_volume   509.04549423
_cell_formula_units_Z   1
loop_
 _symmetry_equiv_pos_site_id
 _symmetry_equiv_pos_as_xyz
  1  'x, y, z'
loop_
 _atom_site_type_symbol
 _atom_site_label
 _atom_site_symmetry_multiplicity
 _atom_site_fract_x
 _atom_site_fract_y
 _atom_site_fract_z
 _atom_site_occupancy
  Nd  Nd0  1  0.000000  0.999999  0.751504  1
  Nd  Nd1  1  0.000001  0.000000  0.248477  1
  Nd  Nd2  1  0.496672  0.503331  0.756526  1
  Nd  Nd3  1  0.496674  0.993340  0.756527  1
  Nd  Nd4  1  0.006665  0.503332  0.756526  1
  Nd  Nd5  1  0.498322  0.501678  0.243445  1
  Nd  Nd6  1  0.003357  0.501676  0.243447  1
  Nd  Nd7  1  0.498323  0.996645  0.243450  1
  Mn  Mn8  1  0.333327  0.666674  0.002361  1
  Si  Si9  1  0.838246  0.161749  0.999249  1
  Si  Si10  1  0.838246  0.676494  0.999248  1
  Si  Si11  1  0.323506  0.161753  0.999248  1
  Si  Si12  1  0.836578  0.163422  0.500706  1
  Si  Si13  1  0.836577  0.673153  0.500705  1
  Si  Si14  1  0.326845  0.163421  0.500705  1
  Si  Si15  1  0.163126  0.836873  0.499385  1
  Si  Si16  1  0.673750  0.836874  0.499385  1
  Si  Si17  1  0.163126  0.326250  0.499386  1
  Si  Si18  1  0.171255  0.828745  0.000922  1
  Si  Si19  1  0.657478  0.828738  0.000923  1
  Si  Si20  1  0.171259  0.342519  0.000922  1
  Au  Au21  1  0.666667  0.333332  0.997234  1
  Au  Au22  1  0.666668  0.333333  0.502510  1
  Au  Au23  1  0.333334  0.666666  0.497208  1
