# generated using pymatgen
data_Tb4CdOs
_symmetry_space_group_name_H-M   'P 1'
_cell_length_a   9.68044700
_cell_length_b   9.68044670
_cell_length_c   9.68044700
_cell_angle_alpha   119.99999761
_cell_angle_beta   90.00000000
_cell_angle_gamma   119.99999761
_symmetry_Int_Tables_number   1
_chemical_formula_structural   Tb4CdOs
_chemical_formula_sum   'Tb16 Cd4 Os4'
_cell_volume   641.46247367
_cell_formula_units_Z   4
loop_
 _symmetry_equiv_pos_site_id
 _symmetry_equiv_pos_as_xyz
  1  'x, y, z'
loop_
 _atom_site_type_symbol
 _atom_site_label
 _atom_site_symmetry_multiplicity
 _atom_site_fract_x
 _atom_site_fract_y
 _atom_site_fract_z
 _atom_site_occupancy
  Tb  Tb0  1  0.809276  0.000000  0.190724  1
  Tb  Tb1  1  0.190724  0.000000  0.190724  1
  Tb  Tb2  1  0.190724  0.381450  0.190724  1
  Tb  Tb3  1  0.654410  0.308820  0.345590  1
  Tb  Tb4  1  0.036770  0.691180  0.345590  1
  Tb  Tb5  1  0.654410  0.691180  0.345590  1
  Tb  Tb6  1  0.059116  0.500000  0.559116  1
  Tb  Tb7  1  0.440884  0.500000  0.559116  1
  Tb  Tb8  1  0.059116  0.118232  0.559116  1
  Tb  Tb9  1  0.809275  0.000000  0.809275  1
  Tb  Tb10  1  0.190724  0.000000  0.809276  1
  Tb  Tb11  1  0.809276  0.618551  0.809276  1
  Tb  Tb12  1  0.059116  0.500000  0.940884  1
  Tb  Tb13  1  0.440884  0.500000  0.940884  1
  Tb  Tb14  1  0.440884  0.881768  0.940884  1
  Tb  Tb15  1  0.654410  0.308820  0.963230  1
  Cd  Cd16  1  0.419703  0.839406  0.259109  1
  Cd  Cd17  1  0.419703  0.160594  0.580297  1
  Cd  Cd18  1  0.740891  0.160594  0.580297  1
  Cd  Cd19  1  0.419703  0.839406  0.580297  1
  Os  Os20  1  0.414169  0.276113  0.138057  1
  Os  Os21  1  0.861944  0.276113  0.138057  1
  Os  Os22  1  0.861944  0.723888  0.138057  1
  Os  Os23  1  0.861944  0.723888  0.585831  1
