# generated using pymatgen
data_Eu6Sc(MnC4)3
_symmetry_space_group_name_H-M   'P 1'
_cell_length_a   8.41297200
_cell_length_b   8.41297232
_cell_length_c   5.31827400
_cell_angle_alpha   90.00000000
_cell_angle_beta   90.00000000
_cell_angle_gamma   120.00000344
_symmetry_Int_Tables_number   1
_chemical_formula_structural   Eu6Sc(MnC4)3
_chemical_formula_sum   'Eu6 Sc1 Mn3 C12'
_cell_volume   325.98696073
_cell_formula_units_Z   1
loop_
 _symmetry_equiv_pos_site_id
 _symmetry_equiv_pos_as_xyz
  1  'x, y, z'
loop_
 _atom_site_type_symbol
 _atom_site_label
 _atom_site_symmetry_multiplicity
 _atom_site_fract_x
 _atom_site_fract_y
 _atom_site_fract_z
 _atom_site_occupancy
  Eu  Eu0  1  0.607994  0.683829  0.746125  1
  Eu  Eu1  1  0.924166  0.607994  0.253875  1
  Eu  Eu2  1  0.683829  0.075834  0.253875  1
  Eu  Eu3  1  0.316171  0.924166  0.746125  1
  Eu  Eu4  1  0.075834  0.392006  0.746125  1
  Eu  Eu5  1  0.392006  0.316171  0.253875  1
  Sc  Sc6  1  0.000000  0.000000  0.500000  1
  Mn  Mn7  1  0.000000  0.000000  0.000000  1
  Mn  Mn8  1  0.666667  0.333333  0.755731  1
  Mn  Mn9  1  0.333333  0.666667  0.244269  1
  C  C10  1  0.952429  0.760934  0.768152  1
  C  C11  1  0.191495  0.952429  0.231848  1
  C  C12  1  0.760934  0.808505  0.231848  1
  C  C13  1  0.239066  0.191495  0.768152  1
  C  C14  1  0.808505  0.047571  0.768152  1
  C  C15  1  0.047571  0.239066  0.231848  1
  C  C16  1  0.852971  0.575772  0.763313  1
  C  C17  1  0.277198  0.852971  0.236687  1
  C  C18  1  0.575772  0.722802  0.236687  1
  C  C19  1  0.424228  0.277198  0.763313  1
  C  C20  1  0.147029  0.424228  0.236687  1
  C  C21  1  0.722802  0.147029  0.763313  1
