# generated using pymatgen
data_Tb10Y6MgIn3Ni4
_symmetry_space_group_name_H-M   'P 1'
_cell_length_a   9.67256544
_cell_length_b   9.65043125
_cell_length_c   9.65043100
_cell_angle_alpha   59.99999744
_cell_angle_beta   60.07566655
_cell_angle_gamma   60.07566643
_symmetry_Int_Tables_number   1
_chemical_formula_structural   Tb10Y6MgIn3Ni4
_chemical_formula_sum   'Tb10 Y6 Mg1 In3 Ni4'
_cell_volume   637.69917950
_cell_formula_units_Z   1
loop_
 _symmetry_equiv_pos_site_id
 _symmetry_equiv_pos_as_xyz
  1  'x, y, z'
loop_
 _atom_site_type_symbol
 _atom_site_label
 _atom_site_symmetry_multiplicity
 _atom_site_fract_x
 _atom_site_fract_y
 _atom_site_fract_z
 _atom_site_occupancy
  Tb  Tb0  1  0.059975  0.439654  0.439654  1
  Tb  Tb1  1  0.436429  0.062827  0.062827  1
  Tb  Tb2  1  0.436429  0.062827  0.437916  1
  Tb  Tb3  1  0.059975  0.439654  0.060718  1
  Tb  Tb4  1  0.436429  0.437916  0.062827  1
  Tb  Tb5  1  0.059975  0.060718  0.439654  1
  Tb  Tb6  1  0.598117  0.596512  0.596512  1
  Tb  Tb7  1  0.598117  0.596512  0.208858  1
  Tb  Tb8  1  0.598117  0.208858  0.596512  1
  Tb  Tb9  1  0.205916  0.598028  0.598028  1
  Y  Y10  1  0.185547  0.814326  0.814326  1
  Y  Y11  1  0.813955  0.186441  0.186441  1
  Y  Y12  1  0.813955  0.186441  0.813162  1
  Y  Y13  1  0.185547  0.814326  0.185800  1
  Y  Y14  1  0.813955  0.813162  0.186441  1
  Y  Y15  1  0.185547  0.185800  0.814326  1
  Mg  Mg16  1  0.517586  0.827472  0.827472  1
  In  In17  1  0.831885  0.832627  0.832627  1
  In  In18  1  0.831885  0.832627  0.502861  1
  In  In19  1  0.831885  0.502861  0.832627  1
  Ni  Ni20  1  0.391468  0.392118  0.392118  1
  Ni  Ni21  1  0.391468  0.392118  0.824298  1
  Ni  Ni22  1  0.391468  0.824298  0.392118  1
  Ni  Ni23  1  0.824370  0.391877  0.391877  1
