# generated using pymatgen
data_V16Ru3
_symmetry_space_group_name_H-M   'P 1'
_cell_length_a   6.48182983
_cell_length_b   7.79699245
_cell_length_c   7.38572287
_cell_angle_alpha   108.78372301
_cell_angle_beta   101.11557344
_cell_angle_gamma   124.58096936
_symmetry_Int_Tables_number   1
_chemical_formula_structural   V16Ru3
_chemical_formula_sum   'V16 Ru3'
_cell_volume   254.95641316
_cell_formula_units_Z   1
loop_
 _symmetry_equiv_pos_site_id
 _symmetry_equiv_pos_as_xyz
  1  'x, y, z'
loop_
 _atom_site_type_symbol
 _atom_site_label
 _atom_site_symmetry_multiplicity
 _atom_site_fract_x
 _atom_site_fract_y
 _atom_site_fract_z
 _atom_site_occupancy
  V  V0  1  0.249651  0.494104  0.907077  1
  V  V1  1  0.881068  0.441107  0.326974  1
  V  V2  1  0.035983  0.178100  0.432892  1
  V  V3  1  0.726189  0.705411  0.223875  1
  V  V4  1  0.513714  0.388445  0.751394  1
  V  V5  1  0.777806  0.284488  0.590226  1
  V  V6  1  0.929905  0.017826  0.694293  1
  V  V7  1  0.464474  0.810870  0.381637  1
  V  V8  1  0.410066  0.232872  0.012792  1
  V  V9  1  0.358124  0.652059  0.645976  1
  V  V10  1  0.824265  0.860090  0.956573  1
  V  V11  1  0.560980  0.964532  0.116734  1
  V  V12  1  0.088272  0.752511  0.800406  1
  V  V13  1  0.668557  0.123139  0.854097  1
  V  V14  1  0.615211  0.545778  0.487129  1
  V  V15  1  0.980367  0.597722  0.061365  1
  Ru  Ru16  1  0.304498  0.075252  0.271533  1
  Ru  Ru17  1  0.142776  0.336253  0.169547  1
  Ru  Ru18  1  0.193473  0.911084  0.542392  1
