# generated using pymatgen
data_Li12Gd3Dy9(TeO6)8
_symmetry_space_group_name_H-M   'P 1'
_cell_length_a   10.76340324
_cell_length_b   10.77676243
_cell_length_c   10.76339404
_cell_angle_alpha   109.49650426
_cell_angle_beta   109.44618301
_cell_angle_gamma   109.49653942
_symmetry_Int_Tables_number   1
_chemical_formula_structural   Li12Gd3Dy9(TeO6)8
_chemical_formula_sum   'Li12 Gd3 Dy9 Te8 O48'
_cell_volume   960.78914618
_cell_formula_units_Z   1
loop_
 _symmetry_equiv_pos_site_id
 _symmetry_equiv_pos_as_xyz
  1  'x, y, z'
loop_
 _atom_site_type_symbol
 _atom_site_label
 _atom_site_symmetry_multiplicity
 _atom_site_fract_x
 _atom_site_fract_y
 _atom_site_fract_z
 _atom_site_occupancy
  Li  Li0  1  0.250516  0.374971  0.125030  1
  Li  Li1  1  0.374513  0.750059  0.125026  1
  Li  Li2  1  0.125996  0.875577  0.250134  1
  Li  Li3  1  0.624135  0.374554  0.250131  1
  Li  Li4  1  0.125994  0.250420  0.375862  1
  Li  Li5  1  0.749870  0.125446  0.375864  1
  Li  Li6  1  0.250513  0.875544  0.625484  1
  Li  Li7  1  0.874972  0.749940  0.625486  1
  Li  Li8  1  0.874971  0.125031  0.749484  1
  Li  Li9  1  0.374514  0.624456  0.749486  1
  Li  Li10  1  0.749868  0.624423  0.874004  1
  Li  Li11  1  0.624139  0.249582  0.874005  1
  Gd  Gd12  1  0.749080  0.874542  0.124540  1
  Gd  Gd13  1  0.875458  0.250001  0.124540  1
  Gd  Gd14  1  0.875457  0.625458  0.250920  1
  Dy  Dy15  1  0.375009  0.125010  0.250017  1
  Dy  Dy16  1  0.624541  0.750001  0.375461  1
  Dy  Dy17  1  0.250920  0.625461  0.375460  1
  Dy  Dy18  1  0.749984  0.374993  0.624991  1
  Dy  Dy19  1  0.375007  0.250000  0.624990  1
  Dy  Dy20  1  0.125006  0.375005  0.750008  1
  Dy  Dy21  1  0.624540  0.874540  0.749080  1
  Dy  Dy22  1  0.249992  0.124996  0.874996  1
  Dy  Dy23  1  0.125003  0.749999  0.874995  1
  Te  Te24  1  0.000596  0.999285  0.998846  1
  Te  Te25  1  0.498249  0.999561  0.998846  1
  Te  Te26  1  0.498250  0.498688  0.999404  1
  Te  Te27  1  0.001155  0.500716  0.999405  1
  Te  Te28  1  0.000596  0.001311  0.501749  1
  Te  Te29  1  0.500001  0.000204  0.500000  1
  Te  Te30  1  0.001155  0.500439  0.501750  1
  Te  Te31  1  0.500001  0.499798  0.500000  1
  O  O32  1  0.696602  0.617951  0.024662  1
  O  O33  1  0.828059  0.406710  0.024661  1
  O  O34  1  0.199440  0.171648  0.077962  1
  O  O35  1  0.378523  0.906313  0.077962  1
  O  O36  1  0.471792  0.171564  0.092953  1
  O  O37  1  0.121161  0.921390  0.092950  1
  O  O38  1  0.525181  0.697237  0.120693  1
  O  O39  1  0.095514  0.423456  0.120692  1
  O  O40  1  0.696602  0.078651  0.171940  1
  O  O41  1  0.975338  0.093290  0.171940  1
  O  O42  1  0.617805  0.525871  0.198842  1
  O  O43  1  0.081036  0.672971  0.198842  1
  O  O44  1  0.828060  0.421348  0.303399  1
  O  O45  1  0.975337  0.882047  0.303396  1
  O  O46  1  0.422176  0.801236  0.328285  1
  O  O47  1  0.406108  0.527048  0.328283  1
  O  O48  1  0.801157  0.974129  0.382194  1
  O  O49  1  0.081037  0.408066  0.382196  1
  O  O50  1  0.578169  0.379047  0.406503  1
  O  O51  1  0.328335  0.027456  0.406503  1
  O  O52  1  0.328338  0.300880  0.421833  1
  O  O53  1  0.593496  0.120952  0.421831  1
  O  O54  1  0.879306  0.802763  0.474820  1
  O  O55  1  0.095515  0.672060  0.474822  1
  O  O56  1  0.121163  0.199772  0.528209  1
  O  O57  1  0.907047  0.328435  0.528207  1
  O  O58  1  0.406110  0.879060  0.577824  1
  O  O59  1  0.671716  0.698765  0.577824  1
  O  O60  1  0.671717  0.972953  0.593893  1
  O  O61  1  0.422176  0.620941  0.593891  1
  O  O62  1  0.922038  0.593686  0.621477  1
  O  O63  1  0.199441  0.027790  0.621478  1
  O  O64  1  0.593498  0.472545  0.671666  1
  O  O65  1  0.578169  0.199123  0.671664  1
  O  O66  1  0.028400  0.121964  0.700683  1
  O  O67  1  0.172282  0.578720  0.700684  1
  O  O68  1  0.922038  0.328351  0.800560  1
  O  O69  1  0.378523  0.472209  0.800561  1
  O  O70  1  0.028399  0.906435  0.827716  1
  O  O71  1  0.299315  0.921280  0.827716  1
  O  O72  1  0.907049  0.578610  0.878839  1
  O  O73  1  0.471790  0.300229  0.878838  1
  O  O74  1  0.879308  0.076544  0.904487  1
  O  O75  1  0.525179  0.827942  0.904486  1
  O  O76  1  0.801160  0.827032  0.918964  1
  O  O77  1  0.617806  0.091934  0.918965  1
  O  O78  1  0.299316  0.378035  0.971598  1
  O  O79  1  0.172286  0.593566  0.971601  1
