# generated using pymatgen
data_Rb3Bi(PO4)2
_symmetry_space_group_name_H-M   'P 1'
_cell_length_a   5.73295746
_cell_length_b   5.73295635
_cell_length_c   8.36753525
_cell_angle_alpha   89.66519460
_cell_angle_beta   89.66519684
_cell_angle_gamma   60.85086495
_symmetry_Int_Tables_number   1
_chemical_formula_structural   Rb3Bi(PO4)2
_chemical_formula_sum   'Rb3 Bi1 P2 O8'
_cell_volume   240.17934842
_cell_formula_units_Z   1
loop_
 _symmetry_equiv_pos_site_id
 _symmetry_equiv_pos_as_xyz
  1  'x, y, z'
loop_
 _atom_site_type_symbol
 _atom_site_label
 _atom_site_symmetry_multiplicity
 _atom_site_fract_x
 _atom_site_fract_y
 _atom_site_fract_z
 _atom_site_occupancy
  Rb  Rb0  1  0.686854  0.686854  0.226051  1
  Rb  Rb1  1  0.000000  0.000000  0.000000  1
  Rb  Rb2  1  0.313147  0.313146  0.773949  1
  Bi  Bi3  1  0.000000  0.000000  0.500000  1
  P  P4  1  0.658141  0.658141  0.714346  1
  P  P5  1  0.341859  0.341859  0.285654  1
  O  O6  1  0.279443  0.279443  0.118295  1
  O  O7  1  0.229897  0.229897  0.417893  1
  O  O8  1  0.345432  0.785695  0.695350  1
  O  O9  1  0.785695  0.345432  0.695350  1
  O  O10  1  0.214305  0.654568  0.304650  1
  O  O11  1  0.654568  0.214305  0.304650  1
  O  O12  1  0.770103  0.770103  0.582107  1
  O  O13  1  0.720557  0.720557  0.881705  1
