# generated using pymatgen
data_Hf18GaRe4PW4
_symmetry_space_group_name_H-M   'P 1'
_cell_length_a   8.66613243
_cell_length_b   8.66613228
_cell_length_c   8.63523200
_cell_angle_alpha   90.00000000
_cell_angle_beta   90.00000000
_cell_angle_gamma   120.25481446
_symmetry_Int_Tables_number   1
_chemical_formula_structural   Hf18GaRe4PW4
_chemical_formula_sum   'Hf18 Ga1 Re4 P1 W4'
_cell_volume   560.18878671
_cell_formula_units_Z   1
loop_
 _symmetry_equiv_pos_site_id
 _symmetry_equiv_pos_as_xyz
  1  'x, y, z'
loop_
 _atom_site_type_symbol
 _atom_site_label
 _atom_site_symmetry_multiplicity
 _atom_site_fract_x
 _atom_site_fract_y
 _atom_site_fract_z
 _atom_site_occupancy
  Hf  Hf0  1  0.194809  0.805191  0.451855  1
  Hf  Hf1  1  0.194587  0.389038  0.452979  1
  Hf  Hf2  1  0.610962  0.805413  0.452979  1
  Hf  Hf3  1  0.802966  0.197034  0.550040  1
  Hf  Hf4  1  0.803160  0.606556  0.549045  1
  Hf  Hf5  1  0.393444  0.196840  0.549045  1
  Hf  Hf6  1  0.802966  0.197034  0.949960  1
  Hf  Hf7  1  0.803160  0.606556  0.950955  1
  Hf  Hf8  1  0.393444  0.196840  0.950955  1
  Hf  Hf9  1  0.194809  0.805191  0.048145  1
  Hf  Hf10  1  0.194587  0.389038  0.047021  1
  Hf  Hf11  1  0.610962  0.805413  0.047021  1
  Hf  Hf12  1  0.540444  0.459556  0.250000  1
  Hf  Hf13  1  0.539964  0.080575  0.250000  1
  Hf  Hf14  1  0.919425  0.460036  0.250000  1
  Hf  Hf15  1  0.459545  0.540455  0.750000  1
  Hf  Hf16  1  0.460446  0.919875  0.750000  1
  Hf  Hf17  1  0.080125  0.539554  0.750000  1
  Ga  Ga18  1  0.333368  0.666632  0.250000  1
  Re  Re19  1  0.888547  0.777507  0.250000  1
  Re  Re20  1  0.222493  0.111453  0.250000  1
  Re  Re21  1  0.111282  0.221384  0.750000  1
  Re  Re22  1  0.778616  0.888718  0.750000  1
  P  P23  1  0.666866  0.333134  0.750000  1
  W  W24  1  0.889557  0.110443  0.250000  1
  W  W25  1  0.109604  0.890396  0.750000  1
  W  W26  1  0.999929  0.000071  0.499341  1
  W  W27  1  0.999929  0.000071  0.000659  1
