# generated using pymatgen
data_SmHo2Np7O20
_symmetry_space_group_name_H-M   'P 1'
_cell_length_a   6.58677342
_cell_length_b   7.59561557
_cell_length_c   8.49429881
_cell_angle_alpha   102.71427093
_cell_angle_beta   97.32557370
_cell_angle_gamma   106.85876121
_symmetry_Int_Tables_number   1
_chemical_formula_structural   SmHo2Np7O20
_chemical_formula_sum   'Sm1 Ho2 Np7 O20'
_cell_volume   388.31577166
_cell_formula_units_Z   1
loop_
 _symmetry_equiv_pos_site_id
 _symmetry_equiv_pos_as_xyz
  1  'x, y, z'
loop_
 _atom_site_type_symbol
 _atom_site_label
 _atom_site_symmetry_multiplicity
 _atom_site_fract_x
 _atom_site_fract_y
 _atom_site_fract_z
 _atom_site_occupancy
  Sm  Sm0  1  0.999551  0.999751  0.999681  1
  Ho  Ho1  1  0.799294  0.598823  0.598498  1
  Ho  Ho2  1  0.600875  0.201485  0.201310  1
  Np  Np3  1  0.999627  0.499861  0.999898  1
  Np  Np4  1  0.798909  0.099973  0.598858  1
  Np  Np5  1  0.400305  0.800464  0.801431  1
  Np  Np6  1  0.199915  0.399624  0.399139  1
  Np  Np7  1  0.600325  0.699373  0.200500  1
  Np  Np8  1  0.400604  0.299403  0.800382  1
  Np  Np9  1  0.200664  0.901213  0.400200  1
  O  O10  1  0.856899  0.320782  0.454450  1
  O  O11  1  0.638873  0.913990  0.051772  1
  O  O12  1  0.950425  0.766065  0.155204  1
  O  O13  1  0.441645  0.520622  0.653558  1
  O  O14  1  0.855621  0.831983  0.448023  1
  O  O15  1  0.649359  0.430845  0.046690  1
  O  O16  1  0.742810  0.368318  0.752120  1
  O  O17  1  0.251222  0.126681  0.260952  1
  O  O18  1  0.955666  0.288879  0.152565  1
  O  O19  1  0.446376  0.026807  0.646173  1
  O  O20  1  0.549731  0.969780  0.355147  1
  O  O21  1  0.056496  0.715011  0.848800  1
  O  O22  1  0.737433  0.876923  0.742604  1
  O  O23  1  0.350390  0.571511  0.952967  1
  O  O24  1  0.253438  0.628552  0.247819  1
  O  O25  1  0.545982  0.481585  0.348690  1
  O  O26  1  0.151069  0.172958  0.552407  1
  O  O27  1  0.051117  0.233626  0.843633  1
  O  O28  1  0.358182  0.077007  0.941632  1
  O  O29  1  0.157196  0.678105  0.544896  1
