# generated using pymatgen
data_Tb3Y(NpAl9)2
_symmetry_space_group_name_H-M   'P 1'
_cell_length_a   14.58820046
_cell_length_b   14.58820072
_cell_length_c   14.58820100
_cell_angle_alpha   24.56930805
_cell_angle_beta   24.56930585
_cell_angle_gamma   24.56930800
_symmetry_Int_Tables_number   1
_chemical_formula_structural   Tb3Y(NpAl9)2
_chemical_formula_sum   'Tb3 Y1 Np2 Al18'
_cell_volume   471.94546053
_cell_formula_units_Z   1
loop_
 _symmetry_equiv_pos_site_id
 _symmetry_equiv_pos_as_xyz
  1  'x, y, z'
loop_
 _atom_site_type_symbol
 _atom_site_label
 _atom_site_symmetry_multiplicity
 _atom_site_fract_x
 _atom_site_fract_y
 _atom_site_fract_z
 _atom_site_occupancy
  Tb  Tb0  1  0.000023  0.000023  0.000023  1
  Tb  Tb1  1  0.500004  0.500004  0.500004  1
  Tb  Tb2  1  0.609272  0.609272  0.609272  1
  Y  Y3  1  0.390687  0.390687  0.390687  1
  Np  Np4  1  0.109182  0.109182  0.109182  1
  Np  Np5  1  0.890764  0.890764  0.890764  1
  Al  Al6  1  0.922731  0.371702  0.371702  1
  Al  Al7  1  0.421178  0.872399  0.872399  1
  Al  Al8  1  0.371702  0.371702  0.922731  1
  Al  Al9  1  0.872399  0.872399  0.421178  1
  Al  Al10  1  0.371702  0.922731  0.371702  1
  Al  Al11  1  0.872399  0.421178  0.872399  1
  Al  Al12  1  0.579073  0.127475  0.127475  1
  Al  Al13  1  0.077276  0.628266  0.628266  1
  Al  Al14  1  0.127475  0.127475  0.579073  1
  Al  Al15  1  0.628266  0.628266  0.077276  1
  Al  Al16  1  0.127475  0.579073  0.127475  1
  Al  Al17  1  0.628266  0.077276  0.628266  1
  Al  Al18  1  0.500202  0.500202  0.999709  1
  Al  Al19  1  0.999900  0.999900  0.500213  1
  Al  Al20  1  0.500202  0.999709  0.500202  1
  Al  Al21  1  0.999900  0.500213  0.999900  1
  Al  Al22  1  0.999709  0.500202  0.500202  1
  Al  Al23  1  0.500213  0.999900  0.999900  1
