# generated using pymatgen
data_Rb4Zr6NiBr18
_symmetry_space_group_name_H-M   'P 1'
_cell_length_a   10.64194625
_cell_length_b   10.95227195
_cell_length_c   11.04328865
_cell_angle_alpha   118.90134510
_cell_angle_beta   100.12483730
_cell_angle_gamma   104.02436929
_symmetry_Int_Tables_number   1
_chemical_formula_structural   Rb4Zr6NiBr18
_chemical_formula_sum   'Rb4 Zr6 Ni1 Br18'
_cell_volume   1026.16994546
_cell_formula_units_Z   1
loop_
 _symmetry_equiv_pos_site_id
 _symmetry_equiv_pos_as_xyz
  1  'x, y, z'
loop_
 _atom_site_type_symbol
 _atom_site_label
 _atom_site_symmetry_multiplicity
 _atom_site_fract_x
 _atom_site_fract_y
 _atom_site_fract_z
 _atom_site_occupancy
  Rb  Rb0  1  0.654474  0.538056  0.227996  1
  Rb  Rb1  1  0.345526  0.461944  0.772004  1
  Rb  Rb2  1  0.688817  0.225439  0.564122  1
  Rb  Rb3  1  0.311183  0.774561  0.435878  1
  Zr  Zr4  1  0.152882  0.055846  0.236565  1
  Zr  Zr5  1  0.847118  0.944154  0.763435  1
  Zr  Zr6  1  0.857795  0.130161  0.136571  1
  Zr  Zr7  1  0.142205  0.869839  0.863429  1
  Zr  Zr8  1  0.147886  0.245667  0.044714  1
  Zr  Zr9  1  0.852114  0.754333  0.955286  1
  Ni  Ni10  1  0.000000  0.000000  0.000000  1
  Br  Br11  1  0.007875  0.407354  0.196312  1
  Br  Br12  1  0.992125  0.592646  0.803688  1
  Br  Br13  1  0.325713  0.329719  0.307518  1
  Br  Br14  1  0.674287  0.670281  0.692482  1
  Br  Br15  1  0.320173  0.519587  0.099738  1
  Br  Br16  1  0.679827  0.480413  0.900262  1
  Br  Br17  1  0.003915  0.795902  0.209021  1
  Br  Br18  1  0.996085  0.204098  0.790979  1
  Br  Br19  1  0.703931  0.273197  0.285818  1
  Br  Br20  1  0.296069  0.726803  0.714182  1
  Br  Br21  1  0.315803  0.127196  0.905174  1
  Br  Br22  1  0.684197  0.872804  0.094826  1
  Br  Br23  1  0.014583  0.203740  0.405673  1
  Br  Br24  1  0.985417  0.796260  0.594327  1
  Br  Br25  1  0.319418  0.924567  0.109704  1
  Br  Br26  1  0.680582  0.075433  0.890296  1
  Br  Br27  1  0.331149  0.120175  0.499124  1
  Br  Br28  1  0.668851  0.879825  0.500876  1
