# generated using pymatgen
data_Tb7Ho(GeBr6)2
_symmetry_space_group_name_H-M   'P 1'
_cell_length_a   4.09445500
_cell_length_b   13.30935574
_cell_length_c   14.11244109
_cell_angle_alpha   90.10643051
_cell_angle_beta   90.00000000
_cell_angle_gamma   90.00000000
_symmetry_Int_Tables_number   1
_chemical_formula_structural   Tb7Ho(GeBr6)2
_chemical_formula_sum   'Tb7 Ho1 Ge2 Br12'
_cell_volume   769.04991475
_cell_formula_units_Z   1
loop_
 _symmetry_equiv_pos_site_id
 _symmetry_equiv_pos_as_xyz
  1  'x, y, z'
loop_
 _atom_site_type_symbol
 _atom_site_label
 _atom_site_symmetry_multiplicity
 _atom_site_fract_x
 _atom_site_fract_y
 _atom_site_fract_z
 _atom_site_occupancy
  Tb  Tb0  1  0.500000  0.119002  0.340046  1
  Tb  Tb1  1  0.500000  0.881210  0.659784  1
  Tb  Tb2  1  0.500000  0.618735  0.159658  1
  Tb  Tb3  1  0.000000  0.119075  0.579081  1
  Tb  Tb4  1  0.000000  0.881067  0.421093  1
  Tb  Tb5  1  0.000000  0.618780  0.921458  1
  Tb  Tb6  1  0.000000  0.381384  0.078883  1
  Ho  Ho7  1  0.500000  0.381405  0.840512  1
  Ge  Ge8  1  0.500000  0.000174  0.499797  1
  Ge  Ge9  1  0.500000  0.499536  0.999456  1
  Br  Br10  1  0.500000  0.244595  0.162789  1
  Br  Br11  1  0.500000  0.755194  0.836930  1
  Br  Br12  1  0.500000  0.744384  0.336769  1
  Br  Br13  1  0.500000  0.256343  0.664601  1
  Br  Br14  1  0.000000  0.255323  0.411545  1
  Br  Br15  1  0.000000  0.744636  0.588627  1
  Br  Br16  1  0.000000  0.755190  0.088697  1
  Br  Br17  1  0.000000  0.246618  0.909327  1
  Br  Br18  1  0.000000  0.001734  0.243315  1
  Br  Br19  1  0.000000  0.998269  0.756762  1
  Br  Br20  1  0.000000  0.501839  0.256612  1
  Br  Br21  1  0.000000  0.495508  0.744255  1
