# generated using pymatgen
data_Ca2La3ZnPb3
_symmetry_space_group_name_H-M   'P 1'
_cell_length_a   9.67701400
_cell_length_b   9.67701404
_cell_length_c   7.06485100
_cell_angle_alpha   90.00000000
_cell_angle_beta   90.00000000
_cell_angle_gamma   119.99999987
_symmetry_Int_Tables_number   1
_chemical_formula_structural   Ca2La3ZnPb3
_chemical_formula_sum   'Ca4 La6 Zn2 Pb6'
_cell_volume   572.94954585
_cell_formula_units_Z   2
loop_
 _symmetry_equiv_pos_site_id
 _symmetry_equiv_pos_as_xyz
  1  'x, y, z'
loop_
 _atom_site_type_symbol
 _atom_site_label
 _atom_site_symmetry_multiplicity
 _atom_site_fract_x
 _atom_site_fract_y
 _atom_site_fract_z
 _atom_site_occupancy
  Ca  Ca0  1  0.666667  0.333333  0.500000  1
  Ca  Ca1  1  0.333333  0.666667  0.500000  1
  Ca  Ca2  1  0.333333  0.666667  0.000000  1
  Ca  Ca3  1  0.666667  0.333333  0.000000  1
  La  La4  1  0.728165  0.728165  0.250000  1
  La  La5  1  0.271835  0.000000  0.250000  1
  La  La6  1  0.000000  0.271835  0.250000  1
  La  La7  1  0.271835  0.271835  0.750000  1
  La  La8  1  0.728165  0.000000  0.750000  1
  La  La9  1  0.000000  0.728165  0.750000  1
  Zn  Zn10  1  0.000000  0.000000  0.500000  1
  Zn  Zn11  1  0.000000  0.000000  0.000000  1
  Pb  Pb12  1  0.377229  0.377229  0.250000  1
  Pb  Pb13  1  0.622771  0.000000  0.250000  1
  Pb  Pb14  1  0.000000  0.622771  0.250000  1
  Pb  Pb15  1  0.622771  0.622771  0.750000  1
  Pb  Pb16  1  0.377229  0.000000  0.750000  1
  Pb  Pb17  1  0.000000  0.377229  0.750000  1
