# generated using pymatgen
data_TbYBC
_symmetry_space_group_name_H-M   'P 1'
_cell_length_a   6.40018410
_cell_length_b   6.40018416
_cell_length_c   9.21420473
_cell_angle_alpha   51.84850122
_cell_angle_beta   51.84849893
_cell_angle_gamma   32.02583982
_symmetry_Int_Tables_number   1
_chemical_formula_structural   TbYBC
_chemical_formula_sum   'Tb2 Y2 B2 C2'
_cell_volume   153.34559623
_cell_formula_units_Z   2
loop_
 _symmetry_equiv_pos_site_id
 _symmetry_equiv_pos_as_xyz
  1  'x, y, z'
loop_
 _atom_site_type_symbol
 _atom_site_label
 _atom_site_symmetry_multiplicity
 _atom_site_fract_x
 _atom_site_fract_y
 _atom_site_fract_z
 _atom_site_occupancy
  Tb  Tb0  1  0.201415  0.201415  0.886405  1
  Tb  Tb1  1  0.798585  0.798585  0.113595  1
  Y  Y2  1  0.562500  0.562500  0.639010  1
  Y  Y3  1  0.437500  0.437500  0.360990  1
  B  B4  1  0.919643  0.919643  0.608925  1
  B  B5  1  0.080357  0.080357  0.391075  1
  C  C6  1  0.126111  0.126111  0.195491  1
  C  C7  1  0.873889  0.873889  0.804509  1
