# generated using pymatgen
data_Ho12OsPd2Ru
_symmetry_space_group_name_H-M   'P 1'
_cell_length_a   6.30858433
_cell_length_b   7.17864174
_cell_length_c   9.41560200
_cell_angle_alpha   90.00000000
_cell_angle_beta   90.00000000
_cell_angle_gamma   90.00756195
_symmetry_Int_Tables_number   1
_chemical_formula_structural   Ho12OsPd2Ru
_chemical_formula_sum   'Ho12 Os1 Pd2 Ru1'
_cell_volume   426.40499250
_cell_formula_units_Z   1
loop_
 _symmetry_equiv_pos_site_id
 _symmetry_equiv_pos_as_xyz
  1  'x, y, z'
loop_
 _atom_site_type_symbol
 _atom_site_label
 _atom_site_symmetry_multiplicity
 _atom_site_fract_x
 _atom_site_fract_y
 _atom_site_fract_z
 _atom_site_occupancy
  Ho  Ho0  1  0.324874  0.684933  0.058443  1
  Ho  Ho1  1  0.169186  0.173733  0.437328  1
  Ho  Ho2  1  0.668667  0.326029  0.563657  1
  Ho  Ho3  1  0.827308  0.816251  0.943483  1
  Ho  Ho4  1  0.668667  0.326029  0.936343  1
  Ho  Ho5  1  0.827308  0.816251  0.556517  1
  Ho  Ho6  1  0.324874  0.684933  0.441557  1
  Ho  Ho7  1  0.169186  0.173733  0.062672  1
  Ho  Ho8  1  0.875273  0.535335  0.250000  1
  Ho  Ho9  1  0.636096  0.027109  0.250000  1
  Ho  Ho10  1  0.136399  0.474147  0.750000  1
  Ho  Ho11  1  0.376110  0.962017  0.750000  1
  Os  Os12  1  0.051370  0.884683  0.250000  1
  Pd  Pd13  1  0.445575  0.388351  0.250000  1
  Pd  Pd14  1  0.947688  0.111605  0.750000  1
  Ru  Ru15  1  0.551418  0.614864  0.750000  1
