# generated using pymatgen
data_Tb3Ni9(As2P)2
_symmetry_space_group_name_H-M   'P 1'
_cell_length_a   3.85693600
_cell_length_b   10.75381900
_cell_length_c   12.61259600
_cell_angle_alpha   90.00000000
_cell_angle_beta   90.00000000
_cell_angle_gamma   90.00000000
_symmetry_Int_Tables_number   1
_chemical_formula_structural   Tb3Ni9(As2P)2
_chemical_formula_sum   'Tb6 Ni18 As8 P4'
_cell_volume   523.13001631
_cell_formula_units_Z   2
loop_
 _symmetry_equiv_pos_site_id
 _symmetry_equiv_pos_as_xyz
  1  'x, y, z'
loop_
 _atom_site_type_symbol
 _atom_site_label
 _atom_site_symmetry_multiplicity
 _atom_site_fract_x
 _atom_site_fract_y
 _atom_site_fract_z
 _atom_site_occupancy
  Tb  Tb0  1  0.752053  0.000000  0.480039  1
  Tb  Tb1  1  0.252053  0.500000  0.519961  1
  Tb  Tb2  1  0.251873  0.681893  0.795115  1
  Tb  Tb3  1  0.251873  0.318107  0.795115  1
  Tb  Tb4  1  0.751873  0.818107  0.204885  1
  Tb  Tb5  1  0.751873  0.181893  0.204885  1
  Ni  Ni6  1  0.751685  0.000000  0.025641  1
  Ni  Ni7  1  0.251685  0.500000  0.974359  1
  Ni  Ni8  1  0.252037  0.188158  0.578332  1
  Ni  Ni9  1  0.252037  0.811842  0.578332  1
  Ni  Ni10  1  0.752037  0.311842  0.421668  1
  Ni  Ni11  1  0.752037  0.688158  0.421668  1
  Ni  Ni12  1  0.251811  0.615450  0.294160  1
  Ni  Ni13  1  0.251811  0.384550  0.294160  1
  Ni  Ni14  1  0.751811  0.884550  0.705840  1
  Ni  Ni15  1  0.751811  0.115450  0.705840  1
  Ni  Ni16  1  0.251626  0.161788  0.006650  1
  Ni  Ni17  1  0.251626  0.838212  0.006650  1
  Ni  Ni18  1  0.751626  0.338212  0.993350  1
  Ni  Ni19  1  0.751626  0.661788  0.993350  1
  Ni  Ni20  1  0.251125  0.000000  0.836298  1
  Ni  Ni21  1  0.751125  0.500000  0.163702  1
  Ni  Ni22  1  0.251870  0.000000  0.294207  1
  Ni  Ni23  1  0.751870  0.500000  0.705793  1
  As  As24  1  0.252197  0.185756  0.387466  1
  As  As25  1  0.252197  0.814244  0.387466  1
  As  As26  1  0.752197  0.314244  0.612534  1
  As  As27  1  0.752197  0.685756  0.612534  1
  As  As28  1  0.251691  0.650814  0.108468  1
  As  As29  1  0.251691  0.349186  0.108468  1
  As  As30  1  0.751691  0.849186  0.891532  1
  As  As31  1  0.751691  0.150814  0.891532  1
  P  P32  1  0.251682  0.000000  0.122524  1
  P  P33  1  0.751682  0.500000  0.877476  1
  P  P34  1  0.251915  0.000000  0.657132  1
  P  P35  1  0.751915  0.500000  0.342868  1
