# generated using pymatgen
data_La10Ir4RuRh
_symmetry_space_group_name_H-M   'P 1'
_cell_length_a   11.37639800
_cell_length_b   11.37639800
_cell_length_c   6.70039600
_cell_angle_alpha   90.00000000
_cell_angle_beta   90.00000000
_cell_angle_gamma   90.00000000
_symmetry_Int_Tables_number   1
_chemical_formula_structural   La10Ir4RuRh
_chemical_formula_sum   'La20 Ir8 Ru2 Rh2'
_cell_volume   867.18154203
_cell_formula_units_Z   2
loop_
 _symmetry_equiv_pos_site_id
 _symmetry_equiv_pos_as_xyz
  1  'x, y, z'
loop_
 _atom_site_type_symbol
 _atom_site_label
 _atom_site_symmetry_multiplicity
 _atom_site_fract_x
 _atom_site_fract_y
 _atom_site_fract_z
 _atom_site_occupancy
  La  La0  1  0.294392  0.089255  0.386976  1
  La  La1  1  0.294392  0.910745  0.886976  1
  La  La2  1  0.705608  0.089255  0.886976  1
  La  La3  1  0.705608  0.910745  0.386976  1
  La  La4  1  0.589255  0.794392  0.886976  1
  La  La5  1  0.589255  0.205608  0.386976  1
  La  La6  1  0.410745  0.794392  0.386976  1
  La  La7  1  0.410745  0.205608  0.886976  1
  La  La8  1  0.209076  0.408154  0.614206  1
  La  La9  1  0.209076  0.591846  0.114206  1
  La  La10  1  0.790924  0.408154  0.114206  1
  La  La11  1  0.790924  0.591846  0.614206  1
  La  La12  1  0.908154  0.709076  0.114206  1
  La  La13  1  0.908154  0.290924  0.614206  1
  La  La14  1  0.091846  0.709076  0.614206  1
  La  La15  1  0.091846  0.290924  0.114206  1
  La  La16  1  0.000000  0.000000  0.498060  1
  La  La17  1  0.000000  0.000000  0.998060  1
  La  La18  1  0.500000  0.500000  0.998060  1
  La  La19  1  0.500000  0.500000  0.498060  1
  Ir  Ir20  1  0.847890  0.155063  0.250289  1
  Ir  Ir21  1  0.847890  0.844937  0.750289  1
  Ir  Ir22  1  0.152110  0.155063  0.750289  1
  Ir  Ir23  1  0.152110  0.844937  0.250289  1
  Ir  Ir24  1  0.655063  0.347890  0.750289  1
  Ir  Ir25  1  0.655063  0.652110  0.250289  1
  Ir  Ir26  1  0.344937  0.347890  0.250289  1
  Ir  Ir27  1  0.344937  0.652110  0.750289  1
  Ru  Ru28  1  0.500000  0.000000  0.113805  1
  Ru  Ru29  1  0.500000  0.000000  0.613805  1
  Rh  Rh30  1  0.000000  0.500000  0.884192  1
  Rh  Rh31  1  0.000000  0.500000  0.384192  1
