# generated using pymatgen
data_Ho13Tm7Sn3Pb13
_symmetry_space_group_name_H-M   'P 1'
_cell_length_a   8.13994763
_cell_length_b   15.51049501
_cell_length_c   8.18550543
_cell_angle_alpha   90.00428087
_cell_angle_beta   89.89825060
_cell_angle_gamma   90.00092573
_symmetry_Int_Tables_number   1
_chemical_formula_structural   Ho13Tm7Sn3Pb13
_chemical_formula_sum   'Ho13 Tm7 Sn3 Pb13'
_cell_volume   1033.45622011
_cell_formula_units_Z   1
loop_
 _symmetry_equiv_pos_site_id
 _symmetry_equiv_pos_as_xyz
  1  'x, y, z'
loop_
 _atom_site_type_symbol
 _atom_site_label
 _atom_site_symmetry_multiplicity
 _atom_site_fract_x
 _atom_site_fract_y
 _atom_site_fract_z
 _atom_site_occupancy
  Ho  Ho0  1  0.876738  0.378840  0.659379  1
  Ho  Ho1  1  0.381151  0.377690  0.837991  1
  Ho  Ho2  1  0.876788  0.121191  0.659442  1
  Ho  Ho3  1  0.620691  0.876779  0.161518  1
  Ho  Ho4  1  0.121390  0.623014  0.338236  1
  Ho  Ho5  1  0.462761  0.601565  0.672635  1
  Ho  Ho6  1  0.963097  0.898442  0.827665  1
  Ho  Ho7  1  0.537045  0.100745  0.327325  1
  Ho  Ho8  1  0.036722  0.400130  0.175902  1
  Ho  Ho9  1  0.537037  0.399301  0.327380  1
  Ho  Ho10  1  0.036772  0.099753  0.175859  1
  Ho  Ho11  1  0.462695  0.898515  0.672605  1
  Ho  Ho12  1  0.963108  0.601610  0.827793  1
  Tm  Tm13  1  0.620783  0.623283  0.161448  1
  Tm  Tm14  1  0.121535  0.876932  0.338283  1
  Tm  Tm15  1  0.381139  0.122281  0.838124  1
  Tm  Tm16  1  0.788780  0.749983  0.492492  1
  Tm  Tm17  1  0.288492  0.750009  0.007469  1
  Tm  Tm18  1  0.212294  0.249934  0.505659  1
  Tm  Tm19  1  0.708970  0.249953  0.993376  1
  Sn  Sn20  1  0.425165  0.749961  0.375909  1
  Sn  Sn21  1  0.925419  0.750051  0.124724  1
  Sn  Sn22  1  0.574907  0.249871  0.623985  1
  Pb  Pb23  1  0.717841  0.458411  0.968223  1
  Pb  Pb24  1  0.218198  0.041644  0.532961  1
  Pb  Pb25  1  0.282470  0.957989  0.032032  1
  Pb  Pb26  1  0.781785  0.542548  0.466140  1
  Pb  Pb27  1  0.282908  0.542227  0.031981  1
  Pb  Pb28  1  0.782352  0.957465  0.466425  1
  Pb  Pb29  1  0.717595  0.041873  0.967883  1
  Pb  Pb30  1  0.218154  0.458205  0.532829  1
  Pb  Pb31  1  0.073425  0.249912  0.875387  1
  Pb  Pb32  1  0.652014  0.749900  0.847281  1
  Pb  Pb33  1  0.152268  0.750095  0.652891  1
  Pb  Pb34  1  0.349389  0.249903  0.153870  1
  Pb  Pb35  1  0.848127  0.249996  0.346901  1
