# generated using pymatgen
data_Sc12AlGa7(CuC)4
_symmetry_space_group_name_H-M   'P 1'
_cell_length_a   8.58808702
_cell_length_b   8.58808652
_cell_length_c   8.58809325
_cell_angle_alpha   59.94954470
_cell_angle_beta   59.94954631
_cell_angle_gamma   59.94949813
_symmetry_Int_Tables_number   1
_chemical_formula_structural   Sc12AlGa7(CuC)4
_chemical_formula_sum   'Sc12 Al1 Ga7 Cu4 C4'
_cell_volume   447.38065440
_cell_formula_units_Z   1
loop_
 _symmetry_equiv_pos_site_id
 _symmetry_equiv_pos_as_xyz
  1  'x, y, z'
loop_
 _atom_site_type_symbol
 _atom_site_label
 _atom_site_symmetry_multiplicity
 _atom_site_fract_x
 _atom_site_fract_y
 _atom_site_fract_z
 _atom_site_occupancy
  Sc  Sc0  1  0.556091  0.943902  0.556091  1
  Sc  Sc1  1  0.306573  0.693181  0.693181  1
  Sc  Sc2  1  0.693428  0.306266  0.306266  1
  Sc  Sc3  1  0.306266  0.693428  0.306266  1
  Sc  Sc4  1  0.693181  0.693181  0.306572  1
  Sc  Sc5  1  0.306266  0.306266  0.693428  1
  Sc  Sc6  1  0.556091  0.556091  0.943903  1
  Sc  Sc7  1  0.943902  0.556091  0.556091  1
  Sc  Sc8  1  0.555366  0.943483  0.943483  1
  Sc  Sc9  1  0.943483  0.943483  0.555366  1
  Sc  Sc10  1  0.693181  0.306573  0.693181  1
  Sc  Sc11  1  0.943483  0.555366  0.943483  1
  Al  Al12  1  0.922292  0.922292  0.922291  1
  Ga  Ga13  1  0.007154  0.331030  0.331031  1
  Ga  Ga14  1  0.331030  0.007154  0.331031  1
  Ga  Ga15  1  0.331030  0.331030  0.007154  1
  Ga  Ga16  1  0.918898  0.243325  0.918897  1
  Ga  Ga17  1  0.918898  0.918898  0.243325  1
  Ga  Ga18  1  0.243325  0.918898  0.918897  1
  Ga  Ga19  1  0.331053  0.331053  0.331054  1
  Cu  Cu20  1  0.125282  0.125282  0.125282  1
  Cu  Cu21  1  0.625327  0.123996  0.123996  1
  Cu  Cu22  1  0.123996  0.625327  0.123996  1
  Cu  Cu23  1  0.123996  0.123996  0.625327  1
  C  C24  1  0.625262  0.625262  0.625262  1
  C  C25  1  0.125188  0.624979  0.624979  1
  C  C26  1  0.624979  0.125188  0.624979  1
  C  C27  1  0.624979  0.624979  0.125188  1
