# generated using pymatgen
data_Ho3Tm2P12Ir10Ru9
_symmetry_space_group_name_H-M   'P 1'
_cell_length_a   12.61367100
_cell_length_b   12.61367153
_cell_length_c   3.94144300
_cell_angle_alpha   90.00000000
_cell_angle_beta   90.00000000
_cell_angle_gamma   119.99999074
_symmetry_Int_Tables_number   1
_chemical_formula_structural   Ho3Tm2P12Ir10Ru9
_chemical_formula_sum   'Ho3 Tm2 P12 Ir10 Ru9'
_cell_volume   543.08641484
_cell_formula_units_Z   1
loop_
 _symmetry_equiv_pos_site_id
 _symmetry_equiv_pos_as_xyz
  1  'x, y, z'
loop_
 _atom_site_type_symbol
 _atom_site_label
 _atom_site_symmetry_multiplicity
 _atom_site_fract_x
 _atom_site_fract_y
 _atom_site_fract_z
 _atom_site_occupancy
  Ho  Ho0  1  0.187550  0.187550  0.000000  1
  Ho  Ho1  1  0.812450  0.000000  0.000000  1
  Ho  Ho2  1  0.000000  0.812450  0.000000  1
  Tm  Tm3  1  0.333333  0.666667  0.500000  1
  Tm  Tm4  1  0.666667  0.333333  0.500000  1
  P  P5  1  0.308481  0.827278  0.000000  1
  P  P6  1  0.172722  0.481203  0.000000  1
  P  P7  1  0.518797  0.691519  0.000000  1
  P  P8  1  0.827278  0.308481  0.000000  1
  P  P9  1  0.481203  0.172722  0.000000  1
  P  P10  1  0.691519  0.518797  0.000000  1
  P  P11  1  0.362344  0.362344  0.500000  1
  P  P12  1  0.637656  0.000000  0.500000  1
  P  P13  1  0.000000  0.637656  0.500000  1
  P  P14  1  0.818958  0.818958  0.500000  1
  P  P15  1  0.181042  0.000000  0.500000  1
  P  P16  1  0.000000  0.181042  0.500000  1
  Ir  Ir17  1  0.130682  0.636679  0.000000  1
  Ir  Ir18  1  0.363321  0.494002  0.000000  1
  Ir  Ir19  1  0.505998  0.869318  0.000000  1
  Ir  Ir20  1  0.636679  0.130682  0.000000  1
  Ir  Ir21  1  0.494002  0.363321  0.000000  1
  Ir  Ir22  1  0.869318  0.505998  0.000000  1
  Ir  Ir23  1  0.713707  0.713707  0.000000  1
  Ir  Ir24  1  0.286293  0.000000  0.000000  1
  Ir  Ir25  1  0.000000  0.286293  0.000000  1
  Ir  Ir26  1  0.000000  0.000000  0.500000  1
  Ru  Ru27  1  0.195940  0.818095  0.500000  1
  Ru  Ru28  1  0.181905  0.377844  0.500000  1
  Ru  Ru29  1  0.622156  0.804060  0.500000  1
  Ru  Ru30  1  0.818095  0.195940  0.500000  1
  Ru  Ru31  1  0.377844  0.181905  0.500000  1
  Ru  Ru32  1  0.804060  0.622156  0.500000  1
  Ru  Ru33  1  0.546709  0.546709  0.500000  1
  Ru  Ru34  1  0.453291  0.000000  0.500000  1
  Ru  Ru35  1  0.000000  0.453291  0.500000  1
