# generated using pymatgen
data_NdRuI18
_symmetry_space_group_name_H-M   'P 1'
_cell_length_a   10.25478840
_cell_length_b   10.25478873
_cell_length_c   10.25478596
_cell_angle_alpha   94.28245154
_cell_angle_beta   94.28245206
_cell_angle_gamma   94.28243841
_symmetry_Int_Tables_number   1
_chemical_formula_structural   NdRuI18
_chemical_formula_sum   'Nd1 Ru1 I18'
_cell_volume   1068.88949277
_cell_formula_units_Z   1
loop_
 _symmetry_equiv_pos_site_id
 _symmetry_equiv_pos_as_xyz
  1  'x, y, z'
loop_
 _atom_site_type_symbol
 _atom_site_label
 _atom_site_symmetry_multiplicity
 _atom_site_fract_x
 _atom_site_fract_y
 _atom_site_fract_z
 _atom_site_occupancy
  Nd  Nd0  1  0.500000  0.500000  0.500000  1
  Ru  Ru1  1  0.000000  0.000000  0.000000  1
  I  I2  1  0.993436  0.735735  0.973766  1
  I  I3  1  0.973766  0.993436  0.735735  1
  I  I4  1  0.735735  0.973766  0.993436  1
  I  I5  1  0.006564  0.264265  0.026234  1
  I  I6  1  0.026234  0.006564  0.264265  1
  I  I7  1  0.264265  0.026234  0.006564  1
  I  I8  1  0.480807  0.804178  0.528459  1
  I  I9  1  0.528459  0.480807  0.804178  1
  I  I10  1  0.804178  0.528459  0.480807  1
  I  I11  1  0.519193  0.195822  0.471541  1
  I  I12  1  0.471541  0.519193  0.195822  1
  I  I13  1  0.195822  0.471541  0.519193  1
  I  I14  1  0.637649  0.096601  0.228863  1
  I  I15  1  0.228863  0.637649  0.096601  1
  I  I16  1  0.096601  0.228863  0.637649  1
  I  I17  1  0.362351  0.903399  0.771137  1
  I  I18  1  0.771137  0.362351  0.903399  1
  I  I19  1  0.903399  0.771137  0.362351  1
