# generated using pymatgen
data_Dy6C2Br7
_symmetry_space_group_name_H-M   'P 1'
_cell_length_a   10.49524329
_cell_length_b   10.49524355
_cell_length_c   11.96218220
_cell_angle_alpha   57.67413820
_cell_angle_beta   57.67413793
_cell_angle_gamma   20.96453983
_symmetry_Int_Tables_number   1
_chemical_formula_structural   Dy6C2Br7
_chemical_formula_sum   'Dy6 C2 Br7'
_cell_volume   395.63416324
_cell_formula_units_Z   1
loop_
 _symmetry_equiv_pos_site_id
 _symmetry_equiv_pos_as_xyz
  1  'x, y, z'
loop_
 _atom_site_type_symbol
 _atom_site_label
 _atom_site_symmetry_multiplicity
 _atom_site_fract_x
 _atom_site_fract_y
 _atom_site_fract_z
 _atom_site_occupancy
  Dy  Dy0  1  0.230977  0.230977  0.834401  1
  Dy  Dy1  1  0.312683  0.312683  0.366667  1
  Dy  Dy2  1  0.131645  0.131645  0.441945  1
  Dy  Dy3  1  0.868355  0.868355  0.558055  1
  Dy  Dy4  1  0.687317  0.687317  0.633333  1
  Dy  Dy5  1  0.769023  0.769023  0.165599  1
  C  C6  1  0.280132  0.280132  0.606018  1
  C  C7  1  0.719868  0.719868  0.393982  1
  Br  Br8  1  0.163956  0.163956  0.164179  1
  Br  Br9  1  0.836044  0.836044  0.835821  1
  Br  Br10  1  0.058803  0.058803  0.718627  1
  Br  Br11  1  0.941197  0.941197  0.281373  1
  Br  Br12  1  0.500000  0.500000  0.500000  1
  Br  Br13  1  0.388701  0.388701  0.070524  1
  Br  Br14  1  0.611299  0.611299  0.929476  1
