# generated using pymatgen
data_Tb2Dy3Hf3(Co4P3)4
_symmetry_space_group_name_H-M   'P 1'
_cell_length_a   12.28412800
_cell_length_b   12.28412708
_cell_length_c   3.71180600
_cell_angle_alpha   90.00000000
_cell_angle_beta   90.00000000
_cell_angle_gamma   119.99999171
_symmetry_Int_Tables_number   1
_chemical_formula_structural   Tb2Dy3Hf3(Co4P3)4
_chemical_formula_sum   'Tb2 Dy3 Hf3 Co16 P12'
_cell_volume   485.07017340
_cell_formula_units_Z   1
loop_
 _symmetry_equiv_pos_site_id
 _symmetry_equiv_pos_as_xyz
  1  'x, y, z'
loop_
 _atom_site_type_symbol
 _atom_site_label
 _atom_site_symmetry_multiplicity
 _atom_site_fract_x
 _atom_site_fract_y
 _atom_site_fract_z
 _atom_site_occupancy
  Tb  Tb0  1  0.666667  0.333333  0.000000  1
  Tb  Tb1  1  0.333333  0.666667  0.000000  1
  Dy  Dy2  1  0.182567  0.182567  0.500000  1
  Dy  Dy3  1  0.817433  0.000000  0.500000  1
  Dy  Dy4  1  0.000000  0.817433  0.500000  1
  Hf  Hf5  1  0.559014  0.559014  0.000000  1
  Hf  Hf6  1  0.440986  0.000000  0.000000  1
  Hf  Hf7  1  0.000000  0.440986  0.000000  1
  Co  Co8  1  0.822025  0.195631  0.000000  1
  Co  Co9  1  0.804369  0.626394  0.000000  1
  Co  Co10  1  0.373606  0.177975  0.000000  1
  Co  Co11  1  0.195631  0.822025  0.000000  1
  Co  Co12  1  0.626394  0.804369  0.000000  1
  Co  Co13  1  0.177975  0.373606  0.000000  1
  Co  Co14  1  0.644150  0.124069  0.500000  1
  Co  Co15  1  0.875931  0.520081  0.500000  1
  Co  Co16  1  0.479919  0.355850  0.500000  1
  Co  Co17  1  0.124069  0.644150  0.500000  1
  Co  Co18  1  0.520081  0.875931  0.500000  1
  Co  Co19  1  0.355850  0.479919  0.500000  1
  Co  Co20  1  0.721261  0.721261  0.500000  1
  Co  Co21  1  0.278739  0.000000  0.500000  1
  Co  Co22  1  0.000000  0.278739  0.500000  1
  Co  Co23  1  0.000000  0.000000  0.000000  1
  P  P24  1  0.352088  0.352088  0.000000  1
  P  P25  1  0.647912  0.000000  0.000000  1
  P  P26  1  0.000000  0.647912  0.000000  1
  P  P27  1  0.829092  0.307404  0.500000  1
  P  P28  1  0.692596  0.521689  0.500000  1
  P  P29  1  0.478311  0.170908  0.500000  1
  P  P30  1  0.307404  0.829092  0.500000  1
  P  P31  1  0.521689  0.692596  0.500000  1
  P  P32  1  0.170908  0.478311  0.500000  1
  P  P33  1  0.821800  0.821800  0.000000  1
  P  P34  1  0.178200  0.000000  0.000000  1
  P  P35  1  0.000000  0.178200  0.000000  1
