# generated using pymatgen
data_La12Os(AuI4)3
_symmetry_space_group_name_H-M   'P 1'
_cell_length_a   11.33754168
_cell_length_b   11.06438133
_cell_length_c   11.06438180
_cell_angle_alpha   108.96571678
_cell_angle_beta   109.97210980
_cell_angle_gamma   109.97211415
_symmetry_Int_Tables_number   1
_chemical_formula_structural   La12Os(AuI4)3
_chemical_formula_sum   'La12 Os1 Au3 I12'
_cell_volume   1061.76698884
_cell_formula_units_Z   1
loop_
 _symmetry_equiv_pos_site_id
 _symmetry_equiv_pos_as_xyz
  1  'x, y, z'
loop_
 _atom_site_type_symbol
 _atom_site_label
 _atom_site_symmetry_multiplicity
 _atom_site_fract_x
 _atom_site_fract_y
 _atom_site_fract_z
 _atom_site_occupancy
  La  La0  1  0.460747  0.488738  0.223052  1
  La  La1  1  0.750000  0.234782  0.265218  1
  La  La2  1  0.750000  0.015644  0.484356  1
  La  La3  1  0.234356  0.468711  0.484356  1
  La  La4  1  0.262303  0.734314  0.223052  1
  La  La5  1  0.039253  0.276948  0.011262  1
  La  La6  1  0.015218  0.030436  0.265218  1
  La  La7  1  0.472010  0.734314  0.011262  1
  La  La8  1  0.484782  0.234782  0.469564  1
  La  La9  1  0.027990  0.488738  0.765686  1
  La  La10  1  0.265644  0.015644  0.031289  1
  La  La11  1  0.237697  0.276948  0.765686  1
  Os  Os12  1  0.250000  0.500000  0.000000  1
  Au  Au13  1  0.250000  0.249711  0.250289  1
  Au  Au14  1  0.500289  0.000577  0.250289  1
  Au  Au15  1  0.999711  0.249711  0.499423  1
  I  I16  1  0.250000  0.758433  0.741567  1
  I  I17  1  0.516394  0.507589  0.756928  1
  I  I18  1  0.983606  0.743072  0.992411  1
  I  I19  1  0.740534  0.249339  0.756928  1
  I  I20  1  0.991567  0.983135  0.741567  1
  I  I21  1  0.250000  0.993040  0.506960  1
  I  I22  1  0.756960  0.513920  0.506960  1
  I  I23  1  0.508805  0.249339  0.992411  1
  I  I24  1  0.759466  0.743072  0.250661  1
  I  I25  1  0.743040  0.993040  0.986080  1
  I  I26  1  0.991195  0.507589  0.250661  1
  I  I27  1  0.508433  0.758433  0.516865  1
