# generated using pymatgen
data_Rb4CaNi3F12
_symmetry_space_group_name_H-M   'P 1'
_cell_length_a   10.68288379
_cell_length_b   10.68288395
_cell_length_c   10.68288498
_cell_angle_alpha   33.31202914
_cell_angle_beta   33.31202903
_cell_angle_gamma   33.31203519
_symmetry_Int_Tables_number   1
_chemical_formula_structural   Rb4CaNi3F12
_chemical_formula_sum   'Rb4 Ca1 Ni3 F12'
_cell_volume   327.41026678
_cell_formula_units_Z   1
loop_
 _symmetry_equiv_pos_site_id
 _symmetry_equiv_pos_as_xyz
  1  'x, y, z'
loop_
 _atom_site_type_symbol
 _atom_site_label
 _atom_site_symmetry_multiplicity
 _atom_site_fract_x
 _atom_site_fract_y
 _atom_site_fract_z
 _atom_site_occupancy
  Rb  Rb0  1  0.715776  0.715776  0.715776  1
  Rb  Rb1  1  0.869274  0.869274  0.869274  1
  Rb  Rb2  1  0.284224  0.284224  0.284224  1
  Rb  Rb3  1  0.130726  0.130726  0.130726  1
  Ca  Ca4  1  0.000000  0.000000  0.000000  1
  Ni  Ni5  1  0.410872  0.410872  0.410872  1
  Ni  Ni6  1  0.589128  0.589128  0.589128  1
  Ni  Ni7  1  0.500000  0.500000  0.500000  1
  F  F8  1  0.163254  0.603692  0.603692  1
  F  F9  1  0.603692  0.603692  0.163254  1
  F  F10  1  0.692997  0.216736  0.216736  1
  F  F11  1  0.307003  0.783264  0.783264  1
  F  F12  1  0.216736  0.216736  0.692997  1
  F  F13  1  0.836746  0.396308  0.396308  1
  F  F14  1  0.783264  0.783264  0.307003  1
  F  F15  1  0.396308  0.396308  0.836746  1
  F  F16  1  0.396308  0.836746  0.396308  1
  F  F17  1  0.216736  0.692997  0.216736  1
  F  F18  1  0.783264  0.307003  0.783264  1
  F  F19  1  0.603692  0.163254  0.603692  1
