# generated using pymatgen
data_Hf8Fe5Si14Ru3
_symmetry_space_group_name_H-M   'P 1'
_cell_length_a   9.48691136
_cell_length_b   9.48672980
_cell_length_c   9.48009381
_cell_angle_alpha   94.40184690
_cell_angle_beta   94.42600141
_cell_angle_gamma   147.72206625
_symmetry_Int_Tables_number   1
_chemical_formula_structural   Hf8Fe5Si14Ru3
_chemical_formula_sum   'Hf8 Fe5 Si14 Ru3'
_cell_volume   437.82283497
_cell_formula_units_Z   1
loop_
 _symmetry_equiv_pos_site_id
 _symmetry_equiv_pos_as_xyz
  1  'x, y, z'
loop_
 _atom_site_type_symbol
 _atom_site_label
 _atom_site_symmetry_multiplicity
 _atom_site_fract_x
 _atom_site_fract_y
 _atom_site_fract_z
 _atom_site_occupancy
  Hf  Hf0  1  0.138089  0.137734  0.276484  1
  Hf  Hf1  1  0.862260  0.861913  0.723510  1
  Hf  Hf2  1  0.861809  0.138147  0.999990  1
  Hf  Hf3  1  0.138783  0.861274  0.000000  1
  Hf  Hf4  1  0.505673  0.310487  0.804970  1
  Hf  Hf5  1  0.506520  0.700554  0.194834  1
  Hf  Hf6  1  0.689513  0.494326  0.195028  1
  Hf  Hf7  1  0.299456  0.493499  0.805162  1
  Fe  Fe8  1  0.403587  0.904836  0.808051  1
  Fe  Fe9  1  0.095119  0.596319  0.191962  1
  Fe  Fe10  1  0.096743  0.903920  0.500010  1
  Fe  Fe11  1  0.404413  0.595607  0.500014  1
  Fe  Fe12  1  0.612468  0.387327  0.500070  1
  Si  Si13  1  0.448042  0.044258  0.591264  1
  Si  Si14  1  0.440853  0.848726  0.408266  1
  Si  Si15  1  0.955657  0.551898  0.408737  1
  Si  Si16  1  0.151204  0.559073  0.591702  1
  Si  Si17  1  0.751103  0.750332  0.000096  1
  Si  Si18  1  0.249676  0.248917  0.999916  1
  Si  Si19  1  0.294908  0.292685  0.579403  1
  Si  Si20  1  0.707264  0.705057  0.420613  1
  Si  Si21  1  0.710216  0.289828  0.999991  1
  Si  Si22  1  0.290021  0.709942  0.999996  1
  Si  Si23  1  0.036505  0.331548  0.295438  1
  Si  Si24  1  0.024240  0.729407  0.701261  1
  Si  Si25  1  0.668468  0.963481  0.704504  1
  Si  Si26  1  0.270598  0.975732  0.298686  1
  Ru  Ru27  1  0.884994  0.114826  0.499992  1
  Ru  Ru28  1  0.885057  0.383326  0.768599  1
  Ru  Ru29  1  0.616764  0.115022  0.231450  1
