# generated using pymatgen
data_EuGePtO6
_symmetry_space_group_name_H-M   'P 1'
_cell_length_a   5.15423150
_cell_length_b   5.15076336
_cell_length_c   5.03929421
_cell_angle_alpha   90.11604660
_cell_angle_beta   90.00156981
_cell_angle_gamma   119.94058614
_symmetry_Int_Tables_number   1
_chemical_formula_structural   EuGePtO6
_chemical_formula_sum   'Eu1 Ge1 Pt1 O6'
_cell_volume   115.92960627
_cell_formula_units_Z   1
loop_
 _symmetry_equiv_pos_site_id
 _symmetry_equiv_pos_as_xyz
  1  'x, y, z'
loop_
 _atom_site_type_symbol
 _atom_site_label
 _atom_site_symmetry_multiplicity
 _atom_site_fract_x
 _atom_site_fract_y
 _atom_site_fract_z
 _atom_site_occupancy
  Eu  Eu0  1  0.000076  0.000042  0.000114  1
  Ge  Ge1  1  0.333123  0.666675  0.499979  1
  Pt  Pt2  1  0.666804  0.333318  0.499972  1
  O  O3  1  0.358908  0.368929  0.288386  1
  O  O4  1  0.010095  0.640104  0.287977  1
  O  O5  1  0.630135  0.989084  0.288052  1
  O  O6  1  0.010587  0.370180  0.712099  1
  O  O7  1  0.630708  0.641464  0.711662  1
  O  O8  1  0.359566  0.990204  0.711759  1
