# generated using pymatgen
data_Nd3Ho(Sc4Bi3)4
_symmetry_space_group_name_H-M   'P 1'
_cell_length_a   7.96464204
_cell_length_b   9.10561100
_cell_length_c   11.66487006
_cell_angle_alpha   90.00000000
_cell_angle_beta   89.98883061
_cell_angle_gamma   90.00000000
_symmetry_Int_Tables_number   1
_chemical_formula_structural   Nd3Ho(Sc4Bi3)4
_chemical_formula_sum   'Nd3 Ho1 Sc16 Bi12'
_cell_volume   845.97056350
_cell_formula_units_Z   1
loop_
 _symmetry_equiv_pos_site_id
 _symmetry_equiv_pos_as_xyz
  1  'x, y, z'
loop_
 _atom_site_type_symbol
 _atom_site_label
 _atom_site_symmetry_multiplicity
 _atom_site_fract_x
 _atom_site_fract_y
 _atom_site_fract_z
 _atom_site_occupancy
  Nd  Nd0  1  0.318480  0.250000  0.219619  1
  Nd  Nd1  1  0.817948  0.250000  0.280367  1
  Nd  Nd2  1  0.682129  0.750000  0.780460  1
  Ho  Ho3  1  0.183160  0.750000  0.718151  1
  Sc  Sc4  1  0.348066  0.750000  0.221360  1
  Sc  Sc5  1  0.848705  0.750000  0.278944  1
  Sc  Sc6  1  0.650842  0.250000  0.777619  1
  Sc  Sc7  1  0.151813  0.250000  0.721724  1
  Sc  Sc8  1  0.691628  0.567590  0.063223  1
  Sc  Sc9  1  0.192361  0.932722  0.437371  1
  Sc  Sc10  1  0.308215  0.067165  0.936360  1
  Sc  Sc11  1  0.807169  0.432819  0.563251  1
  Sc  Sc12  1  0.308215  0.432835  0.936360  1
  Sc  Sc13  1  0.807169  0.067181  0.563251  1
  Sc  Sc14  1  0.691628  0.932410  0.063223  1
  Sc  Sc15  1  0.192361  0.567278  0.437371  1
  Sc  Sc16  1  0.481956  0.250000  0.490065  1
  Sc  Sc17  1  0.983253  0.250000  0.010148  1
  Sc  Sc18  1  0.516849  0.750000  0.511598  1
  Sc  Sc19  1  0.017652  0.750000  0.988861  1
  Bi  Bi20  1  0.398377  0.750000  0.969710  1
  Bi  Bi21  1  0.903793  0.750000  0.531605  1
  Bi  Bi22  1  0.600461  0.250000  0.028066  1
  Bi  Bi23  1  0.099162  0.250000  0.471554  1
  Bi  Bi24  1  0.563668  0.985619  0.331068  1
  Bi  Bi25  1  0.063352  0.514190  0.169475  1
  Bi  Bi26  1  0.432393  0.488533  0.670218  1
  Bi  Bi27  1  0.939891  0.011588  0.829108  1
  Bi  Bi28  1  0.432393  0.011467  0.670218  1
  Bi  Bi29  1  0.939891  0.488412  0.829108  1
  Bi  Bi30  1  0.563668  0.514381  0.331068  1
  Bi  Bi31  1  0.063352  0.985810  0.169475  1
