# generated using pymatgen
data_Er9Tm(InSb)4
_symmetry_space_group_name_H-M   'P 1'
_cell_length_a   8.73883701
_cell_length_b   8.73883863
_cell_length_c   8.04297503
_cell_angle_alpha   90.00466384
_cell_angle_beta   90.00467048
_cell_angle_gamma   125.15780564
_symmetry_Int_Tables_number   1
_chemical_formula_structural   Er9Tm(InSb)4
_chemical_formula_sum   'Er9 Tm1 In4 Sb4'
_cell_volume   502.16747906
_cell_formula_units_Z   1
loop_
 _symmetry_equiv_pos_site_id
 _symmetry_equiv_pos_as_xyz
  1  'x, y, z'
loop_
 _atom_site_type_symbol
 _atom_site_label
 _atom_site_symmetry_multiplicity
 _atom_site_fract_x
 _atom_site_fract_y
 _atom_site_fract_z
 _atom_site_occupancy
  Er  Er0  1  0.031080  0.305704  0.334661  1
  Er  Er1  1  0.968920  0.694296  0.665339  1
  Er  Er2  1  0.468865  0.194214  0.834743  1
  Er  Er3  1  0.805786  0.531135  0.165257  1
  Er  Er4  1  0.531135  0.805786  0.165257  1
  Er  Er5  1  0.194214  0.468865  0.834743  1
  Er  Er6  1  0.694296  0.968920  0.665339  1
  Er  Er7  1  0.305704  0.031080  0.334661  1
  Er  Er8  1  0.500000  0.500000  0.500000  1
  Tm  Tm9  1  0.000000  0.000000  0.000000  1
  In  In10  1  0.369343  0.369343  0.129858  1
  In  In11  1  0.630657  0.630657  0.870142  1
  In  In12  1  0.130459  0.130459  0.630046  1
  In  In13  1  0.869541  0.869541  0.369954  1
  Sb  Sb14  1  0.796962  0.203038  0.000000  1
  Sb  Sb15  1  0.203038  0.796962  0.000000  1
  Sb  Sb16  1  0.703145  0.296855  0.500000  1
  Sb  Sb17  1  0.296855  0.703145  0.500000  1
