# generated using pymatgen
data_LiZn4(BRh2)4
_symmetry_space_group_name_H-M   'P 1'
_cell_length_a   9.52833365
_cell_length_b   9.52833491
_cell_length_c   2.87021900
_cell_angle_alpha   90.00000000
_cell_angle_beta   90.00000000
_cell_angle_gamma   126.82397343
_symmetry_Int_Tables_number   1
_chemical_formula_structural   LiZn4(BRh2)4
_chemical_formula_sum   'Li1 Zn4 B4 Rh8'
_cell_volume   208.59305689
_cell_formula_units_Z   1
loop_
 _symmetry_equiv_pos_site_id
 _symmetry_equiv_pos_as_xyz
  1  'x, y, z'
loop_
 _atom_site_type_symbol
 _atom_site_label
 _atom_site_symmetry_multiplicity
 _atom_site_fract_x
 _atom_site_fract_y
 _atom_site_fract_z
 _atom_site_occupancy
  Li  Li0  1  0.205562  0.794438  0.500000  1
  Zn  Zn1  1  0.803702  0.196298  0.500000  1
  Zn  Zn2  1  0.355013  0.353816  0.500000  1
  Zn  Zn3  1  0.000403  0.999597  0.500000  1
  Zn  Zn4  1  0.646184  0.644987  0.500000  1
  B  B5  1  0.460229  0.151006  0.500000  1
  B  B6  1  0.153245  0.469745  0.500000  1
  B  B7  1  0.530255  0.846755  0.500000  1
  B  B8  1  0.848994  0.539771  0.500000  1
  Rh  Rh9  1  0.624073  0.375927  0.000000  1
  Rh  Rh10  1  0.372806  0.627194  0.000000  1
  Rh  Rh11  1  0.918798  0.733657  0.000000  1
  Rh  Rh12  1  0.083681  0.268881  0.000000  1
  Rh  Rh13  1  0.510656  0.011064  0.000000  1
  Rh  Rh14  1  0.266343  0.081202  0.000000  1
  Rh  Rh15  1  0.731119  0.916319  0.000000  1
  Rh  Rh16  1  0.988936  0.489344  0.000000  1
