# generated using pymatgen
data_Rb4Sr(TaS4)2
_symmetry_space_group_name_H-M   'P 1'
_cell_length_a   9.59304300
_cell_length_b   9.80377176
_cell_length_c   11.88996900
_cell_angle_alpha   106.63779842
_cell_angle_beta   103.53417596
_cell_angle_gamma   93.97723913
_symmetry_Int_Tables_number   1
_chemical_formula_structural   Rb4Sr(TaS4)2
_chemical_formula_sum   'Rb8 Sr2 Ta4 S16'
_cell_volume   1030.43755612
_cell_formula_units_Z   2
loop_
 _symmetry_equiv_pos_site_id
 _symmetry_equiv_pos_as_xyz
  1  'x, y, z'
loop_
 _atom_site_type_symbol
 _atom_site_label
 _atom_site_symmetry_multiplicity
 _atom_site_fract_x
 _atom_site_fract_y
 _atom_site_fract_z
 _atom_site_occupancy
  Rb  Rb0  1  0.944270  0.532481  0.269183  1
  Rb  Rb1  1  0.055730  0.467519  0.730817  1
  Rb  Rb2  1  0.764884  0.006414  0.475977  1
  Rb  Rb3  1  0.235116  0.993586  0.524023  1
  Rb  Rb4  1  0.606941  0.741157  0.024031  1
  Rb  Rb5  1  0.393059  0.258843  0.975969  1
  Rb  Rb6  1  0.618678  0.680780  0.613029  1
  Rb  Rb7  1  0.381322  0.319220  0.386971  1
  Sr  Sr8  1  0.851656  0.149553  0.928244  1
  Sr  Sr9  1  0.148344  0.850447  0.071756  1
  Ta  Ta10  1  0.950190  0.114060  0.239621  1
  Ta  Ta11  1  0.049810  0.885940  0.760379  1
  Ta  Ta12  1  0.382591  0.676060  0.261616  1
  Ta  Ta13  1  0.617409  0.323940  0.738384  1
  S  S14  1  0.948895  0.878970  0.236831  1
  S  S15  1  0.051105  0.121030  0.763169  1
  S  S16  1  0.580751  0.082882  0.723091  1
  S  S17  1  0.419249  0.917118  0.276909  1
  S  S18  1  0.298644  0.651707  0.419732  1
  S  S19  1  0.701356  0.348293  0.580268  1
  S  S20  1  0.787229  0.437646  0.920430  1
  S  S21  1  0.212771  0.562354  0.079570  1
  S  S22  1  0.026096  0.258821  0.433860  1
  S  S23  1  0.973904  0.741179  0.566140  1
  S  S24  1  0.113440  0.166231  0.136923  1
  S  S25  1  0.886560  0.833769  0.863077  1
  S  S26  1  0.728062  0.147922  0.138259  1
  S  S27  1  0.271938  0.852078  0.861741  1
  S  S28  1  0.590532  0.578998  0.264224  1
  S  S29  1  0.409468  0.421002  0.735776  1
