# generated using pymatgen
data_PrSm11(SiBr3)4
_symmetry_space_group_name_H-M   'P 1'
_cell_length_a   10.28627689
_cell_length_b   10.31517722
_cell_length_c   10.34186291
_cell_angle_alpha   109.41552538
_cell_angle_beta   109.34437699
_cell_angle_gamma   109.38384758
_symmetry_Int_Tables_number   1
_chemical_formula_structural   PrSm11(SiBr3)4
_chemical_formula_sum   'Pr1 Sm11 Si4 Br12'
_cell_volume   847.51997604
_cell_formula_units_Z   1
loop_
 _symmetry_equiv_pos_site_id
 _symmetry_equiv_pos_as_xyz
  1  'x, y, z'
loop_
 _atom_site_type_symbol
 _atom_site_label
 _atom_site_symmetry_multiplicity
 _atom_site_fract_x
 _atom_site_fract_y
 _atom_site_fract_z
 _atom_site_occupancy
  Pr  Pr0  1  0.489308  0.239572  0.478806  1
  Sm  Sm1  1  0.262941  0.013119  0.026108  1
  Sm  Sm2  1  0.025350  0.262262  0.012911  1
  Sm  Sm3  1  0.487437  0.750353  0.012844  1
  Sm  Sm4  1  0.750166  0.237396  0.262357  1
  Sm  Sm5  1  0.012295  0.024992  0.262233  1
  Sm  Sm6  1  0.012827  0.486464  0.749237  1
  Sm  Sm7  1  0.236453  0.262587  0.749101  1
  Sm  Sm8  1  0.262744  0.750521  0.237397  1
  Sm  Sm9  1  0.236923  0.473939  0.486116  1
  Sm  Sm10  1  0.474514  0.486751  0.237465  1
  Sm  Sm11  1  0.749333  0.012310  0.486053  1
  Si  Si12  1  0.999892  0.249876  0.499769  1
  Si  Si13  1  0.249865  0.499826  0.999859  1
  Si  Si14  1  0.499894  0.998495  0.248230  1
  Si  Si15  1  0.248298  0.249735  0.248208  1
  Br  Br16  1  0.753366  0.746255  0.249834  1
  Br  Br17  1  0.503438  0.249947  0.996049  1
  Br  Br18  1  0.243519  0.990330  0.502436  1
  Br  Br19  1  0.507544  0.508389  0.757426  1
  Br  Br20  1  0.996410  0.993236  0.746298  1
  Br  Br21  1  0.746259  0.996236  0.992550  1
  Br  Br22  1  0.503309  0.753350  0.506631  1
  Br  Br23  1  0.758838  0.511957  0.502439  1
  Br  Br24  1  0.996575  0.503736  0.249962  1
  Br  Br25  1  0.992657  0.746106  0.996097  1
  Br  Br26  1  0.249967  0.753136  0.746252  1
  Br  Br27  1  0.749878  0.249125  0.757331  1
