# generated using pymatgen
data_HoEr7B24(IrRu)2
_symmetry_space_group_name_H-M   'P 1'
_cell_length_a   3.63166200
_cell_length_b   9.13577384
_cell_length_c   11.45681301
_cell_angle_alpha   90.05616242
_cell_angle_beta   90.00000000
_cell_angle_gamma   90.00000000
_symmetry_Int_Tables_number   1
_chemical_formula_structural   HoEr7B24(IrRu)2
_chemical_formula_sum   'Ho1 Er7 B24 Ir2 Ru2'
_cell_volume   380.11444871
_cell_formula_units_Z   1
loop_
 _symmetry_equiv_pos_site_id
 _symmetry_equiv_pos_as_xyz
  1  'x, y, z'
loop_
 _atom_site_type_symbol
 _atom_site_label
 _atom_site_symmetry_multiplicity
 _atom_site_fract_x
 _atom_site_fract_y
 _atom_site_fract_z
 _atom_site_occupancy
  Ho  Ho0  1  0.000000  0.318946  0.411949  1
  Er  Er1  1  0.000000  0.681268  0.588064  1
  Er  Er2  1  0.000000  0.823060  0.085040  1
  Er  Er3  1  0.000000  0.176918  0.914933  1
  Er  Er4  1  0.000000  0.945810  0.372884  1
  Er  Er5  1  0.000000  0.054065  0.627178  1
  Er  Er6  1  0.000000  0.442476  0.125622  1
  Er  Er7  1  0.000000  0.557559  0.874326  1
  B  B8  1  0.500000  0.553049  0.433926  1
  B  B9  1  0.500000  0.447280  0.566247  1
  B  B10  1  0.500000  0.053910  0.066541  1
  B  B11  1  0.500000  0.946050  0.933407  1
  B  B12  1  0.500000  0.750546  0.420571  1
  B  B13  1  0.500000  0.249377  0.579691  1
  B  B14  1  0.500000  0.248000  0.079637  1
  B  B15  1  0.500000  0.751980  0.920310  1
  B  B16  1  0.500000  0.793125  0.265701  1
  B  B17  1  0.500000  0.206863  0.734370  1
  B  B18  1  0.500000  0.291972  0.234097  1
  B  B19  1  0.500000  0.707936  0.765728  1
  B  B20  1  0.500000  0.631884  0.184063  1
  B  B21  1  0.500000  0.368136  0.815924  1
  B  B22  1  0.500000  0.132019  0.314784  1
  B  B23  1  0.500000  0.867785  0.685107  1
  B  B24  1  0.500000  0.983199  0.212779  1
  B  B25  1  0.500000  0.016696  0.787207  1
  B  B26  1  0.500000  0.481700  0.286357  1
  B  B27  1  0.500000  0.518584  0.713505  1
  B  B28  1  0.500000  0.610520  0.030618  1
  B  B29  1  0.500000  0.389512  0.969347  1
  B  B30  1  0.500000  0.109427  0.470249  1
  B  B31  1  0.500000  0.890228  0.529872  1
  Ir  Ir32  1  0.000000  0.637735  0.322181  1
  Ir  Ir33  1  0.000000  0.362551  0.677891  1
  Ru  Ru34  1  0.000000  0.137831  0.178773  1
  Ru  Ru35  1  0.000000  0.862003  0.821121  1
