# generated using pymatgen
data_Zr8FeCoBi4
_symmetry_space_group_name_H-M   'P 1'
_cell_length_a   8.31976161
_cell_length_b   8.31971410
_cell_length_c   8.31976052
_cell_angle_alpha   95.80779484
_cell_angle_beta   95.80843904
_cell_angle_gamma   142.90252936
_symmetry_Int_Tables_number   1
_chemical_formula_structural   Zr8FeCoBi4
_chemical_formula_sum   'Zr8 Fe1 Co1 Bi4'
_cell_volume   329.30887368
_cell_formula_units_Z   1
loop_
 _symmetry_equiv_pos_site_id
 _symmetry_equiv_pos_as_xyz
  1  'x, y, z'
loop_
 _atom_site_type_symbol
 _atom_site_label
 _atom_site_symmetry_multiplicity
 _atom_site_fract_x
 _atom_site_fract_y
 _atom_site_fract_z
 _atom_site_occupancy
  Zr  Zr0  1  0.694511  0.580552  0.276840  1
  Zr  Zr1  1  0.580556  0.303716  0.886055  1
  Zr  Zr2  1  0.082338  0.196284  0.276840  1
  Zr  Zr3  1  0.919450  0.805505  0.723173  1
  Zr  Zr4  1  0.196288  0.919448  0.113958  1
  Zr  Zr5  1  0.805514  0.082331  0.886062  1
  Zr  Zr6  1  0.303729  0.417669  0.723181  1
  Zr  Zr7  1  0.417669  0.694495  0.113944  1
  Fe  Fe8  1  0.250045  0.250000  0.000045  1
  Co  Co9  1  0.749985  0.750000  0.999985  1
  Bi  Bi10  1  0.139613  0.639654  0.779269  1
  Bi  Bi11  1  0.360342  0.139617  0.499963  1
  Bi  Bi12  1  0.639614  0.860346  0.499959  1
  Bi  Bi13  1  0.860346  0.360383  0.220725  1
