# generated using pymatgen
data_Er3Lu7(Bi3C)2
_symmetry_space_group_name_H-M   'P 1'
_cell_length_a   9.03186600
_cell_length_b   9.03186565
_cell_length_c   6.37603000
_cell_angle_alpha   90.00000000
_cell_angle_beta   90.00000000
_cell_angle_gamma   120.00000127
_symmetry_Int_Tables_number   1
_chemical_formula_structural   Er3Lu7(Bi3C)2
_chemical_formula_sum   'Er3 Lu7 Bi6 C2'
_cell_volume   450.43894493
_cell_formula_units_Z   1
loop_
 _symmetry_equiv_pos_site_id
 _symmetry_equiv_pos_as_xyz
  1  'x, y, z'
loop_
 _atom_site_type_symbol
 _atom_site_label
 _atom_site_symmetry_multiplicity
 _atom_site_fract_x
 _atom_site_fract_y
 _atom_site_fract_z
 _atom_site_occupancy
  Er  Er0  1  0.666667  0.333333  0.500000  1
  Er  Er1  1  0.333333  0.666667  0.500000  1
  Er  Er2  1  0.333333  0.666667  0.000000  1
  Lu  Lu3  1  0.666667  0.333333  0.000000  1
  Lu  Lu4  1  0.796027  0.796066  0.249944  1
  Lu  Lu5  1  0.203934  0.999961  0.249944  1
  Lu  Lu6  1  0.000039  0.203973  0.249944  1
  Lu  Lu7  1  0.203934  0.203973  0.750056  1
  Lu  Lu8  1  0.796027  0.999961  0.750056  1
  Lu  Lu9  1  0.000039  0.796066  0.750056  1
  Bi  Bi10  1  0.399884  0.399507  0.249624  1
  Bi  Bi11  1  0.600493  0.000377  0.249624  1
  Bi  Bi12  1  0.999623  0.600116  0.249624  1
  Bi  Bi13  1  0.600493  0.600116  0.750376  1
  Bi  Bi14  1  0.399884  0.000377  0.750376  1
  Bi  Bi15  1  0.999623  0.399507  0.750376  1
  C  C16  1  0.000000  0.000000  0.500000  1
  C  C17  1  0.000000  0.000000  0.000000  1
