# generated using pymatgen
data_HfZr3Cu4Si3Ge
_symmetry_space_group_name_H-M   'P 1'
_cell_length_a   3.93167500
_cell_length_b   6.52918804
_cell_length_c   7.35759112
_cell_angle_alpha   90.03482631
_cell_angle_beta   90.00000000
_cell_angle_gamma   90.00000000
_symmetry_Int_Tables_number   1
_chemical_formula_structural   HfZr3Cu4Si3Ge
_chemical_formula_sum   'Hf1 Zr3 Cu4 Si3 Ge1'
_cell_volume   188.87407780
_cell_formula_units_Z   1
loop_
 _symmetry_equiv_pos_site_id
 _symmetry_equiv_pos_as_xyz
  1  'x, y, z'
loop_
 _atom_site_type_symbol
 _atom_site_label
 _atom_site_symmetry_multiplicity
 _atom_site_fract_x
 _atom_site_fract_y
 _atom_site_fract_z
 _atom_site_occupancy
  Hf  Hf0  1  0.250000  0.511619  0.690087  1
  Zr  Zr1  1  0.750000  0.490940  0.309820  1
  Zr  Zr2  1  0.250000  0.007790  0.805979  1
  Zr  Zr3  1  0.750000  0.986074  0.193348  1
  Cu  Cu4  1  0.750000  0.830312  0.576742  1
  Cu  Cu5  1  0.250000  0.164934  0.430261  1
  Cu  Cu6  1  0.750000  0.334986  0.915287  1
  Cu  Cu7  1  0.250000  0.674275  0.075692  1
  Si  Si8  1  0.750000  0.718066  0.898039  1
  Si  Si9  1  0.250000  0.779663  0.400726  1
  Si  Si10  1  0.750000  0.222136  0.601413  1
  Ge  Ge11  1  0.250000  0.279206  0.102606  1
