# generated using pymatgen
data_NaTb(SbAu)2
_symmetry_space_group_name_H-M   'P 1'
_cell_length_a   4.70282900
_cell_length_b   4.70282755
_cell_length_c   7.55927100
_cell_angle_alpha   90.00000000
_cell_angle_beta   90.00000000
_cell_angle_gamma   120.00000315
_symmetry_Int_Tables_number   1
_chemical_formula_structural   NaTb(SbAu)2
_chemical_formula_sum   'Na1 Tb1 Sb2 Au2'
_cell_volume   144.78673492
_cell_formula_units_Z   1
loop_
 _symmetry_equiv_pos_site_id
 _symmetry_equiv_pos_as_xyz
  1  'x, y, z'
loop_
 _atom_site_type_symbol
 _atom_site_label
 _atom_site_symmetry_multiplicity
 _atom_site_fract_x
 _atom_site_fract_y
 _atom_site_fract_z
 _atom_site_occupancy
  Na  Na0  1  0.000000  0.000000  0.745968  1
  Tb  Tb1  1  0.000000  0.000000  0.247304  1
  Sb  Sb2  1  0.666667  0.333333  0.960175  1
  Sb  Sb3  1  0.333333  0.666667  0.465945  1
  Au  Au4  1  0.333333  0.666667  0.070491  1
  Au  Au5  1  0.666667  0.333333  0.558116  1
