# generated using pymatgen
data_Sc8Ti7Cr4Si16W
_symmetry_space_group_name_H-M   'P 1'
_cell_length_a   6.52668201
_cell_length_b   6.71697125
_cell_length_c   12.78534484
_cell_angle_alpha   90.06854741
_cell_angle_beta   90.07256281
_cell_angle_gamma   90.21209485
_symmetry_Int_Tables_number   1
_chemical_formula_structural   Sc8Ti7Cr4Si16W
_chemical_formula_sum   'Sc8 Ti7 Cr4 Si16 W1'
_cell_volume   560.49888404
_cell_formula_units_Z   1
loop_
 _symmetry_equiv_pos_site_id
 _symmetry_equiv_pos_as_xyz
  1  'x, y, z'
loop_
 _atom_site_type_symbol
 _atom_site_label
 _atom_site_symmetry_multiplicity
 _atom_site_fract_x
 _atom_site_fract_y
 _atom_site_fract_z
 _atom_site_occupancy
  Sc  Sc0  1  0.499703  0.673174  0.593426  1
  Sc  Sc1  1  0.998653  0.827543  0.902903  1
  Sc  Sc2  1  0.499408  0.326703  0.094488  1
  Sc  Sc3  1  0.000644  0.173806  0.405844  1
  Sc  Sc4  1  0.499178  0.325961  0.408050  1
  Sc  Sc5  1  0.998000  0.173124  0.095406  1
  Sc  Sc6  1  0.502759  0.671376  0.902196  1
  Sc  Sc7  1  0.999306  0.826110  0.594507  1
  Ti  Ti8  1  0.170062  0.327699  0.869157  1
  Ti  Ti9  1  0.331041  0.829502  0.126856  1
  Ti  Ti10  1  0.829373  0.672546  0.376816  1
  Ti  Ti11  1  0.334418  0.832829  0.375996  1
  Ti  Ti12  1  0.832519  0.671113  0.126737  1
  Ti  Ti13  1  0.667810  0.170678  0.870523  1
  Ti  Ti14  1  0.164114  0.329891  0.626793  1
  Cr  Cr15  1  0.671787  0.166089  0.628100  1
  Cr  Cr16  1  0.842827  0.488190  0.748578  1
  Cr  Cr17  1  0.338788  0.011815  0.748905  1
  Cr  Cr18  1  0.157853  0.512820  0.250798  1
  Si  Si19  1  0.669524  0.966366  0.464804  1
  Si  Si20  1  0.164581  0.535487  0.041748  1
  Si  Si21  1  0.334874  0.034687  0.955396  1
  Si  Si22  1  0.827009  0.454564  0.546546  1
  Si  Si23  1  0.343618  0.037256  0.548843  1
  Si  Si24  1  0.836168  0.463127  0.955655  1
  Si  Si25  1  0.665175  0.963378  0.040085  1
  Si  Si26  1  0.164021  0.535695  0.457282  1
  Si  Si27  1  0.476237  0.378441  0.744065  1
  Si  Si28  1  0.964254  0.115519  0.747237  1
  Si  Si29  1  0.526888  0.612872  0.251513  1
  Si  Si30  1  0.035658  0.881829  0.251635  1
  Si  Si31  1  0.696991  0.863667  0.747536  1
  Si  Si32  1  0.203702  0.639934  0.748295  1
  Si  Si33  1  0.293080  0.146580  0.250360  1
  Si  Si34  1  0.799773  0.365071  0.251383  1
  W  W35  1  0.660204  0.994556  0.251540  1
