# generated using pymatgen
data_Y3Tm3Lu4Cd3Ni
_symmetry_space_group_name_H-M   'P 1'
_cell_length_a   9.55756900
_cell_length_b   9.55757000
_cell_length_c   9.56052300
_cell_angle_alpha   90.00000000
_cell_angle_beta   90.00000000
_cell_angle_gamma   119.99999307
_symmetry_Int_Tables_number   1
_chemical_formula_structural   Y3Tm3Lu4Cd3Ni
_chemical_formula_sum   'Y6 Tm6 Lu8 Cd6 Ni2'
_cell_volume   756.32288638
_cell_formula_units_Z   2
loop_
 _symmetry_equiv_pos_site_id
 _symmetry_equiv_pos_as_xyz
  1  'x, y, z'
loop_
 _atom_site_type_symbol
 _atom_site_label
 _atom_site_symmetry_multiplicity
 _atom_site_fract_x
 _atom_site_fract_y
 _atom_site_fract_z
 _atom_site_occupancy
  Y  Y0  1  0.542348  0.457652  0.249421  1
  Y  Y1  1  0.542348  0.084696  0.249421  1
  Y  Y2  1  0.915304  0.457652  0.249421  1
  Y  Y3  1  0.457652  0.542348  0.750579  1
  Y  Y4  1  0.457652  0.915304  0.750579  1
  Y  Y5  1  0.084696  0.542348  0.750579  1
  Tm  Tm6  1  0.210970  0.789030  0.437436  1
  Tm  Tm7  1  0.210970  0.421940  0.437436  1
  Tm  Tm8  1  0.578060  0.789030  0.437436  1
  Tm  Tm9  1  0.789030  0.210970  0.562564  1
  Tm  Tm10  1  0.789030  0.578060  0.562564  1
  Tm  Tm11  1  0.421940  0.210970  0.562564  1
  Lu  Lu12  1  0.000000  0.000000  0.500000  1
  Lu  Lu13  1  0.000000  0.000000  0.000000  1
  Lu  Lu14  1  0.788776  0.211224  0.937341  1
  Lu  Lu15  1  0.788776  0.577553  0.937341  1
  Lu  Lu16  1  0.422447  0.211224  0.937341  1
  Lu  Lu17  1  0.211224  0.788776  0.062659  1
  Lu  Lu18  1  0.211224  0.422447  0.062659  1
  Lu  Lu19  1  0.577553  0.788776  0.062659  1
  Cd  Cd20  1  0.885566  0.114434  0.249924  1
  Cd  Cd21  1  0.885566  0.771131  0.249924  1
  Cd  Cd22  1  0.228869  0.114434  0.249924  1
  Cd  Cd23  1  0.114434  0.885566  0.750076  1
  Cd  Cd24  1  0.114434  0.228869  0.750076  1
  Cd  Cd25  1  0.771131  0.885566  0.750076  1
  Ni  Ni26  1  0.333333  0.666667  0.249021  1
  Ni  Ni27  1  0.666667  0.333333  0.750979  1
