# generated using pymatgen
data_NaLi(Ta2B5)4
_symmetry_space_group_name_H-M   'P 1'
_cell_length_a   6.15801711
_cell_length_b   7.00962536
_cell_length_c   7.38695014
_cell_angle_alpha   94.04982356
_cell_angle_beta   102.06245418
_cell_angle_gamma   116.02795123
_symmetry_Int_Tables_number   1
_chemical_formula_structural   NaLi(Ta2B5)4
_chemical_formula_sum   'Na1 Li1 Ta8 B20'
_cell_volume   275.37339623
_cell_formula_units_Z   1
loop_
 _symmetry_equiv_pos_site_id
 _symmetry_equiv_pos_as_xyz
  1  'x, y, z'
loop_
 _atom_site_type_symbol
 _atom_site_label
 _atom_site_symmetry_multiplicity
 _atom_site_fract_x
 _atom_site_fract_y
 _atom_site_fract_z
 _atom_site_occupancy
  Na  Na0  1  0.000817  0.603626  0.802433  1
  Li  Li1  1  0.999214  0.994498  0.995786  1
  Ta  Ta2  1  0.499659  0.999024  0.001118  1
  Ta  Ta3  1  0.500612  0.801294  0.400000  1
  Ta  Ta4  1  0.998592  0.395583  0.199416  1
  Ta  Ta5  1  0.502340  0.202105  0.600594  1
  Ta  Ta6  1  0.000154  0.800771  0.400597  1
  Ta  Ta7  1  0.501028  0.601076  0.800095  1
  Ta  Ta8  1  0.496486  0.397159  0.199146  1
  Ta  Ta9  1  0.001503  0.204033  0.599742  1
  B  B10  1  0.329760  0.229692  0.870230  1
  B  B11  1  0.332045  0.632051  0.067321  1
  B  B12  1  0.165781  0.363517  0.935258  1
  B  B13  1  0.329806  0.032748  0.261984  1
  B  B14  1  0.164950  0.766911  0.133147  1
  B  B15  1  0.833974  0.230887  0.868743  1
  B  B16  1  0.165206  0.165401  0.327925  1
  B  B17  1  0.834598  0.634573  0.067372  1
  B  B18  1  0.333281  0.434294  0.464951  1
  B  B19  1  0.667363  0.367455  0.932710  1
  B  B20  1  0.834249  0.031766  0.261588  1
  B  B21  1  0.669205  0.768205  0.130783  1
  B  B22  1  0.333934  0.834807  0.667515  1
  B  B23  1  0.167429  0.568879  0.534757  1
  B  B24  1  0.666078  0.165166  0.334005  1
  B  B25  1  0.833269  0.434036  0.468052  1
  B  B26  1  0.165439  0.968281  0.734429  1
  B  B27  1  0.834972  0.836080  0.668947  1
  B  B28  1  0.667597  0.568580  0.534411  1
  B  B29  1  0.670660  0.967504  0.736948  1
