# generated using pymatgen
data_Pr6CoCl11
_symmetry_space_group_name_H-M   'P 1'
_cell_length_a   8.33503177
_cell_length_b   8.33503136
_cell_length_c   7.39346012
_cell_angle_alpha   86.73882831
_cell_angle_beta   86.73882673
_cell_angle_gamma   101.83404814
_symmetry_Int_Tables_number   1
_chemical_formula_structural   Pr6CoCl11
_chemical_formula_sum   'Pr6 Co1 Cl11'
_cell_volume   500.67604849
_cell_formula_units_Z   1
loop_
 _symmetry_equiv_pos_site_id
 _symmetry_equiv_pos_as_xyz
  1  'x, y, z'
loop_
 _atom_site_type_symbol
 _atom_site_label
 _atom_site_symmetry_multiplicity
 _atom_site_fract_x
 _atom_site_fract_y
 _atom_site_fract_z
 _atom_site_occupancy
  Pr  Pr0  1  0.708534  0.015811  0.772966  1
  Pr  Pr1  1  0.182683  0.182683  0.771660  1
  Pr  Pr2  1  0.984189  0.291466  0.227034  1
  Pr  Pr3  1  0.015811  0.708534  0.772966  1
  Pr  Pr4  1  0.817317  0.817317  0.228340  1
  Pr  Pr5  1  0.291466  0.984189  0.227034  1
  Co  Co6  1  0.000000  0.000000  0.000000  1
  Cl  Cl7  1  0.000000  0.000000  0.500000  1
  Cl  Cl8  1  0.663776  0.093696  0.361588  1
  Cl  Cl9  1  0.487923  0.201334  0.940681  1
  Cl  Cl10  1  0.302756  0.302756  0.364922  1
  Cl  Cl11  1  0.906304  0.336224  0.638412  1
  Cl  Cl12  1  0.201334  0.487923  0.940681  1
  Cl  Cl13  1  0.798666  0.512077  0.059319  1
  Cl  Cl14  1  0.093696  0.663776  0.361588  1
  Cl  Cl15  1  0.697244  0.697244  0.635078  1
  Cl  Cl16  1  0.512077  0.798666  0.059319  1
  Cl  Cl17  1  0.336224  0.906304  0.638412  1
