# generated using pymatgen
data_LiNi5P3
_symmetry_space_group_name_H-M   'P 1'
_cell_length_a   3.57775200
_cell_length_b   10.23108500
_cell_length_c   11.67193600
_cell_angle_alpha   90.00000000
_cell_angle_beta   90.00000000
_cell_angle_gamma   90.00000000
_symmetry_Int_Tables_number   1
_chemical_formula_structural   LiNi5P3
_chemical_formula_sum   'Li4 Ni20 P12'
_cell_volume   427.24286976
_cell_formula_units_Z   4
loop_
 _symmetry_equiv_pos_site_id
 _symmetry_equiv_pos_as_xyz
  1  'x, y, z'
loop_
 _atom_site_type_symbol
 _atom_site_label
 _atom_site_symmetry_multiplicity
 _atom_site_fract_x
 _atom_site_fract_y
 _atom_site_fract_z
 _atom_site_occupancy
  Li  Li0  1  0.250000  0.581284  0.702358  1
  Li  Li1  1  0.250000  0.918716  0.202358  1
  Li  Li2  1  0.750000  0.418716  0.297642  1
  Li  Li3  1  0.750000  0.081284  0.797642  1
  Ni  Ni4  1  0.250000  0.713210  0.990437  1
  Ni  Ni5  1  0.250000  0.786790  0.490437  1
  Ni  Ni6  1  0.750000  0.286790  0.009563  1
  Ni  Ni7  1  0.750000  0.213210  0.509563  1
  Ni  Ni8  1  0.250000  0.407140  0.484613  1
  Ni  Ni9  1  0.250000  0.092860  0.984613  1
  Ni  Ni10  1  0.750000  0.592860  0.515387  1
  Ni  Ni11  1  0.750000  0.907140  0.015387  1
  Ni  Ni12  1  0.250000  0.218049  0.176533  1
  Ni  Ni13  1  0.250000  0.281951  0.676533  1
  Ni  Ni14  1  0.750000  0.781951  0.823467  1
  Ni  Ni15  1  0.750000  0.718049  0.323467  1
  Ni  Ni16  1  0.250000  0.883571  0.699467  1
  Ni  Ni17  1  0.250000  0.616429  0.199467  1
  Ni  Ni18  1  0.750000  0.116429  0.300533  1
  Ni  Ni19  1  0.750000  0.383571  0.800533  1
  Ni  Ni20  1  0.250000  0.467675  0.931150  1
  Ni  Ni21  1  0.250000  0.032325  0.431150  1
  Ni  Ni22  1  0.750000  0.532325  0.068850  1
  Ni  Ni23  1  0.750000  0.967675  0.568850  1
  P  P24  1  0.250000  0.416020  0.119670  1
  P  P25  1  0.250000  0.083980  0.619670  1
  P  P26  1  0.750000  0.583980  0.880330  1
  P  P27  1  0.750000  0.916020  0.380330  1
  P  P28  1  0.250000  0.260864  0.866430  1
  P  P29  1  0.250000  0.239136  0.366430  1
  P  P30  1  0.750000  0.739136  0.133570  1
  P  P31  1  0.750000  0.760864  0.633570  1
  P  P32  1  0.250000  0.594511  0.389123  1
  P  P33  1  0.250000  0.905489  0.889123  1
  P  P34  1  0.750000  0.405489  0.610877  1
  P  P35  1  0.750000  0.094511  0.110877  1
