# generated using pymatgen
data_Tb3In3HgPtRh
_symmetry_space_group_name_H-M   'P 1'
_cell_length_a   7.89674100
_cell_length_b   7.89674011
_cell_length_c   3.82061800
_cell_angle_alpha   90.00000000
_cell_angle_beta   90.00000000
_cell_angle_gamma   120.00000791
_symmetry_Int_Tables_number   1
_chemical_formula_structural   Tb3In3HgPtRh
_chemical_formula_sum   'Tb3 In3 Hg1 Pt1 Rh1'
_cell_volume   206.32884828
_cell_formula_units_Z   1
loop_
 _symmetry_equiv_pos_site_id
 _symmetry_equiv_pos_as_xyz
  1  'x, y, z'
loop_
 _atom_site_type_symbol
 _atom_site_label
 _atom_site_symmetry_multiplicity
 _atom_site_fract_x
 _atom_site_fract_y
 _atom_site_fract_z
 _atom_site_occupancy
  Tb  Tb0  1  0.976239  0.586717  0.500000  1
  Tb  Tb1  1  0.413283  0.389522  0.500000  1
  Tb  Tb2  1  0.610478  0.023761  0.500000  1
  In  In3  1  0.745171  0.746029  0.000000  1
  In  In4  1  0.000859  0.254829  0.000000  1
  In  In5  1  0.253971  0.999141  0.000000  1
  Hg  Hg6  1  0.333333  0.666667  0.000000  1
  Pt  Pt7  1  0.666667  0.333333  0.000000  1
  Rh  Rh8  1  0.000000  0.000000  0.500000  1
