# generated using pymatgen
data_PrHgRh4Pb5
_symmetry_space_group_name_H-M   'P 1'
_cell_length_a   7.10158319
_cell_length_b   7.31068978
_cell_length_c   7.16241443
_cell_angle_alpha   120.85805690
_cell_angle_beta   119.89360044
_cell_angle_gamma   89.70389195
_symmetry_Int_Tables_number   1
_chemical_formula_structural   PrHgRh4Pb5
_chemical_formula_sum   'Pr1 Hg1 Rh4 Pb5'
_cell_volume   260.60134283
_cell_formula_units_Z   1
loop_
 _symmetry_equiv_pos_site_id
 _symmetry_equiv_pos_as_xyz
  1  'x, y, z'
loop_
 _atom_site_type_symbol
 _atom_site_label
 _atom_site_symmetry_multiplicity
 _atom_site_fract_x
 _atom_site_fract_y
 _atom_site_fract_z
 _atom_site_occupancy
  Pr  Pr0  1  0.015949  0.996857  0.000000  1
  Hg  Hg1  1  0.463626  0.115516  0.000000  1
  Rh  Rh2  1  0.750823  0.404379  0.000000  1
  Rh  Rh3  1  0.386654  0.745226  0.000000  1
  Rh  Rh4  1  0.607393  0.613593  0.363429  1
  Rh  Rh5  1  0.243964  0.250164  0.636571  1
  Pb  Pb6  1  0.125249  0.457365  0.000000  1
  Pb  Pb7  1  0.874904  0.879489  0.337536  1
  Pb  Pb8  1  0.502256  0.002950  0.510444  1
  Pb  Pb9  1  0.991812  0.492506  0.489556  1
  Pb  Pb10  1  0.537367  0.541952  0.662463  1
