# generated using pymatgen
data_Zr8Nb12Si15Au
_symmetry_space_group_name_H-M   'P 1'
_cell_length_a   6.91748162
_cell_length_b   6.94933091
_cell_length_c   12.82742335
_cell_angle_alpha   89.79943074
_cell_angle_beta   89.89665918
_cell_angle_gamma   89.92999022
_symmetry_Int_Tables_number   1
_chemical_formula_structural   Zr8Nb12Si15Au
_chemical_formula_sum   'Zr8 Nb12 Si15 Au1'
_cell_volume   616.63297554
_cell_formula_units_Z   1
loop_
 _symmetry_equiv_pos_site_id
 _symmetry_equiv_pos_as_xyz
  1  'x, y, z'
loop_
 _atom_site_type_symbol
 _atom_site_label
 _atom_site_symmetry_multiplicity
 _atom_site_fract_x
 _atom_site_fract_y
 _atom_site_fract_z
 _atom_site_occupancy
  Zr  Zr0  1  0.997008  0.349237  0.219161  1
  Zr  Zr1  1  0.998807  0.660376  0.719211  1
  Zr  Zr2  1  0.159439  0.500862  0.468729  1
  Zr  Zr3  1  0.503491  0.831657  0.026782  1
  Zr  Zr4  1  0.841182  0.497775  0.965645  1
  Zr  Zr5  1  0.501863  0.159780  0.533120  1
  Zr  Zr6  1  0.339751  0.000010  0.781248  1
  Zr  Zr7  1  0.670316  0.995820  0.284062  1
  Nb  Nb8  1  0.164851  0.172746  0.996310  1
  Nb  Nb9  1  0.830979  0.830392  0.500627  1
  Nb  Nb10  1  0.329811  0.660537  0.253100  1
  Nb  Nb11  1  0.668644  0.330394  0.750216  1
  Nb  Nb12  1  0.153007  0.994303  0.383604  1
  Nb  Nb13  1  0.845379  0.004001  0.875826  1
  Nb  Nb14  1  0.505520  0.653331  0.627157  1
  Nb  Nb15  1  0.346086  0.495003  0.872862  1
  Nb  Nb16  1  0.499522  0.360325  0.122653  1
  Nb  Nb17  1  0.652068  0.503583  0.374436  1
  Nb  Nb18  1  0.996098  0.153375  0.623634  1
  Nb  Nb19  1  0.994085  0.839365  0.118595  1
  Si  Si20  1  0.702066  0.956333  0.686690  1
  Si  Si21  1  0.456602  0.798608  0.437045  1
  Si  Si22  1  0.200319  0.544513  0.063144  1
  Si  Si23  1  0.542129  0.199513  0.937804  1
  Si  Si24  1  0.798926  0.456217  0.563771  1
  Si  Si25  1  0.043057  0.298188  0.811871  1
  Si  Si26  1  0.957246  0.706328  0.313029  1
  Si  Si27  1  0.364323  0.291507  0.323067  1
  Si  Si28  1  0.633879  0.707684  0.821560  1
  Si  Si29  1  0.209113  0.864969  0.574202  1
  Si  Si30  1  0.134636  0.791954  0.926595  1
  Si  Si31  1  0.791812  0.136171  0.074234  1
  Si  Si32  1  0.866686  0.209893  0.428235  1
  Si  Si33  1  0.291518  0.365899  0.676633  1
  Si  Si34  1  0.705506  0.638268  0.179420  1
  Au  Au35  1  0.304274  0.041085  0.185723  1
