# generated using pymatgen
data_Nd8Tm12Sn15As
_symmetry_space_group_name_H-M   'P 1'
_cell_length_a   8.23592286
_cell_length_b   8.23562486
_cell_length_c   14.96710100
_cell_angle_alpha   89.74261555
_cell_angle_beta   90.05548060
_cell_angle_gamma   90.22921371
_symmetry_Int_Tables_number   1
_chemical_formula_structural   Nd8Tm12Sn15As
_chemical_formula_sum   'Nd8 Tm12 Sn15 As1'
_cell_volume   1015.16926790
_cell_formula_units_Z   1
loop_
 _symmetry_equiv_pos_site_id
 _symmetry_equiv_pos_as_xyz
  1  'x, y, z'
loop_
 _atom_site_type_symbol
 _atom_site_label
 _atom_site_symmetry_multiplicity
 _atom_site_fract_x
 _atom_site_fract_y
 _atom_site_fract_z
 _atom_site_occupancy
  Nd  Nd0  1  0.654699  0.008173  0.468584  1
  Nd  Nd1  1  0.339015  0.994981  0.966035  1
  Nd  Nd2  1  0.004171  0.658516  0.530513  1
  Nd  Nd3  1  0.505140  0.845182  0.216863  1
  Nd  Nd4  1  0.486255  0.156393  0.720079  1
  Nd  Nd5  1  0.849418  0.506415  0.782280  1
  Nd  Nd6  1  0.154157  0.493028  0.282246  1
  Nd  Nd7  1  0.991927  0.341273  0.030104  1
  Tm  Tm8  1  0.498911  0.333298  0.118667  1
  Tm  Tm9  1  0.007318  0.172669  0.637628  1
  Tm  Tm10  1  0.843730  0.003907  0.870537  1
  Tm  Tm11  1  0.166925  0.000191  0.370001  1
  Tm  Tm12  1  0.503708  0.670102  0.619013  1
  Tm  Tm13  1  0.324445  0.484743  0.876182  1
  Tm  Tm14  1  0.667492  0.499095  0.380201  1
  Tm  Tm15  1  0.998757  0.834396  0.130065  1
  Tm  Tm16  1  0.332877  0.333313  0.500355  1
  Tm  Tm17  1  0.170975  0.832719  0.751208  1
  Tm  Tm18  1  0.831418  0.168343  0.249943  1
  Tm  Tm19  1  0.666139  0.667668  0.999696  1
  Sn  Sn20  1  0.289440  0.969090  0.568245  1
  Sn  Sn21  1  0.706924  0.032450  0.066435  1
  Sn  Sn22  1  0.967706  0.290502  0.433991  1
  Sn  Sn23  1  0.467540  0.208742  0.317609  1
  Sn  Sn24  1  0.534233  0.790141  0.818955  1
  Sn  Sn25  1  0.210676  0.477632  0.678105  1
  Sn  Sn26  1  0.791657  0.531687  0.181225  1
  Sn  Sn27  1  0.033346  0.706504  0.933075  1
  Sn  Sn28  1  0.804075  0.871562  0.673336  1
  Sn  Sn29  1  0.198043  0.132058  0.170320  1
  Sn  Sn30  1  0.866727  0.802521  0.328649  1
  Sn  Sn31  1  0.370036  0.698792  0.419608  1
  Sn  Sn32  1  0.630992  0.300460  0.919817  1
  Sn  Sn33  1  0.700042  0.367165  0.581060  1
  Sn  Sn34  1  0.299251  0.631460  0.076148  1
  As  As35  1  0.131839  0.184833  0.833225  1
