# generated using pymatgen
data_LiTh4(Ga2Pd)10
_symmetry_space_group_name_H-M   'P 1'
_cell_length_a   4.40181144
_cell_length_b   11.03058000
_cell_length_c   13.54287500
_cell_angle_alpha   80.07557395
_cell_angle_beta   80.55066689
_cell_angle_gamma   78.28008362
_symmetry_Int_Tables_number   1
_chemical_formula_structural   LiTh4(Ga2Pd)10
_chemical_formula_sum   'Li1 Th4 Ga20 Pd10'
_cell_volume   628.51136391
_cell_formula_units_Z   1
loop_
 _symmetry_equiv_pos_site_id
 _symmetry_equiv_pos_as_xyz
  1  'x, y, z'
loop_
 _atom_site_type_symbol
 _atom_site_label
 _atom_site_symmetry_multiplicity
 _atom_site_fract_x
 _atom_site_fract_y
 _atom_site_fract_z
 _atom_site_occupancy
  Li  Li0  1  0.500000  0.500000  0.500000  1
  Th  Th1  1  0.879893  0.906973  0.334668  1
  Th  Th2  1  0.120107  0.093027  0.665332  1
  Th  Th3  1  0.229037  0.368482  0.178301  1
  Th  Th4  1  0.770963  0.631518  0.821699  1
  Ga  Ga5  1  0.991629  0.922751  0.087085  1
  Ga  Ga6  1  0.008371  0.077249  0.912915  1
  Ga  Ga7  1  0.937755  0.328407  0.803496  1
  Ga  Ga8  1  0.062245  0.671593  0.196504  1
  Ga  Ga9  1  0.885926  0.669443  0.547622  1
  Ga  Ga10  1  0.114074  0.330557  0.452378  1
  Ga  Ga11  1  0.806810  0.390959  0.004917  1
  Ga  Ga12  1  0.193190  0.609041  0.995083  1
  Ga  Ga13  1  0.745588  0.214161  0.302531  1
  Ga  Ga14  1  0.254412  0.785839  0.697469  1
  Ga  Ga15  1  0.699150  0.107302  0.500388  1
  Ga  Ga16  1  0.300850  0.892698  0.499612  1
  Ga  Ga17  1  0.613719  0.476935  0.303806  1
  Ga  Ga18  1  0.386281  0.523065  0.696194  1
  Ga  Ga19  1  0.606561  0.799098  0.996738  1
  Ga  Ga20  1  0.393439  0.200902  0.003262  1
  Ga  Ga21  1  0.463912  0.705701  0.371931  1
  Ga  Ga22  1  0.536088  0.294299  0.628069  1
  Ga  Ga23  1  0.366603  0.061467  0.198253  1
  Ga  Ga24  1  0.633397  0.938533  0.801747  1
  Pd  Pd25  1  0.970111  0.434176  0.617025  1
  Pd  Pd26  1  0.029889  0.565824  0.382975  1
  Pd  Pd27  1  0.857078  0.160249  0.114143  1
  Pd  Pd28  1  0.142922  0.839751  0.885857  1
  Pd  Pd29  1  0.751787  0.878962  0.610178  1
  Pd  Pd30  1  0.248213  0.121038  0.389822  1
  Pd  Pd31  1  0.650971  0.579672  0.108623  1
  Pd  Pd32  1  0.349029  0.420328  0.891377  1
  Pd  Pd33  1  0.492963  0.824881  0.183475  1
  Pd  Pd34  1  0.507037  0.175119  0.816525  1
