# generated using pymatgen
data_Tb17YSc2(Cd3Ru)2
_symmetry_space_group_name_H-M   'P 1'
_cell_length_a   9.57447501
_cell_length_b   9.57511180
_cell_length_c   9.82737300
_cell_angle_alpha   90.00000000
_cell_angle_beta   90.00000000
_cell_angle_gamma   120.00220290
_symmetry_Int_Tables_number   1
_chemical_formula_structural   Tb17YSc2(Cd3Ru)2
_chemical_formula_sum   'Tb17 Y1 Sc2 Cd6 Ru2'
_cell_volume   780.22031506
_cell_formula_units_Z   1
loop_
 _symmetry_equiv_pos_site_id
 _symmetry_equiv_pos_as_xyz
  1  'x, y, z'
loop_
 _atom_site_type_symbol
 _atom_site_label
 _atom_site_symmetry_multiplicity
 _atom_site_fract_x
 _atom_site_fract_y
 _atom_site_fract_z
 _atom_site_occupancy
  Tb  Tb0  1  0.208399  0.791672  0.440727  1
  Tb  Tb1  1  0.208399  0.416727  0.440727  1
  Tb  Tb2  1  0.583178  0.791589  0.440772  1
  Tb  Tb3  1  0.791586  0.208360  0.559268  1
  Tb  Tb4  1  0.791586  0.583226  0.559268  1
  Tb  Tb5  1  0.416766  0.208383  0.559299  1
  Tb  Tb6  1  0.791586  0.208360  0.940732  1
  Tb  Tb7  1  0.791586  0.583226  0.940732  1
  Tb  Tb8  1  0.416766  0.208383  0.940701  1
  Tb  Tb9  1  0.208399  0.791672  0.059273  1
  Tb  Tb10  1  0.208399  0.416727  0.059273  1
  Tb  Tb11  1  0.583178  0.791589  0.059228  1
  Tb  Tb12  1  0.541012  0.458982  0.250000  1
  Tb  Tb13  1  0.541012  0.082030  0.250000  1
  Tb  Tb14  1  0.917975  0.458988  0.250000  1
  Tb  Tb15  1  0.458986  0.540933  0.750000  1
  Tb  Tb16  1  0.458986  0.918053  0.750000  1
  Y  Y17  1  0.082151  0.541075  0.750000  1
  Sc  Sc18  1  0.000000  0.000000  0.500034  1
  Sc  Sc19  1  0.000000  0.000000  0.999966  1
  Cd  Cd20  1  0.889398  0.110667  0.250000  1
  Cd  Cd21  1  0.889398  0.778734  0.250000  1
  Cd  Cd22  1  0.221265  0.110633  0.250000  1
  Cd  Cd23  1  0.110649  0.889263  0.750000  1
  Cd  Cd24  1  0.110649  0.221384  0.750000  1
  Cd  Cd25  1  0.778695  0.889346  0.750000  1
  Ru  Ru26  1  0.333404  0.666702  0.250000  1
  Ru  Ru27  1  0.666595  0.333297  0.750000  1
