# generated using pymatgen
data_Er8B24Ir3W
_symmetry_space_group_name_H-M   'P 1'
_cell_length_a   3.63255200
_cell_length_b   9.15559652
_cell_length_c   11.50712938
_cell_angle_alpha   89.79058833
_cell_angle_beta   90.00000000
_cell_angle_gamma   90.00000000
_symmetry_Int_Tables_number   1
_chemical_formula_structural   Er8B24Ir3W
_chemical_formula_sum   'Er8 B24 Ir3 W1'
_cell_volume   382.70362912
_cell_formula_units_Z   1
loop_
 _symmetry_equiv_pos_site_id
 _symmetry_equiv_pos_as_xyz
  1  'x, y, z'
loop_
 _atom_site_type_symbol
 _atom_site_label
 _atom_site_symmetry_multiplicity
 _atom_site_fract_x
 _atom_site_fract_y
 _atom_site_fract_z
 _atom_site_occupancy
  Er  Er0  1  0.000000  0.322928  0.412426  1
  Er  Er1  1  0.000000  0.679575  0.582941  1
  Er  Er2  1  0.000000  0.816903  0.090583  1
  Er  Er3  1  0.000000  0.179068  0.914797  1
  Er  Er4  1  0.000000  0.944371  0.375328  1
  Er  Er5  1  0.000000  0.056879  0.626572  1
  Er  Er6  1  0.000000  0.445438  0.124994  1
  Er  Er7  1  0.000000  0.556307  0.872418  1
  B  B8  1  0.500000  0.551041  0.435892  1
  B  B9  1  0.500000  0.446441  0.567087  1
  B  B10  1  0.500000  0.052204  0.066132  1
  B  B11  1  0.500000  0.946363  0.934412  1
  B  B12  1  0.500000  0.750286  0.422243  1
  B  B13  1  0.500000  0.251157  0.579311  1
  B  B14  1  0.500000  0.249061  0.078590  1
  B  B15  1  0.500000  0.749922  0.920650  1
  B  B16  1  0.500000  0.794793  0.264439  1
  B  B17  1  0.500000  0.207033  0.735625  1
  B  B18  1  0.500000  0.291631  0.233214  1
  B  B19  1  0.500000  0.708486  0.764467  1
  B  B20  1  0.500000  0.631321  0.183129  1
  B  B21  1  0.500000  0.367673  0.816120  1
  B  B22  1  0.500000  0.132323  0.315721  1
  B  B23  1  0.500000  0.869076  0.684120  1
  B  B24  1  0.500000  0.981847  0.213098  1
  B  B25  1  0.500000  0.018717  0.787971  1
  B  B26  1  0.500000  0.479054  0.285993  1
  B  B27  1  0.500000  0.518258  0.712933  1
  B  B28  1  0.500000  0.608772  0.027698  1
  B  B29  1  0.500000  0.390030  0.968710  1
  B  B30  1  0.500000  0.110607  0.470639  1
  B  B31  1  0.500000  0.893371  0.531564  1
  Ir  Ir32  1  0.000000  0.361429  0.679354  1
  Ir  Ir33  1  0.000000  0.137397  0.177716  1
  Ir  Ir34  1  0.000000  0.863051  0.822047  1
  W  W35  1  0.000000  0.637184  0.321070  1
