# generated using pymatgen
data_AlCdAgF6
_symmetry_space_group_name_H-M   'P 1'
_cell_length_a   3.69907000
_cell_length_b   10.23101300
_cell_length_c   13.19663400
_cell_angle_alpha   90.00000000
_cell_angle_beta   90.00000000
_cell_angle_gamma   90.00000000
_symmetry_Int_Tables_number   1
_chemical_formula_structural   AlCdAgF6
_chemical_formula_sum   'Al4 Cd4 Ag4 F24'
_cell_volume   499.42969195
_cell_formula_units_Z   4
loop_
 _symmetry_equiv_pos_site_id
 _symmetry_equiv_pos_as_xyz
  1  'x, y, z'
loop_
 _atom_site_type_symbol
 _atom_site_label
 _atom_site_symmetry_multiplicity
 _atom_site_fract_x
 _atom_site_fract_y
 _atom_site_fract_z
 _atom_site_occupancy
  Al  Al0  1  0.250000  0.818648  0.825766  1
  Al  Al1  1  0.750000  0.181352  0.174234  1
  Al  Al2  1  0.250000  0.681352  0.325766  1
  Al  Al3  1  0.750000  0.318648  0.674234  1
  Cd  Cd4  1  0.750000  0.996751  0.381262  1
  Cd  Cd5  1  0.750000  0.503249  0.881262  1
  Cd  Cd6  1  0.250000  0.003249  0.618738  1
  Cd  Cd7  1  0.250000  0.496751  0.118738  1
  Ag  Ag8  1  0.250000  0.163733  0.918900  1
  Ag  Ag9  1  0.250000  0.336267  0.418900  1
  Ag  Ag10  1  0.750000  0.836267  0.081100  1
  Ag  Ag11  1  0.750000  0.663733  0.581100  1
  F  F12  1  0.750000  0.141642  0.648956  1
  F  F13  1  0.250000  0.090388  0.458169  1
  F  F14  1  0.750000  0.358358  0.148956  1
  F  F15  1  0.750000  0.141119  0.042134  1
  F  F16  1  0.750000  0.008059  0.208618  1
  F  F17  1  0.750000  0.288529  0.811337  1
  F  F18  1  0.250000  0.858358  0.351044  1
  F  F19  1  0.750000  0.909612  0.541831  1
  F  F20  1  0.250000  0.641642  0.851044  1
  F  F21  1  0.750000  0.812313  0.824942  1
  F  F22  1  0.750000  0.358881  0.542134  1
  F  F23  1  0.750000  0.687687  0.324942  1
  F  F24  1  0.250000  0.187687  0.175058  1
  F  F25  1  0.250000  0.788529  0.688663  1
  F  F26  1  0.250000  0.641119  0.457866  1
  F  F27  1  0.750000  0.590388  0.041831  1
  F  F28  1  0.250000  0.409612  0.958169  1
  F  F29  1  0.250000  0.991941  0.791382  1
  F  F30  1  0.250000  0.711471  0.188663  1
  F  F31  1  0.750000  0.491941  0.708618  1
  F  F32  1  0.250000  0.312313  0.675058  1
  F  F33  1  0.250000  0.508059  0.291382  1
  F  F34  1  0.250000  0.858881  0.957866  1
  F  F35  1  0.750000  0.211471  0.311337  1
