# generated using pymatgen
data_Sc8Si16Mo11W
_symmetry_space_group_name_H-M   'P 1'
_cell_length_a   6.57853900
_cell_length_b   6.79895062
_cell_length_c   12.67838800
_cell_angle_alpha   90.00000000
_cell_angle_beta   90.00000000
_cell_angle_gamma   90.06839559
_symmetry_Int_Tables_number   1
_chemical_formula_structural   Sc8Si16Mo11W
_chemical_formula_sum   'Sc8 Si16 Mo11 W1'
_cell_volume   567.06790797
_cell_formula_units_Z   1
loop_
 _symmetry_equiv_pos_site_id
 _symmetry_equiv_pos_as_xyz
  1  'x, y, z'
loop_
 _atom_site_type_symbol
 _atom_site_label
 _atom_site_symmetry_multiplicity
 _atom_site_fract_x
 _atom_site_fract_y
 _atom_site_fract_z
 _atom_site_occupancy
  Sc  Sc0  1  0.994782  0.170067  0.092750  1
  Sc  Sc1  1  0.005674  0.829329  0.906888  1
  Sc  Sc2  1  0.504526  0.669557  0.906702  1
  Sc  Sc3  1  0.005674  0.829329  0.593112  1
  Sc  Sc4  1  0.494610  0.329888  0.092949  1
  Sc  Sc5  1  0.994782  0.170067  0.407250  1
  Sc  Sc6  1  0.494610  0.329888  0.407051  1
  Sc  Sc7  1  0.504526  0.669557  0.593298  1
  Si  Si8  1  0.033440  0.121850  0.750000  1
  Si  Si9  1  0.966086  0.877369  0.250000  1
  Si  Si10  1  0.466423  0.622585  0.250000  1
  Si  Si11  1  0.534748  0.377193  0.750000  1
  Si  Si12  1  0.301201  0.860125  0.750000  1
  Si  Si13  1  0.699010  0.140202  0.250000  1
  Si  Si14  1  0.198733  0.359841  0.250000  1
  Si  Si15  1  0.800316  0.641015  0.750000  1
  Si  Si16  1  0.166249  0.463140  0.544641  1
  Si  Si17  1  0.833904  0.537107  0.454946  1
  Si  Si18  1  0.334079  0.963003  0.454977  1
  Si  Si19  1  0.833904  0.537107  0.045054  1
  Si  Si20  1  0.666139  0.036939  0.545328  1
  Si  Si21  1  0.166249  0.463140  0.955359  1
  Si  Si22  1  0.666139  0.036939  0.954672  1
  Si  Si23  1  0.334079  0.963003  0.045023  1
  Mo  Mo24  1  0.833492  0.494481  0.250000  1
  Mo  Mo25  1  0.333480  0.005448  0.250000  1
  Mo  Mo26  1  0.666434  0.994767  0.750000  1
  Mo  Mo27  1  0.329946  0.165512  0.624234  1
  Mo  Mo28  1  0.669723  0.834994  0.375936  1
  Mo  Mo29  1  0.169845  0.665083  0.375674  1
  Mo  Mo30  1  0.669723  0.834994  0.124064  1
  Mo  Mo31  1  0.830932  0.335711  0.624306  1
  Mo  Mo32  1  0.329946  0.165512  0.875766  1
  Mo  Mo33  1  0.830932  0.335711  0.875694  1
  Mo  Mo34  1  0.169845  0.665083  0.124326  1
  W  W35  1  0.165820  0.504463  0.750000  1
