# generated using pymatgen
data_Pa(Al5Os)2
_symmetry_space_group_name_H-M   'P 1'
_cell_length_a   6.85212631
_cell_length_b   6.85213048
_cell_length_c   9.14314700
_cell_angle_alpha   90.00000000
_cell_angle_beta   90.00000000
_cell_angle_gamma   97.56037676
_symmetry_Int_Tables_number   1
_chemical_formula_structural   Pa(Al5Os)2
_chemical_formula_sum   'Pa2 Al20 Os4'
_cell_volume   425.55407823
_cell_formula_units_Z   2
loop_
 _symmetry_equiv_pos_site_id
 _symmetry_equiv_pos_as_xyz
  1  'x, y, z'
loop_
 _atom_site_type_symbol
 _atom_site_label
 _atom_site_symmetry_multiplicity
 _atom_site_fract_x
 _atom_site_fract_y
 _atom_site_fract_z
 _atom_site_occupancy
  Pa  Pa0  1  0.873110  0.126889  0.750000  1
  Pa  Pa1  1  0.126890  0.873111  0.250000  1
  Al  Al2  1  0.516385  0.780864  0.750000  1
  Al  Al3  1  0.780865  0.516385  0.250000  1
  Al  Al4  1  0.483615  0.219136  0.250000  1
  Al  Al5  1  0.219135  0.483615  0.750000  1
  Al  Al6  1  0.623857  0.376143  0.954406  1
  Al  Al7  1  0.376143  0.623857  0.045594  1
  Al  Al8  1  0.623857  0.376143  0.545594  1
  Al  Al9  1  0.376143  0.623857  0.454406  1
  Al  Al10  1  0.409794  0.146698  0.750000  1
  Al  Al11  1  0.146698  0.409794  0.250000  1
  Al  Al12  1  0.590206  0.853302  0.250000  1
  Al  Al13  1  0.853302  0.590206  0.750000  1
  Al  Al14  1  0.846166  0.153834  0.396409  1
  Al  Al15  1  0.153834  0.846166  0.603591  1
  Al  Al16  1  0.846166  0.153834  0.103591  1
  Al  Al17  1  0.153834  0.846166  0.896409  1
  Al  Al18  1  0.780826  0.780826  0.000000  1
  Al  Al19  1  0.780826  0.780826  0.500000  1
  Al  Al20  1  0.219174  0.219174  0.000000  1
  Al  Al21  1  0.219174  0.219174  0.500000  1
  Os  Os22  1  0.500000  0.000000  0.000000  1
  Os  Os23  1  0.000000  0.500000  0.000000  1
  Os  Os24  1  0.500000  0.000000  0.500000  1
  Os  Os25  1  0.000000  0.500000  0.500000  1
