# generated using pymatgen
data_Y2Ho8Ag3Ru
_symmetry_space_group_name_H-M   'P 1'
_cell_length_a   9.47783892
_cell_length_b   9.48828042
_cell_length_c   9.60032700
_cell_angle_alpha   90.00000000
_cell_angle_beta   90.00000000
_cell_angle_gamma   120.03644528
_symmetry_Int_Tables_number   1
_chemical_formula_structural   Y2Ho8Ag3Ru
_chemical_formula_sum   'Y4 Ho16 Ag6 Ru2'
_cell_volume   747.40135672
_cell_formula_units_Z   2
loop_
 _symmetry_equiv_pos_site_id
 _symmetry_equiv_pos_as_xyz
  1  'x, y, z'
loop_
 _atom_site_type_symbol
 _atom_site_label
 _atom_site_symmetry_multiplicity
 _atom_site_fract_x
 _atom_site_fract_y
 _atom_site_fract_z
 _atom_site_occupancy
  Y  Y0  1  0.916262  0.458131  0.250000  1
  Y  Y1  1  0.458846  0.540929  0.750000  1
  Y  Y2  1  0.458846  0.917918  0.750000  1
  Y  Y3  1  0.081807  0.540904  0.750000  1
  Ho  Ho4  1  0.000042  0.000021  0.499945  1
  Ho  Ho5  1  0.000042  0.000021  0.000055  1
  Ho  Ho6  1  0.209303  0.791714  0.440754  1
  Ho  Ho7  1  0.209303  0.417589  0.440754  1
  Ho  Ho8  1  0.582608  0.791304  0.440236  1
  Ho  Ho9  1  0.790926  0.208253  0.558164  1
  Ho  Ho10  1  0.790926  0.582674  0.558164  1
  Ho  Ho11  1  0.417560  0.208780  0.557867  1
  Ho  Ho12  1  0.790926  0.208253  0.941836  1
  Ho  Ho13  1  0.790926  0.582674  0.941836  1
  Ho  Ho14  1  0.417560  0.208780  0.942133  1
  Ho  Ho15  1  0.209303  0.791714  0.059246  1
  Ho  Ho16  1  0.209303  0.417589  0.059246  1
  Ho  Ho17  1  0.582608  0.791304  0.059764  1
  Ho  Ho18  1  0.541004  0.458485  0.250000  1
  Ho  Ho19  1  0.541004  0.082518  0.250000  1
  Ag  Ag20  1  0.882666  0.115428  0.250000  1
  Ag  Ag21  1  0.882666  0.767240  0.250000  1
  Ag  Ag22  1  0.233933  0.116967  0.250000  1
  Ag  Ag23  1  0.115555  0.884743  0.750000  1
  Ag  Ag24  1  0.115555  0.230809  0.750000  1
  Ag  Ag25  1  0.769310  0.884654  0.750000  1
  Ru  Ru26  1  0.334135  0.667068  0.250000  1
  Ru  Ru27  1  0.667077  0.333538  0.750000  1
