# generated using pymatgen
data_Ba9SrAu8
_symmetry_space_group_name_H-M   'P 1'
_cell_length_a   8.71404724
_cell_length_b   8.85977409
_cell_length_c   17.02594000
_cell_angle_alpha   90.00000000
_cell_angle_beta   90.00000000
_cell_angle_gamma   89.86251240
_symmetry_Int_Tables_number   1
_chemical_formula_structural   Ba9SrAu8
_chemical_formula_sum   'Ba18 Sr2 Au16'
_cell_volume   1314.47522890
_cell_formula_units_Z   2
loop_
 _symmetry_equiv_pos_site_id
 _symmetry_equiv_pos_as_xyz
  1  'x, y, z'
loop_
 _atom_site_type_symbol
 _atom_site_label
 _atom_site_symmetry_multiplicity
 _atom_site_fract_x
 _atom_site_fract_y
 _atom_site_fract_z
 _atom_site_occupancy
  Ba  Ba0  1  0.026533  0.173650  0.397469  1
  Ba  Ba1  1  0.867691  0.662755  0.381931  1
  Ba  Ba2  1  0.528681  0.327769  0.102956  1
  Ba  Ba3  1  0.132309  0.337245  0.618069  1
  Ba  Ba4  1  0.367948  0.838693  0.382959  1
  Ba  Ba5  1  0.132309  0.337245  0.881931  1
  Ba  Ba6  1  0.367948  0.838693  0.117041  1
  Ba  Ba7  1  0.205351  0.491938  0.250000  1
  Ba  Ba8  1  0.528681  0.327769  0.397044  1
  Ba  Ba9  1  0.794649  0.508062  0.750000  1
  Ba  Ba10  1  0.973467  0.826350  0.897469  1
  Ba  Ba11  1  0.973467  0.826350  0.602531  1
  Ba  Ba12  1  0.471319  0.672231  0.602956  1
  Ba  Ba13  1  0.632052  0.161307  0.617041  1
  Ba  Ba14  1  0.632052  0.161307  0.882959  1
  Ba  Ba15  1  0.867691  0.662755  0.118069  1
  Ba  Ba16  1  0.471319  0.672231  0.897044  1
  Ba  Ba17  1  0.026533  0.173650  0.102531  1
  Sr  Sr18  1  0.294860  0.991971  0.750000  1
  Sr  Sr19  1  0.705140  0.008029  0.250000  1
  Au  Au20  1  0.814214  0.365574  0.250000  1
  Au  Au21  1  0.420370  0.383165  0.750000  1
  Au  Au22  1  0.673879  0.873834  0.750000  1
  Au  Au23  1  0.791844  0.479092  0.549636  1
  Au  Au24  1  0.707690  0.980394  0.052248  1
  Au  Au25  1  0.791844  0.479092  0.950364  1
  Au  Au26  1  0.208156  0.520908  0.450364  1
  Au  Au27  1  0.208156  0.520908  0.049636  1
  Au  Au28  1  0.185786  0.634426  0.750000  1
  Au  Au29  1  0.326121  0.126166  0.250000  1
  Au  Au30  1  0.579630  0.616835  0.250000  1
  Au  Au31  1  0.070946  0.892675  0.250000  1
  Au  Au32  1  0.292310  0.019606  0.947752  1
  Au  Au33  1  0.929054  0.107325  0.750000  1
  Au  Au34  1  0.707690  0.980394  0.447752  1
  Au  Au35  1  0.292310  0.019606  0.552248  1
