# generated using pymatgen
data_Tm4As6Ru4Rh3
_symmetry_space_group_name_H-M   'P 1'
_cell_length_a   7.19871276
_cell_length_b   7.19871133
_cell_length_c   7.19871225
_cell_angle_alpha   109.23997218
_cell_angle_beta   109.41708704
_cell_angle_gamma   109.75703202
_symmetry_Int_Tables_number   1
_chemical_formula_structural   Tm4As6Ru4Rh3
_chemical_formula_sum   'Tm4 As6 Ru4 Rh3'
_cell_volume   287.16623233
_cell_formula_units_Z   1
loop_
 _symmetry_equiv_pos_site_id
 _symmetry_equiv_pos_as_xyz
  1  'x, y, z'
loop_
 _atom_site_type_symbol
 _atom_site_label
 _atom_site_symmetry_multiplicity
 _atom_site_fract_x
 _atom_site_fract_y
 _atom_site_fract_z
 _atom_site_occupancy
  Tm  Tm0  1  0.000625  0.001300  0.500742  1
  Tm  Tm1  1  0.499442  0.998700  0.999324  1
  Tm  Tm2  1  0.000625  0.499883  0.999324  1
  Tm  Tm3  1  0.499442  0.500117  0.500742  1
  As  As4  1  0.316505  0.000000  0.316505  1
  As  As5  1  0.002474  0.317553  0.320027  1
  As  As6  1  0.002474  0.682447  0.684921  1
  As  As7  1  0.314148  0.315906  0.998242  1
  As  As8  1  0.682337  0.684094  0.998242  1
  As  As9  1  0.683512  0.000000  0.683512  1
  Ru  Ru10  1  0.749685  0.249778  0.499906  1
  Ru  Ru11  1  0.250128  0.750222  0.499906  1
  Ru  Ru12  1  0.251397  0.500000  0.751397  1
  Ru  Ru13  1  0.000777  0.000000  0.000777  1
  Rh  Rh14  1  0.749011  0.500000  0.249011  1
  Rh  Rh15  1  0.498711  0.749961  0.248672  1
  Rh  Rh16  1  0.498711  0.250039  0.748749  1
