# generated using pymatgen
data_HfZr6Tc12W5
_symmetry_space_group_name_H-M   'P 1'
_cell_length_a   4.53275300
_cell_length_b   6.44064600
_cell_length_c   13.71407600
_cell_angle_alpha   90.00000000
_cell_angle_beta   90.00012169
_cell_angle_gamma   90.00000000
_symmetry_Int_Tables_number   1
_chemical_formula_structural   HfZr6Tc12W5
_chemical_formula_sum   'Hf1 Zr6 Tc12 W5'
_cell_volume   400.36678019
_cell_formula_units_Z   1
loop_
 _symmetry_equiv_pos_site_id
 _symmetry_equiv_pos_as_xyz
  1  'x, y, z'
loop_
 _atom_site_type_symbol
 _atom_site_label
 _atom_site_symmetry_multiplicity
 _atom_site_fract_x
 _atom_site_fract_y
 _atom_site_fract_z
 _atom_site_occupancy
  Hf  Hf0  1  0.000000  0.500000  0.000000  1
  Zr  Zr1  1  0.000000  0.000000  0.000000  1
  Zr  Zr2  1  0.499982  0.500000  0.167638  1
  Zr  Zr3  1  0.999985  0.000000  0.333677  1
  Zr  Zr4  1  0.500000  0.500000  0.500000  1
  Zr  Zr5  1  0.000015  0.000000  0.666323  1
  Zr  Zr6  1  0.500018  0.500000  0.832362  1
  Tc  Tc7  1  0.500000  0.242927  0.000000  1
  Tc  Tc8  1  0.500000  0.757073  0.000000  1
  Tc  Tc9  1  0.999983  0.246763  0.171035  1
  Tc  Tc10  1  0.999983  0.753237  0.171035  1
  Tc  Tc11  1  0.499982  0.250084  0.334675  1
  Tc  Tc12  1  0.499982  0.749916  0.334675  1
  Tc  Tc13  1  0.000000  0.249754  0.500000  1
  Tc  Tc14  1  0.000000  0.750246  0.500000  1
  Tc  Tc15  1  0.500020  0.250084  0.665325  1
  Tc  Tc16  1  0.500020  0.749916  0.665325  1
  Tc  Tc17  1  0.000017  0.246763  0.828965  1
  Tc  Tc18  1  0.000017  0.753237  0.828965  1
  W  W19  1  0.499980  0.000000  0.166381  1
  W  W20  1  0.999984  0.500000  0.334180  1
  W  W21  1  0.500000  0.000000  0.500000  1
  W  W22  1  0.000016  0.500000  0.665821  1
  W  W23  1  0.500020  0.000000  0.833619  1
