# generated using pymatgen
data_Lu3ThScSb3
_symmetry_space_group_name_H-M   'P 1'
_cell_length_a   7.99870600
_cell_length_b   9.19970600
_cell_length_c   11.63904200
_cell_angle_alpha   90.00000000
_cell_angle_beta   90.00000000
_cell_angle_gamma   90.00000000
_symmetry_Int_Tables_number   1
_chemical_formula_structural   Lu3ThScSb3
_chemical_formula_sum   'Lu12 Th4 Sc4 Sb12'
_cell_volume   856.46756013
_cell_formula_units_Z   4
loop_
 _symmetry_equiv_pos_site_id
 _symmetry_equiv_pos_as_xyz
  1  'x, y, z'
loop_
 _atom_site_type_symbol
 _atom_site_label
 _atom_site_symmetry_multiplicity
 _atom_site_fract_x
 _atom_site_fract_y
 _atom_site_fract_z
 _atom_site_occupancy
  Lu  Lu0  1  0.195629  0.561557  0.439740  1
  Lu  Lu1  1  0.695629  0.938443  0.060260  1
  Lu  Lu2  1  0.804371  0.061557  0.560260  1
  Lu  Lu3  1  0.304371  0.438443  0.939740  1
  Lu  Lu4  1  0.804371  0.438443  0.560260  1
  Lu  Lu5  1  0.304371  0.061557  0.939740  1
  Lu  Lu6  1  0.195629  0.938443  0.439740  1
  Lu  Lu7  1  0.695629  0.561557  0.060260  1
  Lu  Lu8  1  0.853544  0.750000  0.282256  1
  Lu  Lu9  1  0.353544  0.750000  0.217744  1
  Lu  Lu10  1  0.146456  0.250000  0.717744  1
  Lu  Lu11  1  0.646456  0.250000  0.782256  1
  Th  Th12  1  0.182204  0.750000  0.723463  1
  Th  Th13  1  0.682204  0.750000  0.776537  1
  Th  Th14  1  0.817796  0.250000  0.276537  1
  Th  Th15  1  0.317796  0.250000  0.223463  1
  Sc  Sc16  1  0.024653  0.750000  0.986894  1
  Sc  Sc17  1  0.524653  0.750000  0.513106  1
  Sc  Sc18  1  0.975347  0.250000  0.013106  1
  Sc  Sc19  1  0.475347  0.250000  0.486894  1
  Sb  Sb20  1  0.933832  0.487940  0.833023  1
  Sb  Sb21  1  0.433832  0.012060  0.666977  1
  Sb  Sb22  1  0.066168  0.987940  0.166977  1
  Sb  Sb23  1  0.566168  0.512060  0.333023  1
  Sb  Sb24  1  0.066168  0.512060  0.166977  1
  Sb  Sb25  1  0.566168  0.987940  0.333023  1
  Sb  Sb26  1  0.933832  0.012060  0.833023  1
  Sb  Sb27  1  0.433832  0.487940  0.666977  1
  Sb  Sb28  1  0.903010  0.750000  0.534679  1
  Sb  Sb29  1  0.403010  0.750000  0.965321  1
  Sb  Sb30  1  0.096990  0.250000  0.465321  1
  Sb  Sb31  1  0.596990  0.250000  0.034679  1
