# generated using pymatgen
data_AlCoSi3Ni3Mo4
_symmetry_space_group_name_H-M   'P 1'
_cell_length_a   4.76022181
_cell_length_b   4.74731949
_cell_length_c   7.75094500
_cell_angle_alpha   90.00000000
_cell_angle_beta   90.00000000
_cell_angle_gamma   120.34631625
_symmetry_Int_Tables_number   1
_chemical_formula_structural   AlCoSi3Ni3Mo4
_chemical_formula_sum   'Al1 Co1 Si3 Ni3 Mo4'
_cell_volume   151.15926494
_cell_formula_units_Z   1
loop_
 _symmetry_equiv_pos_site_id
 _symmetry_equiv_pos_as_xyz
  1  'x, y, z'
loop_
 _atom_site_type_symbol
 _atom_site_label
 _atom_site_symmetry_multiplicity
 _atom_site_fract_x
 _atom_site_fract_y
 _atom_site_fract_z
 _atom_site_occupancy
  Al  Al0  1  0.826751  0.192670  0.000000  1
  Co  Co1  1  0.146060  0.316452  0.500000  1
  Si  Si2  1  0.631794  0.808181  0.500000  1
  Si  Si3  1  0.026936  0.999317  0.250072  1
  Si  Si4  1  0.026936  0.999317  0.749928  1
  Ni  Ni5  1  0.829756  0.683216  0.000000  1
  Ni  Ni6  1  0.334945  0.182616  0.000000  1
  Ni  Ni7  1  0.155101  0.818744  0.500000  1
  Mo  Mo8  1  0.668040  0.327415  0.682647  1
  Mo  Mo9  1  0.342746  0.672403  0.808518  1
  Mo  Mo10  1  0.342746  0.672403  0.191482  1
  Mo  Mo11  1  0.668040  0.327415  0.317353  1
