# generated using pymatgen
data_La2Y3Os2
_symmetry_space_group_name_H-M   'P 1'
_cell_length_a   6.56476984
_cell_length_b   7.36240024
_cell_length_c   8.77929080
_cell_angle_alpha   96.89751725
_cell_angle_beta   111.95499652
_cell_angle_gamma   89.99999884
_symmetry_Int_Tables_number   1
_chemical_formula_structural   La2Y3Os2
_chemical_formula_sum   'La4 Y6 Os4'
_cell_volume   390.23865996
_cell_formula_units_Z   2
loop_
 _symmetry_equiv_pos_site_id
 _symmetry_equiv_pos_as_xyz
  1  'x, y, z'
loop_
 _atom_site_type_symbol
 _atom_site_label
 _atom_site_symmetry_multiplicity
 _atom_site_fract_x
 _atom_site_fract_y
 _atom_site_fract_z
 _atom_site_occupancy
  La  La0  1  0.982537  0.910995  0.192271  1
  La  La1  1  0.790267  0.589005  0.807729  1
  La  La2  1  0.017463  0.089005  0.807729  1
  La  La3  1  0.209733  0.410995  0.192271  1
  Y  Y4  1  0.635896  0.816569  0.430488  1
  Y  Y5  1  0.205409  0.683431  0.569512  1
  Y  Y6  1  0.364104  0.183431  0.569512  1
  Y  Y7  1  0.794591  0.316569  0.430488  1
  Y  Y8  1  0.431090  0.750000  0.000000  1
  Y  Y9  1  0.568910  0.250000  0.000000  1
  Os  Os10  1  0.826548  0.578010  0.223870  1
  Os  Os11  1  0.602678  0.921990  0.776130  1
  Os  Os12  1  0.173452  0.421990  0.776130  1
  Os  Os13  1  0.397322  0.078010  0.223870  1
