# generated using pymatgen
data_Hf8Co2ReOs
_symmetry_space_group_name_H-M   'P 1'
_cell_length_a   8.60515931
_cell_length_b   8.60515952
_cell_length_c   8.61123600
_cell_angle_alpha   59.97664589
_cell_angle_beta   59.97664508
_cell_angle_gamma   59.91375349
_symmetry_Int_Tables_number   1
_chemical_formula_structural   Hf8Co2ReOs
_chemical_formula_sum   'Hf16 Co4 Re2 Os2'
_cell_volume   450.43409873
_cell_formula_units_Z   2
loop_
 _symmetry_equiv_pos_site_id
 _symmetry_equiv_pos_as_xyz
  1  'x, y, z'
loop_
 _atom_site_type_symbol
 _atom_site_label
 _atom_site_symmetry_multiplicity
 _atom_site_fract_x
 _atom_site_fract_y
 _atom_site_fract_z
 _atom_site_occupancy
  Hf  Hf0  1  0.696861  0.101387  0.100875  1
  Hf  Hf1  1  0.101387  0.696861  0.100875  1
  Hf  Hf2  1  0.100963  0.100963  0.697350  1
  Hf  Hf3  1  0.100963  0.100963  0.100722  1
  Hf  Hf4  1  0.314910  0.314910  0.685090  1
  Hf  Hf5  1  0.685705  0.685705  0.314295  1
  Hf  Hf6  1  0.314727  0.684681  0.314716  1
  Hf  Hf7  1  0.684681  0.314727  0.685876  1
  Hf  Hf8  1  0.684681  0.314727  0.314716  1
  Hf  Hf9  1  0.314727  0.684681  0.685876  1
  Hf  Hf10  1  0.954124  0.954124  0.545876  1
  Hf  Hf11  1  0.545832  0.545832  0.954168  1
  Hf  Hf12  1  0.954179  0.545924  0.953952  1
  Hf  Hf13  1  0.545924  0.954179  0.545944  1
  Hf  Hf14  1  0.545924  0.954179  0.953952  1
  Hf  Hf15  1  0.954179  0.545924  0.545944  1
  Co  Co16  1  0.329974  0.890220  0.889903  1
  Co  Co17  1  0.890220  0.329974  0.889903  1
  Co  Co18  1  0.890120  0.890120  0.329888  1
  Co  Co19  1  0.890120  0.890120  0.889870  1
  Re  Re20  1  0.332912  0.332912  0.001996  1
  Re  Re21  1  0.332912  0.332912  0.332179  1
  Os  Os22  1  0.000369  0.333601  0.333015  1
  Os  Os23  1  0.333601  0.000369  0.333015  1
