# generated using pymatgen
data_Rb4NaAs2Au
_symmetry_space_group_name_H-M   'P 1'
_cell_length_a   6.84711201
_cell_length_b   6.84711323
_cell_length_c   6.32259900
_cell_angle_alpha   92.14183302
_cell_angle_beta   92.14184375
_cell_angle_gamma   102.49401495
_symmetry_Int_Tables_number   1
_chemical_formula_structural   Rb4NaAs2Au
_chemical_formula_sum   'Rb4 Na1 As2 Au1'
_cell_volume   288.88613225
_cell_formula_units_Z   1
loop_
 _symmetry_equiv_pos_site_id
 _symmetry_equiv_pos_as_xyz
  1  'x, y, z'
loop_
 _atom_site_type_symbol
 _atom_site_label
 _atom_site_symmetry_multiplicity
 _atom_site_fract_x
 _atom_site_fract_y
 _atom_site_fract_z
 _atom_site_occupancy
  Rb  Rb0  1  0.029697  0.686481  0.259835  1
  Rb  Rb1  1  0.970303  0.313519  0.740165  1
  Rb  Rb2  1  0.686481  0.029697  0.259835  1
  Rb  Rb3  1  0.313519  0.970303  0.740165  1
  Na  Na4  1  0.500000  0.500000  0.000000  1
  As  As5  1  0.755634  0.755634  0.731273  1
  As  As6  1  0.244366  0.244366  0.268727  1
  Au  Au7  1  0.500000  0.500000  0.500000  1
