# generated using pymatgen
data_Cs2LiPS4
_symmetry_space_group_name_H-M   'P 1'
_cell_length_a   14.10227401
_cell_length_b   12.66425321
_cell_length_c   7.53265236
_cell_angle_alpha   84.51100035
_cell_angle_beta   63.36893048
_cell_angle_gamma   32.12006498
_symmetry_Int_Tables_number   1
_chemical_formula_structural   Cs2LiPS4
_chemical_formula_sum   'Cs4 Li2 P2 S8'
_cell_volume   512.72206246
_cell_formula_units_Z   2
loop_
 _symmetry_equiv_pos_site_id
 _symmetry_equiv_pos_as_xyz
  1  'x, y, z'
loop_
 _atom_site_type_symbol
 _atom_site_label
 _atom_site_symmetry_multiplicity
 _atom_site_fract_x
 _atom_site_fract_y
 _atom_site_fract_z
 _atom_site_occupancy
  Cs  Cs0  1  0.821984  0.821984  0.178016  1
  Cs  Cs1  1  0.428016  0.428016  0.071984  1
  Cs  Cs2  1  0.178016  0.178016  0.821984  1
  Cs  Cs3  1  0.071984  0.071984  0.428016  1
  Li  Li4  1  0.500000  0.500000  0.500000  1
  Li  Li5  1  0.750000  0.750000  0.750000  1
  P  P6  1  0.000000  0.000000  0.000000  1
  P  P7  1  0.250000  0.250000  0.250000  1
  S  S8  1  0.489459  0.914468  0.179913  1
  S  S9  1  0.914468  0.489459  0.416160  1
  S  S10  1  0.833840  0.070087  0.335532  1
  S  S11  1  0.070087  0.833840  0.760541  1
  S  S12  1  0.179913  0.416160  0.489459  1
  S  S13  1  0.416160  0.179913  0.914468  1
  S  S14  1  0.335532  0.760541  0.833840  1
  S  S15  1  0.760541  0.335532  0.070087  1
