# generated using pymatgen
data_TiBe3CoCu
_symmetry_space_group_name_H-M   'P 1'
_cell_length_a   4.39907997
_cell_length_b   4.39908099
_cell_length_c   4.40951717
_cell_angle_alpha   60.07826399
_cell_angle_beta   60.07825006
_cell_angle_gamma   60.00000754
_symmetry_Int_Tables_number   1
_chemical_formula_structural   TiBe3CoCu
_chemical_formula_sum   'Ti1 Be3 Co1 Cu1'
_cell_volume   60.41052021
_cell_formula_units_Z   1
loop_
 _symmetry_equiv_pos_site_id
 _symmetry_equiv_pos_as_xyz
  1  'x, y, z'
loop_
 _atom_site_type_symbol
 _atom_site_label
 _atom_site_symmetry_multiplicity
 _atom_site_fract_x
 _atom_site_fract_y
 _atom_site_fract_z
 _atom_site_occupancy
  Ti  Ti0  1  0.247578  0.247578  0.257267  1
  Be  Be1  1  0.624150  0.120190  0.631509  1
  Be  Be2  1  0.120190  0.624150  0.631509  1
  Be  Be3  1  0.624150  0.624150  0.631509  1
  Co  Co4  1  0.010832  0.010832  0.967503  1
  Cu  Cu5  1  0.623099  0.623099  0.130702  1
