# generated using pymatgen
data_Y4Al15Si3(OsPd)3
_symmetry_space_group_name_H-M   'P 1'
_cell_length_a   7.58522137
_cell_length_b   7.56537408
_cell_length_c   9.37880835
_cell_angle_alpha   90.13678535
_cell_angle_beta   89.99826524
_cell_angle_gamma   119.78920836
_symmetry_Int_Tables_number   1
_chemical_formula_structural   Y4Al15Si3(OsPd)3
_chemical_formula_sum   'Y4 Al15 Si3 Os3 Pd3'
_cell_volume   467.08282593
_cell_formula_units_Z   1
loop_
 _symmetry_equiv_pos_site_id
 _symmetry_equiv_pos_as_xyz
  1  'x, y, z'
loop_
 _atom_site_type_symbol
 _atom_site_label
 _atom_site_symmetry_multiplicity
 _atom_site_fract_x
 _atom_site_fract_y
 _atom_site_fract_z
 _atom_site_occupancy
  Y  Y0  1  0.994238  0.667447  0.246476  1
  Y  Y1  1  0.005804  0.325763  0.753979  1
  Y  Y2  1  0.678242  0.999118  0.247166  1
  Y  Y3  1  0.325604  0.005641  0.750989  1
  Al  Al4  1  0.995611  0.668085  0.921388  1
  Al  Al5  1  0.998006  0.669236  0.578822  1
  Al  Al6  1  0.330011  0.000882  0.421311  1
  Al  Al7  1  0.002212  0.332150  0.426835  1
  Al  Al8  1  0.667532  0.998607  0.577368  1
  Al  Al9  1  0.663897  0.998575  0.922514  1
  Al  Al10  1  0.336606  0.005344  0.076239  1
  Al  Al11  1  0.332543  0.332863  0.559579  1
  Al  Al12  1  0.668100  0.669063  0.440212  1
  Al  Al13  1  0.671915  0.665827  0.053739  1
  Al  Al14  1  0.339858  0.331457  0.947603  1
  Al  Al15  1  0.332870  0.542923  0.248709  1
  Al  Al16  1  0.663176  0.451369  0.754208  1
  Al  Al17  1  0.545439  0.338734  0.247326  1
  Al  Al18  1  0.453337  0.662393  0.749735  1
  Si  Si19  1  0.128032  0.125200  0.251348  1
  Si  Si20  1  0.874096  0.876367  0.750904  1
  Si  Si21  1  0.992173  0.328020  0.070483  1
  Os  Os22  1  0.679749  0.328914  0.002279  1
  Os  Os23  1  0.001012  0.008757  0.001739  1
  Os  Os24  1  0.999270  0.000641  0.500466  1
  Pd  Pd25  1  0.321376  0.665236  0.999903  1
  Pd  Pd26  1  0.327041  0.672928  0.499094  1
  Pd  Pd27  1  0.672250  0.328460  0.499585  1
