# generated using pymatgen
data_Y(HoCu6)2
_symmetry_space_group_name_H-M   'P 1'
_cell_length_a   5.01900065
_cell_length_b   5.01899977
_cell_length_c   10.51970498
_cell_angle_alpha   94.85838961
_cell_angle_beta   94.85839094
_cell_angle_gamma   119.88296390
_symmetry_Int_Tables_number   1
_chemical_formula_structural   Y(HoCu6)2
_chemical_formula_sum   'Y1 Ho2 Cu12'
_cell_volume   226.45438563
_cell_formula_units_Z   1
loop_
 _symmetry_equiv_pos_site_id
 _symmetry_equiv_pos_as_xyz
  1  'x, y, z'
loop_
 _atom_site_type_symbol
 _atom_site_label
 _atom_site_symmetry_multiplicity
 _atom_site_fract_x
 _atom_site_fract_y
 _atom_site_fract_z
 _atom_site_occupancy
  Y  Y0  1  0.000000  0.000000  0.000000  1
  Ho  Ho1  1  0.136413  0.136413  0.358047  1
  Ho  Ho2  1  0.863587  0.863587  0.641953  1
  Cu  Cu3  1  0.663019  0.336982  0.000000  1
  Cu  Cu4  1  0.336982  0.663019  0.000000  1
  Cu  Cu5  1  0.570867  0.069519  0.196506  1
  Cu  Cu6  1  0.069519  0.570867  0.196506  1
  Cu  Cu7  1  0.572713  0.572713  0.202864  1
  Cu  Cu8  1  0.810981  0.474096  0.405706  1
  Cu  Cu9  1  0.474096  0.810981  0.405706  1
  Cu  Cu10  1  0.525906  0.189020  0.594294  1
  Cu  Cu11  1  0.189020  0.525906  0.594294  1
  Cu  Cu12  1  0.427286  0.427286  0.797136  1
  Cu  Cu13  1  0.930480  0.429132  0.803495  1
  Cu  Cu14  1  0.429132  0.930480  0.803495  1
