# generated using pymatgen
data_K2PuCr2O10
_symmetry_space_group_name_H-M   'P 1'
_cell_length_a   5.91595600
_cell_length_b   6.66931605
_cell_length_c   7.73278778
_cell_angle_alpha   104.22669495
_cell_angle_beta   95.77212205
_cell_angle_gamma   107.90170825
_symmetry_Int_Tables_number   1
_chemical_formula_structural   K2PuCr2O10
_chemical_formula_sum   'K2 Pu1 Cr2 O10'
_cell_volume   276.24739565
_cell_formula_units_Z   1
loop_
 _symmetry_equiv_pos_site_id
 _symmetry_equiv_pos_as_xyz
  1  'x, y, z'
loop_
 _atom_site_type_symbol
 _atom_site_label
 _atom_site_symmetry_multiplicity
 _atom_site_fract_x
 _atom_site_fract_y
 _atom_site_fract_z
 _atom_site_occupancy
  K  K0  1  0.298589  0.679462  0.287822  1
  K  K1  1  0.701411  0.320538  0.712178  1
  Pu  Pu2  1  0.000000  0.000000  0.000000  1
  Cr  Cr3  1  0.360574  0.697839  0.768188  1
  Cr  Cr4  1  0.639426  0.302161  0.231812  1
  O  O5  1  0.147506  0.722082  0.899828  1
  O  O6  1  0.852494  0.277918  0.100172  1
  O  O7  1  0.625089  0.734237  0.904243  1
  O  O8  1  0.374911  0.265763  0.095757  1
  O  O9  1  0.407210  0.884191  0.660870  1
  O  O10  1  0.592790  0.115809  0.339130  1
  O  O11  1  0.265983  0.454709  0.621894  1
  O  O12  1  0.734017  0.545291  0.378106  1
  O  O13  1  0.972572  0.046112  0.782617  1
  O  O14  1  0.027428  0.953888  0.217383  1
