# generated using pymatgen
data_Lu2CrC2
_symmetry_space_group_name_H-M   'P 1'
_cell_length_a   6.35520300
_cell_length_b   4.91809100
_cell_length_c   9.56645300
_cell_angle_alpha   90.00000000
_cell_angle_beta   90.00000000
_cell_angle_gamma   90.00000000
_symmetry_Int_Tables_number   1
_chemical_formula_structural   Lu2CrC2
_chemical_formula_sum   'Lu8 Cr4 C8'
_cell_volume   299.00395296
_cell_formula_units_Z   4
loop_
 _symmetry_equiv_pos_site_id
 _symmetry_equiv_pos_as_xyz
  1  'x, y, z'
loop_
 _atom_site_type_symbol
 _atom_site_label
 _atom_site_symmetry_multiplicity
 _atom_site_fract_x
 _atom_site_fract_y
 _atom_site_fract_z
 _atom_site_occupancy
  Lu  Lu0  1  0.821253  0.249999  0.057902  1
  Lu  Lu1  1  0.536145  0.750000  0.218869  1
  Lu  Lu2  1  0.036145  0.750000  0.281132  1
  Lu  Lu3  1  0.321254  0.249999  0.442099  1
  Lu  Lu4  1  0.678746  0.750000  0.557901  1
  Lu  Lu5  1  0.963854  0.249999  0.718868  1
  Lu  Lu6  1  0.463855  0.249999  0.781132  1
  Lu  Lu7  1  0.178746  0.750000  0.942099  1
  Cr  Cr8  1  0.276817  0.249999  0.136665  1
  Cr  Cr9  1  0.776817  0.249999  0.363336  1
  Cr  Cr10  1  0.223181  0.750000  0.636664  1
  Cr  Cr11  1  0.723182  0.750000  0.863336  1
  C  C12  1  0.815260  0.750000  0.043972  1
  C  C13  1  0.546905  0.249999  0.238820  1
  C  C14  1  0.046905  0.249999  0.261180  1
  C  C15  1  0.315260  0.750000  0.456027  1
  C  C16  1  0.684740  0.249999  0.543972  1
  C  C17  1  0.953096  0.750000  0.738819  1
  C  C18  1  0.453096  0.750000  0.761180  1
  C  C19  1  0.184740  0.249999  0.956028  1
