# generated using pymatgen
data_CaSiRh3Pb
_symmetry_space_group_name_H-M   'P 1'
_cell_length_a   5.87404038
_cell_length_b   7.01420422
_cell_length_c   7.01420438
_cell_angle_alpha   66.11391913
_cell_angle_beta   65.46580751
_cell_angle_gamma   65.46580664
_symmetry_Int_Tables_number   1
_chemical_formula_structural   CaSiRh3Pb
_chemical_formula_sum   'Ca2 Si2 Rh6 Pb2'
_cell_volume   229.53577134
_cell_formula_units_Z   2
loop_
 _symmetry_equiv_pos_site_id
 _symmetry_equiv_pos_as_xyz
  1  'x, y, z'
loop_
 _atom_site_type_symbol
 _atom_site_label
 _atom_site_symmetry_multiplicity
 _atom_site_fract_x
 _atom_site_fract_y
 _atom_site_fract_z
 _atom_site_occupancy
  Ca  Ca0  1  0.475023  0.774655  0.774655  1
  Ca  Ca1  1  0.524977  0.225345  0.225345  1
  Si  Si2  1  0.146064  0.105834  0.105834  1
  Si  Si3  1  0.853936  0.894166  0.894166  1
  Rh  Rh4  1  0.500000  0.198115  0.801885  1
  Rh  Rh5  1  0.000000  0.802310  0.197690  1
  Rh  Rh6  1  0.500000  0.801885  0.198115  1
  Rh  Rh7  1  0.000000  0.197690  0.802310  1
  Rh  Rh8  1  0.000000  0.500000  0.000000  1
  Rh  Rh9  1  0.000000  0.000000  0.500000  1
  Pb  Pb10  1  0.188346  0.562362  0.562362  1
  Pb  Pb11  1  0.811654  0.437638  0.437638  1
