# generated using pymatgen
data_LiZrH6Ru
_symmetry_space_group_name_H-M   'P 1'
_cell_length_a   4.67400313
_cell_length_b   4.67400342
_cell_length_c   4.67400214
_cell_angle_alpha   59.97739454
_cell_angle_beta   59.97726429
_cell_angle_gamma   59.97741723
_symmetry_Int_Tables_number   1
_chemical_formula_structural   LiZrH6Ru
_chemical_formula_sum   'Li1 Zr1 H6 Ru1'
_cell_volume   72.16538040
_cell_formula_units_Z   1
loop_
 _symmetry_equiv_pos_site_id
 _symmetry_equiv_pos_as_xyz
  1  'x, y, z'
loop_
 _atom_site_type_symbol
 _atom_site_label
 _atom_site_symmetry_multiplicity
 _atom_site_fract_x
 _atom_site_fract_y
 _atom_site_fract_z
 _atom_site_occupancy
  Li  Li0  1  0.750005  0.750008  0.750011  1
  Zr  Zr1  1  0.250155  0.250155  0.250157  1
  H  H2  1  0.261009  0.738931  0.261007  1
  H  H3  1  0.738868  0.738866  0.261124  1
  H  H4  1  0.738931  0.261008  0.261008  1
  H  H5  1  0.261125  0.738866  0.738866  1
  H  H6  1  0.738867  0.261124  0.738867  1
  H  H7  1  0.261008  0.261007  0.738931  1
  Ru  Ru8  1  0.000031  0.000030  0.000029  1
