# generated using pymatgen
data_PuPaAl8
_symmetry_space_group_name_H-M   'P 1'
_cell_length_a   7.90082457
_cell_length_b   7.90082497
_cell_length_c   7.90082451
_cell_angle_alpha   147.62924271
_cell_angle_beta   133.18916800
_cell_angle_gamma   58.06136743
_symmetry_Int_Tables_number   1
_chemical_formula_structural   PuPaAl8
_chemical_formula_sum   'Pu1 Pa1 Al8'
_cell_volume   190.99559124
_cell_formula_units_Z   1
loop_
 _symmetry_equiv_pos_site_id
 _symmetry_equiv_pos_as_xyz
  1  'x, y, z'
loop_
 _atom_site_type_symbol
 _atom_site_label
 _atom_site_symmetry_multiplicity
 _atom_site_fract_x
 _atom_site_fract_y
 _atom_site_fract_z
 _atom_site_occupancy
  Pu  Pu0  1  0.637541  0.387541  0.250000  1
  Pa  Pa1  1  0.362073  0.612074  0.750002  1
  Al  Al2  1  0.827534  0.802490  0.025044  1
  Al  Al3  1  0.277446  0.802491  0.474958  1
  Al  Al4  1  0.169365  0.198908  0.970461  1
  Al  Al5  1  0.728449  0.198907  0.529543  1
  Al  Al6  1  0.860559  0.610559  0.250000  1
  Al  Al7  1  0.137911  0.387912  0.750002  1
  Al  Al8  1  0.994744  0.999562  0.995181  1
  Al  Al9  1  0.504379  0.999562  0.504818  1
