# generated using pymatgen
data_Dy4In(CoB3)2
_symmetry_space_group_name_H-M   'P 1'
_cell_length_a   5.35845214
_cell_length_b   5.35845177
_cell_length_c   8.16205155
_cell_angle_alpha   70.83717066
_cell_angle_beta   70.83717140
_cell_angle_gamma   60.00001061
_symmetry_Int_Tables_number   1
_chemical_formula_structural   Dy4In(CoB3)2
_chemical_formula_sum   'Dy4 In1 Co2 B6'
_cell_volume   187.81483932
_cell_formula_units_Z   1
loop_
 _symmetry_equiv_pos_site_id
 _symmetry_equiv_pos_as_xyz
  1  'x, y, z'
loop_
 _atom_site_type_symbol
 _atom_site_label
 _atom_site_symmetry_multiplicity
 _atom_site_fract_x
 _atom_site_fract_y
 _atom_site_fract_z
 _atom_site_occupancy
  Dy  Dy0  1  0.251662  0.251662  0.245014  1
  Dy  Dy1  1  0.748338  0.748338  0.754986  1
  Dy  Dy2  1  0.414497  0.414497  0.756509  1
  Dy  Dy3  1  0.585503  0.585503  0.243491  1
  In  In4  1  0.000000  0.000000  0.000000  1
  Co  Co5  1  0.117235  0.117235  0.648295  1
  Co  Co6  1  0.882765  0.882765  0.351705  1
  B  B7  1  0.169028  0.830972  0.500000  1
  B  B8  1  0.830972  0.500000  0.500000  1
  B  B9  1  0.500000  0.169028  0.500000  1
  B  B10  1  0.169028  0.500000  0.500000  1
  B  B11  1  0.500000  0.830972  0.500000  1
  B  B12  1  0.830972  0.169028  0.500000  1
