# generated using pymatgen
data_CsAg(PO3)4
_symmetry_space_group_name_H-M   'P 1'
_cell_length_a   10.51296956
_cell_length_b   10.51297000
_cell_length_c   5.61807221
_cell_angle_alpha   79.44523485
_cell_angle_beta   79.44523663
_cell_angle_gamma   74.59606545
_symmetry_Int_Tables_number   1
_chemical_formula_structural   CsAg(PO3)4
_chemical_formula_sum   'Cs2 Ag2 P8 O24'
_cell_volume   582.53201228
_cell_formula_units_Z   2
loop_
 _symmetry_equiv_pos_site_id
 _symmetry_equiv_pos_as_xyz
  1  'x, y, z'
loop_
 _atom_site_type_symbol
 _atom_site_label
 _atom_site_symmetry_multiplicity
 _atom_site_fract_x
 _atom_site_fract_y
 _atom_site_fract_z
 _atom_site_occupancy
  Cs  Cs0  1  0.388653  0.388653  0.739889  1
  Cs  Cs1  1  0.611347  0.611347  0.260111  1
  Ag  Ag2  1  0.500000  0.000000  0.000000  1
  Ag  Ag3  1  0.000000  0.500000  0.000000  1
  P  P4  1  0.802337  0.344386  0.815475  1
  P  P5  1  0.067558  0.300072  0.489145  1
  P  P6  1  0.300072  0.067558  0.489145  1
  P  P7  1  0.655614  0.197663  0.184525  1
  P  P8  1  0.344386  0.802337  0.815475  1
  P  P9  1  0.699928  0.932442  0.510855  1
  P  P10  1  0.932442  0.699928  0.510855  1
  P  P11  1  0.197663  0.655614  0.184525  1
  O  O12  1  0.441842  0.837509  0.950845  1
  O  O13  1  0.391851  0.117796  0.598833  1
  O  O14  1  0.405082  0.677675  0.707932  1
  O  O15  1  0.162491  0.558158  0.049155  1
  O  O16  1  0.558158  0.162491  0.049155  1
  O  O17  1  0.935396  0.680258  0.788058  1
  O  O18  1  0.208027  0.791973  0.000000  1
  O  O19  1  0.594918  0.322325  0.292068  1
  O  O20  1  0.608149  0.882204  0.401167  1
  O  O21  1  0.718251  0.076896  0.377845  1
  O  O22  1  0.322325  0.594918  0.292068  1
  O  O23  1  0.882204  0.608149  0.401167  1
  O  O24  1  0.837509  0.441842  0.950845  1
  O  O25  1  0.076896  0.718251  0.377845  1
  O  O26  1  0.146098  0.146098  0.545246  1
  O  O27  1  0.117796  0.391851  0.598833  1
  O  O28  1  0.677675  0.405082  0.707932  1
  O  O29  1  0.281749  0.923104  0.622155  1
  O  O30  1  0.791973  0.208027  0.000000  1
  O  O31  1  0.319742  0.064604  0.211942  1
  O  O32  1  0.680258  0.935396  0.788058  1
  O  O33  1  0.853902  0.853902  0.454754  1
  O  O34  1  0.923104  0.281749  0.622155  1
  O  O35  1  0.064604  0.319742  0.211942  1
