# generated using pymatgen
data_Tb20IrRu4Rh7
_symmetry_space_group_name_H-M   'P 1'
_cell_length_a   10.92275737
_cell_length_b   10.92275737
_cell_length_c   6.44279127
_cell_angle_alpha   90.02347478
_cell_angle_beta   90.02347478
_cell_angle_gamma   90.01867173
_symmetry_Int_Tables_number   1
_chemical_formula_structural   Tb20IrRu4Rh7
_chemical_formula_sum   'Tb20 Ir1 Ru4 Rh7'
_cell_volume   768.66753573
_cell_formula_units_Z   1
loop_
 _symmetry_equiv_pos_site_id
 _symmetry_equiv_pos_as_xyz
  1  'x, y, z'
loop_
 _atom_site_type_symbol
 _atom_site_label
 _atom_site_symmetry_multiplicity
 _atom_site_fract_x
 _atom_site_fract_y
 _atom_site_fract_z
 _atom_site_occupancy
  Tb  Tb0  1  0.294165  0.086719  0.378549  1
  Tb  Tb1  1  0.294260  0.912070  0.878096  1
  Tb  Tb2  1  0.705797  0.086726  0.878355  1
  Tb  Tb3  1  0.705826  0.913299  0.378354  1
  Tb  Tb4  1  0.585514  0.793603  0.877912  1
  Tb  Tb5  1  0.586774  0.205634  0.378554  1
  Tb  Tb6  1  0.412798  0.793391  0.379656  1
  Tb  Tb7  1  0.413167  0.205676  0.878309  1
  Tb  Tb8  1  0.206397  0.414486  0.622088  1
  Tb  Tb9  1  0.206609  0.587202  0.120344  1
  Tb  Tb10  1  0.794366  0.413226  0.121446  1
  Tb  Tb11  1  0.794324  0.586833  0.621691  1
  Tb  Tb12  1  0.913281  0.705835  0.121451  1
  Tb  Tb13  1  0.913274  0.294203  0.621645  1
  Tb  Tb14  1  0.087930  0.705740  0.621904  1
  Tb  Tb15  1  0.086701  0.294174  0.121646  1
  Tb  Tb16  1  0.999988  0.000043  0.499935  1
  Tb  Tb17  1  0.999957  0.000012  0.000065  1
  Tb  Tb18  1  0.499773  0.500322  0.999677  1
  Tb  Tb19  1  0.499678  0.500227  0.500323  1
  Ir  Ir20  1  0.347808  0.652192  0.750000  1
  Ru  Ru21  1  0.500304  0.000534  0.122070  1
  Ru  Ru22  1  0.500268  0.000555  0.621906  1
  Ru  Ru23  1  0.999445  0.499732  0.878094  1
  Ru  Ru24  1  0.999466  0.499696  0.377930  1
  Rh  Rh25  1  0.847731  0.152269  0.250000  1
  Rh  Rh26  1  0.847920  0.847889  0.749958  1
  Rh  Rh27  1  0.152111  0.152080  0.750042  1
  Rh  Rh28  1  0.151799  0.848201  0.250000  1
  Rh  Rh29  1  0.652180  0.347820  0.750000  1
  Rh  Rh30  1  0.652657  0.652268  0.250111  1
  Rh  Rh31  1  0.347732  0.347343  0.249889  1
