# generated using pymatgen
data_CeSc4(Sn3Os)6
_symmetry_space_group_name_H-M   'P 1'
_cell_length_a   9.76628669
_cell_length_b   9.76628723
_cell_length_c   9.76628800
_cell_angle_alpha   59.99999741
_cell_angle_beta   59.99999557
_cell_angle_gamma   59.99999888
_symmetry_Int_Tables_number   1
_chemical_formula_structural   CeSc4(Sn3Os)6
_chemical_formula_sum   'Ce1 Sc4 Sn18 Os6'
_cell_volume   658.67846492
_cell_formula_units_Z   1
loop_
 _symmetry_equiv_pos_site_id
 _symmetry_equiv_pos_as_xyz
  1  'x, y, z'
loop_
 _atom_site_type_symbol
 _atom_site_label
 _atom_site_symmetry_multiplicity
 _atom_site_fract_x
 _atom_site_fract_y
 _atom_site_fract_z
 _atom_site_occupancy
  Ce  Ce0  1  0.000000  0.000000  0.000000  1
  Sc  Sc1  1  0.374103  0.374104  0.877692  1
  Sc  Sc2  1  0.374104  0.877691  0.374103  1
  Sc  Sc3  1  0.877691  0.374104  0.374103  1
  Sc  Sc4  1  0.374104  0.374103  0.374103  1
  Sn  Sn5  1  0.591756  0.591756  0.224733  1
  Sn  Sn6  1  0.591756  0.224733  0.591756  1
  Sn  Sn7  1  0.224733  0.591756  0.591756  1
  Sn  Sn8  1  0.591756  0.591756  0.591756  1
  Sn  Sn9  1  0.750000  0.750000  0.750000  1
  Sn  Sn10  1  0.998583  0.353779  0.649057  1
  Sn  Sn11  1  0.998583  0.998583  0.649057  1
  Sn  Sn12  1  0.353779  0.998583  0.649057  1
  Sn  Sn13  1  0.998583  0.649057  0.353779  1
  Sn  Sn14  1  0.353779  0.649057  0.998583  1
  Sn  Sn15  1  0.998583  0.649057  0.998583  1
  Sn  Sn16  1  0.649057  0.998583  0.998583  1
  Sn  Sn17  1  0.649057  0.353779  0.998583  1
  Sn  Sn18  1  0.649057  0.998583  0.353779  1
  Sn  Sn19  1  0.353779  0.998583  0.998583  1
  Sn  Sn20  1  0.998583  0.998583  0.353779  1
  Sn  Sn21  1  0.998583  0.353779  0.998583  1
  Sn  Sn22  1  0.250000  0.250000  0.250000  1
  Os  Os23  1  0.257198  0.257198  0.742802  1
  Os  Os24  1  0.742802  0.257198  0.742802  1
  Os  Os25  1  0.257198  0.742802  0.742802  1
  Os  Os26  1  0.742802  0.742802  0.257198  1
  Os  Os27  1  0.257198  0.742802  0.257198  1
  Os  Os28  1  0.742802  0.257198  0.257198  1
