# generated using pymatgen
data_PrY2SiPd5
_symmetry_space_group_name_H-M   'P 1'
_cell_length_a   8.32385767
_cell_length_b   8.32385786
_cell_length_c   8.32385627
_cell_angle_alpha   127.29498320
_cell_angle_beta   126.14826363
_cell_angle_gamma   78.70879880
_symmetry_Int_Tables_number   1
_chemical_formula_structural   PrY2SiPd5
_chemical_formula_sum   'Pr2 Y4 Si2 Pd10'
_cell_volume   358.56460153
_cell_formula_units_Z   2
loop_
 _symmetry_equiv_pos_site_id
 _symmetry_equiv_pos_as_xyz
  1  'x, y, z'
loop_
 _atom_site_type_symbol
 _atom_site_label
 _atom_site_symmetry_multiplicity
 _atom_site_fract_x
 _atom_site_fract_y
 _atom_site_fract_z
 _atom_site_occupancy
  Pr  Pr0  1  0.385582  0.250000  0.135582  1
  Pr  Pr1  1  0.614418  0.750000  0.864418  1
  Y  Y2  1  0.225082  0.450363  0.774719  1
  Y  Y3  1  0.774918  0.549637  0.225281  1
  Y  Y4  1  0.824354  0.049637  0.774719  1
  Y  Y5  1  0.175646  0.950363  0.225281  1
  Si  Si6  1  0.787998  0.250000  0.537998  1
  Si  Si7  1  0.212002  0.750000  0.462002  1
  Pd  Pd8  1  0.163571  0.403279  0.358417  1
  Pd  Pd9  1  0.836429  0.194846  0.239708  1
  Pd  Pd10  1  0.455138  0.096721  0.760292  1
  Pd  Pd11  1  0.544862  0.305154  0.641583  1
  Pd  Pd12  1  0.000000  0.500000  0.000000  1
  Pd  Pd13  1  0.000000  0.000000  0.500000  1
  Pd  Pd14  1  0.455138  0.694846  0.358417  1
  Pd  Pd15  1  0.544862  0.903279  0.239708  1
  Pd  Pd16  1  0.163571  0.805154  0.760292  1
  Pd  Pd17  1  0.836429  0.596721  0.641583  1
