# generated using pymatgen
data_Ir5OsRh3
_symmetry_space_group_name_H-M   'P 1'
_cell_length_a   6.11477010
_cell_length_b   6.11476991
_cell_length_c   6.11477018
_cell_angle_alpha   95.72005640
_cell_angle_beta   95.72081642
_cell_angle_gamma   143.19228745
_symmetry_Int_Tables_number   1
_chemical_formula_structural   Ir5OsRh3
_chemical_formula_sum   'Ir5 Os1 Rh3'
_cell_volume   129.97570660
_cell_formula_units_Z   1
loop_
 _symmetry_equiv_pos_site_id
 _symmetry_equiv_pos_as_xyz
  1  'x, y, z'
loop_
 _atom_site_type_symbol
 _atom_site_label
 _atom_site_symmetry_multiplicity
 _atom_site_fract_x
 _atom_site_fract_y
 _atom_site_fract_z
 _atom_site_occupancy
  Ir  Ir0  1  0.000890  0.000000  0.000890  1
  Ir  Ir1  1  0.671053  0.337107  0.008161  1
  Ir  Ir2  1  0.333607  0.669195  0.002803  1
  Ir  Ir3  1  0.671053  0.662892  0.333947  1
  Ir  Ir4  1  0.333608  0.330805  0.664412  1
  Os  Os5  1  0.328482  0.000000  0.328482  1
  Rh  Rh6  1  0.996208  0.334679  0.330887  1
  Rh  Rh7  1  0.668891  0.000000  0.668891  1
  Rh  Rh8  1  0.996208  0.665321  0.661529  1
