# generated using pymatgen
data_Y4Ho2TaCo17P12
_symmetry_space_group_name_H-M   'P 1'
_cell_length_a   3.69343500
_cell_length_b   10.56590200
_cell_length_c   12.24889600
_cell_angle_alpha   90.00000000
_cell_angle_beta   90.00000000
_cell_angle_gamma   90.00000000
_symmetry_Int_Tables_number   1
_chemical_formula_structural   Y4Ho2TaCo17P12
_chemical_formula_sum   'Y4 Ho2 Ta1 Co17 P12'
_cell_volume   478.00670209
_cell_formula_units_Z   1
loop_
 _symmetry_equiv_pos_site_id
 _symmetry_equiv_pos_as_xyz
  1  'x, y, z'
loop_
 _atom_site_type_symbol
 _atom_site_label
 _atom_site_symmetry_multiplicity
 _atom_site_fract_x
 _atom_site_fract_y
 _atom_site_fract_z
 _atom_site_occupancy
  Y  Y0  1  0.000000  0.500000  0.526813  1
  Y  Y1  1  0.500000  0.000000  0.477803  1
  Y  Y2  1  0.500000  0.819804  0.207007  1
  Y  Y3  1  0.500000  0.180196  0.207007  1
  Ho  Ho4  1  0.000000  0.682657  0.796118  1
  Ho  Ho5  1  0.000000  0.317343  0.796118  1
  Ta  Ta6  1  0.500000  0.500000  0.154138  1
  Co  Co7  1  0.000000  0.500000  0.984953  1
  Co  Co8  1  0.500000  0.000000  0.013475  1
  Co  Co9  1  0.500000  0.295357  0.433053  1
  Co  Co10  1  0.500000  0.704643  0.433053  1
  Co  Co11  1  0.000000  0.202513  0.570513  1
  Co  Co12  1  0.000000  0.797487  0.570513  1
  Co  Co13  1  0.500000  0.879444  0.708782  1
  Co  Co14  1  0.500000  0.120556  0.708782  1
  Co  Co15  1  0.000000  0.622140  0.293294  1
  Co  Co16  1  0.000000  0.377860  0.293294  1
  Co  Co17  1  0.500000  0.330509  0.989472  1
  Co  Co18  1  0.500000  0.669491  0.989472  1
  Co  Co19  1  0.000000  0.164156  0.003417  1
  Co  Co20  1  0.000000  0.835844  0.003417  1
  Co  Co21  1  0.000000  0.000000  0.838471  1
  Co  Co22  1  0.500000  0.500000  0.702719  1
  Co  Co23  1  0.000000  0.000000  0.296296  1
  P  P24  1  0.500000  0.309646  0.617940  1
  P  P25  1  0.500000  0.690354  0.617940  1
  P  P26  1  0.000000  0.188674  0.385869  1
  P  P27  1  0.000000  0.811326  0.385869  1
  P  P28  1  0.500000  0.500000  0.880664  1
  P  P29  1  0.000000  0.000000  0.116319  1
  P  P30  1  0.500000  0.851068  0.889695  1
  P  P31  1  0.500000  0.148932  0.889695  1
  P  P32  1  0.000000  0.660745  0.102933  1
  P  P33  1  0.000000  0.339255  0.102933  1
  P  P34  1  0.500000  0.500000  0.355666  1
  P  P35  1  0.000000  0.000000  0.656496  1
