# generated using pymatgen
data_Nd2Be(PdPt)3
_symmetry_space_group_name_H-M   'P 1'
_cell_length_a   6.21922797
_cell_length_b   6.21922870
_cell_length_c   5.92564800
_cell_angle_alpha   58.34710525
_cell_angle_beta   58.34710106
_cell_angle_gamma   60.00000163
_symmetry_Int_Tables_number   1
_chemical_formula_structural   Nd2Be(PdPt)3
_chemical_formula_sum   'Nd2 Be1 Pd3 Pt3'
_cell_volume   157.89896446
_cell_formula_units_Z   1
loop_
 _symmetry_equiv_pos_site_id
 _symmetry_equiv_pos_as_xyz
  1  'x, y, z'
loop_
 _atom_site_type_symbol
 _atom_site_label
 _atom_site_symmetry_multiplicity
 _atom_site_fract_x
 _atom_site_fract_y
 _atom_site_fract_z
 _atom_site_occupancy
  Nd  Nd0  1  0.253192  0.253192  0.240423  1
  Nd  Nd1  1  0.742892  0.742892  0.771324  1
  Be  Be2  1  0.505103  0.505103  0.484692  1
  Pd  Pd3  1  0.239850  0.239850  0.753344  1
  Pd  Pd4  1  0.766956  0.239850  0.753344  1
  Pd  Pd5  1  0.239850  0.766956  0.753344  1
  Pt  Pt6  1  0.764446  0.223265  0.247843  1
  Pt  Pt7  1  0.223265  0.764446  0.247843  1
  Pt  Pt8  1  0.764446  0.764446  0.247843  1
