# generated using pymatgen
data_Tb3Yb(Mo2O7)2
_symmetry_space_group_name_H-M   'P 1'
_cell_length_a   7.32774001
_cell_length_b   7.42817199
_cell_length_c   7.32774000
_cell_angle_alpha   60.44625299
_cell_angle_beta   60.00000003
_cell_angle_gamma   60.44624787
_symmetry_Int_Tables_number   1
_chemical_formula_structural   Tb3Yb(Mo2O7)2
_chemical_formula_sum   'Tb3 Yb1 Mo4 O14'
_cell_volume   283.92504762
_cell_formula_units_Z   1
loop_
 _symmetry_equiv_pos_site_id
 _symmetry_equiv_pos_as_xyz
  1  'x, y, z'
loop_
 _atom_site_type_symbol
 _atom_site_label
 _atom_site_symmetry_multiplicity
 _atom_site_fract_x
 _atom_site_fract_y
 _atom_site_fract_z
 _atom_site_occupancy
  Tb  Tb0  1  0.125000  0.125000  0.125000  1
  Tb  Tb1  1  0.625000  0.125000  0.125000  1
  Tb  Tb2  1  0.125000  0.125000  0.625000  1
  Yb  Yb3  1  0.125000  0.625000  0.125000  1
  Mo  Mo4  1  0.625000  0.625000  0.625000  1
  Mo  Mo5  1  0.125000  0.625000  0.625000  1
  Mo  Mo6  1  0.625000  0.625000  0.125000  1
  Mo  Mo7  1  0.625000  0.125000  0.625000  1
  O  O8  1  0.998430  0.004711  0.998430  1
  O  O9  1  0.251570  0.245289  0.251570  1
  O  O10  1  0.297239  0.285821  0.708470  1
  O  O11  1  0.551166  0.527119  0.960858  1
  O  O12  1  0.708470  0.285821  0.708470  1
  O  O13  1  0.708470  0.285821  0.297239  1
  O  O14  1  0.289142  0.722881  0.698834  1
  O  O15  1  0.289142  0.722881  0.289142  1
  O  O16  1  0.698834  0.722881  0.289142  1
  O  O17  1  0.960858  0.527119  0.551166  1
  O  O18  1  0.541530  0.964179  0.952761  1
  O  O19  1  0.952761  0.964179  0.541530  1
  O  O20  1  0.960858  0.527119  0.960858  1
  O  O21  1  0.541530  0.964179  0.541530  1
