# generated using pymatgen
data_Ce16HoAl12
_symmetry_space_group_name_H-M   'P 1'
_cell_length_a   9.55249660
_cell_length_b   9.55249734
_cell_length_c   9.55249700
_cell_angle_alpha   109.47122203
_cell_angle_beta   109.47122360
_cell_angle_gamma   109.47122210
_symmetry_Int_Tables_number   1
_chemical_formula_structural   Ce16HoAl12
_chemical_formula_sum   'Ce16 Ho1 Al12'
_cell_volume   671.00971076
_cell_formula_units_Z   1
loop_
 _symmetry_equiv_pos_site_id
 _symmetry_equiv_pos_as_xyz
  1  'x, y, z'
loop_
 _atom_site_type_symbol
 _atom_site_label
 _atom_site_symmetry_multiplicity
 _atom_site_fract_x
 _atom_site_fract_y
 _atom_site_fract_z
 _atom_site_occupancy
  Ce  Ce0  1  0.308831  0.587671  0.000000  1
  Ce  Ce1  1  0.587671  0.308831  0.000000  1
  Ce  Ce2  1  0.374711  0.000000  0.000000  1
  Ce  Ce3  1  0.000000  0.374711  0.000000  1
  Ce  Ce4  1  0.412329  0.412329  0.721159  1
  Ce  Ce5  1  0.278841  0.691169  0.691169  1
  Ce  Ce6  1  0.691169  0.278841  0.691169  1
  Ce  Ce7  1  0.625289  0.625289  0.625289  1
  Ce  Ce8  1  0.308831  0.000000  0.587671  1
  Ce  Ce9  1  0.000000  0.308831  0.587671  1
  Ce  Ce10  1  0.721159  0.412329  0.412329  1
  Ce  Ce11  1  0.412329  0.721159  0.412329  1
  Ce  Ce12  1  0.000000  0.000000  0.374711  1
  Ce  Ce13  1  0.587671  0.000000  0.308831  1
  Ce  Ce14  1  0.000000  0.587671  0.308831  1
  Ce  Ce15  1  0.691169  0.691169  0.278841  1
  Ho  Ho16  1  0.000000  0.000000  0.000000  1
  Al  Al17  1  0.820513  0.643875  0.000000  1
  Al  Al18  1  0.643875  0.820513  0.000000  1
  Al  Al19  1  0.179487  0.179487  0.823361  1
  Al  Al20  1  0.643875  0.000000  0.820513  1
  Al  Al21  1  0.000000  0.643875  0.820513  1
  Al  Al22  1  0.000000  0.820513  0.643875  1
  Al  Al23  1  0.820513  0.000000  0.643875  1
  Al  Al24  1  0.176639  0.356125  0.356125  1
  Al  Al25  1  0.356125  0.176639  0.356125  1
  Al  Al26  1  0.179487  0.823361  0.179487  1
  Al  Al27  1  0.823361  0.179487  0.179487  1
  Al  Al28  1  0.356125  0.356125  0.176639  1
