# generated using pymatgen
data_TbHo2Pa(Al3Rh)6
_symmetry_space_group_name_H-M   'P 1'
_cell_length_a   7.58386953
_cell_length_b   7.57715259
_cell_length_c   9.43377500
_cell_angle_alpha   90.00000000
_cell_angle_beta   90.00000000
_cell_angle_gamma   119.46703698
_symmetry_Int_Tables_number   1
_chemical_formula_structural   TbHo2Pa(Al3Rh)6
_chemical_formula_sum   'Tb1 Ho2 Pa1 Al18 Rh6'
_cell_volume   471.97657277
_cell_formula_units_Z   1
loop_
 _symmetry_equiv_pos_site_id
 _symmetry_equiv_pos_as_xyz
  1  'x, y, z'
loop_
 _atom_site_type_symbol
 _atom_site_label
 _atom_site_symmetry_multiplicity
 _atom_site_fract_x
 _atom_site_fract_y
 _atom_site_fract_z
 _atom_site_occupancy
  Tb  Tb0  1  0.328663  0.004792  0.750000  1
  Ho  Ho1  1  0.005547  0.328624  0.750000  1
  Ho  Ho2  1  0.672993  0.994710  0.250000  1
  Pa  Pa3  1  0.995497  0.671931  0.250000  1
  Al  Al4  1  0.131246  0.129872  0.250000  1
  Al  Al5  1  0.872896  0.874265  0.750000  1
  Al  Al6  1  0.000403  0.333013  0.075256  1
  Al  Al7  1  0.998921  0.663941  0.921276  1
  Al  Al8  1  0.998921  0.663941  0.578724  1
  Al  Al9  1  0.338622  0.003079  0.424150  1
  Al  Al10  1  0.000403  0.333013  0.424744  1
  Al  Al11  1  0.665128  0.000393  0.576344  1
  Al  Al12  1  0.665128  0.000393  0.923656  1
  Al  Al13  1  0.338622  0.003079  0.075850  1
  Al  Al14  1  0.332261  0.332659  0.553035  1
  Al  Al15  1  0.664034  0.666323  0.450625  1
  Al  Al16  1  0.664034  0.666323  0.049375  1
  Al  Al17  1  0.332261  0.332659  0.946965  1
  Al  Al18  1  0.339326  0.548595  0.250000  1
  Al  Al19  1  0.659255  0.448600  0.750000  1
  Al  Al20  1  0.548689  0.342403  0.250000  1
  Al  Al21  1  0.449551  0.659627  0.750000  1
  Rh  Rh22  1  0.673566  0.329418  0.001974  1
  Rh  Rh23  1  0.326266  0.672056  0.002027  1
  Rh  Rh24  1  0.326266  0.672056  0.497973  1
  Rh  Rh25  1  0.673566  0.329418  0.498026  1
  Rh  Rh26  1  0.998965  0.997408  0.002902  1
  Rh  Rh27  1  0.998965  0.997408  0.497098  1
