# generated using pymatgen
data_La3Al3PtAu2
_symmetry_space_group_name_H-M   'P 1'
_cell_length_a   7.51865500
_cell_length_b   7.51865455
_cell_length_c   8.57077700
_cell_angle_alpha   90.00000000
_cell_angle_beta   90.00000000
_cell_angle_gamma   119.99999759
_symmetry_Int_Tables_number   1
_chemical_formula_structural   La3Al3PtAu2
_chemical_formula_sum   'La6 Al6 Pt2 Au4'
_cell_volume   419.59579410
_cell_formula_units_Z   2
loop_
 _symmetry_equiv_pos_site_id
 _symmetry_equiv_pos_as_xyz
  1  'x, y, z'
loop_
 _atom_site_type_symbol
 _atom_site_label
 _atom_site_symmetry_multiplicity
 _atom_site_fract_x
 _atom_site_fract_y
 _atom_site_fract_z
 _atom_site_occupancy
  La  La0  1  0.584763  0.997407  0.750000  1
  La  La1  1  0.002593  0.587357  0.750000  1
  La  La2  1  0.412643  0.415237  0.750000  1
  La  La3  1  0.997407  0.584763  0.250000  1
  La  La4  1  0.587357  0.002593  0.250000  1
  La  La5  1  0.415237  0.412643  0.250000  1
  Al  Al6  1  0.779933  0.779933  0.000000  1
  Al  Al7  1  0.220067  0.000000  0.000000  1
  Al  Al8  1  0.000000  0.220067  0.000000  1
  Al  Al9  1  0.779933  0.779933  0.500000  1
  Al  Al10  1  0.220067  0.000000  0.500000  1
  Al  Al11  1  0.000000  0.220067  0.500000  1
  Pt  Pt12  1  0.000000  0.000000  0.750000  1
  Pt  Pt13  1  0.000000  0.000000  0.250000  1
  Au  Au14  1  0.666667  0.333333  0.996752  1
  Au  Au15  1  0.666667  0.333333  0.503248  1
  Au  Au16  1  0.333333  0.666667  0.496753  1
  Au  Au17  1  0.333333  0.666667  0.003248  1
