# generated using pymatgen
data_Mn5(AsS)2
_symmetry_space_group_name_H-M   'P 1'
_cell_length_a   6.28930332
_cell_length_b   6.28930436
_cell_length_c   6.47821100
_cell_angle_alpha   92.64388436
_cell_angle_beta   95.51042383
_cell_angle_gamma   148.60267757
_symmetry_Int_Tables_number   1
_chemical_formula_structural   Mn5(AsS)2
_chemical_formula_sum   'Mn5 As2 S2'
_cell_volume   128.76260491
_cell_formula_units_Z   1
loop_
 _symmetry_equiv_pos_site_id
 _symmetry_equiv_pos_as_xyz
  1  'x, y, z'
loop_
 _atom_site_type_symbol
 _atom_site_label
 _atom_site_symmetry_multiplicity
 _atom_site_fract_x
 _atom_site_fract_y
 _atom_site_fract_z
 _atom_site_occupancy
  Mn  Mn0  1  0.000000  0.000000  0.000000  1
  Mn  Mn1  1  0.392296  0.310104  0.702401  1
  Mn  Mn2  1  0.607704  0.689896  0.297599  1
  Mn  Mn3  1  0.700076  0.382998  0.083076  1
  Mn  Mn4  1  0.299924  0.617002  0.916924  1
  As  As5  1  0.283403  0.060990  0.344393  1
  As  As6  1  0.716597  0.939010  0.655607  1
  S  S7  1  0.934713  0.254415  0.189128  1
  S  S8  1  0.065287  0.745585  0.810872  1
