# generated using pymatgen
data_Tm16Cd4Ni3Pt
_symmetry_space_group_name_H-M   'P 1'
_cell_length_a   9.46769902
_cell_length_b   9.46770105
_cell_length_c   9.46770111
_cell_angle_alpha   59.77535610
_cell_angle_beta   59.77534647
_cell_angle_gamma   59.77535763
_symmetry_Int_Tables_number   1
_chemical_formula_structural   Tm16Cd4Ni3Pt
_chemical_formula_sum   'Tm16 Cd4 Ni3 Pt1'
_cell_volume   597.03220086
_cell_formula_units_Z   1
loop_
 _symmetry_equiv_pos_site_id
 _symmetry_equiv_pos_as_xyz
  1  'x, y, z'
loop_
 _atom_site_type_symbol
 _atom_site_label
 _atom_site_symmetry_multiplicity
 _atom_site_fract_x
 _atom_site_fract_y
 _atom_site_fract_z
 _atom_site_occupancy
  Tm  Tm0  1  0.347448  0.347448  0.347448  1
  Tm  Tm1  1  0.353407  0.353407  0.951098  1
  Tm  Tm2  1  0.353407  0.951098  0.353407  1
  Tm  Tm3  1  0.951098  0.353407  0.353407  1
  Tm  Tm4  1  0.805475  0.189158  0.189158  1
  Tm  Tm5  1  0.188222  0.811043  0.811043  1
  Tm  Tm6  1  0.189158  0.805475  0.189158  1
  Tm  Tm7  1  0.811043  0.188222  0.811043  1
  Tm  Tm8  1  0.189158  0.189158  0.805475  1
  Tm  Tm9  1  0.811043  0.811043  0.188222  1
  Tm  Tm10  1  0.935458  0.565499  0.565499  1
  Tm  Tm11  1  0.562080  0.937216  0.937216  1
  Tm  Tm12  1  0.565499  0.935458  0.565499  1
  Tm  Tm13  1  0.937216  0.562080  0.937216  1
  Tm  Tm14  1  0.565499  0.565499  0.935458  1
  Tm  Tm15  1  0.937216  0.937216  0.562080  1
  Cd  Cd16  1  0.581602  0.581602  0.581602  1
  Cd  Cd17  1  0.580655  0.580655  0.254691  1
  Cd  Cd18  1  0.580655  0.254691  0.580655  1
  Cd  Cd19  1  0.254691  0.580655  0.580655  1
  Ni  Ni20  1  0.141554  0.141554  0.573872  1
  Ni  Ni21  1  0.141554  0.573872  0.141554  1
  Ni  Ni22  1  0.573872  0.141554  0.141554  1
  Pt  Pt23  1  0.142993  0.142993  0.142993  1
