# generated using pymatgen
data_La2Yb(TmSi2)2
_symmetry_space_group_name_H-M   'P 1'
_cell_length_a   7.84936100
_cell_length_b   7.84936100
_cell_length_c   14.32165400
_cell_angle_alpha   90.00000000
_cell_angle_beta   90.00000000
_cell_angle_gamma   90.00000000
_symmetry_Int_Tables_number   1
_chemical_formula_structural   La2Yb(TmSi2)2
_chemical_formula_sum   'La8 Yb4 Tm8 Si16'
_cell_volume   882.39245033
_cell_formula_units_Z   4
loop_
 _symmetry_equiv_pos_site_id
 _symmetry_equiv_pos_as_xyz
  1  'x, y, z'
loop_
 _atom_site_type_symbol
 _atom_site_label
 _atom_site_symmetry_multiplicity
 _atom_site_fract_x
 _atom_site_fract_y
 _atom_site_fract_z
 _atom_site_occupancy
  La  La0  1  0.990611  0.638991  0.040501  1
  La  La1  1  0.009389  0.361009  0.540501  1
  La  La2  1  0.638991  0.990611  0.959499  1
  La  La3  1  0.138991  0.509389  0.790501  1
  La  La4  1  0.861009  0.490611  0.290501  1
  La  La5  1  0.509389  0.138991  0.209499  1
  La  La6  1  0.490611  0.861009  0.709499  1
  La  La7  1  0.361009  0.009389  0.459499  1
  Yb  Yb8  1  0.686105  0.686105  0.500000  1
  Yb  Yb9  1  0.813895  0.186105  0.750000  1
  Yb  Yb10  1  0.186105  0.813895  0.250000  1
  Yb  Yb11  1  0.313895  0.313895  0.000000  1
  Tm  Tm12  1  0.365304  0.493721  0.376706  1
  Tm  Tm13  1  0.865304  0.006279  0.373294  1
  Tm  Tm14  1  0.993721  0.134696  0.126706  1
  Tm  Tm15  1  0.006279  0.865304  0.626706  1
  Tm  Tm16  1  0.634696  0.506279  0.876706  1
  Tm  Tm17  1  0.493721  0.365304  0.623294  1
  Tm  Tm18  1  0.506279  0.634696  0.123294  1
  Tm  Tm19  1  0.134696  0.993721  0.873294  1
  Si  Si20  1  0.074261  0.713270  0.440945  1
  Si  Si21  1  0.925739  0.286730  0.940945  1
  Si  Si22  1  0.713270  0.074261  0.559055  1
  Si  Si23  1  0.213271  0.425739  0.190945  1
  Si  Si24  1  0.786730  0.574261  0.690945  1
  Si  Si25  1  0.425739  0.213271  0.809055  1
  Si  Si26  1  0.574261  0.786730  0.309055  1
  Si  Si27  1  0.286730  0.925739  0.059055  1
  Si  Si28  1  0.848748  0.788081  0.812808  1
  Si  Si29  1  0.151252  0.211919  0.312808  1
  Si  Si30  1  0.788081  0.848748  0.187192  1
  Si  Si31  1  0.288081  0.651252  0.562808  1
  Si  Si32  1  0.711919  0.348748  0.062808  1
  Si  Si33  1  0.651252  0.288081  0.437192  1
  Si  Si34  1  0.348748  0.711919  0.937192  1
  Si  Si35  1  0.211919  0.151252  0.687192  1
