# generated using pymatgen
data_Ti6Si5Ge(MoRh2)2
_symmetry_space_group_name_H-M   'P 1'
_cell_length_a   7.45893557
_cell_length_b   7.45464889
_cell_length_c   7.44959229
_cell_angle_alpha   126.21805225
_cell_angle_beta   124.75288627
_cell_angle_gamma   80.69145078
_symmetry_Int_Tables_number   1
_chemical_formula_structural   Ti6Si5Ge(MoRh2)2
_chemical_formula_sum   'Ti6 Si5 Ge1 Mo2 Rh4'
_cell_volume   264.82482579
_cell_formula_units_Z   1
loop_
 _symmetry_equiv_pos_site_id
 _symmetry_equiv_pos_as_xyz
  1  'x, y, z'
loop_
 _atom_site_type_symbol
 _atom_site_label
 _atom_site_symmetry_multiplicity
 _atom_site_fract_x
 _atom_site_fract_y
 _atom_site_fract_z
 _atom_site_occupancy
  Ti  Ti0  1  0.963291  0.726962  0.269290  1
  Ti  Ti1  1  0.040273  0.311532  0.775412  1
  Ti  Ti2  1  0.249761  0.167143  0.422241  1
  Ti  Ti3  1  0.754167  0.174500  0.917108  1
  Ti  Ti4  1  0.560070  0.349488  0.286309  1
  Ti  Ti5  1  0.436056  0.723299  0.784462  1
  Si  Si6  1  0.779891  0.801920  0.519639  1
  Si  Si7  1  0.219809  0.739898  0.019964  1
  Si  Si8  1  0.337234  0.068649  0.745820  1
  Si  Si9  1  0.662499  0.409895  0.731420  1
  Si  Si10  1  0.178147  0.407226  0.246773  1
  Ge  Ge11  1  0.823867  0.067284  0.231538  1
  Mo  Mo12  1  0.499591  0.497225  0.997078  1
  Mo  Mo13  1  0.001204  0.500232  0.496936  1
  Rh  Rh14  1  0.164445  0.004151  0.911789  1
  Rh  Rh15  1  0.834913  0.739677  0.830333  1
  Rh  Rh16  1  0.407779  0.746451  0.411658  1
  Rh  Rh17  1  0.587002  0.004874  0.342629  1
