# generated using pymatgen
data_Tm4Sc4CuPt3
_symmetry_space_group_name_H-M   'P 1'
_cell_length_a   4.59421400
_cell_length_b   6.88831643
_cell_length_c   8.36981870
_cell_angle_alpha   89.34584340
_cell_angle_beta   90.00000000
_cell_angle_gamma   90.00000000
_symmetry_Int_Tables_number   1
_chemical_formula_structural   Tm4Sc4CuPt3
_chemical_formula_sum   'Tm4 Sc4 Cu1 Pt3'
_cell_volume   264.85736538
_cell_formula_units_Z   1
loop_
 _symmetry_equiv_pos_site_id
 _symmetry_equiv_pos_as_xyz
  1  'x, y, z'
loop_
 _atom_site_type_symbol
 _atom_site_label
 _atom_site_symmetry_multiplicity
 _atom_site_fract_x
 _atom_site_fract_y
 _atom_site_fract_z
 _atom_site_occupancy
  Tm  Tm0  1  0.250000  0.518842  0.175231  1
  Tm  Tm1  1  0.750000  0.482655  0.826125  1
  Tm  Tm2  1  0.750000  0.972622  0.678772  1
  Tm  Tm3  1  0.250000  0.020489  0.322675  1
  Sc  Sc4  1  0.250000  0.638898  0.569455  1
  Sc  Sc5  1  0.750000  0.355813  0.426961  1
  Sc  Sc6  1  0.750000  0.859168  0.072706  1
  Sc  Sc7  1  0.250000  0.146712  0.926382  1
  Cu  Cu8  1  0.250000  0.251956  0.605706  1
  Pt  Pt9  1  0.250000  0.754724  0.893959  1
  Pt  Pt10  1  0.750000  0.248286  0.103385  1
  Pt  Pt11  1  0.750000  0.749835  0.398647  1
