# generated using pymatgen
data_CaTm(BIr)8
_symmetry_space_group_name_H-M   'P 1'
_cell_length_a   7.61984900
_cell_length_b   7.61984900
_cell_length_c   4.00314500
_cell_angle_alpha   90.00000000
_cell_angle_beta   90.00000000
_cell_angle_gamma   90.00000000
_symmetry_Int_Tables_number   1
_chemical_formula_structural   CaTm(BIr)8
_chemical_formula_sum   'Ca1 Tm1 B8 Ir8'
_cell_volume   232.43100043
_cell_formula_units_Z   1
loop_
 _symmetry_equiv_pos_site_id
 _symmetry_equiv_pos_as_xyz
  1  'x, y, z'
loop_
 _atom_site_type_symbol
 _atom_site_label
 _atom_site_symmetry_multiplicity
 _atom_site_fract_x
 _atom_site_fract_y
 _atom_site_fract_z
 _atom_site_occupancy
  Ca  Ca0  1  0.500000  0.500000  0.500000  1
  Tm  Tm1  1  0.000000  0.000000  0.000000  1
  B  B2  1  0.342547  0.779077  0.889040  1
  B  B3  1  0.657453  0.220923  0.889040  1
  B  B4  1  0.779077  0.657453  0.110960  1
  B  B5  1  0.220923  0.342547  0.110960  1
  B  B6  1  0.278092  0.157311  0.387686  1
  B  B7  1  0.721908  0.842689  0.387686  1
  B  B8  1  0.842689  0.278092  0.612314  1
  B  B9  1  0.157311  0.721908  0.612314  1
  Ir  Ir10  1  0.388659  0.154515  0.887779  1
  Ir  Ir11  1  0.611341  0.845485  0.887779  1
  Ir  Ir12  1  0.845485  0.388659  0.112221  1
  Ir  Ir13  1  0.154515  0.611341  0.112221  1
  Ir  Ir14  1  0.339493  0.889626  0.385800  1
  Ir  Ir15  1  0.660507  0.110374  0.385800  1
  Ir  Ir16  1  0.889626  0.660507  0.614200  1
  Ir  Ir17  1  0.110374  0.339493  0.614200  1
