# generated using pymatgen
data_Tm6ZrCo17P12
_symmetry_space_group_name_H-M   'P 1'
_cell_length_a   3.67801800
_cell_length_b   10.52984000
_cell_length_c   12.22076300
_cell_angle_alpha   90.00000000
_cell_angle_beta   90.00000000
_cell_angle_gamma   90.00000000
_symmetry_Int_Tables_number   1
_chemical_formula_structural   Tm6ZrCo17P12
_chemical_formula_sum   'Tm6 Zr1 Co17 P12'
_cell_volume   473.29720990
_cell_formula_units_Z   1
loop_
 _symmetry_equiv_pos_site_id
 _symmetry_equiv_pos_as_xyz
  1  'x, y, z'
loop_
 _atom_site_type_symbol
 _atom_site_label
 _atom_site_symmetry_multiplicity
 _atom_site_fract_x
 _atom_site_fract_y
 _atom_site_fract_z
 _atom_site_occupancy
  Tm  Tm0  1  0.000000  0.500000  0.529428  1
  Tm  Tm1  1  0.500000  0.000000  0.477192  1
  Tm  Tm2  1  0.500000  0.821885  0.207478  1
  Tm  Tm3  1  0.500000  0.178115  0.207478  1
  Tm  Tm4  1  0.000000  0.682519  0.795872  1
  Tm  Tm5  1  0.000000  0.317481  0.795872  1
  Zr  Zr6  1  0.500000  0.500000  0.155165  1
  Co  Co7  1  0.000000  0.000000  0.836213  1
  Co  Co8  1  0.500000  0.500000  0.702234  1
  Co  Co9  1  0.000000  0.000000  0.296784  1
  Co  Co10  1  0.000000  0.500000  0.982878  1
  Co  Co11  1  0.500000  0.000000  0.014230  1
  Co  Co12  1  0.500000  0.326798  0.987591  1
  Co  Co13  1  0.500000  0.673202  0.987591  1
  Co  Co14  1  0.000000  0.161413  0.001734  1
  Co  Co15  1  0.000000  0.838587  0.001734  1
  Co  Co16  1  0.500000  0.294263  0.434693  1
  Co  Co17  1  0.500000  0.705737  0.434693  1
  Co  Co18  1  0.000000  0.201630  0.570272  1
  Co  Co19  1  0.000000  0.798370  0.570272  1
  Co  Co20  1  0.500000  0.879633  0.707210  1
  Co  Co21  1  0.500000  0.120367  0.707210  1
  Co  Co22  1  0.000000  0.623752  0.297483  1
  Co  Co23  1  0.000000  0.376248  0.297483  1
  P  P24  1  0.500000  0.500000  0.880419  1
  P  P25  1  0.000000  0.000000  0.117603  1
  P  P26  1  0.500000  0.500000  0.363361  1
  P  P27  1  0.000000  0.000000  0.653381  1
  P  P28  1  0.500000  0.310331  0.618398  1
  P  P29  1  0.500000  0.689669  0.618398  1
  P  P30  1  0.000000  0.186985  0.386002  1
  P  P31  1  0.000000  0.813015  0.386002  1
  P  P32  1  0.500000  0.852078  0.887754  1
  P  P33  1  0.500000  0.147922  0.887754  1
  P  P34  1  0.000000  0.666032  0.101067  1
  P  P35  1  0.000000  0.333968  0.101067  1
