# generated using pymatgen
data_Ac4SiI5
_symmetry_space_group_name_H-M   'P 1'
_cell_length_a   10.60590701
_cell_length_b   10.60590675
_cell_length_c   9.54147254
_cell_angle_alpha   77.83352694
_cell_angle_beta   77.83352633
_cell_angle_gamma   24.95012176
_symmetry_Int_Tables_number   1
_chemical_formula_structural   Ac4SiI5
_chemical_formula_sum   'Ac4 Si1 I5'
_cell_volume   442.06614677
_cell_formula_units_Z   1
loop_
 _symmetry_equiv_pos_site_id
 _symmetry_equiv_pos_as_xyz
  1  'x, y, z'
loop_
 _atom_site_type_symbol
 _atom_site_label
 _atom_site_symmetry_multiplicity
 _atom_site_fract_x
 _atom_site_fract_y
 _atom_site_fract_z
 _atom_site_occupancy
  Ac  Ac0  1  0.851757  0.851757  0.076976  1
  Ac  Ac1  1  0.148243  0.148243  0.923024  1
  Ac  Ac2  1  0.501444  0.501444  0.215619  1
  Ac  Ac3  1  0.498556  0.498556  0.784381  1
  Si  Si4  1  0.000000  0.000000  0.000000  1
  I  I5  1  0.672377  0.672377  0.169795  1
  I  I6  1  0.327623  0.327623  0.830205  1
  I  I7  1  0.665288  0.665288  0.662253  1
  I  I8  1  0.334712  0.334712  0.337747  1
  I  I9  1  0.000000  0.000000  0.500000  1
