# generated using pymatgen
data_La2RhCl
_symmetry_space_group_name_H-M   'P 1'
_cell_length_a   8.04729829
_cell_length_b   8.04729821
_cell_length_c   8.04729698
_cell_angle_alpha   30.15581182
_cell_angle_beta   30.15581461
_cell_angle_gamma   30.15580526
_symmetry_Int_Tables_number   1
_chemical_formula_structural   La2RhCl
_chemical_formula_sum   'La2 Rh1 Cl1'
_cell_volume   116.51879956
_cell_formula_units_Z   1
loop_
 _symmetry_equiv_pos_site_id
 _symmetry_equiv_pos_as_xyz
  1  'x, y, z'
loop_
 _atom_site_type_symbol
 _atom_site_label
 _atom_site_symmetry_multiplicity
 _atom_site_fract_x
 _atom_site_fract_y
 _atom_site_fract_z
 _atom_site_occupancy
  La  La0  1  0.234257  0.234257  0.234257  1
  La  La1  1  0.765743  0.765743  0.765743  1
  Rh  Rh2  1  0.500000  0.500000  0.500000  1
  Cl  Cl3  1  0.000000  0.000000  0.000000  1
