# generated using pymatgen
data_Sc8Ti9Si16Mo3
_symmetry_space_group_name_H-M   'P 1'
_cell_length_a   6.63458672
_cell_length_b   6.78872181
_cell_length_c   12.97552900
_cell_angle_alpha   90.00000000
_cell_angle_beta   90.00000000
_cell_angle_gamma   90.08306443
_symmetry_Int_Tables_number   1
_chemical_formula_structural   Sc8Ti9Si16Mo3
_chemical_formula_sum   'Sc8 Ti9 Si16 Mo3'
_cell_volume   584.42192923
_cell_formula_units_Z   1
loop_
 _symmetry_equiv_pos_site_id
 _symmetry_equiv_pos_as_xyz
  1  'x, y, z'
loop_
 _atom_site_type_symbol
 _atom_site_label
 _atom_site_symmetry_multiplicity
 _atom_site_fract_x
 _atom_site_fract_y
 _atom_site_fract_z
 _atom_site_occupancy
  Sc  Sc0  1  0.501397  0.325137  0.096163  1
  Sc  Sc1  1  0.001328  0.175386  0.404144  1
  Sc  Sc2  1  0.497150  0.673072  0.594711  1
  Sc  Sc3  1  0.998860  0.824601  0.905122  1
  Sc  Sc4  1  0.497150  0.673072  0.905289  1
  Sc  Sc5  1  0.998860  0.824601  0.594878  1
  Sc  Sc6  1  0.501397  0.325137  0.403837  1
  Sc  Sc7  1  0.001328  0.175386  0.095856  1
  Ti  Ti8  1  0.835677  0.328289  0.626836  1
  Ti  Ti9  1  0.332966  0.173679  0.873280  1
  Ti  Ti10  1  0.167316  0.672467  0.126606  1
  Ti  Ti11  1  0.666722  0.828300  0.373229  1
  Ti  Ti12  1  0.167316  0.672467  0.373394  1
  Ti  Ti13  1  0.666722  0.828300  0.126771  1
  Ti  Ti14  1  0.835677  0.328289  0.873164  1
  Ti  Ti15  1  0.332966  0.173679  0.626720  1
  Ti  Ti16  1  0.660042  0.008166  0.750000  1
  Si  Si17  1  0.664610  0.035190  0.540366  1
  Si  Si18  1  0.164803  0.463657  0.959182  1
  Si  Si19  1  0.335464  0.964826  0.040975  1
  Si  Si20  1  0.834216  0.535936  0.459050  1
  Si  Si21  1  0.335464  0.964826  0.459025  1
  Si  Si22  1  0.834216  0.535936  0.040950  1
  Si  Si23  1  0.664610  0.035190  0.959634  1
  Si  Si24  1  0.164803  0.463657  0.540818  1
  Si  Si25  1  0.534614  0.384617  0.750000  1
  Si  Si26  1  0.034460  0.115821  0.750000  1
  Si  Si27  1  0.466199  0.614374  0.250000  1
  Si  Si28  1  0.965941  0.884794  0.250000  1
  Si  Si29  1  0.794446  0.638778  0.750000  1
  Si  Si30  1  0.293970  0.862005  0.750000  1
  Si  Si31  1  0.204628  0.361069  0.250000  1
  Si  Si32  1  0.705139  0.138349  0.250000  1
  Mo  Mo33  1  0.159331  0.491685  0.750000  1
  Mo  Mo34  1  0.339762  0.990856  0.250000  1
  Mo  Mo35  1  0.840448  0.508408  0.250000  1
