# generated using pymatgen
data_CeNpReB6
_symmetry_space_group_name_H-M   'P 1'
_cell_length_a   3.68873100
_cell_length_b   9.30237300
_cell_length_c   11.39131600
_cell_angle_alpha   90.00000000
_cell_angle_beta   90.00000000
_cell_angle_gamma   90.00000000
_symmetry_Int_Tables_number   1
_chemical_formula_structural   CeNpReB6
_chemical_formula_sum   'Ce4 Np4 Re4 B24'
_cell_volume   390.88106655
_cell_formula_units_Z   4
loop_
 _symmetry_equiv_pos_site_id
 _symmetry_equiv_pos_as_xyz
  1  'x, y, z'
loop_
 _atom_site_type_symbol
 _atom_site_label
 _atom_site_symmetry_multiplicity
 _atom_site_fract_x
 _atom_site_fract_y
 _atom_site_fract_z
 _atom_site_occupancy
  Ce  Ce0  1  0.000000  0.335626  0.407693  1
  Ce  Ce1  1  0.000000  0.664374  0.592307  1
  Ce  Ce2  1  0.000000  0.835626  0.092307  1
  Ce  Ce3  1  0.000000  0.164374  0.907693  1
  Np  Np4  1  0.000000  0.959079  0.400508  1
  Np  Np5  1  0.000000  0.040921  0.599492  1
  Np  Np6  1  0.000000  0.459079  0.099492  1
  Np  Np7  1  0.000000  0.540921  0.900508  1
  Re  Re8  1  0.000000  0.646339  0.318087  1
  Re  Re9  1  0.000000  0.353661  0.681913  1
  Re  Re10  1  0.000000  0.146339  0.181913  1
  Re  Re11  1  0.000000  0.853661  0.818087  1
  B  B12  1  0.500000  0.553139  0.429629  1
  B  B13  1  0.500000  0.446861  0.570371  1
  B  B14  1  0.500000  0.053139  0.070371  1
  B  B15  1  0.500000  0.946861  0.929629  1
  B  B16  1  0.500000  0.744512  0.422025  1
  B  B17  1  0.500000  0.255488  0.577975  1
  B  B18  1  0.500000  0.244512  0.077975  1
  B  B19  1  0.500000  0.755488  0.922025  1
  B  B20  1  0.500000  0.803573  0.274218  1
  B  B21  1  0.500000  0.196427  0.725782  1
  B  B22  1  0.500000  0.303573  0.225782  1
  B  B23  1  0.500000  0.696427  0.774218  1
  B  B24  1  0.500000  0.643756  0.187826  1
  B  B25  1  0.500000  0.356244  0.812174  1
  B  B26  1  0.500000  0.143756  0.312174  1
  B  B27  1  0.500000  0.856244  0.687826  1
  B  B28  1  0.500000  0.988574  0.220922  1
  B  B29  1  0.500000  0.011426  0.779078  1
  B  B30  1  0.500000  0.488574  0.279078  1
  B  B31  1  0.500000  0.511426  0.720922  1
  B  B32  1  0.500000  0.638525  0.037756  1
  B  B33  1  0.500000  0.361475  0.962244  1
  B  B34  1  0.500000  0.138525  0.462244  1
  B  B35  1  0.500000  0.861475  0.537756  1
