# generated using pymatgen
data_Ba5Bi3Cl
_symmetry_space_group_name_H-M   'P 1'
_cell_length_a   10.37840300
_cell_length_b   10.37840355
_cell_length_c   7.95372000
_cell_angle_alpha   90.00000000
_cell_angle_beta   90.00000000
_cell_angle_gamma   120.00000142
_symmetry_Int_Tables_number   1
_chemical_formula_structural   Ba5Bi3Cl
_chemical_formula_sum   'Ba10 Bi6 Cl2'
_cell_volume   741.92842131
_cell_formula_units_Z   2
loop_
 _symmetry_equiv_pos_site_id
 _symmetry_equiv_pos_as_xyz
  1  'x, y, z'
loop_
 _atom_site_type_symbol
 _atom_site_label
 _atom_site_symmetry_multiplicity
 _atom_site_fract_x
 _atom_site_fract_y
 _atom_site_fract_z
 _atom_site_occupancy
  Ba  Ba0  1  0.745428  0.000000  0.750000  1
  Ba  Ba1  1  0.000000  0.254572  0.250000  1
  Ba  Ba2  1  0.745428  0.745428  0.250000  1
  Ba  Ba3  1  0.333333  0.666667  0.500000  1
  Ba  Ba4  1  0.333333  0.666667  0.000000  1
  Ba  Ba5  1  0.666667  0.333333  0.500000  1
  Ba  Ba6  1  0.666667  0.333333  0.000000  1
  Ba  Ba7  1  0.254572  0.000000  0.250000  1
  Ba  Ba8  1  0.254572  0.254572  0.750000  1
  Ba  Ba9  1  0.000000  0.745428  0.750000  1
  Bi  Bi10  1  0.392603  0.000000  0.750000  1
  Bi  Bi11  1  0.607397  0.000000  0.250000  1
  Bi  Bi12  1  0.000000  0.607397  0.250000  1
  Bi  Bi13  1  0.607397  0.607397  0.750000  1
  Bi  Bi14  1  0.000000  0.392603  0.750000  1
  Bi  Bi15  1  0.392603  0.392603  0.250000  1
  Cl  Cl16  1  0.000000  0.000000  0.500000  1
  Cl  Cl17  1  0.000000  0.000000  0.000000  1
