# generated using pymatgen
data_Th3InC3
_symmetry_space_group_name_H-M   'P 1'
_cell_length_a   3.65465000
_cell_length_b   7.59134200
_cell_length_c   10.53078600
_cell_angle_alpha   90.00000000
_cell_angle_beta   90.00000000
_cell_angle_gamma   90.00000000
_symmetry_Int_Tables_number   1
_chemical_formula_structural   Th3InC3
_chemical_formula_sum   'Th6 In2 C6'
_cell_volume   292.16294691
_cell_formula_units_Z   2
loop_
 _symmetry_equiv_pos_site_id
 _symmetry_equiv_pos_as_xyz
  1  'x, y, z'
loop_
 _atom_site_type_symbol
 _atom_site_label
 _atom_site_symmetry_multiplicity
 _atom_site_fract_x
 _atom_site_fract_y
 _atom_site_fract_z
 _atom_site_occupancy
  Th  Th0  1  0.500000  0.514765  0.210152  1
  Th  Th1  1  0.500000  0.485235  0.789848  1
  Th  Th2  1  0.500000  0.985235  0.210152  1
  Th  Th3  1  0.500000  0.014765  0.789848  1
  Th  Th4  1  0.000000  0.750000  0.478742  1
  Th  Th5  1  0.000000  0.250000  0.521258  1
  In  In6  1  0.000000  0.750000  0.991184  1
  In  In7  1  0.000000  0.250000  0.008816  1
  C  C8  1  0.500000  0.503538  0.565765  1
  C  C9  1  0.500000  0.496462  0.434235  1
  C  C10  1  0.500000  0.996462  0.565765  1
  C  C11  1  0.500000  0.003538  0.434235  1
  C  C12  1  0.000000  0.750000  0.225804  1
  C  C13  1  0.000000  0.250000  0.774196  1
