# generated using pymatgen
data_Dy6Si2Hg
_symmetry_space_group_name_H-M   'P 1'
_cell_length_a   8.49862141
_cell_length_b   8.49862229
_cell_length_c   8.49862142
_cell_angle_alpha   111.60190202
_cell_angle_beta   110.86682816
_cell_angle_gamma   106.00060591
_symmetry_Int_Tables_number   1
_chemical_formula_structural   Dy6Si2Hg
_chemical_formula_sum   'Dy12 Si4 Hg2'
_cell_volume   471.21279412
_cell_formula_units_Z   2
loop_
 _symmetry_equiv_pos_site_id
 _symmetry_equiv_pos_as_xyz
  1  'x, y, z'
loop_
 _atom_site_type_symbol
 _atom_site_label
 _atom_site_symmetry_multiplicity
 _atom_site_fract_x
 _atom_site_fract_y
 _atom_site_fract_z
 _atom_site_occupancy
  Dy  Dy0  1  0.443742  0.243204  0.200538  1
  Dy  Dy1  1  0.556258  0.756796  0.799462  1
  Dy  Dy2  1  0.042665  0.243204  0.799462  1
  Dy  Dy3  1  0.957335  0.756796  0.200538  1
  Dy  Dy4  1  0.181605  0.274215  0.455819  1
  Dy  Dy5  1  0.818395  0.725785  0.544181  1
  Dy  Dy6  1  0.181605  0.725785  0.907390  1
  Dy  Dy7  1  0.818395  0.274215  0.092610  1
  Dy  Dy8  1  0.323070  0.619294  0.296225  1
  Dy  Dy9  1  0.676930  0.380706  0.703775  1
  Dy  Dy10  1  0.323070  0.026846  0.703775  1
  Dy  Dy11  1  0.676930  0.973154  0.296225  1
  Si  Si12  1  0.364533  0.000000  0.364533  1
  Si  Si13  1  0.635467  0.000000  0.635467  1
  Si  Si14  1  0.117521  0.617521  0.500000  1
  Si  Si15  1  0.882479  0.382479  0.500000  1
  Hg  Hg16  1  0.500000  0.500000  0.000000  1
  Hg  Hg17  1  0.000000  0.000000  0.000000  1
