# generated using pymatgen
data_DyEr2(SiRh2)3
_symmetry_space_group_name_H-M   'P 1'
_cell_length_a   5.56220500
_cell_length_b   5.56220353
_cell_length_c   15.00906900
_cell_angle_alpha   90.00000000
_cell_angle_beta   90.00000000
_cell_angle_gamma   119.99999090
_symmetry_Int_Tables_number   1
_chemical_formula_structural   DyEr2(SiRh2)3
_chemical_formula_sum   'Dy2 Er4 Si6 Rh12'
_cell_volume   402.14094411
_cell_formula_units_Z   2
loop_
 _symmetry_equiv_pos_site_id
 _symmetry_equiv_pos_as_xyz
  1  'x, y, z'
loop_
 _atom_site_type_symbol
 _atom_site_label
 _atom_site_symmetry_multiplicity
 _atom_site_fract_x
 _atom_site_fract_y
 _atom_site_fract_z
 _atom_site_occupancy
  Dy  Dy0  1  0.333333  0.666667  0.750000  1
  Dy  Dy1  1  0.666667  0.333333  0.250000  1
  Er  Er2  1  0.333333  0.666667  0.537310  1
  Er  Er3  1  0.666667  0.333333  0.462690  1
  Er  Er4  1  0.666667  0.333333  0.037310  1
  Er  Er5  1  0.333333  0.666667  0.962690  1
  Si  Si6  1  0.000000  0.000000  0.250000  1
  Si  Si7  1  0.000000  0.000000  0.750000  1
  Si  Si8  1  0.333333  0.666667  0.250000  1
  Si  Si9  1  0.666667  0.333333  0.750000  1
  Si  Si10  1  0.000000  0.000000  0.000000  1
  Si  Si11  1  0.000000  0.000000  0.500000  1
  Rh  Rh12  1  0.167061  0.334123  0.129889  1
  Rh  Rh13  1  0.832939  0.665877  0.870111  1
  Rh  Rh14  1  0.665877  0.832939  0.129889  1
  Rh  Rh15  1  0.832939  0.665877  0.629889  1
  Rh  Rh16  1  0.334123  0.167061  0.870111  1
  Rh  Rh17  1  0.167061  0.334123  0.370111  1
  Rh  Rh18  1  0.167061  0.832939  0.129889  1
  Rh  Rh19  1  0.334123  0.167061  0.629889  1
  Rh  Rh20  1  0.832939  0.167061  0.870111  1
  Rh  Rh21  1  0.665877  0.832939  0.370111  1
  Rh  Rh22  1  0.832939  0.167061  0.629889  1
  Rh  Rh23  1  0.167061  0.832939  0.370111  1
