# generated using pymatgen
data_Mg2ScRh4Pb
_symmetry_space_group_name_H-M   'P 1'
_cell_length_a   6.44254900
_cell_length_b   6.44161200
_cell_length_c   6.36360700
_cell_angle_alpha   90.00000000
_cell_angle_beta   90.00013461
_cell_angle_gamma   90.00000000
_symmetry_Int_Tables_number   1
_chemical_formula_structural   Mg2ScRh4Pb
_chemical_formula_sum   'Mg4 Sc2 Rh8 Pb2'
_cell_volume   264.09224198
_cell_formula_units_Z   2
loop_
 _symmetry_equiv_pos_site_id
 _symmetry_equiv_pos_as_xyz
  1  'x, y, z'
loop_
 _atom_site_type_symbol
 _atom_site_label
 _atom_site_symmetry_multiplicity
 _atom_site_fract_x
 _atom_site_fract_y
 _atom_site_fract_z
 _atom_site_occupancy
  Mg  Mg0  1  0.749979  0.250000  0.999996  1
  Mg  Mg1  1  0.250021  0.750001  0.000004  1
  Mg  Mg2  1  0.749972  0.250000  0.499993  1
  Mg  Mg3  1  0.250027  0.750001  0.500007  1
  Sc  Sc4  1  0.250037  0.250000  0.500006  1
  Sc  Sc5  1  0.749963  0.750001  0.499995  1
  Rh  Rh6  1  0.000002  0.999996  0.254741  1
  Rh  Rh7  1  0.000002  0.500005  0.254741  1
  Rh  Rh8  1  0.499999  0.999998  0.254768  1
  Rh  Rh9  1  0.499999  0.500003  0.254768  1
  Rh  Rh10  1  0.500003  0.000002  0.745232  1
  Rh  Rh11  1  0.500003  0.499997  0.745232  1
  Rh  Rh12  1  0.999998  0.000004  0.745260  1
  Rh  Rh13  1  0.999998  0.499995  0.745260  1
  Pb  Pb14  1  0.249862  0.250000  0.000001  1
  Pb  Pb15  1  0.750138  0.750001  0.999999  1
