# generated using pymatgen
data_Ca11DyPd12
_symmetry_space_group_name_H-M   'P 1'
_cell_length_a   5.74753512
_cell_length_b   4.49507500
_cell_length_c   22.04192800
_cell_angle_alpha   90.00000000
_cell_angle_beta   96.34323013
_cell_angle_gamma   90.00000000
_symmetry_Int_Tables_number   1
_chemical_formula_structural   Ca11DyPd12
_chemical_formula_sum   'Ca11 Dy1 Pd12'
_cell_volume   565.98012249
_cell_formula_units_Z   1
loop_
 _symmetry_equiv_pos_site_id
 _symmetry_equiv_pos_as_xyz
  1  'x, y, z'
loop_
 _atom_site_type_symbol
 _atom_site_label
 _atom_site_symmetry_multiplicity
 _atom_site_fract_x
 _atom_site_fract_y
 _atom_site_fract_z
 _atom_site_occupancy
  Ca  Ca0  1  0.185478  0.750000  0.106943  1
  Ca  Ca1  1  0.506030  0.250001  0.226209  1
  Ca  Ca2  1  0.023955  0.750000  0.272453  1
  Ca  Ca3  1  0.810313  0.250001  0.393487  1
  Ca  Ca4  1  0.332002  0.750000  0.439220  1
  Ca  Ca5  1  0.666154  0.250001  0.560279  1
  Ca  Ca6  1  0.189204  0.750000  0.606041  1
  Ca  Ca7  1  0.972449  0.250001  0.727055  1
  Ca  Ca8  1  0.495867  0.750000  0.773793  1
  Ca  Ca9  1  0.823805  0.250001  0.894489  1
  Ca  Ca10  1  0.333947  0.750000  0.940341  1
  Dy  Dy11  1  0.669665  0.250001  0.060895  1
  Pd  Pd12  1  0.154211  0.250001  0.016592  1
  Pd  Pd13  1  0.697091  0.750000  0.147024  1
  Pd  Pd14  1  0.981722  0.250001  0.176582  1
  Pd  Pd15  1  0.550164  0.750000  0.320688  1
  Pd  Pd16  1  0.283423  0.250001  0.344590  1
  Pd  Pd17  1  0.853354  0.750000  0.487651  1
  Pd  Pd18  1  0.145439  0.250001  0.512116  1
  Pd  Pd19  1  0.714741  0.750000  0.654382  1
  Pd  Pd20  1  0.447970  0.250001  0.679013  1
  Pd  Pd21  1  0.013272  0.750000  0.820332  1
  Pd  Pd22  1  0.303418  0.250001  0.845972  1
  Pd  Pd23  1  0.846329  0.750000  0.993852  1
