# generated using pymatgen
data_Sr8Cd3Si12Rh
_symmetry_space_group_name_H-M   'P 1'
_cell_length_a   11.97519404
_cell_length_b   10.35994231
_cell_length_c   8.48339200
_cell_angle_alpha   78.18906890
_cell_angle_beta   57.86691428
_cell_angle_gamma   44.01084689
_symmetry_Int_Tables_number   1
_chemical_formula_structural   Sr8Cd3Si12Rh
_chemical_formula_sum   'Sr8 Cd3 Si12 Rh1'
_cell_volume   590.26341453
_cell_formula_units_Z   1
loop_
 _symmetry_equiv_pos_site_id
 _symmetry_equiv_pos_as_xyz
  1  'x, y, z'
loop_
 _atom_site_type_symbol
 _atom_site_label
 _atom_site_symmetry_multiplicity
 _atom_site_fract_x
 _atom_site_fract_y
 _atom_site_fract_z
 _atom_site_occupancy
  Sr  Sr0  1  0.135650  0.122047  0.859660  1
  Sr  Sr1  1  0.858914  0.883374  0.135764  1
  Sr  Sr2  1  0.138821  0.123126  0.371994  1
  Sr  Sr3  1  0.373801  0.365376  0.137119  1
  Sr  Sr4  1  0.616481  0.636887  0.377965  1
  Sr  Sr5  1  0.377929  0.367739  0.617116  1
  Sr  Sr6  1  0.630456  0.628442  0.869838  1
  Sr  Sr7  1  0.869456  0.871670  0.631191  1
  Cd  Cd8  1  0.082926  0.417325  0.083189  1
  Cd  Cd9  1  0.834146  0.168780  0.830838  1
  Cd  Cd10  1  0.166257  0.833629  0.166677  1
  Si  Si11  1  0.907281  0.597121  0.436204  1
  Si  Si12  1  0.089927  0.405042  0.583123  1
  Si  Si13  1  0.436392  0.059325  0.906860  1
  Si  Si14  1  0.582468  0.922098  0.090099  1
  Si  Si15  1  0.336229  0.653573  0.822894  1
  Si  Si16  1  0.659948  0.341946  0.180871  1
  Si  Si17  1  0.823610  0.186057  0.336334  1
  Si  Si18  1  0.178207  0.816794  0.661753  1
  Si  Si19  1  0.906288  0.593413  0.905964  1
  Si  Si20  1  0.578070  0.921952  0.579055  1
  Si  Si21  1  0.340623  0.660469  0.339371  1
  Si  Si22  1  0.658667  0.340652  0.659843  1
  Rh  Rh23  1  0.417455  0.083166  0.416273  1
