# generated using pymatgen
data_La6Ga7SnSe2
_symmetry_space_group_name_H-M   'P 1'
_cell_length_a   8.30506843
_cell_length_b   8.30506799
_cell_length_c   8.29302586
_cell_angle_alpha   119.88811340
_cell_angle_beta   119.88811108
_cell_angle_gamma   90.20387677
_symmetry_Int_Tables_number   1
_chemical_formula_structural   La6Ga7SnSe2
_chemical_formula_sum   'La6 Ga7 Sn1 Se2'
_cell_volume   405.11436983
_cell_formula_units_Z   1
loop_
 _symmetry_equiv_pos_site_id
 _symmetry_equiv_pos_as_xyz
  1  'x, y, z'
loop_
 _atom_site_type_symbol
 _atom_site_label
 _atom_site_symmetry_multiplicity
 _atom_site_fract_x
 _atom_site_fract_y
 _atom_site_fract_z
 _atom_site_occupancy
  La  La0  1  0.663999  0.163999  0.829332  1
  La  La1  1  0.165016  0.334607  0.497456  1
  La  La2  1  0.834607  0.665016  0.497456  1
  La  La3  1  0.746738  0.753565  0.000622  1
  La  La4  1  0.342619  0.842619  0.178972  1
  La  La5  1  0.253565  0.246738  0.000622  1
  Ga  Ga6  1  0.837383  0.044627  0.490483  1
  Ga  Ga7  1  0.341203  0.841203  0.783461  1
  Ga  Ga8  1  0.444948  0.660127  0.501109  1
  Ga  Ga9  1  0.544627  0.337383  0.490483  1
  Ga  Ga10  1  0.059945  0.559945  0.229593  1
  Ga  Ga11  1  0.160127  0.944948  0.501109  1
  Ga  Ga12  1  0.658999  0.158999  0.215845  1
  Sn  Sn13  1  0.946318  0.446318  0.784313  1
  Se  Se14  1  0.499906  0.500000  0.999572  1
  Se  Se15  1  0.000000  0.999906  0.999572  1
