# generated using pymatgen
data_TbEr3ReB12Os
_symmetry_space_group_name_H-M   'P 1'
_cell_length_a   3.65300200
_cell_length_b   9.13014148
_cell_length_c   11.51750504
_cell_angle_alpha   90.13069672
_cell_angle_beta   90.00000000
_cell_angle_gamma   90.00000000
_symmetry_Int_Tables_number   1
_chemical_formula_structural   TbEr3ReB12Os
_chemical_formula_sum   'Tb2 Er6 Re2 B24 Os2'
_cell_volume   384.13572466
_cell_formula_units_Z   2
loop_
 _symmetry_equiv_pos_site_id
 _symmetry_equiv_pos_as_xyz
  1  'x, y, z'
loop_
 _atom_site_type_symbol
 _atom_site_label
 _atom_site_symmetry_multiplicity
 _atom_site_fract_x
 _atom_site_fract_y
 _atom_site_fract_z
 _atom_site_occupancy
  Tb  Tb0  1  0.000000  0.320774  0.412442  1
  Tb  Tb1  1  0.000000  0.679226  0.587558  1
  Er  Er2  1  0.000000  0.824517  0.084647  1
  Er  Er3  1  0.000000  0.175483  0.915353  1
  Er  Er4  1  0.000000  0.943347  0.370524  1
  Er  Er5  1  0.000000  0.056653  0.629476  1
  Er  Er6  1  0.000000  0.442623  0.128461  1
  Er  Er7  1  0.000000  0.557377  0.871539  1
  Re  Re8  1  0.000000  0.138193  0.179309  1
  Re  Re9  1  0.000000  0.861807  0.820691  1
  B  B10  1  0.500000  0.554046  0.432690  1
  B  B11  1  0.500000  0.445954  0.567310  1
  B  B12  1  0.500000  0.052921  0.066601  1
  B  B13  1  0.500000  0.947079  0.933399  1
  B  B14  1  0.500000  0.749212  0.418398  1
  B  B15  1  0.500000  0.250788  0.581602  1
  B  B16  1  0.500000  0.249101  0.080634  1
  B  B17  1  0.500000  0.750899  0.919366  1
  B  B18  1  0.500000  0.791125  0.265593  1
  B  B19  1  0.500000  0.208875  0.734407  1
  B  B20  1  0.500000  0.291800  0.234220  1
  B  B21  1  0.500000  0.708200  0.765780  1
  B  B22  1  0.500000  0.630940  0.185646  1
  B  B23  1  0.500000  0.369060  0.814354  1
  B  B24  1  0.500000  0.130889  0.314705  1
  B  B25  1  0.500000  0.869111  0.685295  1
  B  B26  1  0.500000  0.982141  0.212398  1
  B  B27  1  0.500000  0.017859  0.787602  1
  B  B28  1  0.500000  0.483236  0.287545  1
  B  B29  1  0.500000  0.516764  0.712455  1
  B  B30  1  0.500000  0.603073  0.028778  1
  B  B31  1  0.500000  0.396927  0.971222  1
  B  B32  1  0.500000  0.102455  0.471783  1
  B  B33  1  0.500000  0.897545  0.528217  1
  Os  Os34  1  0.000000  0.638136  0.321032  1
  Os  Os35  1  0.000000  0.361864  0.678968  1
