# generated using pymatgen
data_Ac2Al16PdPt8
_symmetry_space_group_name_H-M   'P 1'
_cell_length_a   11.17759845
_cell_length_b   11.17759930
_cell_length_c   11.17759900
_cell_angle_alpha   158.50410170
_cell_angle_beta   115.16298439
_cell_angle_gamma   69.16741838
_symmetry_Int_Tables_number   1
_chemical_formula_structural   Ac2Al16PdPt8
_chemical_formula_sum   'Ac2 Al16 Pd1 Pt8'
_cell_volume   459.79138422
_cell_formula_units_Z   1
loop_
 _symmetry_equiv_pos_site_id
 _symmetry_equiv_pos_as_xyz
  1  'x, y, z'
loop_
 _atom_site_type_symbol
 _atom_site_label
 _atom_site_symmetry_multiplicity
 _atom_site_fract_x
 _atom_site_fract_y
 _atom_site_fract_z
 _atom_site_occupancy
  Ac  Ac0  1  0.228032  0.227821  0.000211  1
  Ac  Ac1  1  0.772390  0.772179  0.000211  1
  Al  Al2  1  0.275596  0.393647  0.881950  1
  Al  Al3  1  0.095448  0.922259  0.173190  1
  Al  Al4  1  0.507884  0.203212  0.304673  1
  Al  Al5  1  0.250930  0.077741  0.173190  1
  Al  Al6  1  0.916208  0.416507  0.499701  1
  Al  Al7  1  0.724328  0.605721  0.118607  1
  Al  Al8  1  0.898059  0.203012  0.695047  1
  Al  Al9  1  0.492036  0.796988  0.695047  1
  Al  Al10  1  0.385790  0.000000  0.385790  1
  Al  Al11  1  0.614269  0.000000  0.614269  1
  Al  Al12  1  0.488303  0.606353  0.881950  1
  Al  Al13  1  0.101461  0.796788  0.304673  1
  Al  Al14  1  0.904671  0.078612  0.826059  1
  Al  Al15  1  0.747448  0.921388  0.826059  1
  Al  Al16  1  0.512886  0.394279  0.118607  1
  Al  Al17  1  0.083195  0.583493  0.499701  1
  Pd  Pd18  1  0.752507  0.500000  0.252507  1
  Pt  Pt19  1  0.028927  0.340510  0.688416  1
  Pt  Pt20  1  0.622884  0.123209  0.499675  1
  Pt  Pt21  1  0.251835  0.500000  0.751835  1
  Pt  Pt22  1  0.376466  0.876791  0.499675  1
  Pt  Pt23  1  0.998453  0.000000  0.998453  1
  Pt  Pt24  1  0.651852  0.340807  0.311045  1
  Pt  Pt25  1  0.347906  0.659490  0.688416  1
  Pt  Pt26  1  0.970237  0.659193  0.311045  1
