# generated using pymatgen
data_Sr8Si13Pd3
_symmetry_space_group_name_H-M   'P 1'
_cell_length_a   8.36333300
_cell_length_b   8.36333376
_cell_length_c   9.21862600
_cell_angle_alpha   90.00000000
_cell_angle_beta   90.00000000
_cell_angle_gamma   119.99999305
_symmetry_Int_Tables_number   1
_chemical_formula_structural   Sr8Si13Pd3
_chemical_formula_sum   'Sr8 Si13 Pd3'
_cell_volume   558.41320019
_cell_formula_units_Z   1
loop_
 _symmetry_equiv_pos_site_id
 _symmetry_equiv_pos_as_xyz
  1  'x, y, z'
loop_
 _atom_site_type_symbol
 _atom_site_label
 _atom_site_symmetry_multiplicity
 _atom_site_fract_x
 _atom_site_fract_y
 _atom_site_fract_z
 _atom_site_occupancy
  Sr  Sr0  1  0.500524  0.499476  0.745737  1
  Sr  Sr1  1  0.500382  0.499618  0.254354  1
  Sr  Sr2  1  0.998952  0.499476  0.745737  1
  Sr  Sr3  1  0.999236  0.499618  0.254354  1
  Sr  Sr4  1  0.500524  0.001048  0.745737  1
  Sr  Sr5  1  0.500382  0.000764  0.254354  1
  Sr  Sr6  1  0.000000  0.000000  0.749054  1
  Sr  Sr7  1  0.000000  0.000000  0.253064  1
  Si  Si8  1  0.666667  0.333333  0.990396  1
  Si  Si9  1  0.840039  0.159961  0.002995  1
  Si  Si10  1  0.168023  0.831977  0.000025  1
  Si  Si11  1  0.319923  0.159961  0.002995  1
  Si  Si12  1  0.164984  0.835016  0.499840  1
  Si  Si13  1  0.663953  0.831977  0.000025  1
  Si  Si14  1  0.835498  0.164502  0.499584  1
  Si  Si15  1  0.840039  0.680077  0.002995  1
  Si  Si16  1  0.670032  0.835016  0.499840  1
  Si  Si17  1  0.168023  0.336047  0.000025  1
  Si  Si18  1  0.329004  0.164502  0.499584  1
  Si  Si19  1  0.164984  0.329968  0.499840  1
  Si  Si20  1  0.835498  0.670996  0.499584  1
  Pd  Pd21  1  0.333333  0.666667  0.999486  1
  Pd  Pd22  1  0.333333  0.666667  0.500407  1
  Pd  Pd23  1  0.666667  0.333333  0.499982  1
