# generated using pymatgen
data_Er2LuSc3(B2Ir5)2
_symmetry_space_group_name_H-M   'P 1'
_cell_length_a   3.14589800
_cell_length_b   9.70886756
_cell_length_c   9.70886697
_cell_angle_alpha   89.36756207
_cell_angle_beta   90.00000000
_cell_angle_gamma   90.00000000
_symmetry_Int_Tables_number   1
_chemical_formula_structural   Er2LuSc3(B2Ir5)2
_chemical_formula_sum   'Er2 Lu1 Sc3 B4 Ir10'
_cell_volume   296.52089788
_cell_formula_units_Z   1
loop_
 _symmetry_equiv_pos_site_id
 _symmetry_equiv_pos_as_xyz
  1  'x, y, z'
loop_
 _atom_site_type_symbol
 _atom_site_label
 _atom_site_symmetry_multiplicity
 _atom_site_fract_x
 _atom_site_fract_y
 _atom_site_fract_z
 _atom_site_occupancy
  Er  Er0  1  0.000000  0.176993  0.677912  1
  Er  Er1  1  0.000000  0.822088  0.323007  1
  Lu  Lu2  1  0.000000  0.324077  0.175923  1
  Sc  Sc3  1  0.000000  0.676815  0.823185  1
  Sc  Sc4  1  0.000000  0.000448  0.999960  1
  Sc  Sc5  1  0.000000  0.500040  0.499552  1
  B  B6  1  0.000000  0.621520  0.117648  1
  B  B7  1  0.000000  0.382352  0.878480  1
  B  B8  1  0.000000  0.876795  0.623205  1
  B  B9  1  0.000000  0.119795  0.380205  1
  Ir  Ir10  1  0.500000  0.070384  0.224512  1
  Ir  Ir11  1  0.500000  0.924835  0.778651  1
  Ir  Ir12  1  0.500000  0.775321  0.064592  1
  Ir  Ir13  1  0.500000  0.435408  0.724679  1
  Ir  Ir14  1  0.500000  0.226990  0.932170  1
  Ir  Ir15  1  0.500000  0.567830  0.273010  1
  Ir  Ir16  1  0.500000  0.721349  0.575165  1
  Ir  Ir17  1  0.500000  0.275488  0.429616  1
  Ir  Ir18  1  0.500000  0.998181  0.501819  1
  Ir  Ir19  1  0.500000  0.503294  0.996706  1
