# generated using pymatgen
data_Ba3HfF10
_symmetry_space_group_name_H-M   'P 1'
_cell_length_a   8.75610355
_cell_length_b   8.75610321
_cell_length_c   6.17066300
_cell_angle_alpha   90.00000000
_cell_angle_beta   90.00000000
_cell_angle_gamma   101.25518282
_symmetry_Int_Tables_number   1
_chemical_formula_structural   Ba3HfF10
_chemical_formula_sum   'Ba6 Hf2 F20'
_cell_volume   464.00185116
_cell_formula_units_Z   2
loop_
 _symmetry_equiv_pos_site_id
 _symmetry_equiv_pos_as_xyz
  1  'x, y, z'
loop_
 _atom_site_type_symbol
 _atom_site_label
 _atom_site_symmetry_multiplicity
 _atom_site_fract_x
 _atom_site_fract_y
 _atom_site_fract_z
 _atom_site_occupancy
  Ba  Ba0  1  0.824516  0.601538  0.750000  1
  Ba  Ba1  1  0.175484  0.398462  0.250000  1
  Ba  Ba2  1  0.398462  0.175484  0.750000  1
  Ba  Ba3  1  0.601538  0.824516  0.250000  1
  Ba  Ba4  1  0.888035  0.111965  0.750000  1
  Ba  Ba5  1  0.111965  0.888035  0.250000  1
  Hf  Hf6  1  0.320552  0.679448  0.750000  1
  Hf  Hf7  1  0.679448  0.320552  0.250000  1
  F  F8  1  0.138532  0.138532  0.500000  1
  F  F9  1  0.861468  0.861468  0.500000  1
  F  F10  1  0.861468  0.861468  0.000000  1
  F  F11  1  0.138532  0.138532  0.000000  1
  F  F12  1  0.116722  0.652020  0.542828  1
  F  F13  1  0.883278  0.347980  0.457172  1
  F  F14  1  0.883278  0.347980  0.042828  1
  F  F15  1  0.347980  0.883278  0.957172  1
  F  F16  1  0.116722  0.652020  0.957172  1
  F  F17  1  0.652020  0.116722  0.042828  1
  F  F18  1  0.652020  0.116722  0.457172  1
  F  F19  1  0.347980  0.883278  0.542828  1
  F  F20  1  0.245441  0.436006  0.750000  1
  F  F21  1  0.754559  0.563994  0.250000  1
  F  F22  1  0.563994  0.754559  0.750000  1
  F  F23  1  0.436006  0.245441  0.250000  1
  F  F24  1  0.603731  0.396269  0.538959  1
  F  F25  1  0.396269  0.603731  0.461041  1
  F  F26  1  0.396269  0.603731  0.038959  1
  F  F27  1  0.603731  0.396269  0.961041  1
