# generated using pymatgen
data_Rb12TaMn3Se16
_symmetry_space_group_name_H-M   'P 1'
_cell_length_a   9.88688700
_cell_length_b   9.96051932
_cell_length_c   11.52773800
_cell_angle_alpha   90.00000000
_cell_angle_beta   90.00000000
_cell_angle_gamma   89.69371219
_symmetry_Int_Tables_number   1
_chemical_formula_structural   Rb12TaMn3Se16
_chemical_formula_sum   'Rb12 Ta1 Mn3 Se16'
_cell_volume   1135.21845999
_cell_formula_units_Z   1
loop_
 _symmetry_equiv_pos_site_id
 _symmetry_equiv_pos_as_xyz
  1  'x, y, z'
loop_
 _atom_site_type_symbol
 _atom_site_label
 _atom_site_symmetry_multiplicity
 _atom_site_fract_x
 _atom_site_fract_y
 _atom_site_fract_z
 _atom_site_occupancy
  Rb  Rb0  1  0.951609  0.706381  0.953479  1
  Rb  Rb1  1  0.448716  0.795543  0.953401  1
  Rb  Rb2  1  0.548577  0.203165  0.456783  1
  Rb  Rb3  1  0.052673  0.292497  0.042931  1
  Rb  Rb4  1  0.141472  0.084310  0.750000  1
  Rb  Rb5  1  0.639954  0.418722  0.750000  1
  Rb  Rb6  1  0.357761  0.585291  0.250000  1
  Rb  Rb7  1  0.860359  0.912922  0.250000  1
  Rb  Rb8  1  0.052673  0.292497  0.457069  1
  Rb  Rb9  1  0.448716  0.795543  0.546599  1
  Rb  Rb10  1  0.548577  0.203165  0.043217  1
  Rb  Rb11  1  0.951609  0.706381  0.546521  1
  Ta  Ta12  1  0.779211  0.484564  0.250000  1
  Mn  Mn13  1  0.278312  0.015602  0.250000  1
  Mn  Mn14  1  0.722377  0.986059  0.750000  1
  Mn  Mn15  1  0.218763  0.514746  0.750000  1
  Se  Se16  1  0.201510  0.741312  0.750000  1
  Se  Se17  1  0.702862  0.760919  0.750000  1
  Se  Se18  1  0.298935  0.241493  0.250000  1
  Se  Se19  1  0.800141  0.243851  0.250000  1
  Se  Se20  1  0.009228  0.423881  0.750000  1
  Se  Se21  1  0.512516  0.079239  0.750000  1
  Se  Se22  1  0.487464  0.921987  0.250000  1
  Se  Se23  1  0.003377  0.580995  0.250000  1
  Se  Se24  1  0.660672  0.551286  0.423731  1
  Se  Se25  1  0.167365  0.954476  0.087314  1
  Se  Se26  1  0.833664  0.047551  0.587684  1
  Se  Se27  1  0.329604  0.451155  0.911663  1
  Se  Se28  1  0.329604  0.451155  0.588337  1
  Se  Se29  1  0.660672  0.551286  0.076269  1
  Se  Se30  1  0.167365  0.954476  0.412686  1
  Se  Se31  1  0.833664  0.047551  0.912316  1
