# generated using pymatgen
data_Sr2YU(AsPt)4
_symmetry_space_group_name_H-M   'P 1'
_cell_length_a   4.30839600
_cell_length_b   4.30839430
_cell_length_c   16.82264600
_cell_angle_alpha   90.00000000
_cell_angle_beta   90.00000000
_cell_angle_gamma   119.99999770
_symmetry_Int_Tables_number   1
_chemical_formula_structural   Sr2YU(AsPt)4
_chemical_formula_sum   'Sr2 Y1 U1 As4 Pt4'
_cell_volume   270.43070764
_cell_formula_units_Z   1
loop_
 _symmetry_equiv_pos_site_id
 _symmetry_equiv_pos_as_xyz
  1  'x, y, z'
loop_
 _atom_site_type_symbol
 _atom_site_label
 _atom_site_symmetry_multiplicity
 _atom_site_fract_x
 _atom_site_fract_y
 _atom_site_fract_z
 _atom_site_occupancy
  Sr  Sr0  1  0.000000  0.000000  0.999675  1
  Sr  Sr1  1  0.000000  0.000000  0.500325  1
  Y  Y2  1  0.000000  0.000000  0.750000  1
  U  U3  1  0.000000  0.000000  0.250000  1
  As  As4  1  0.333333  0.666667  0.873683  1
  As  As5  1  0.666667  0.333333  0.371997  1
  As  As6  1  0.666667  0.333333  0.128003  1
  As  As7  1  0.333333  0.666667  0.626317  1
  Pt  Pt8  1  0.333333  0.666667  0.349335  1
  Pt  Pt9  1  0.666667  0.333333  0.856913  1
  Pt  Pt10  1  0.666667  0.333333  0.643087  1
  Pt  Pt11  1  0.333333  0.666667  0.150665  1
