# generated using pymatgen
data_Er4InHgPd4
_symmetry_space_group_name_H-M   'P 1'
_cell_length_a   7.70666000
_cell_length_b   7.70666000
_cell_length_c   3.65739900
_cell_angle_alpha   90.00000000
_cell_angle_beta   90.00000000
_cell_angle_gamma   90.00000000
_symmetry_Int_Tables_number   1
_chemical_formula_structural   Er4InHgPd4
_chemical_formula_sum   'Er4 In1 Hg1 Pd4'
_cell_volume   217.22246641
_cell_formula_units_Z   1
loop_
 _symmetry_equiv_pos_site_id
 _symmetry_equiv_pos_as_xyz
  1  'x, y, z'
loop_
 _atom_site_type_symbol
 _atom_site_label
 _atom_site_symmetry_multiplicity
 _atom_site_fract_x
 _atom_site_fract_y
 _atom_site_fract_z
 _atom_site_occupancy
  Er  Er0  1  0.327072  0.826960  0.500000  1
  Er  Er1  1  0.826960  0.672928  0.500000  1
  Er  Er2  1  0.173040  0.327072  0.500000  1
  Er  Er3  1  0.672928  0.173040  0.500000  1
  In  In4  1  0.500000  0.500000  0.000000  1
  Hg  Hg5  1  0.000000  0.000000  0.000000  1
  Pd  Pd6  1  0.371902  0.128589  0.000000  1
  Pd  Pd7  1  0.871411  0.371902  0.000000  1
  Pd  Pd8  1  0.128589  0.628098  0.000000  1
  Pd  Pd9  1  0.628098  0.871411  0.000000  1
