# generated using pymatgen
data_Y6Er3LuSb6
_symmetry_space_group_name_H-M   'P 1'
_cell_length_a   6.26430500
_cell_length_b   8.96312778
_cell_length_c   8.96289400
_cell_angle_alpha   120.00096339
_cell_angle_beta   89.99966916
_cell_angle_gamma   89.99986789
_symmetry_Int_Tables_number   1
_chemical_formula_structural   Y6Er3LuSb6
_chemical_formula_sum   'Y6 Er3 Lu1 Sb6'
_cell_volume   435.82000202
_cell_formula_units_Z   1
loop_
 _symmetry_equiv_pos_site_id
 _symmetry_equiv_pos_as_xyz
  1  'x, y, z'
loop_
 _atom_site_type_symbol
 _atom_site_label
 _atom_site_symmetry_multiplicity
 _atom_site_fract_x
 _atom_site_fract_y
 _atom_site_fract_z
 _atom_site_occupancy
  Y  Y0  1  0.749999  0.247510  0.999988  1
  Y  Y1  1  0.749996  0.752516  0.752517  1
  Y  Y2  1  0.750001  0.000025  0.247496  1
  Y  Y3  1  0.250005  0.752474  0.999984  1
  Y  Y4  1  0.250008  0.247476  0.247497  1
  Y  Y5  1  0.250005  0.000000  0.752517  1
  Er  Er6  1  0.499994  0.666658  0.333327  1
  Er  Er7  1  0.999992  0.666666  0.333325  1
  Er  Er8  1  0.999994  0.333346  0.666679  1
  Lu  Lu9  1  0.499991  0.333332  0.666673  1
  Sb  Sb10  1  0.749628  0.610549  0.999516  1
  Sb  Sb11  1  0.749631  0.388985  0.389468  1
  Sb  Sb12  1  0.749633  0.000487  0.611014  1
  Sb  Sb13  1  0.250374  0.388965  0.999515  1
  Sb  Sb14  1  0.250376  0.610528  0.611014  1
  Sb  Sb15  1  0.250377  0.000483  0.389469  1
