# generated using pymatgen
data_Zr5Ta5(Ga3N)2
_symmetry_space_group_name_H-M   'P 1'
_cell_length_a   7.92777925
_cell_length_b   7.92777979
_cell_length_c   5.49611800
_cell_angle_alpha   90.00000000
_cell_angle_beta   90.00000000
_cell_angle_gamma   120.41202179
_symmetry_Int_Tables_number   1
_chemical_formula_structural   Zr5Ta5(Ga3N)2
_chemical_formula_sum   'Zr5 Ta5 Ga6 N2'
_cell_volume   297.90081179
_cell_formula_units_Z   1
loop_
 _symmetry_equiv_pos_site_id
 _symmetry_equiv_pos_as_xyz
  1  'x, y, z'
loop_
 _atom_site_type_symbol
 _atom_site_label
 _atom_site_symmetry_multiplicity
 _atom_site_fract_x
 _atom_site_fract_y
 _atom_site_fract_z
 _atom_site_occupancy
  Zr  Zr0  1  0.236450  0.002510  0.250000  1
  Zr  Zr1  1  0.764469  0.999371  0.750000  1
  Zr  Zr2  1  0.002510  0.236450  0.250000  1
  Zr  Zr3  1  0.999371  0.764469  0.750000  1
  Zr  Zr4  1  0.769431  0.769431  0.250000  1
  Ta  Ta5  1  0.228534  0.228534  0.750000  1
  Ta  Ta6  1  0.332290  0.664292  0.000066  1
  Ta  Ta7  1  0.664292  0.332290  0.000066  1
  Ta  Ta8  1  0.664292  0.332290  0.499934  1
  Ta  Ta9  1  0.332290  0.664292  0.499934  1
  Ga  Ga10  1  0.591695  0.999447  0.250000  1
  Ga  Ga11  1  0.405335  0.000190  0.750000  1
  Ga  Ga12  1  0.999447  0.591695  0.250000  1
  Ga  Ga13  1  0.000190  0.405335  0.750000  1
  Ga  Ga14  1  0.411122  0.411122  0.250000  1
  Ga  Ga15  1  0.585255  0.585255  0.750000  1
  N  N16  1  0.006513  0.006513  0.995352  1
  N  N17  1  0.006513  0.006513  0.504648  1
