# generated using pymatgen
data_Ca2Tm3Sn4
_symmetry_space_group_name_H-M   'P 1'
_cell_length_a   7.82097200
_cell_length_b   8.36957200
_cell_length_c   15.74330200
_cell_angle_alpha   90.00000000
_cell_angle_beta   90.00000000
_cell_angle_gamma   90.00000000
_symmetry_Int_Tables_number   1
_chemical_formula_structural   Ca2Tm3Sn4
_chemical_formula_sum   'Ca8 Tm12 Sn16'
_cell_volume   1030.52802621
_cell_formula_units_Z   4
loop_
 _symmetry_equiv_pos_site_id
 _symmetry_equiv_pos_as_xyz
  1  'x, y, z'
loop_
 _atom_site_type_symbol
 _atom_site_label
 _atom_site_symmetry_multiplicity
 _atom_site_fract_x
 _atom_site_fract_y
 _atom_site_fract_z
 _atom_site_occupancy
  Ca  Ca0  1  0.504899  0.316276  0.908478  1
  Ca  Ca1  1  0.004899  0.183724  0.591522  1
  Ca  Ca2  1  0.495101  0.683724  0.408478  1
  Ca  Ca3  1  0.995101  0.816276  0.091522  1
  Ca  Ca4  1  0.495101  0.683724  0.091522  1
  Ca  Ca5  1  0.995101  0.816276  0.408478  1
  Ca  Ca6  1  0.504899  0.316276  0.591522  1
  Ca  Ca7  1  0.004899  0.183724  0.908478  1
  Tm  Tm8  1  0.332533  0.838805  0.876426  1
  Tm  Tm9  1  0.832533  0.661195  0.623574  1
  Tm  Tm10  1  0.667467  0.161195  0.376426  1
  Tm  Tm11  1  0.167467  0.338805  0.123574  1
  Tm  Tm12  1  0.667467  0.161195  0.123574  1
  Tm  Tm13  1  0.167467  0.338805  0.376426  1
  Tm  Tm14  1  0.332533  0.838805  0.623574  1
  Tm  Tm15  1  0.832533  0.661195  0.876426  1
  Tm  Tm16  1  0.171302  0.492725  0.750000  1
  Tm  Tm17  1  0.671302  0.007275  0.750000  1
  Tm  Tm18  1  0.828698  0.507275  0.250000  1
  Tm  Tm19  1  0.328698  0.992725  0.250000  1
  Sn  Sn20  1  0.324304  0.038641  0.042990  1
  Sn  Sn21  1  0.824304  0.461359  0.457010  1
  Sn  Sn22  1  0.675696  0.961359  0.542990  1
  Sn  Sn23  1  0.175696  0.538641  0.957010  1
  Sn  Sn24  1  0.675696  0.961359  0.957010  1
  Sn  Sn25  1  0.175696  0.538641  0.542990  1
  Sn  Sn26  1  0.324304  0.038641  0.457010  1
  Sn  Sn27  1  0.824304  0.461359  0.042990  1
  Sn  Sn28  1  0.531890  0.632153  0.750000  1
  Sn  Sn29  1  0.031890  0.867847  0.750000  1
  Sn  Sn30  1  0.468110  0.367847  0.250000  1
  Sn  Sn31  1  0.968110  0.132153  0.250000  1
  Sn  Sn32  1  0.299759  0.139559  0.750000  1
  Sn  Sn33  1  0.799759  0.360441  0.750000  1
  Sn  Sn34  1  0.700241  0.860441  0.250000  1
  Sn  Sn35  1  0.200241  0.639559  0.250000  1
