# generated using pymatgen
data_Tm3Sc2Ga2Sb
_symmetry_space_group_name_H-M   'P 1'
_cell_length_a   8.46597279
_cell_length_b   8.45762726
_cell_length_c   6.17796200
_cell_angle_alpha   90.00000000
_cell_angle_beta   90.00000000
_cell_angle_gamma   119.96739863
_symmetry_Int_Tables_number   1
_chemical_formula_structural   Tm3Sc2Ga2Sb
_chemical_formula_sum   'Tm6 Sc4 Ga4 Sb2'
_cell_volume   383.21619269
_cell_formula_units_Z   2
loop_
 _symmetry_equiv_pos_site_id
 _symmetry_equiv_pos_as_xyz
  1  'x, y, z'
loop_
 _atom_site_type_symbol
 _atom_site_label
 _atom_site_symmetry_multiplicity
 _atom_site_fract_x
 _atom_site_fract_y
 _atom_site_fract_z
 _atom_site_occupancy
  Tm  Tm0  1  0.234387  0.999989  0.250000  1
  Tm  Tm1  1  0.234387  0.234399  0.750000  1
  Tm  Tm2  1  0.012666  0.762288  0.750000  1
  Tm  Tm3  1  0.012666  0.250378  0.250000  1
  Tm  Tm4  1  0.762816  0.749804  0.250000  1
  Tm  Tm5  1  0.762816  0.013013  0.750000  1
  Sc  Sc6  1  0.316299  0.658149  0.000000  1
  Sc  Sc7  1  0.670917  0.335458  0.500000  1
  Sc  Sc8  1  0.670917  0.335458  0.000000  1
  Sc  Sc9  1  0.316299  0.658149  0.500000  1
  Ga  Ga10  1  0.998430  0.402697  0.750000  1
  Ga  Ga11  1  0.998430  0.595733  0.250000  1
  Ga  Ga12  1  0.403863  0.400346  0.250000  1
  Ga  Ga13  1  0.403863  0.003515  0.750000  1
  Sb  Sb14  1  0.600621  0.995722  0.250000  1
  Sb  Sb15  1  0.600621  0.604899  0.750000  1
