# generated using pymatgen
data_Ho5LuU4O20
_symmetry_space_group_name_H-M   'P 1'
_cell_length_a   6.63046861
_cell_length_b   7.46277313
_cell_length_c   8.36823372
_cell_angle_alpha   100.73028888
_cell_angle_beta   97.64070804
_cell_angle_gamma   107.27735784
_symmetry_Int_Tables_number   1
_chemical_formula_structural   Ho5LuU4O20
_chemical_formula_sum   'Ho5 Lu1 U4 O20'
_cell_volume   380.57551858
_cell_formula_units_Z   1
loop_
 _symmetry_equiv_pos_site_id
 _symmetry_equiv_pos_as_xyz
  1  'x, y, z'
loop_
 _atom_site_type_symbol
 _atom_site_label
 _atom_site_symmetry_multiplicity
 _atom_site_fract_x
 _atom_site_fract_y
 _atom_site_fract_z
 _atom_site_occupancy
  Ho  Ho0  1  0.615439  0.703365  0.698899  1
  Ho  Ho1  1  0.384561  0.296635  0.301101  1
  Ho  Ho2  1  0.196805  0.895971  0.890531  1
  Ho  Ho3  1  0.803195  0.104029  0.109469  1
  Ho  Ho4  1  0.000000  0.000000  0.500000  1
  Lu  Lu5  1  0.000000  0.500000  0.500000  1
  U  U6  1  0.401018  0.803876  0.302269  1
  U  U7  1  0.198840  0.399546  0.897910  1
  U  U8  1  0.801160  0.600454  0.102090  1
  U  U9  1  0.598982  0.196124  0.697731  1
  O  O10  1  0.440780  0.531576  0.138606  1
  O  O11  1  0.555167  0.986290  0.841718  1
  O  O12  1  0.266163  0.142241  0.744722  1
  O  O13  1  0.357710  0.592796  0.443961  1
  O  O14  1  0.053163  0.726891  0.336121  1
  O  O15  1  0.444833  0.013710  0.158282  1
  O  O16  1  0.150065  0.182732  0.032980  1
  O  O17  1  0.559220  0.468424  0.861394  1
  O  O18  1  0.853954  0.335410  0.950038  1
  O  O19  1  0.255819  0.607221  0.756618  1
  O  O20  1  0.953763  0.768637  0.650386  1
  O  O21  1  0.352516  0.063308  0.453010  1
  O  O22  1  0.647484  0.936692  0.546990  1
  O  O23  1  0.046237  0.231363  0.349614  1
  O  O24  1  0.744181  0.392779  0.243382  1
  O  O25  1  0.146046  0.664590  0.049962  1
  O  O26  1  0.849935  0.817268  0.967020  1
  O  O27  1  0.946837  0.273109  0.663879  1
  O  O28  1  0.642290  0.407204  0.556039  1
  O  O29  1  0.733837  0.857759  0.255278  1
