# generated using pymatgen
data_ZrPa5Al2(Ga2Pt3)2
_symmetry_space_group_name_H-M   'P 1'
_cell_length_a   7.00392952
_cell_length_b   7.03612464
_cell_length_c   8.31088883
_cell_angle_alpha   90.07410199
_cell_angle_beta   90.07191759
_cell_angle_gamma   120.08293826
_symmetry_Int_Tables_number   1
_chemical_formula_structural   ZrPa5Al2(Ga2Pt3)2
_chemical_formula_sum   'Zr1 Pa5 Al2 Ga4 Pt6'
_cell_volume   354.39567827
_cell_formula_units_Z   1
loop_
 _symmetry_equiv_pos_site_id
 _symmetry_equiv_pos_as_xyz
  1  'x, y, z'
loop_
 _atom_site_type_symbol
 _atom_site_label
 _atom_site_symmetry_multiplicity
 _atom_site_fract_x
 _atom_site_fract_y
 _atom_site_fract_z
 _atom_site_occupancy
  Zr  Zr0  1  0.406290  0.405778  0.250110  1
  Pa  Pa1  1  0.998813  0.578720  0.750230  1
  Pa  Pa2  1  0.998653  0.576486  0.249824  1
  Pa  Pa3  1  0.581319  0.001293  0.249854  1
  Pa  Pa4  1  0.582423  0.999353  0.750331  1
  Pa  Pa5  1  0.425148  0.426639  0.749929  1
  Al  Al6  1  0.237585  0.004278  0.001168  1
  Al  Al7  1  0.758830  0.757953  0.492545  1
  Ga  Ga8  1  0.003272  0.244426  0.499175  1
  Ga  Ga9  1  0.750841  0.748668  0.007587  1
  Ga  Ga10  1  0.006625  0.246311  0.000819  1
  Ga  Ga11  1  0.246620  0.002839  0.499276  1
  Pt  Pt12  1  0.341622  0.670596  0.496667  1
  Pt  Pt13  1  0.668368  0.341593  0.497179  1
  Pt  Pt14  1  0.658638  0.326638  0.002378  1
  Pt  Pt15  1  0.002398  0.997155  0.250152  1
  Pt  Pt16  1  0.001376  0.995327  0.749836  1
  Pt  Pt17  1  0.331181  0.675947  0.002939  1
