# generated using pymatgen
data_LiTb11Ho5In(HgRh2)2
_symmetry_space_group_name_H-M   'P 1'
_cell_length_a   9.60934140
_cell_length_b   9.64548039
_cell_length_c   9.62619266
_cell_angle_alpha   60.16579825
_cell_angle_beta   59.98179507
_cell_angle_gamma   60.05547047
_symmetry_Int_Tables_number   1
_chemical_formula_structural   LiTb11Ho5In(HgRh2)2
_chemical_formula_sum   'Li1 Tb11 Ho5 In1 Hg2 Rh4'
_cell_volume   631.85942620
_cell_formula_units_Z   1
loop_
 _symmetry_equiv_pos_site_id
 _symmetry_equiv_pos_as_xyz
  1  'x, y, z'
loop_
 _atom_site_type_symbol
 _atom_site_label
 _atom_site_symmetry_multiplicity
 _atom_site_fract_x
 _atom_site_fract_y
 _atom_site_fract_z
 _atom_site_occupancy
  Li  Li0  1  0.427590  0.706880  0.432704  1
  Tb  Tb1  1  0.436540  0.437243  0.062296  1
  Tb  Tb2  1  0.652658  0.649605  0.651061  1
  Tb  Tb3  1  0.809585  0.192503  0.190052  1
  Tb  Tb4  1  0.186568  0.815663  0.812012  1
  Tb  Tb5  1  0.047718  0.647955  0.651320  1
  Tb  Tb6  1  0.438776  0.063248  0.061116  1
  Tb  Tb7  1  0.439039  0.062602  0.436940  1
  Tb  Tb8  1  0.067119  0.437184  0.061228  1
  Tb  Tb9  1  0.652398  0.648188  0.047535  1
  Tb  Tb10  1  0.186068  0.816737  0.186144  1
  Tb  Tb11  1  0.066580  0.436527  0.434481  1
  Ho  Ho12  1  0.813321  0.811974  0.187952  1
  Ho  Ho13  1  0.810202  0.191989  0.807591  1
  Ho  Ho14  1  0.189115  0.191882  0.809622  1
  Ho  Ho15  1  0.648065  0.056656  0.647940  1
  Ho  Ho16  1  0.062930  0.063804  0.437099  1
  In  In17  1  0.743949  0.420250  0.418617  1
  Hg  Hg18  1  0.413288  0.419944  0.413468  1
  Hg  Hg19  1  0.413064  0.419575  0.754360  1
  Rh  Rh20  1  0.856965  0.426416  0.857644  1
  Rh  Rh21  1  0.855363  0.861920  0.856353  1
  Rh  Rh22  1  0.855001  0.860661  0.426992  1
  Rh  Rh23  1  0.428099  0.860590  0.855475  1
