# generated using pymatgen
data_Ti8ReOs7
_symmetry_space_group_name_H-M   'P 1'
_cell_length_a   4.38897702
_cell_length_b   12.39221905
_cell_length_c   4.38873500
_cell_angle_alpha   90.00000000
_cell_angle_beta   90.00000000
_cell_angle_gamma   90.01037022
_symmetry_Int_Tables_number   1
_chemical_formula_structural   Ti8ReOs7
_chemical_formula_sum   'Ti8 Re1 Os7'
_cell_volume   238.69962646
_cell_formula_units_Z   1
loop_
 _symmetry_equiv_pos_site_id
 _symmetry_equiv_pos_as_xyz
  1  'x, y, z'
loop_
 _atom_site_type_symbol
 _atom_site_label
 _atom_site_symmetry_multiplicity
 _atom_site_fract_x
 _atom_site_fract_y
 _atom_site_fract_z
 _atom_site_occupancy
  Ti  Ti0  1  0.917332  0.000727  0.000000  1
  Ti  Ti1  1  0.916004  0.249270  0.000000  1
  Ti  Ti2  1  0.916075  0.499664  0.000000  1
  Ti  Ti3  1  0.917276  0.750323  0.000000  1
  Ti  Ti4  1  0.417292  0.000732  0.500000  1
  Ti  Ti5  1  0.416001  0.249267  0.500000  1
  Ti  Ti6  1  0.416054  0.499677  0.500000  1
  Ti  Ti7  1  0.417252  0.750335  0.500000  1
  Re  Re8  1  0.416664  0.125007  0.000000  1
  Os  Os9  1  0.415990  0.375863  0.000000  1
  Os  Os10  1  0.416672  0.625001  0.000000  1
  Os  Os11  1  0.417346  0.874139  0.000000  1
  Os  Os12  1  0.916661  0.124996  0.500000  1
  Os  Os13  1  0.915963  0.375772  0.500000  1
  Os  Os14  1  0.916654  0.625000  0.500000  1
  Os  Os15  1  0.917353  0.874229  0.500000  1
