# generated using pymatgen
data_Cr2TcIr4Os
_symmetry_space_group_name_H-M   'P 1'
_cell_length_a   5.40592400
_cell_length_b   5.46174271
_cell_length_c   4.29972800
_cell_angle_alpha   90.00000000
_cell_angle_beta   90.00000000
_cell_angle_gamma   119.66249886
_symmetry_Int_Tables_number   1
_chemical_formula_structural   Cr2TcIr4Os
_chemical_formula_sum   'Cr2 Tc1 Ir4 Os1'
_cell_volume   110.31631616
_cell_formula_units_Z   1
loop_
 _symmetry_equiv_pos_site_id
 _symmetry_equiv_pos_as_xyz
  1  'x, y, z'
loop_
 _atom_site_type_symbol
 _atom_site_label
 _atom_site_symmetry_multiplicity
 _atom_site_fract_x
 _atom_site_fract_y
 _atom_site_fract_z
 _atom_site_occupancy
  Cr  Cr0  1  0.332623  0.665248  0.750000  1
  Cr  Cr1  1  0.668939  0.337876  0.250000  1
  Tc  Tc2  1  0.169824  0.339647  0.250000  1
  Ir  Ir3  1  0.661369  0.827028  0.250000  1
  Ir  Ir4  1  0.165660  0.827028  0.250000  1
  Ir  Ir5  1  0.338644  0.171286  0.750000  1
  Ir  Ir6  1  0.832639  0.171286  0.750000  1
  Os  Os7  1  0.830301  0.660604  0.750000  1
