# generated using pymatgen
data_Na2B2Pd5Pt
_symmetry_space_group_name_H-M   'P 1'
_cell_length_a   5.61850700
_cell_length_b   5.61634287
_cell_length_c   5.57605900
_cell_angle_alpha   90.00000000
_cell_angle_beta   90.00000000
_cell_angle_gamma   120.01274145
_symmetry_Int_Tables_number   1
_chemical_formula_structural   Na2B2Pd5Pt
_chemical_formula_sum   'Na2 B2 Pd5 Pt1'
_cell_volume   152.36203248
_cell_formula_units_Z   1
loop_
 _symmetry_equiv_pos_site_id
 _symmetry_equiv_pos_as_xyz
  1  'x, y, z'
loop_
 _atom_site_type_symbol
 _atom_site_label
 _atom_site_symmetry_multiplicity
 _atom_site_fract_x
 _atom_site_fract_y
 _atom_site_fract_z
 _atom_site_occupancy
  Na  Na0  1  0.000000  0.000000  0.499624  1
  Na  Na1  1  0.000000  0.000000  0.000466  1
  B  B2  1  0.664622  0.329243  0.498359  1
  B  B3  1  0.335378  0.670757  0.498359  1
  Pd  Pd4  1  0.500000  0.500000  0.752255  1
  Pd  Pd5  1  0.000000  0.500000  0.752255  1
  Pd  Pd6  1  0.500000  0.000000  0.760998  1
  Pd  Pd7  1  0.000000  0.500000  0.243903  1
  Pd  Pd8  1  0.500000  0.500000  0.243903  1
  Pt  Pt9  1  0.500000  0.000000  0.249880  1
