# generated using pymatgen
data_Lu8Sc4InCo4Os
_symmetry_space_group_name_H-M   'P 1'
_cell_length_a   7.96060160
_cell_length_b   7.96060180
_cell_length_c   7.96060199
_cell_angle_alpha   110.95643651
_cell_angle_beta   111.67685869
_cell_angle_gamma   105.84111337
_symmetry_Int_Tables_number   1
_chemical_formula_structural   Lu8Sc4InCo4Os
_chemical_formula_sum   'Lu8 Sc4 In1 Co4 Os1'
_cell_volume   387.16727409
_cell_formula_units_Z   1
loop_
 _symmetry_equiv_pos_site_id
 _symmetry_equiv_pos_as_xyz
  1  'x, y, z'
loop_
 _atom_site_type_symbol
 _atom_site_label
 _atom_site_symmetry_multiplicity
 _atom_site_fract_x
 _atom_site_fract_y
 _atom_site_fract_z
 _atom_site_occupancy
  Lu  Lu0  1  0.185120  0.276550  0.461671  1
  Lu  Lu1  1  0.814880  0.723450  0.538329  1
  Lu  Lu2  1  0.185120  0.723450  0.908571  1
  Lu  Lu3  1  0.814880  0.276550  0.091429  1
  Lu  Lu4  1  0.312871  0.615921  0.303049  1
  Lu  Lu5  1  0.687129  0.384079  0.696951  1
  Lu  Lu6  1  0.312871  0.009821  0.696951  1
  Lu  Lu7  1  0.687129  0.990179  0.303049  1
  Sc  Sc8  1  0.415460  0.221411  0.194049  1
  Sc  Sc9  1  0.584540  0.778589  0.805951  1
  Sc  Sc10  1  0.027362  0.221411  0.805951  1
  Sc  Sc11  1  0.972638  0.778589  0.194049  1
  In  In12  1  0.500000  0.500000  0.000000  1
  Co  Co13  1  0.368884  0.000000  0.368884  1
  Co  Co14  1  0.631116  0.000000  0.631116  1
  Co  Co15  1  0.113534  0.613534  0.500000  1
  Co  Co16  1  0.886466  0.386466  0.500000  1
  Os  Os17  1  0.000000  0.000000  0.000000  1
