# generated using pymatgen
data_Ga3Pd6Pt
_symmetry_space_group_name_H-M   'P 1'
_cell_length_a   7.19991493
_cell_length_b   7.19991573
_cell_length_c   5.53346363
_cell_angle_alpha   75.21815802
_cell_angle_beta   75.21815635
_cell_angle_gamma   33.31749723
_symmetry_Int_Tables_number   1
_chemical_formula_structural   Ga3Pd6Pt
_chemical_formula_sum   'Ga3 Pd6 Pt1'
_cell_volume   151.86913821
_cell_formula_units_Z   1
loop_
 _symmetry_equiv_pos_site_id
 _symmetry_equiv_pos_as_xyz
  1  'x, y, z'
loop_
 _atom_site_type_symbol
 _atom_site_label
 _atom_site_symmetry_multiplicity
 _atom_site_fract_x
 _atom_site_fract_y
 _atom_site_fract_z
 _atom_site_occupancy
  Ga  Ga0  1  0.000000  0.000000  0.000000  1
  Ga  Ga1  1  0.191485  0.191485  0.337137  1
  Ga  Ga2  1  0.808515  0.808515  0.662863  1
  Pd  Pd3  1  0.206291  0.206291  0.861324  1
  Pd  Pd4  1  0.793709  0.793709  0.138676  1
  Pd  Pd5  1  0.374483  0.374483  0.384483  1
  Pd  Pd6  1  0.625517  0.625517  0.615517  1
  Pd  Pd7  1  0.417958  0.417958  0.854826  1
  Pd  Pd8  1  0.582042  0.582042  0.145174  1
  Pt  Pt9  1  0.000000  0.000000  0.500000  1
