# generated using pymatgen
data_Dy4Ho8Co5Bi
_symmetry_space_group_name_H-M   'P 1'
_cell_length_a   8.28763401
_cell_length_b   8.28766732
_cell_length_c   8.28763483
_cell_angle_alpha   110.73017127
_cell_angle_beta   110.80626534
_cell_angle_gamma   106.90709897
_symmetry_Int_Tables_number   1
_chemical_formula_structural   Dy4Ho8Co5Bi
_chemical_formula_sum   'Dy4 Ho8 Co5 Bi1'
_cell_volume   437.54541095
_cell_formula_units_Z   1
loop_
 _symmetry_equiv_pos_site_id
 _symmetry_equiv_pos_as_xyz
  1  'x, y, z'
loop_
 _atom_site_type_symbol
 _atom_site_label
 _atom_site_symmetry_multiplicity
 _atom_site_fract_x
 _atom_site_fract_y
 _atom_site_fract_z
 _atom_site_occupancy
  Dy  Dy0  1  0.816378  0.711748  0.528124  1
  Dy  Dy1  1  0.183622  0.288252  0.471876  1
  Dy  Dy2  1  0.183625  0.711748  0.895370  1
  Dy  Dy3  1  0.816375  0.288252  0.104630  1
  Ho  Ho4  1  0.688261  0.378674  0.690414  1
  Ho  Ho5  1  0.311739  0.621326  0.309586  1
  Ho  Ho6  1  0.688259  0.997847  0.309588  1
  Ho  Ho7  1  0.311741  0.002153  0.690412  1
  Ho  Ho8  1  0.598113  0.792619  0.805493  1
  Ho  Ho9  1  0.401887  0.207381  0.194507  1
  Ho  Ho10  1  0.987126  0.792619  0.194506  1
  Ho  Ho11  1  0.012874  0.207381  0.805494  1
  Co  Co12  1  0.624252  0.000000  0.624252  1
  Co  Co13  1  0.375748  0.000000  0.375748  1
  Co  Co14  1  0.111617  0.611617  0.500000  1
  Co  Co15  1  0.888383  0.388383  0.500000  1
  Co  Co16  1  0.000000  0.000000  0.000000  1
  Bi  Bi17  1  0.500000  0.500000  0.000000  1
