# generated using pymatgen
data_La3BiTe3
_symmetry_space_group_name_H-M   'P 1'
_cell_length_a   8.41067769
_cell_length_b   8.41575258
_cell_length_c   8.45121442
_cell_angle_alpha   109.49432164
_cell_angle_beta   109.47005240
_cell_angle_gamma   109.26634033
_symmetry_Int_Tables_number   1
_chemical_formula_structural   La3BiTe3
_chemical_formula_sum   'La6 Bi2 Te6'
_cell_volume   461.52615806
_cell_formula_units_Z   2
loop_
 _symmetry_equiv_pos_site_id
 _symmetry_equiv_pos_as_xyz
  1  'x, y, z'
loop_
 _atom_site_type_symbol
 _atom_site_label
 _atom_site_symmetry_multiplicity
 _atom_site_fract_x
 _atom_site_fract_y
 _atom_site_fract_z
 _atom_site_occupancy
  La  La0  1  0.873711  0.124359  0.749609  1
  La  La1  1  0.375522  0.249754  0.624339  1
  La  La2  1  0.125282  0.750324  0.875208  1
  La  La3  1  0.750074  0.875117  0.124792  1
  La  La4  1  0.251183  0.625414  0.375661  1
  La  La5  1  0.624103  0.374751  0.250391  1
  Bi  Bi6  1  0.656049  0.655712  0.656146  1
  Bi  Bi7  1  0.499903  0.999567  0.343854  1
  Te  Te8  1  0.999487  0.346959  0.500540  1
  Te  Te9  1  0.347050  0.500173  0.000680  1
  Te  Te10  1  0.998948  0.846419  0.499460  1
  Te  Te11  1  0.846370  0.499493  0.999320  1
  Te  Te12  1  0.152966  0.152787  0.153615  1
  Te  Te13  1  0.499352  0.999173  0.846385  1
