# generated using pymatgen
data_Tb5P12Os9Rh10
_symmetry_space_group_name_H-M   'P 1'
_cell_length_a   3.97548500
_cell_length_b   12.63671359
_cell_length_c   12.63755003
_cell_angle_alpha   119.99781369
_cell_angle_beta   90.00000000
_cell_angle_gamma   90.00000000
_symmetry_Int_Tables_number   1
_chemical_formula_structural   Tb5P12Os9Rh10
_chemical_formula_sum   'Tb5 P12 Os9 Rh10'
_cell_volume   549.82862760
_cell_formula_units_Z   1
loop_
 _symmetry_equiv_pos_site_id
 _symmetry_equiv_pos_as_xyz
  1  'x, y, z'
loop_
 _atom_site_type_symbol
 _atom_site_label
 _atom_site_symmetry_multiplicity
 _atom_site_fract_x
 _atom_site_fract_y
 _atom_site_fract_z
 _atom_site_occupancy
  Tb  Tb0  1  0.500000  0.999986  0.183964  1
  Tb  Tb1  1  0.500000  0.184078  0.000000  1
  Tb  Tb2  1  0.500000  0.816023  0.816036  1
  Tb  Tb3  1  0.000000  0.333323  0.666688  1
  Tb  Tb4  1  0.000000  0.666635  0.333312  1
  P  P5  1  0.000000  0.000006  0.817970  1
  P  P6  1  0.000000  0.817949  0.000000  1
  P  P7  1  0.000000  0.182035  0.182030  1
  P  P8  1  0.500000  0.310858  0.484060  1
  P  P9  1  0.500000  0.173204  0.689148  1
  P  P10  1  0.500000  0.515921  0.826765  1
  P  P11  1  0.500000  0.826798  0.515940  1
  P  P12  1  0.500000  0.484055  0.310852  1
  P  P13  1  0.500000  0.689158  0.173235  1
  P  P14  1  0.000000  0.999989  0.369580  1
  P  P15  1  0.000000  0.369573  0.000000  1
  P  P16  1  0.000000  0.630409  0.630420  1
  Os  Os17  1  0.500000  0.000008  0.712560  1
  Os  Os18  1  0.500000  0.712512  0.000000  1
  Os  Os19  1  0.500000  0.287449  0.287440  1
  Os  Os20  1  0.500000  0.126820  0.488428  1
  Os  Os21  1  0.500000  0.361612  0.873180  1
  Os  Os22  1  0.500000  0.511593  0.638376  1
  Os  Os23  1  0.500000  0.638391  0.511572  1
  Os  Os24  1  0.500000  0.488433  0.126820  1
  Os  Os25  1  0.500000  0.873217  0.361624  1
  Rh  Rh26  1  0.000000  0.999978  0.550255  1
  Rh  Rh27  1  0.000000  0.550219  0.000000  1
  Rh  Rh28  1  0.000000  0.449722  0.449745  1
  Rh  Rh29  1  0.000000  0.190550  0.373533  1
  Rh  Rh30  1  0.000000  0.182943  0.809405  1
  Rh  Rh31  1  0.000000  0.626478  0.817046  1
  Rh  Rh32  1  0.000000  0.817016  0.626467  1
  Rh  Rh33  1  0.000000  0.373539  0.190595  1
  Rh  Rh34  1  0.000000  0.809432  0.182954  1
  Rh  Rh35  1  0.000000  0.999986  0.000000  1
