# generated using pymatgen
data_KGa2Au5
_symmetry_space_group_name_H-M   'P 1'
_cell_length_a   7.28775300
_cell_length_b   8.99363300
_cell_length_c   10.35981600
_cell_angle_alpha   90.00000000
_cell_angle_beta   90.00000000
_cell_angle_gamma   90.00000000
_symmetry_Int_Tables_number   1
_chemical_formula_structural   KGa2Au5
_chemical_formula_sum   'K4 Ga8 Au20'
_cell_volume   679.01731410
_cell_formula_units_Z   4
loop_
 _symmetry_equiv_pos_site_id
 _symmetry_equiv_pos_as_xyz
  1  'x, y, z'
loop_
 _atom_site_type_symbol
 _atom_site_label
 _atom_site_symmetry_multiplicity
 _atom_site_fract_x
 _atom_site_fract_y
 _atom_site_fract_z
 _atom_site_occupancy
  K  K0  1  0.250000  0.253389  0.126309  1
  K  K1  1  0.250000  0.753389  0.373691  1
  K  K2  1  0.750000  0.746611  0.873691  1
  K  K3  1  0.750000  0.246611  0.626309  1
  Ga  Ga4  1  0.250000  0.051874  0.617122  1
  Ga  Ga5  1  0.250000  0.551874  0.882878  1
  Ga  Ga6  1  0.750000  0.948126  0.382878  1
  Ga  Ga7  1  0.750000  0.448126  0.117122  1
  Ga  Ga8  1  0.250000  0.357388  0.481761  1
  Ga  Ga9  1  0.250000  0.857388  0.018239  1
  Ga  Ga10  1  0.750000  0.642612  0.518239  1
  Ga  Ga11  1  0.750000  0.142612  0.981761  1
  Au  Au12  1  0.053682  0.110291  0.397353  1
  Au  Au13  1  0.446318  0.610291  0.102647  1
  Au  Au14  1  0.553682  0.889709  0.602647  1
  Au  Au15  1  0.946318  0.389709  0.897353  1
  Au  Au16  1  0.946318  0.889709  0.602647  1
  Au  Au17  1  0.553682  0.389709  0.897353  1
  Au  Au18  1  0.446318  0.110291  0.397353  1
  Au  Au19  1  0.053682  0.610291  0.102647  1
  Au  Au20  1  0.043162  0.061293  0.864787  1
  Au  Au21  1  0.456838  0.561293  0.635213  1
  Au  Au22  1  0.543162  0.938707  0.135213  1
  Au  Au23  1  0.956838  0.438707  0.364787  1
  Au  Au24  1  0.956838  0.938707  0.135213  1
  Au  Au25  1  0.543162  0.438707  0.364787  1
  Au  Au26  1  0.456838  0.061293  0.864787  1
  Au  Au27  1  0.043162  0.561293  0.635213  1
  Au  Au28  1  0.250000  0.303764  0.732797  1
  Au  Au29  1  0.250000  0.803764  0.767203  1
  Au  Au30  1  0.750000  0.696236  0.267203  1
  Au  Au31  1  0.750000  0.196236  0.232797  1
