# generated using pymatgen
data_Ti6Al5Fe12Re
_symmetry_space_group_name_H-M   'P 1'
_cell_length_a   4.12942100
_cell_length_b   5.85557500
_cell_length_c   12.36044700
_cell_angle_alpha   90.00000000
_cell_angle_beta   90.00008325
_cell_angle_gamma   90.00030333
_symmetry_Int_Tables_number   1
_chemical_formula_structural   Ti6Al5Fe12Re
_chemical_formula_sum   'Ti6 Al5 Fe12 Re1'
_cell_volume   298.87726936
_cell_formula_units_Z   1
loop_
 _symmetry_equiv_pos_site_id
 _symmetry_equiv_pos_as_xyz
  1  'x, y, z'
loop_
 _atom_site_type_symbol
 _atom_site_label
 _atom_site_symmetry_multiplicity
 _atom_site_fract_x
 _atom_site_fract_y
 _atom_site_fract_z
 _atom_site_occupancy
  Ti  Ti0  1  0.999999  0.500269  0.999934  1
  Ti  Ti1  1  0.499999  0.999976  0.174715  1
  Ti  Ti2  1  0.999998  0.499696  0.334684  1
  Ti  Ti3  1  0.499999  0.000349  0.500006  1
  Ti  Ti4  1  0.000003  0.499743  0.665404  1
  Ti  Ti5  1  0.500001  0.999934  0.825311  1
  Al  Al6  1  0.499997  0.499980  0.167234  1
  Al  Al7  1  0.999998  0.000163  0.334290  1
  Al  Al8  1  0.500000  0.499787  0.499998  1
  Al  Al9  1  0.000002  0.000165  0.665754  1
  Al  Al10  1  0.500003  0.500097  0.832770  1
  Fe  Fe11  1  0.499998  0.241406  0.999985  1
  Fe  Fe12  1  0.500000  0.758557  0.999956  1
  Fe  Fe13  1  0.999998  0.246242  0.161112  1
  Fe  Fe14  1  0.999996  0.753671  0.161105  1
  Fe  Fe15  1  0.500000  0.251886  0.333508  1
  Fe  Fe16  1  0.499998  0.748111  0.333487  1
  Fe  Fe17  1  0.000003  0.250740  0.499991  1
  Fe  Fe18  1  0.999998  0.749274  0.500000  1
  Fe  Fe19  1  0.500002  0.251849  0.666501  1
  Fe  Fe20  1  0.500002  0.748095  0.666531  1
  Fe  Fe21  1  0.000006  0.246219  0.838851  1
  Fe  Fe22  1  0.000004  0.753589  0.838797  1
  Re  Re23  1  0.000001  0.000198  0.000077  1
