# generated using pymatgen
data_La7Th(CdIr)2
_symmetry_space_group_name_H-M   'P 1'
_cell_length_a   10.13577009
_cell_length_b   10.13577003
_cell_length_c   10.14769200
_cell_angle_alpha   59.96108307
_cell_angle_beta   59.96108329
_cell_angle_gamma   60.11611437
_symmetry_Int_Tables_number   1
_chemical_formula_structural   La7Th(CdIr)2
_chemical_formula_sum   'La14 Th2 Cd4 Ir4'
_cell_volume   737.37646707
_cell_formula_units_Z   2
loop_
 _symmetry_equiv_pos_site_id
 _symmetry_equiv_pos_as_xyz
  1  'x, y, z'
loop_
 _atom_site_type_symbol
 _atom_site_label
 _atom_site_symmetry_multiplicity
 _atom_site_fract_x
 _atom_site_fract_y
 _atom_site_fract_z
 _atom_site_occupancy
  La  La0  1  0.597217  0.207114  0.597835  1
  La  La1  1  0.207114  0.597217  0.597835  1
  La  La2  1  0.058841  0.440620  0.441600  1
  La  La3  1  0.440620  0.058841  0.058939  1
  La  La4  1  0.440620  0.058841  0.441600  1
  La  La5  1  0.058841  0.440620  0.058939  1
  La  La6  1  0.440665  0.440665  0.059335  1
  La  La7  1  0.057664  0.057664  0.442336  1
  La  La8  1  0.192273  0.809537  0.810919  1
  La  La9  1  0.809537  0.192273  0.187271  1
  La  La10  1  0.809537  0.192273  0.810919  1
  La  La11  1  0.192273  0.809537  0.187271  1
  La  La12  1  0.810046  0.810046  0.189954  1
  La  La13  1  0.189269  0.189269  0.810731  1
  Th  Th14  1  0.594740  0.594740  0.595916  1
  Th  Th15  1  0.594740  0.594740  0.214603  1
  Cd  Cd16  1  0.828286  0.828286  0.831317  1
  Cd  Cd17  1  0.828286  0.828286  0.512110  1
  Cd  Cd18  1  0.827825  0.510701  0.830736  1
  Cd  Cd19  1  0.510701  0.827825  0.830736  1
  Ir  Ir20  1  0.396323  0.396323  0.386072  1
  Ir  Ir21  1  0.396323  0.396323  0.821282  1
  Ir  Ir22  1  0.401498  0.816758  0.390872  1
  Ir  Ir23  1  0.816758  0.401498  0.390872  1
