# generated using pymatgen
data_TbYb2Ho(ReB4)4
_symmetry_space_group_name_H-M   'P 1'
_cell_length_a   3.60387400
_cell_length_b   5.97602411
_cell_length_c   11.56812417
_cell_angle_alpha   90.03833328
_cell_angle_beta   90.00000000
_cell_angle_gamma   90.00000000
_symmetry_Int_Tables_number   1
_chemical_formula_structural   TbYb2Ho(ReB4)4
_chemical_formula_sum   'Tb1 Yb2 Ho1 Re4 B16'
_cell_volume   249.14075933
_cell_formula_units_Z   1
loop_
 _symmetry_equiv_pos_site_id
 _symmetry_equiv_pos_as_xyz
  1  'x, y, z'
loop_
 _atom_site_type_symbol
 _atom_site_label
 _atom_site_symmetry_multiplicity
 _atom_site_fract_x
 _atom_site_fract_y
 _atom_site_fract_z
 _atom_site_occupancy
  Tb  Tb0  1  0.000000  0.627458  0.150465  1
  Yb  Yb1  1  0.000000  0.372246  0.850220  1
  Yb  Yb2  1  0.000000  0.128137  0.349693  1
  Ho  Ho3  1  0.000000  0.872550  0.650452  1
  Re  Re4  1  0.000000  0.631960  0.415577  1
  Re  Re5  1  0.000000  0.368466  0.585269  1
  Re  Re6  1  0.000000  0.131288  0.084852  1
  Re  Re7  1  0.000000  0.868180  0.914765  1
  B  B8  1  0.500000  0.977659  0.192422  1
  B  B9  1  0.500000  0.023096  0.807769  1
  B  B10  1  0.500000  0.476766  0.308266  1
  B  B11  1  0.500000  0.522645  0.692837  1
  B  B12  1  0.500000  0.785979  0.315411  1
  B  B13  1  0.500000  0.214470  0.684908  1
  B  B14  1  0.500000  0.285038  0.184805  1
  B  B15  1  0.500000  0.713866  0.815115  1
  B  B16  1  0.500000  0.864570  0.467943  1
  B  B17  1  0.500000  0.136023  0.531661  1
  B  B18  1  0.500000  0.363489  0.031578  1
  B  B19  1  0.500000  0.635705  0.967561  1
  B  B20  1  0.500000  0.887362  0.046779  1
  B  B21  1  0.500000  0.114760  0.952040  1
  B  B22  1  0.500000  0.385089  0.452268  1
  B  B23  1  0.500000  0.613195  0.547342  1
