# generated using pymatgen
data_EuCdAs4F24
_symmetry_space_group_name_H-M   'P 1'
_cell_length_a   9.90662999
_cell_length_b   9.90662985
_cell_length_c   9.90662900
_cell_angle_alpha   132.08432377
_cell_angle_beta   132.08431525
_cell_angle_gamma   70.09588750
_symmetry_Int_Tables_number   1
_chemical_formula_structural   EuCdAs4F24
_chemical_formula_sum   'Eu1 Cd1 As4 F24'
_cell_volume   524.97336165
_cell_formula_units_Z   1
loop_
 _symmetry_equiv_pos_site_id
 _symmetry_equiv_pos_as_xyz
  1  'x, y, z'
loop_
 _atom_site_type_symbol
 _atom_site_label
 _atom_site_symmetry_multiplicity
 _atom_site_fract_x
 _atom_site_fract_y
 _atom_site_fract_z
 _atom_site_occupancy
  Eu  Eu0  1  0.750000  0.250000  0.500000  1
  Cd  Cd1  1  0.000000  0.000000  0.000000  1
  As  As2  1  0.786292  0.786292  0.000000  1
  As  As3  1  0.213708  0.213708  0.000000  1
  As  As4  1  0.974254  0.474254  0.500000  1
  As  As5  1  0.525746  0.025746  0.500000  1
  F  F6  1  0.865287  0.761374  0.199008  1
  F  F7  1  0.562366  0.666280  0.800992  1
  F  F8  1  0.424127  0.797540  0.314633  1
  F  F9  1  0.333720  0.134713  0.896087  1
  F  F10  1  0.238626  0.437634  0.103913  1
  F  F11  1  0.202460  0.517091  0.626585  1
  F  F12  1  0.637086  0.256845  0.675213  1
  F  F13  1  0.743155  0.418367  0.380241  1
  F  F14  1  0.038127  0.362914  0.619759  1
  F  F15  1  0.089595  0.275842  0.102777  1
  F  F16  1  0.173064  0.986817  0.897223  1
  F  F17  1  0.581633  0.961873  0.324787  1
  F  F18  1  0.724158  0.826936  0.813753  1
  F  F19  1  0.013183  0.910405  0.186247  1
  F  F20  1  0.309189  0.073432  0.322046  1
  F  F21  1  0.926568  0.248614  0.235757  1
  F  F22  1  0.012856  0.690811  0.764243  1
  F  F23  1  0.426834  0.276400  0.280835  1
  F  F24  1  0.995566  0.146000  0.719165  1
  F  F25  1  0.751386  0.987144  0.677954  1
  F  F26  1  0.723600  0.004434  0.150433  1
  F  F27  1  0.854000  0.573166  0.849567  1
  F  F28  1  0.482909  0.109493  0.685367  1
  F  F29  1  0.890507  0.575873  0.373415  1
