# generated using pymatgen
data_Ho6Al24Os5Pt2Rh
_symmetry_space_group_name_H-M   'P 1'
_cell_length_a   8.82732040
_cell_length_b   8.80750892
_cell_length_c   9.55974466
_cell_angle_alpha   90.09389563
_cell_angle_beta   89.73693629
_cell_angle_gamma   119.82790649
_symmetry_Int_Tables_number   1
_chemical_formula_structural   Ho6Al24Os5Pt2Rh
_chemical_formula_sum   'Ho6 Al24 Os5 Pt2 Rh1'
_cell_volume   644.76985118
_cell_formula_units_Z   1
loop_
 _symmetry_equiv_pos_site_id
 _symmetry_equiv_pos_as_xyz
  1  'x, y, z'
loop_
 _atom_site_type_symbol
 _atom_site_label
 _atom_site_symmetry_multiplicity
 _atom_site_fract_x
 _atom_site_fract_y
 _atom_site_fract_z
 _atom_site_occupancy
  Ho  Ho0  1  0.195216  0.388265  0.250647  1
  Ho  Ho1  1  0.804784  0.611735  0.749353  1
  Ho  Ho2  1  0.613488  0.802282  0.251755  1
  Ho  Ho3  1  0.386512  0.197718  0.748245  1
  Ho  Ho4  1  0.189537  0.804820  0.251346  1
  Ho  Ho5  1  0.810463  0.195180  0.748654  1
  Al  Al6  1  0.337469  0.669192  0.028791  1
  Al  Al7  1  0.662531  0.330808  0.971209  1
  Al  Al8  1  0.669053  0.337396  0.526796  1
  Al  Al9  1  0.330947  0.662604  0.473204  1
  Al  Al10  1  0.164409  0.328294  0.575823  1
  Al  Al11  1  0.835591  0.671706  0.424177  1
  Al  Al12  1  0.673747  0.831950  0.577276  1
  Al  Al13  1  0.830885  0.673078  0.077159  1
  Al  Al14  1  0.326253  0.168050  0.422724  1
  Al  Al15  1  0.169115  0.326922  0.922841  1
  Al  Al16  1  0.158202  0.832726  0.577818  1
  Al  Al17  1  0.326336  0.165533  0.076865  1
  Al  Al18  1  0.841798  0.167274  0.422182  1
  Al  Al19  1  0.673664  0.834467  0.923135  1
  Al  Al20  1  0.832868  0.158495  0.078149  1
  Al  Al21  1  0.167132  0.841505  0.921851  1
  Al  Al22  1  0.560468  0.122803  0.247081  1
  Al  Al23  1  0.439532  0.877197  0.752919  1
  Al  Al24  1  0.873637  0.437440  0.252558  1
  Al  Al25  1  0.126363  0.562560  0.747442  1
  Al  Al26  1  0.561433  0.437371  0.249650  1
  Al  Al27  1  0.438567  0.562629  0.750350  1
  Al  Al28  1  0.999251  0.998799  0.250077  1
  Al  Al29  1  0.000749  0.001201  0.749923  1
  Os  Os30  1  0.500000  0.500000  0.000000  1
  Os  Os31  1  0.000000  0.500000  0.500000  1
  Os  Os32  1  0.500000  0.500000  0.500000  1
  Os  Os33  1  0.000000  0.000000  0.000000  1
  Os  Os34  1  0.000000  0.000000  0.500000  1
  Pt  Pt35  1  0.000000  0.500000  0.000000  1
  Pt  Pt36  1  0.500000  0.000000  0.500000  1
  Rh  Rh37  1  0.500000  0.000000  0.000000  1
