# generated using pymatgen
data_TbNdMn3Ni9P7
_symmetry_space_group_name_H-M   'P 1'
_cell_length_a   9.14662100
_cell_length_b   9.14662012
_cell_length_c   3.70087100
_cell_angle_alpha   90.00000000
_cell_angle_beta   90.00000000
_cell_angle_gamma   119.99999858
_symmetry_Int_Tables_number   1
_chemical_formula_structural   TbNdMn3Ni9P7
_chemical_formula_sum   'Tb1 Nd1 Mn3 Ni9 P7'
_cell_volume   268.13648484
_cell_formula_units_Z   1
loop_
 _symmetry_equiv_pos_site_id
 _symmetry_equiv_pos_as_xyz
  1  'x, y, z'
loop_
 _atom_site_type_symbol
 _atom_site_label
 _atom_site_symmetry_multiplicity
 _atom_site_fract_x
 _atom_site_fract_y
 _atom_site_fract_z
 _atom_site_occupancy
  Tb  Tb0  1  0.666667  0.333333  0.000000  1
  Nd  Nd1  1  0.333333  0.666667  0.500000  1
  Mn  Mn2  1  0.097965  0.878929  0.500000  1
  Mn  Mn3  1  0.780964  0.902035  0.500000  1
  Mn  Mn4  1  0.121071  0.219036  0.500000  1
  Ni  Ni5  1  0.058066  0.626462  0.000000  1
  Ni  Ni6  1  0.568396  0.941934  0.000000  1
  Ni  Ni7  1  0.373538  0.431604  0.000000  1
  Ni  Ni8  1  0.276565  0.125289  0.000000  1
  Ni  Ni9  1  0.848724  0.723435  0.000000  1
  Ni  Ni10  1  0.874711  0.151276  0.000000  1
  Ni  Ni11  1  0.433242  0.054517  0.500000  1
  Ni  Ni12  1  0.621275  0.566758  0.500000  1
  Ni  Ni13  1  0.945483  0.378725  0.500000  1
  P  P14  1  0.294792  0.891585  0.000000  1
  P  P15  1  0.596793  0.705208  0.000000  1
  P  P16  1  0.108415  0.403207  0.000000  1
  P  P17  1  0.405678  0.295174  0.500000  1
  P  P18  1  0.889495  0.594322  0.500000  1
  P  P19  1  0.704826  0.110505  0.500000  1
  P  P20  1  0.000000  0.000000  0.000000  1
