# generated using pymatgen
data_SrSn3Pd5
_symmetry_space_group_name_H-M   'P 1'
_cell_length_a   4.39081000
_cell_length_b   7.66129600
_cell_length_c   21.97023600
_cell_angle_alpha   90.00000000
_cell_angle_beta   90.00000000
_cell_angle_gamma   90.00000000
_symmetry_Int_Tables_number   1
_chemical_formula_structural   SrSn3Pd5
_chemical_formula_sum   'Sr4 Sn12 Pd20'
_cell_volume   739.06325200
_cell_formula_units_Z   4
loop_
 _symmetry_equiv_pos_site_id
 _symmetry_equiv_pos_as_xyz
  1  'x, y, z'
loop_
 _atom_site_type_symbol
 _atom_site_label
 _atom_site_symmetry_multiplicity
 _atom_site_fract_x
 _atom_site_fract_y
 _atom_site_fract_z
 _atom_site_occupancy
  Sr  Sr0  1  0.750000  0.377630  0.355092  1
  Sr  Sr1  1  0.750000  0.122370  0.855092  1
  Sr  Sr2  1  0.250000  0.622370  0.644908  1
  Sr  Sr3  1  0.250000  0.877630  0.144908  1
  Sn  Sn4  1  0.250000  0.381830  0.236339  1
  Sn  Sn5  1  0.750000  0.150909  0.073420  1
  Sn  Sn6  1  0.750000  0.921977  0.588516  1
  Sn  Sn7  1  0.750000  0.881830  0.263661  1
  Sn  Sn8  1  0.750000  0.578023  0.088516  1
  Sn  Sn9  1  0.250000  0.849091  0.926580  1
  Sn  Sn10  1  0.250000  0.118170  0.736339  1
  Sn  Sn11  1  0.250000  0.421977  0.911484  1
  Sn  Sn12  1  0.250000  0.078023  0.411484  1
  Sn  Sn13  1  0.750000  0.349091  0.573420  1
  Sn  Sn14  1  0.750000  0.618170  0.763661  1
  Sn  Sn15  1  0.250000  0.650909  0.426580  1
  Pd  Pd16  1  0.750000  0.112835  0.482851  1
  Pd  Pd17  1  0.250000  0.814083  0.802268  1
  Pd  Pd18  1  0.250000  0.685917  0.302268  1
  Pd  Pd19  1  0.750000  0.650421  0.885649  1
  Pd  Pd20  1  0.250000  0.150421  0.614351  1
  Pd  Pd21  1  0.250000  0.138119  0.996234  1
  Pd  Pd22  1  0.750000  0.185917  0.197732  1
  Pd  Pd23  1  0.250000  0.349579  0.114351  1
  Pd  Pd24  1  0.750000  0.849579  0.385649  1
  Pd  Pd25  1  0.250000  0.427132  0.790497  1
  Pd  Pd26  1  0.250000  0.887165  0.517149  1
  Pd  Pd27  1  0.750000  0.638119  0.503766  1
  Pd  Pd28  1  0.750000  0.387165  0.982851  1
  Pd  Pd29  1  0.250000  0.361881  0.496234  1
  Pd  Pd30  1  0.250000  0.072868  0.290497  1
  Pd  Pd31  1  0.750000  0.572868  0.209503  1
  Pd  Pd32  1  0.750000  0.927132  0.709503  1
  Pd  Pd33  1  0.750000  0.314083  0.697732  1
  Pd  Pd34  1  0.750000  0.861881  0.003766  1
  Pd  Pd35  1  0.250000  0.612835  0.017149  1
