# generated using pymatgen
data_YbHf3Al17SiIr6
_symmetry_space_group_name_H-M   'P 1'
_cell_length_a   7.49151048
_cell_length_b   7.46939408
_cell_length_c   9.23528200
_cell_angle_alpha   90.00000000
_cell_angle_beta   90.00000000
_cell_angle_gamma   119.77594691
_symmetry_Int_Tables_number   1
_chemical_formula_structural   YbHf3Al17SiIr6
_chemical_formula_sum   'Yb1 Hf3 Al17 Si1 Ir6'
_cell_volume   448.55081143
_cell_formula_units_Z   1
loop_
 _symmetry_equiv_pos_site_id
 _symmetry_equiv_pos_as_xyz
  1  'x, y, z'
loop_
 _atom_site_type_symbol
 _atom_site_label
 _atom_site_symmetry_multiplicity
 _atom_site_fract_x
 _atom_site_fract_y
 _atom_site_fract_z
 _atom_site_occupancy
  Yb  Yb0  1  0.324453  0.006808  0.750000  1
  Hf  Hf1  1  0.996503  0.672499  0.250000  1
  Hf  Hf2  1  0.007039  0.325048  0.750000  1
  Hf  Hf3  1  0.670299  0.994475  0.250000  1
  Al  Al4  1  0.121157  0.121691  0.250000  1
  Al  Al5  1  0.998313  0.334222  0.077409  1
  Al  Al6  1  0.001547  0.662407  0.923799  1
  Al  Al7  1  0.001547  0.662407  0.576201  1
  Al  Al8  1  0.334593  0.999667  0.421954  1
  Al  Al9  1  0.998313  0.334222  0.422591  1
  Al  Al10  1  0.664799  0.001743  0.576962  1
  Al  Al11  1  0.664799  0.001743  0.923038  1
  Al  Al12  1  0.334593  0.999667  0.078046  1
  Al  Al13  1  0.333756  0.335169  0.556997  1
  Al  Al14  1  0.669091  0.668920  0.436127  1
  Al  Al15  1  0.669091  0.668920  0.063873  1
  Al  Al16  1  0.333756  0.335169  0.943003  1
  Al  Al17  1  0.337084  0.550288  0.250000  1
  Al  Al18  1  0.670290  0.451687  0.750000  1
  Al  Al19  1  0.552328  0.337772  0.250000  1
  Al  Al20  1  0.446060  0.658445  0.750000  1
  Si  Si21  1  0.867240  0.871973  0.750000  1
  Ir  Ir22  1  0.675534  0.330345  0.001959  1
  Ir  Ir23  1  0.329516  0.674281  0.002370  1
  Ir  Ir24  1  0.329516  0.674281  0.497630  1
  Ir  Ir25  1  0.675534  0.330345  0.498041  1
  Ir  Ir26  1  0.996627  0.997902  0.995507  1
  Ir  Ir27  1  0.996627  0.997902  0.504493  1
