# generated using pymatgen
data_Yb4TaAl2RuO12
_symmetry_space_group_name_H-M   'P 1'
_cell_length_a   5.30399075
_cell_length_b   5.42317757
_cell_length_c   7.56074198
_cell_angle_alpha   90.52592595
_cell_angle_beta   90.11739531
_cell_angle_gamma   89.95896411
_symmetry_Int_Tables_number   1
_chemical_formula_structural   Yb4TaAl2RuO12
_chemical_formula_sum   'Yb4 Ta1 Al2 Ru1 O12'
_cell_volume   217.47116784
_cell_formula_units_Z   1
loop_
 _symmetry_equiv_pos_site_id
 _symmetry_equiv_pos_as_xyz
  1  'x, y, z'
loop_
 _atom_site_type_symbol
 _atom_site_label
 _atom_site_symmetry_multiplicity
 _atom_site_fract_x
 _atom_site_fract_y
 _atom_site_fract_z
 _atom_site_occupancy
  Yb  Yb0  1  0.510020  0.552192  0.254140  1
  Yb  Yb1  1  0.987332  0.046683  0.255861  1
  Yb  Yb2  1  0.489980  0.447808  0.745860  1
  Yb  Yb3  1  0.012668  0.953317  0.744139  1
  Ta  Ta4  1  0.000000  0.500000  0.000000  1
  Al  Al5  1  0.000000  0.500000  0.500000  1
  Al  Al6  1  0.500000  0.000000  0.000000  1
  Ru  Ru7  1  0.500000  0.000000  0.500000  1
  O  O8  1  0.415805  0.978848  0.247227  1
  O  O9  1  0.078330  0.480749  0.257251  1
  O  O10  1  0.584195  0.021152  0.752773  1
  O  O11  1  0.921670  0.519251  0.742749  1
  O  O12  1  0.787670  0.797305  0.041955  1
  O  O13  1  0.709045  0.296150  0.456452  1
  O  O14  1  0.201599  0.210733  0.543468  1
  O  O15  1  0.298965  0.712282  0.958860  1
  O  O16  1  0.212330  0.202695  0.958045  1
  O  O17  1  0.290955  0.703850  0.543548  1
  O  O18  1  0.798401  0.789267  0.456532  1
  O  O19  1  0.701035  0.287718  0.041140  1
