# generated using pymatgen
data_Sr3HoCoO6
_symmetry_space_group_name_H-M   'P 1'
_cell_length_a   6.77073407
_cell_length_b   6.77073502
_cell_length_c   6.77073464
_cell_angle_alpha   92.65440925
_cell_angle_beta   92.65440843
_cell_angle_gamma   92.65440286
_symmetry_Int_Tables_number   1
_chemical_formula_structural   Sr3HoCoO6
_chemical_formula_sum   'Sr6 Ho2 Co2 O12'
_cell_volume   309.35863614
_cell_formula_units_Z   2
loop_
 _symmetry_equiv_pos_site_id
 _symmetry_equiv_pos_as_xyz
  1  'x, y, z'
loop_
 _atom_site_type_symbol
 _atom_site_label
 _atom_site_symmetry_multiplicity
 _atom_site_fract_x
 _atom_site_fract_y
 _atom_site_fract_z
 _atom_site_occupancy
  Sr  Sr0  1  0.882542  0.617458  0.250000  1
  Sr  Sr1  1  0.250000  0.882542  0.617458  1
  Sr  Sr2  1  0.617458  0.250000  0.882542  1
  Sr  Sr3  1  0.750000  0.117458  0.382542  1
  Sr  Sr4  1  0.382542  0.750000  0.117458  1
  Sr  Sr5  1  0.117458  0.382542  0.750000  1
  Ho  Ho6  1  0.250000  0.250000  0.250000  1
  Ho  Ho7  1  0.750000  0.750000  0.750000  1
  Co  Co8  1  0.500000  0.500000  0.500000  1
  Co  Co9  1  0.000000  0.000000  0.000000  1
  O  O10  1  0.218669  0.544055  0.413383  1
  O  O11  1  0.413383  0.218669  0.544055  1
  O  O12  1  0.544055  0.413383  0.218669  1
  O  O13  1  0.913383  0.044055  0.718669  1
  O  O14  1  0.718669  0.913383  0.044055  1
  O  O15  1  0.044055  0.718669  0.913383  1
  O  O16  1  0.781331  0.455945  0.586617  1
  O  O17  1  0.586617  0.781331  0.455945  1
  O  O18  1  0.455945  0.586617  0.781331  1
  O  O19  1  0.086617  0.955945  0.281331  1
  O  O20  1  0.281331  0.086617  0.955945  1
  O  O21  1  0.955945  0.281331  0.086617  1
