# generated using pymatgen
data_HfZr3(SbRh5)2
_symmetry_space_group_name_H-M   'P 1'
_cell_length_a   4.16067100
_cell_length_b   5.69105998
_cell_length_c   11.12060691
_cell_angle_alpha   89.93274589
_cell_angle_beta   90.00000000
_cell_angle_gamma   90.00000000
_symmetry_Int_Tables_number   1
_chemical_formula_structural   HfZr3(SbRh5)2
_chemical_formula_sum   'Hf1 Zr3 Sb2 Rh10'
_cell_volume   263.32053531
_cell_formula_units_Z   1
loop_
 _symmetry_equiv_pos_site_id
 _symmetry_equiv_pos_as_xyz
  1  'x, y, z'
loop_
 _atom_site_type_symbol
 _atom_site_label
 _atom_site_symmetry_multiplicity
 _atom_site_fract_x
 _atom_site_fract_y
 _atom_site_fract_z
 _atom_site_occupancy
  Hf  Hf0  1  0.500000  0.327388  0.144573  1
  Zr  Zr1  1  0.500000  0.175151  0.644304  1
  Zr  Zr2  1  0.500000  0.825707  0.355545  1
  Zr  Zr3  1  0.500000  0.674224  0.856370  1
  Sb  Sb4  1  0.000000  0.499752  0.499582  1
  Sb  Sb5  1  0.000000  0.998814  0.000160  1
  Rh  Rh6  1  0.500000  0.195965  0.890096  1
  Rh  Rh7  1  0.500000  0.803392  0.111061  1
  Rh  Rh8  1  0.500000  0.696093  0.611259  1
  Rh  Rh9  1  0.500000  0.304035  0.387455  1
  Rh  Rh10  1  0.000000  0.433780  0.747657  1
  Rh  Rh11  1  0.000000  0.566792  0.252686  1
  Rh  Rh12  1  0.000000  0.000487  0.499523  1
  Rh  Rh13  1  0.000000  0.496378  0.001459  1
  Rh  Rh14  1  0.000000  0.068222  0.245141  1
  Rh  Rh15  1  0.000000  0.933819  0.753129  1
