# generated using pymatgen
data_Tb3Dy5(BCl6)2
_symmetry_space_group_name_H-M   'P 1'
_cell_length_a   3.87390700
_cell_length_b   12.67872724
_cell_length_c   13.15108725
_cell_angle_alpha   90.02246601
_cell_angle_beta   90.00000000
_cell_angle_gamma   90.00000000
_symmetry_Int_Tables_number   1
_chemical_formula_structural   Tb3Dy5(BCl6)2
_chemical_formula_sum   'Tb3 Dy5 B2 Cl12'
_cell_volume   645.93151648
_cell_formula_units_Z   1
loop_
 _symmetry_equiv_pos_site_id
 _symmetry_equiv_pos_as_xyz
  1  'x, y, z'
loop_
 _atom_site_type_symbol
 _atom_site_label
 _atom_site_symmetry_multiplicity
 _atom_site_fract_x
 _atom_site_fract_y
 _atom_site_fract_z
 _atom_site_occupancy
  Tb  Tb0  1  0.500000  0.126706  0.850932  1
  Tb  Tb1  1  0.500000  0.873300  0.149071  1
  Tb  Tb2  1  0.500000  0.626674  0.649034  1
  Dy  Dy3  1  0.000000  0.106438  0.084307  1
  Dy  Dy4  1  0.000000  0.893553  0.915689  1
  Dy  Dy5  1  0.000000  0.606360  0.415636  1
  Dy  Dy6  1  0.000000  0.393511  0.584215  1
  Dy  Dy7  1  0.500000  0.373490  0.351157  1
  B  B8  1  0.500000  0.000016  0.000014  1
  B  B9  1  0.500000  0.499815  0.499780  1
  Cl  Cl10  1  0.500000  0.268169  0.682157  1
  Cl  Cl11  1  0.500000  0.731826  0.317838  1
  Cl  Cl12  1  0.500000  0.768140  0.817809  1
  Cl  Cl13  1  0.500000  0.232117  0.182499  1
  Cl  Cl14  1  0.000000  0.256653  0.929898  1
  Cl  Cl15  1  0.000000  0.743343  0.070103  1
  Cl  Cl16  1  0.000000  0.478306  0.243783  1
  Cl  Cl17  1  0.000000  0.521215  0.756479  1
  Cl  Cl18  1  0.000000  0.978797  0.256511  1
  Cl  Cl19  1  0.000000  0.021206  0.743488  1
  Cl  Cl20  1  0.000000  0.243744  0.429495  1
  Cl  Cl21  1  0.000000  0.756620  0.570105  1
