# generated using pymatgen
data_Tb5Nd(AuO7)2
_symmetry_space_group_name_H-M   'P 1'
_cell_length_a   6.54675624
_cell_length_b   6.54675796
_cell_length_c   7.52357138
_cell_angle_alpha   89.97034164
_cell_angle_beta   90.02965670
_cell_angle_gamma   108.84192012
_symmetry_Int_Tables_number   1
_chemical_formula_structural   Tb5Nd(AuO7)2
_chemical_formula_sum   'Tb5 Nd1 Au2 O14'
_cell_volume   305.18080377
_cell_formula_units_Z   1
loop_
 _symmetry_equiv_pos_site_id
 _symmetry_equiv_pos_as_xyz
  1  'x, y, z'
loop_
 _atom_site_type_symbol
 _atom_site_label
 _atom_site_symmetry_multiplicity
 _atom_site_fract_x
 _atom_site_fract_y
 _atom_site_fract_z
 _atom_site_occupancy
  Tb  Tb0  1  0.500000  0.500000  0.000000  1
  Tb  Tb1  1  0.528761  0.998065  0.752265  1
  Tb  Tb2  1  0.998065  0.528761  0.247735  1
  Tb  Tb3  1  0.471239  0.001935  0.247735  1
  Tb  Tb4  1  0.001935  0.471239  0.752265  1
  Nd  Nd5  1  0.500000  0.500000  0.500000  1
  Au  Au6  1  0.000000  0.000000  0.500000  1
  Au  Au7  1  0.000000  0.000000  0.000000  1
  O  O8  1  0.672246  0.923871  0.475690  1
  O  O9  1  0.923871  0.672246  0.524310  1
  O  O10  1  0.672292  0.918924  0.024413  1
  O  O11  1  0.918924  0.672292  0.975587  1
  O  O12  1  0.327754  0.076129  0.524310  1
  O  O13  1  0.076129  0.327754  0.475690  1
  O  O14  1  0.327708  0.081076  0.975587  1
  O  O15  1  0.081076  0.327708  0.024413  1
  O  O16  1  0.922295  0.077705  0.750137  1
  O  O17  1  0.077705  0.922295  0.249863  1
  O  O18  1  0.365511  0.634489  0.757523  1
  O  O19  1  0.634489  0.365511  0.242477  1
  O  O20  1  0.640572  0.359428  0.756934  1
  O  O21  1  0.359428  0.640572  0.243066  1
