# generated using pymatgen
data_Sm8Nb11Si16Mo
_symmetry_space_group_name_H-M   'P 1'
_cell_length_a   7.12326983
_cell_length_b   7.12380271
_cell_length_c   13.20703719
_cell_angle_alpha   89.93539055
_cell_angle_beta   89.93184807
_cell_angle_gamma   90.02376591
_symmetry_Int_Tables_number   1
_chemical_formula_structural   Sm8Nb11Si16Mo
_chemical_formula_sum   'Sm8 Nb11 Si16 Mo1'
_cell_volume   670.18709119
_cell_formula_units_Z   1
loop_
 _symmetry_equiv_pos_site_id
 _symmetry_equiv_pos_as_xyz
  1  'x, y, z'
loop_
 _atom_site_type_symbol
 _atom_site_label
 _atom_site_symmetry_multiplicity
 _atom_site_fract_x
 _atom_site_fract_y
 _atom_site_fract_z
 _atom_site_occupancy
  Sm  Sm0  1  0.997514  0.339188  0.219274  1
  Sm  Sm1  1  0.003159  0.661062  0.716805  1
  Sm  Sm2  1  0.160541  0.497796  0.467268  1
  Sm  Sm3  1  0.502024  0.839774  0.033160  1
  Sm  Sm4  1  0.838908  0.503236  0.967883  1
  Sm  Sm5  1  0.496981  0.160098  0.531187  1
  Sm  Sm6  1  0.339132  0.997843  0.781832  1
  Sm  Sm7  1  0.661060  0.002686  0.282516  1
  Nb  Nb8  1  0.170598  0.170507  0.000829  1
  Nb  Nb9  1  0.829950  0.830277  0.499720  1
  Nb  Nb10  1  0.329137  0.669804  0.250468  1
  Nb  Nb11  1  0.670377  0.329500  0.750305  1
  Nb  Nb12  1  0.843653  0.008795  0.875143  1
  Nb  Nb13  1  0.507216  0.657498  0.624450  1
  Nb  Nb14  1  0.343782  0.491477  0.874007  1
  Nb  Nb15  1  0.489610  0.341966  0.126247  1
  Nb  Nb16  1  0.656183  0.508814  0.374484  1
  Nb  Nb17  1  0.992229  0.156405  0.624261  1
  Nb  Nb18  1  0.007582  0.844753  0.124262  1
  Si  Si19  1  0.290503  0.042077  0.189271  1
  Si  Si20  1  0.708659  0.955972  0.686372  1
  Si  Si21  1  0.453318  0.792247  0.435701  1
  Si  Si22  1  0.208265  0.544399  0.063639  1
  Si  Si23  1  0.543636  0.207899  0.937068  1
  Si  Si24  1  0.790993  0.455214  0.562934  1
  Si  Si25  1  0.044015  0.292316  0.813451  1
  Si  Si26  1  0.958725  0.712557  0.313542  1
  Si  Si27  1  0.370302  0.293642  0.316809  1
  Si  Si28  1  0.629447  0.703551  0.814910  1
  Si  Si29  1  0.202131  0.871641  0.563186  1
  Si  Si30  1  0.129832  0.797409  0.934929  1
  Si  Si31  1  0.797074  0.129945  0.065806  1
  Si  Si32  1  0.874579  0.199780  0.433950  1
  Si  Si33  1  0.297761  0.370197  0.683873  1
  Si  Si34  1  0.703794  0.628789  0.185162  1
  Mo  Mo35  1  0.157331  0.990889  0.375291  1
