# generated using pymatgen
data_Nd20Ir7Ru4Rh
_symmetry_space_group_name_H-M   'P 1'
_cell_length_a   11.20510531
_cell_length_b   11.20510535
_cell_length_c   6.62313049
_cell_angle_alpha   89.97521215
_cell_angle_beta   89.97521132
_cell_angle_gamma   90.01833976
_symmetry_Int_Tables_number   1
_chemical_formula_structural   Nd20Ir7Ru4Rh
_chemical_formula_sum   'Nd20 Ir7 Ru4 Rh1'
_cell_volume   831.56288008
_cell_formula_units_Z   1
loop_
 _symmetry_equiv_pos_site_id
 _symmetry_equiv_pos_as_xyz
  1  'x, y, z'
loop_
 _atom_site_type_symbol
 _atom_site_label
 _atom_site_symmetry_multiplicity
 _atom_site_fract_x
 _atom_site_fract_y
 _atom_site_fract_z
 _atom_site_occupancy
  Nd  Nd0  1  0.088334  0.293371  0.115572  1
  Nd  Nd1  1  0.793606  0.411343  0.115614  1
  Nd  Nd2  1  0.206434  0.587336  0.115175  1
  Nd  Nd3  1  0.910224  0.705805  0.115391  1
  Nd  Nd4  1  0.412664  0.793566  0.384825  1
  Nd  Nd5  1  0.588657  0.206394  0.384386  1
  Nd  Nd6  1  0.294195  0.089776  0.384609  1
  Nd  Nd7  1  0.706629  0.911666  0.384428  1
  Nd  Nd8  1  0.411792  0.206434  0.884465  1
  Nd  Nd9  1  0.706759  0.088368  0.884338  1
  Nd  Nd10  1  0.294270  0.912034  0.882739  1
  Nd  Nd11  1  0.588306  0.793602  0.884210  1
  Nd  Nd12  1  0.087966  0.705730  0.617261  1
  Nd  Nd13  1  0.911632  0.293241  0.615662  1
  Nd  Nd14  1  0.206398  0.411694  0.615790  1
  Nd  Nd15  1  0.793566  0.588208  0.615535  1
  Nd  Nd16  1  0.999971  0.000079  0.999895  1
  Nd  Nd17  1  0.500036  0.499922  0.000161  1
  Nd  Nd18  1  0.500078  0.499964  0.499839  1
  Nd  Nd19  1  0.999921  0.000029  0.500105  1
  Ir  Ir20  1  0.346945  0.347332  0.249873  1
  Ir  Ir21  1  0.652668  0.653055  0.250127  1
  Ir  Ir22  1  0.847488  0.152512  0.250000  1
  Ir  Ir23  1  0.347027  0.652973  0.750000  1
  Ir  Ir24  1  0.152572  0.152287  0.749615  1
  Ir  Ir25  1  0.847713  0.847428  0.750385  1
  Ir  Ir26  1  0.652550  0.347450  0.750000  1
  Ru  Ru27  1  0.000468  0.500851  0.378207  1
  Ru  Ru28  1  0.499149  0.999532  0.121793  1
  Ru  Ru29  1  0.499414  0.999481  0.621778  1
  Ru  Ru30  1  0.000519  0.500586  0.878222  1
  Rh  Rh31  1  0.152050  0.847950  0.250000  1
