# generated using pymatgen
data_U3Ti(Nb3Si4)2
_symmetry_space_group_name_H-M   'P 1'
_cell_length_a   6.98472043
_cell_length_b   6.98491799
_cell_length_c   12.91435500
_cell_angle_alpha   90.00000000
_cell_angle_beta   90.00000000
_cell_angle_gamma   89.38257476
_symmetry_Int_Tables_number   1
_chemical_formula_structural   U3Ti(Nb3Si4)2
_chemical_formula_sum   'U6 Ti2 Nb12 Si16'
_cell_volume   630.02508678
_cell_formula_units_Z   2
loop_
 _symmetry_equiv_pos_site_id
 _symmetry_equiv_pos_as_xyz
  1  'x, y, z'
loop_
 _atom_site_type_symbol
 _atom_site_label
 _atom_site_symmetry_multiplicity
 _atom_site_fract_x
 _atom_site_fract_y
 _atom_site_fract_z
 _atom_site_occupancy
  U  U0  1  0.170713  0.488992  0.470276  1
  U  U1  1  0.510722  0.831048  0.031646  1
  U  U2  1  0.829287  0.511008  0.970276  1
  U  U3  1  0.489278  0.168952  0.531646  1
  U  U4  1  0.335954  0.000575  0.781023  1
  U  U5  1  0.664046  0.999425  0.281023  1
  Ti  Ti6  1  0.010154  0.342736  0.212451  1
  Ti  Ti7  1  0.989846  0.657264  0.712451  1
  Nb  Nb8  1  0.169303  0.171797  0.998611  1
  Nb  Nb9  1  0.830697  0.828203  0.498611  1
  Nb  Nb10  1  0.331906  0.667142  0.250118  1
  Nb  Nb11  1  0.668094  0.332858  0.750118  1
  Nb  Nb12  1  0.152395  0.993756  0.375205  1
  Nb  Nb13  1  0.847605  0.006244  0.875205  1
  Nb  Nb14  1  0.504576  0.656426  0.625379  1
  Nb  Nb15  1  0.349132  0.504492  0.875942  1
  Nb  Nb16  1  0.495424  0.343574  0.125379  1
  Nb  Nb17  1  0.650868  0.495508  0.375942  1
  Nb  Nb18  1  0.002083  0.157129  0.626144  1
  Nb  Nb19  1  0.997917  0.842871  0.126144  1
  Si  Si20  1  0.290125  0.042418  0.184661  1
  Si  Si21  1  0.709875  0.957582  0.684661  1
  Si  Si22  1  0.457087  0.795553  0.436244  1
  Si  Si23  1  0.200257  0.540715  0.066117  1
  Si  Si24  1  0.542913  0.204447  0.936244  1
  Si  Si25  1  0.799743  0.459285  0.566117  1
  Si  Si26  1  0.039202  0.309575  0.813973  1
  Si  Si27  1  0.960798  0.690425  0.313973  1
  Si  Si28  1  0.360197  0.289738  0.314076  1
  Si  Si29  1  0.639803  0.710262  0.814076  1
  Si  Si30  1  0.198273  0.859734  0.572453  1
  Si  Si31  1  0.129474  0.792849  0.930638  1
  Si  Si32  1  0.801727  0.140266  0.072453  1
  Si  Si33  1  0.870526  0.207151  0.430638  1
  Si  Si34  1  0.285991  0.380873  0.685043  1
  Si  Si35  1  0.714009  0.619127  0.185043  1
