# generated using pymatgen
data_Dy5Ti3GeP11Ir16
_symmetry_space_group_name_H-M   'P 1'
_cell_length_a   12.81495369
_cell_length_b   12.83586374
_cell_length_c   3.95063500
_cell_angle_alpha   90.00000000
_cell_angle_beta   90.00000000
_cell_angle_gamma   120.05398812
_symmetry_Int_Tables_number   1
_chemical_formula_structural   Dy5Ti3GeP11Ir16
_chemical_formula_sum   'Dy5 Ti3 Ge1 P11 Ir16'
_cell_volume   562.47491104
_cell_formula_units_Z   1
loop_
 _symmetry_equiv_pos_site_id
 _symmetry_equiv_pos_as_xyz
  1  'x, y, z'
loop_
 _atom_site_type_symbol
 _atom_site_label
 _atom_site_symmetry_multiplicity
 _atom_site_fract_x
 _atom_site_fract_y
 _atom_site_fract_z
 _atom_site_occupancy
  Dy  Dy0  1  0.333602  0.666832  0.500000  1
  Dy  Dy1  1  0.666398  0.333229  0.500000  1
  Dy  Dy2  1  0.000000  0.814110  0.000000  1
  Dy  Dy3  1  0.188777  0.188491  0.000000  1
  Dy  Dy4  1  0.811223  0.999713  0.000000  1
  Ti  Ti5  1  0.000000  0.438955  0.500000  1
  Ti  Ti6  1  0.551016  0.553941  0.500000  1
  Ti  Ti7  1  0.448984  0.002925  0.500000  1
  Ge  Ge8  1  0.000000  0.641160  0.500000  1
  P  P9  1  0.360438  0.359481  0.500000  1
  P  P10  1  0.639562  0.999043  0.500000  1
  P  P11  1  0.516775  0.685435  0.000000  1
  P  P12  1  0.315167  0.832245  0.000000  1
  P  P13  1  0.168212  0.482259  0.000000  1
  P  P14  1  0.483225  0.168660  0.000000  1
  P  P15  1  0.684833  0.517077  0.000000  1
  P  P16  1  0.831788  0.314045  0.000000  1
  P  P17  1  0.000000  0.175860  0.500000  1
  P  P18  1  0.822047  0.822375  0.500000  1
  P  P19  1  0.177953  0.000327  0.500000  1
  Ir  Ir20  1  0.509386  0.868184  0.000000  1
  Ir  Ir21  1  0.134337  0.641024  0.000000  1
  Ir  Ir22  1  0.358283  0.491519  0.000000  1
  Ir  Ir23  1  0.490614  0.358798  0.000000  1
  Ir  Ir24  1  0.865663  0.506686  0.000000  1
  Ir  Ir25  1  0.641717  0.133235  0.000000  1
  Ir  Ir26  1  0.000000  0.281158  0.000000  1
  Ir  Ir27  1  0.717469  0.720688  0.000000  1
  Ir  Ir28  1  0.282531  0.003219  0.000000  1
  Ir  Ir29  1  0.625144  0.805180  0.500000  1
  Ir  Ir30  1  0.205109  0.827423  0.500000  1
  Ir  Ir31  1  0.178991  0.372135  0.500000  1
  Ir  Ir32  1  0.374856  0.180035  0.500000  1
  Ir  Ir33  1  0.794891  0.622314  0.500000  1
  Ir  Ir34  1  0.821009  0.193145  0.500000  1
  Ir  Ir35  1  0.000000  0.999094  0.500000  1
