# generated using pymatgen
data_Er(Zn5Cu)2
_symmetry_space_group_name_H-M   'P 1'
_cell_length_a   6.80056553
_cell_length_b   6.72654887
_cell_length_c   6.80056475
_cell_angle_alpha   97.74638494
_cell_angle_beta   98.40593839
_cell_angle_gamma   136.75420209
_symmetry_Int_Tables_number   1
_chemical_formula_structural   Er(Zn5Cu)2
_chemical_formula_sum   'Er1 Zn10 Cu2'
_cell_volume   197.03363194
_cell_formula_units_Z   1
loop_
 _symmetry_equiv_pos_site_id
 _symmetry_equiv_pos_as_xyz
  1  'x, y, z'
loop_
 _atom_site_type_symbol
 _atom_site_label
 _atom_site_symmetry_multiplicity
 _atom_site_fract_x
 _atom_site_fract_y
 _atom_site_fract_z
 _atom_site_occupancy
  Er  Er0  1  0.000000  0.000000  0.000000  1
  Zn  Zn1  1  0.715868  0.500000  0.215868  1
  Zn  Zn2  1  0.000000  0.500000  0.000000  1
  Zn  Zn3  1  0.500000  0.500000  0.500000  1
  Zn  Zn4  1  0.350867  0.000000  0.350867  1
  Zn  Zn5  1  0.005372  0.654586  0.649214  1
  Zn  Zn6  1  0.994628  0.345414  0.350786  1
  Zn  Zn7  1  0.649133  0.000000  0.649133  1
  Zn  Zn8  1  0.284132  0.500000  0.784132  1
  Zn  Zn9  1  0.506318  0.721527  0.215209  1
  Zn  Zn10  1  0.493682  0.278473  0.784791  1
  Cu  Cu11  1  0.000000  0.000000  0.500000  1
  Cu  Cu12  1  0.500000  0.000000  0.000000  1
