# generated using pymatgen
data_Dy5Y(TcB7)2
_symmetry_space_group_name_H-M   'P 1'
_cell_length_a   8.08776327
_cell_length_b   8.08776372
_cell_length_c   9.35887000
_cell_angle_alpha   90.00000000
_cell_angle_beta   90.00000000
_cell_angle_gamma   154.71679551
_symmetry_Int_Tables_number   1
_chemical_formula_structural   Dy5Y(TcB7)2
_chemical_formula_sum   'Dy5 Y1 Tc2 B14'
_cell_volume   261.45838642
_cell_formula_units_Z   1
loop_
 _symmetry_equiv_pos_site_id
 _symmetry_equiv_pos_as_xyz
  1  'x, y, z'
loop_
 _atom_site_type_symbol
 _atom_site_label
 _atom_site_symmetry_multiplicity
 _atom_site_fract_x
 _atom_site_fract_y
 _atom_site_fract_z
 _atom_site_occupancy
  Dy  Dy0  1  0.895068  0.104932  0.439976  1
  Dy  Dy1  1  0.105008  0.894992  0.560045  1
  Dy  Dy2  1  0.895068  0.104932  0.060024  1
  Dy  Dy3  1  0.105008  0.894992  0.939955  1
  Dy  Dy4  1  0.758118  0.241882  0.750000  1
  Y  Y5  1  0.242099  0.757901  0.250000  1
  Tc  Tc6  1  0.052829  0.947171  0.250000  1
  Tc  Tc7  1  0.947145  0.052855  0.750000  1
  B  B8  1  0.726970  0.273030  0.467009  1
  B  B9  1  0.273006  0.726994  0.533241  1
  B  B10  1  0.726970  0.273030  0.032991  1
  B  B11  1  0.273006  0.726994  0.966759  1
  B  B12  1  0.631664  0.368336  0.150911  1
  B  B13  1  0.368192  0.631808  0.848985  1
  B  B14  1  0.631664  0.368336  0.349089  1
  B  B15  1  0.368192  0.631808  0.651015  1
  B  B16  1  0.520793  0.479207  0.095637  1
  B  B17  1  0.479206  0.520794  0.904308  1
  B  B18  1  0.520793  0.479207  0.404363  1
  B  B19  1  0.479206  0.520794  0.595692  1
  B  B20  1  0.457559  0.542441  0.250000  1
  B  B21  1  0.542435  0.457565  0.750000  1
