# generated using pymatgen
data_Na2Ho9In9Ir4
_symmetry_space_group_name_H-M   'P 1'
_cell_length_a   13.08381400
_cell_length_b   13.08098215
_cell_length_c   3.74073000
_cell_angle_alpha   90.00000000
_cell_angle_beta   90.00000000
_cell_angle_gamma   112.64833852
_symmetry_Int_Tables_number   1
_chemical_formula_structural   Na2Ho9In9Ir4
_chemical_formula_sum   'Na2 Ho9 In9 Ir4'
_cell_volume   590.85236835
_cell_formula_units_Z   1
loop_
 _symmetry_equiv_pos_site_id
 _symmetry_equiv_pos_as_xyz
  1  'x, y, z'
loop_
 _atom_site_type_symbol
 _atom_site_label
 _atom_site_symmetry_multiplicity
 _atom_site_fract_x
 _atom_site_fract_y
 _atom_site_fract_z
 _atom_site_occupancy
  Na  Na0  1  0.338949  0.661044  0.500000  1
  Na  Na1  1  0.661051  0.338956  0.500000  1
  Ho  Ho2  1  0.500000  0.500000  0.500000  1
  Ho  Ho3  1  0.814276  0.814291  0.500000  1
  Ho  Ho4  1  0.185724  0.185709  0.500000  1
  Ho  Ho5  1  0.578999  0.914631  0.500000  1
  Ho  Ho6  1  0.421001  0.085369  0.500000  1
  Ho  Ho7  1  0.914666  0.579011  0.500000  1
  Ho  Ho8  1  0.085334  0.420989  0.500000  1
  Ho  Ho9  1  0.123658  0.876384  0.500000  1
  Ho  Ho10  1  0.876342  0.123616  0.500000  1
  In  In11  1  0.341482  0.869071  0.000000  1
  In  In12  1  0.658518  0.130929  0.000000  1
  In  In13  1  0.869020  0.341431  0.000000  1
  In  In14  1  0.130980  0.658569  0.000000  1
  In  In15  1  0.576756  0.716532  0.000000  1
  In  In16  1  0.423244  0.283468  0.000000  1
  In  In17  1  0.716512  0.576751  0.000000  1
  In  In18  1  0.283488  0.423249  0.000000  1
  In  In19  1  0.000000  0.000000  0.000000  1
  Ir  Ir20  1  0.747132  0.949863  0.000000  1
  Ir  Ir21  1  0.252868  0.050137  0.000000  1
  Ir  Ir22  1  0.949901  0.747211  0.000000  1
  Ir  Ir23  1  0.050099  0.252789  0.000000  1
