# generated using pymatgen
data_Ho3TmAl18Ir5Au
_symmetry_space_group_name_H-M   'P 1'
_cell_length_a   7.57541702
_cell_length_b   7.57593615
_cell_length_c   9.44833598
_cell_angle_alpha   89.96409948
_cell_angle_beta   89.98353737
_cell_angle_gamma   119.58439965
_symmetry_Int_Tables_number   1
_chemical_formula_structural   Ho3TmAl18Ir5Au
_chemical_formula_sum   'Ho3 Tm1 Al18 Ir5 Au1'
_cell_volume   471.55483136
_cell_formula_units_Z   1
loop_
 _symmetry_equiv_pos_site_id
 _symmetry_equiv_pos_as_xyz
  1  'x, y, z'
loop_
 _atom_site_type_symbol
 _atom_site_label
 _atom_site_symmetry_multiplicity
 _atom_site_fract_x
 _atom_site_fract_y
 _atom_site_fract_z
 _atom_site_occupancy
  Ho  Ho0  1  0.995900  0.673378  0.251323  1
  Ho  Ho1  1  0.004134  0.326610  0.748683  1
  Ho  Ho2  1  0.673333  0.995905  0.251313  1
  Tm  Tm3  1  0.326596  0.004071  0.748496  1
  Al  Al4  1  0.135073  0.135036  0.255937  1
  Al  Al5  1  0.865224  0.865044  0.744094  1
  Al  Al6  1  0.001311  0.344019  0.079494  1
  Al  Al7  1  0.998976  0.656317  0.920336  1
  Al  Al8  1  0.000436  0.664823  0.574730  1
  Al  Al9  1  0.335504  0.999886  0.425765  1
  Al  Al10  1  0.999878  0.335486  0.425480  1
  Al  Al11  1  0.664223  0.000127  0.574704  1
  Al  Al12  1  0.655684  0.998703  0.920298  1
  Al  Al13  1  0.343974  0.001307  0.079249  1
  Al  Al14  1  0.333177  0.332908  0.553604  1
  Al  Al15  1  0.666831  0.666823  0.446643  1
  Al  Al16  1  0.658214  0.658204  0.059783  1
  Al  Al17  1  0.341764  0.341502  0.939971  1
  Al  Al18  1  0.339088  0.550249  0.251158  1
  Al  Al19  1  0.660657  0.449404  0.748841  1
  Al  Al20  1  0.550234  0.339053  0.251154  1
  Al  Al21  1  0.449681  0.661113  0.748852  1
  Ir  Ir22  1  0.671863  0.327918  0.999862  1
  Ir  Ir23  1  0.328018  0.672083  0.999867  1
  Ir  Ir24  1  0.327966  0.672101  0.500127  1
  Ir  Ir25  1  0.671903  0.327884  0.500157  1
  Ir  Ir26  1  0.000229  0.000036  0.500167  1
  Au  Au27  1  0.000128  0.000006  0.999912  1
