# generated using pymatgen
data_Ca2MgReN4
_symmetry_space_group_name_H-M   'P 1'
_cell_length_a   5.86569200
_cell_length_b   6.01065889
_cell_length_c   6.61927567
_cell_angle_alpha   74.31962532
_cell_angle_beta   90.00000000
_cell_angle_gamma   90.00000000
_symmetry_Int_Tables_number   1
_chemical_formula_structural   Ca2MgReN4
_chemical_formula_sum   'Ca4 Mg2 Re2 N8'
_cell_volume   224.68849763
_cell_formula_units_Z   2
loop_
 _symmetry_equiv_pos_site_id
 _symmetry_equiv_pos_as_xyz
  1  'x, y, z'
loop_
 _atom_site_type_symbol
 _atom_site_label
 _atom_site_symmetry_multiplicity
 _atom_site_fract_x
 _atom_site_fract_y
 _atom_site_fract_z
 _atom_site_occupancy
  Ca  Ca0  1  0.250000  0.261520  0.058504  1
  Ca  Ca1  1  0.750000  0.738480  0.941496  1
  Ca  Ca2  1  0.750000  0.761582  0.429837  1
  Ca  Ca3  1  0.250000  0.238418  0.570163  1
  Mg  Mg4  1  0.750000  0.285263  0.307211  1
  Mg  Mg5  1  0.250000  0.714737  0.692789  1
  Re  Re6  1  0.250000  0.735188  0.193340  1
  Re  Re7  1  0.750000  0.264812  0.806660  1
  N  N8  1  0.504132  0.469932  0.754968  1
  N  N9  1  0.004132  0.530068  0.245032  1
  N  N10  1  0.495868  0.530068  0.245032  1
  N  N11  1  0.995868  0.469932  0.754968  1
  N  N12  1  0.750000  0.078804  0.618528  1
  N  N13  1  0.250000  0.921196  0.381472  1
  N  N14  1  0.750000  0.089189  0.086175  1
  N  N15  1  0.250000  0.910811  0.913825  1
