# generated using pymatgen
data_Sr2HgBi5O14
_symmetry_space_group_name_H-M   'P 1'
_cell_length_a   7.97328493
_cell_length_b   7.99895588
_cell_length_c   7.81455202
_cell_angle_alpha   59.21626600
_cell_angle_beta   59.02111831
_cell_angle_gamma   59.89348069
_symmetry_Int_Tables_number   1
_chemical_formula_structural   Sr2HgBi5O14
_chemical_formula_sum   'Sr2 Hg1 Bi5 O14'
_cell_volume   347.37648473
_cell_formula_units_Z   1
loop_
 _symmetry_equiv_pos_site_id
 _symmetry_equiv_pos_as_xyz
  1  'x, y, z'
loop_
 _atom_site_type_symbol
 _atom_site_label
 _atom_site_symmetry_multiplicity
 _atom_site_fract_x
 _atom_site_fract_y
 _atom_site_fract_z
 _atom_site_occupancy
  Sr  Sr0  1  0.500001  0.500001  0.499999  1
  Sr  Sr1  1  0.499999  0.000000  0.500001  1
  Hg  Hg2  1  0.500000  0.500000  0.000000  1
  Bi  Bi3  1  0.000000  0.000000  0.000000  1
  Bi  Bi4  1  0.500001  0.000000  0.000000  1
  Bi  Bi5  1  0.000000  0.499998  0.000000  1
  Bi  Bi6  1  0.000000  0.000000  0.500001  1
  Bi  Bi7  1  0.000000  0.499999  0.500001  1
  O  O8  1  0.676744  0.675479  0.082848  1
  O  O9  1  0.676744  0.064930  0.082848  1
  O  O10  1  0.061349  0.673613  0.091424  1
  O  O11  1  0.920297  0.330312  0.335403  1
  O  O12  1  0.329381  0.917464  0.335690  1
  O  O13  1  0.920296  0.913988  0.335404  1
  O  O14  1  0.363448  0.395634  0.345284  1
  O  O15  1  0.636554  0.604365  0.654716  1
  O  O16  1  0.079704  0.086012  0.664597  1
  O  O17  1  0.670615  0.082536  0.664311  1
  O  O18  1  0.079703  0.669688  0.664598  1
  O  O19  1  0.323258  0.324520  0.917152  1
  O  O20  1  0.938653  0.326385  0.908576  1
  O  O21  1  0.323258  0.935070  0.917152  1
