# generated using pymatgen
data_Y5Co14P12Ru5
_symmetry_space_group_name_H-M   'P 1'
_cell_length_a   12.12963656
_cell_length_b   12.12488269
_cell_length_c   3.74283000
_cell_angle_alpha   90.00000000
_cell_angle_beta   90.00000000
_cell_angle_gamma   119.98205286
_symmetry_Int_Tables_number   1
_chemical_formula_structural   Y5Co14P12Ru5
_chemical_formula_sum   'Y5 Co14 P12 Ru5'
_cell_volume   476.79816979
_cell_formula_units_Z   1
loop_
 _symmetry_equiv_pos_site_id
 _symmetry_equiv_pos_as_xyz
  1  'x, y, z'
loop_
 _atom_site_type_symbol
 _atom_site_label
 _atom_site_symmetry_multiplicity
 _atom_site_fract_x
 _atom_site_fract_y
 _atom_site_fract_z
 _atom_site_occupancy
  Y  Y0  1  0.662672  0.333927  0.000000  1
  Y  Y1  1  0.333146  0.666436  0.000000  1
  Y  Y2  1  0.185293  0.184037  0.500000  1
  Y  Y3  1  0.817456  0.000222  0.500000  1
  Y  Y4  1  0.000108  0.818657  0.500000  1
  Co  Co5  1  0.827590  0.199032  0.000000  1
  Co  Co6  1  0.800728  0.628103  0.000000  1
  Co  Co7  1  0.374744  0.178399  0.000000  1
  Co  Co8  1  0.194715  0.819464  0.000000  1
  Co  Co9  1  0.623552  0.803274  0.000000  1
  Co  Co10  1  0.181203  0.374865  0.000000  1
  Co  Co11  1  0.479977  0.358248  0.500000  1
  Co  Co12  1  0.131161  0.644090  0.500000  1
  Co  Co13  1  0.513514  0.869235  0.500000  1
  Co  Co14  1  0.357091  0.483846  0.500000  1
  Co  Co15  1  0.715547  0.717646  0.500000  1
  Co  Co16  1  0.281498  0.998020  0.500000  1
  Co  Co17  1  0.002689  0.283363  0.500000  1
  Co  Co18  1  0.999610  0.999439  0.000000  1
  P  P19  1  0.363148  0.362844  0.000000  1
  P  P20  1  0.633777  0.995425  0.000000  1
  P  P21  1  0.004260  0.639096  0.000000  1
  P  P22  1  0.838898  0.313872  0.500000  1
  P  P23  1  0.681663  0.522161  0.500000  1
  P  P24  1  0.473777  0.166413  0.500000  1
  P  P25  1  0.312737  0.834609  0.500000  1
  P  P26  1  0.520577  0.685855  0.500000  1
  P  P27  1  0.167236  0.478083  0.500000  1
  P  P28  1  0.818839  0.820912  0.000000  1
  P  P29  1  0.180083  0.999924  0.000000  1
  P  P30  1  0.002360  0.180044  0.000000  1
  Ru  Ru31  1  0.551378  0.553486  0.000000  1
  Ru  Ru32  1  0.440979  0.991215  0.000000  1
  Ru  Ru33  1  0.009304  0.450674  0.000000  1
  Ru  Ru34  1  0.642449  0.124152  0.500000  1
  Ru  Ru35  1  0.876243  0.520928  0.500000  1
