# generated using pymatgen
data_La5Nd11MgCd3Ru4
_symmetry_space_group_name_H-M   'P 1'
_cell_length_a   10.02823453
_cell_length_b   9.98743036
_cell_length_c   10.02762110
_cell_angle_alpha   59.58963972
_cell_angle_beta   59.35373990
_cell_angle_gamma   59.98604693
_symmetry_Int_Tables_number   1
_chemical_formula_structural   La5Nd11MgCd3Ru4
_chemical_formula_sum   'La5 Nd11 Mg1 Cd3 Ru4'
_cell_volume   704.36511622
_cell_formula_units_Z   1
loop_
 _symmetry_equiv_pos_site_id
 _symmetry_equiv_pos_as_xyz
  1  'x, y, z'
loop_
 _atom_site_type_symbol
 _atom_site_label
 _atom_site_symmetry_multiplicity
 _atom_site_fract_x
 _atom_site_fract_y
 _atom_site_fract_z
 _atom_site_occupancy
  La  La0  1  0.062248  0.434724  0.062303  1
  La  La1  1  0.305779  0.305090  0.692639  1
  La  La2  1  0.060346  0.439877  0.435799  1
  La  La3  1  0.440737  0.059155  0.434474  1
  La  La4  1  0.686388  0.315653  0.684022  1
  Nd  Nd5  1  0.906422  0.906224  0.905865  1
  Nd  Nd6  1  0.441837  0.440540  0.056010  1
  Nd  Nd7  1  0.059148  0.054322  0.442796  1
  Nd  Nd8  1  0.440993  0.057557  0.061577  1
  Nd  Nd9  1  0.313211  0.685435  0.313554  1
  Nd  Nd10  1  0.687699  0.689400  0.311103  1
  Nd  Nd11  1  0.688822  0.309209  0.309799  1
  Nd  Nd12  1  0.284844  0.902497  0.908620  1
  Nd  Nd13  1  0.901354  0.288139  0.905387  1
  Nd  Nd14  1  0.312376  0.688998  0.685174  1
  Nd  Nd15  1  0.906061  0.903931  0.290458  1
  Mg  Mg16  1  0.673251  0.676275  0.976371  1
  Cd  Cd17  1  0.988582  0.674595  0.670023  1
  Cd  Cd18  1  0.672889  0.987759  0.671341  1
  Cd  Cd19  1  0.668676  0.671338  0.673206  1
  Ru  Ru20  1  0.121127  0.118819  0.658306  1
  Ru  Ru21  1  0.108414  0.125725  0.105217  1
  Ru  Ru22  1  0.106647  0.657693  0.120783  1
  Ru  Ru23  1  0.662146  0.107041  0.125172  1
