# generated using pymatgen
data_Zr12Zn8Pd3PtN4
_symmetry_space_group_name_H-M   'P 1'
_cell_length_a   8.60513654
_cell_length_b   8.60513625
_cell_length_c   8.62422856
_cell_angle_alpha   60.07320560
_cell_angle_beta   60.07320793
_cell_angle_gamma   59.99999361
_symmetry_Int_Tables_number   1
_chemical_formula_structural   Zr12Zn8Pd3PtN4
_chemical_formula_sum   'Zr12 Zn8 Pd3 Pt1 N4'
_cell_volume   452.06452267
_cell_formula_units_Z   1
loop_
 _symmetry_equiv_pos_site_id
 _symmetry_equiv_pos_as_xyz
  1  'x, y, z'
loop_
 _atom_site_type_symbol
 _atom_site_label
 _atom_site_symmetry_multiplicity
 _atom_site_fract_x
 _atom_site_fract_y
 _atom_site_fract_z
 _atom_site_occupancy
  Zr  Zr0  1  0.811728  0.189463  0.187081  1
  Zr  Zr1  1  0.189463  0.811728  0.187081  1
  Zr  Zr2  1  0.811728  0.811728  0.187081  1
  Zr  Zr3  1  0.187510  0.812796  0.812185  1
  Zr  Zr4  1  0.812796  0.187510  0.812185  1
  Zr  Zr5  1  0.187510  0.187510  0.812185  1
  Zr  Zr6  1  0.438272  0.060537  0.062919  1
  Zr  Zr7  1  0.060537  0.438272  0.062919  1
  Zr  Zr8  1  0.438272  0.438272  0.062919  1
  Zr  Zr9  1  0.062490  0.437204  0.437815  1
  Zr  Zr10  1  0.437204  0.062490  0.437815  1
  Zr  Zr11  1  0.062490  0.062490  0.437815  1
  Zn  Zn12  1  0.417509  0.417509  0.747470  1
  Zn  Zn13  1  0.417492  0.417492  0.417650  1
  Zn  Zn14  1  0.747365  0.417492  0.417650  1
  Zn  Zn15  1  0.417492  0.747365  0.417650  1
  Zn  Zn16  1  0.832491  0.832491  0.502530  1
  Zn  Zn17  1  0.832508  0.832508  0.832350  1
  Zn  Zn18  1  0.502635  0.832508  0.832350  1
  Zn  Zn19  1  0.832508  0.502635  0.832350  1
  Pd  Pd20  1  0.625000  0.625000  0.625000  1
  Pd  Pd21  1  0.125000  0.625000  0.625000  1
  Pd  Pd22  1  0.625000  0.125000  0.625000  1
  Pt  Pt23  1  0.625000  0.625000  0.125000  1
  N  N24  1  0.125000  0.125000  0.625000  1
  N  N25  1  0.125000  0.125000  0.125000  1
  N  N26  1  0.625000  0.125000  0.125000  1
  N  N27  1  0.125000  0.625000  0.125000  1
