# generated using pymatgen
data_Tb4Ga18(RuPt)3
_symmetry_space_group_name_H-M   'P 1'
_cell_length_a   7.64267818
_cell_length_b   7.64267768
_cell_length_c   9.57276630
_cell_angle_alpha   89.92671274
_cell_angle_beta   89.92671458
_cell_angle_gamma   120.11710645
_symmetry_Int_Tables_number   1
_chemical_formula_structural   Tb4Ga18(RuPt)3
_chemical_formula_sum   'Tb4 Ga18 Ru3 Pt3'
_cell_volume   483.66435583
_cell_formula_units_Z   1
loop_
 _symmetry_equiv_pos_site_id
 _symmetry_equiv_pos_as_xyz
  1  'x, y, z'
loop_
 _atom_site_type_symbol
 _atom_site_label
 _atom_site_symmetry_multiplicity
 _atom_site_fract_x
 _atom_site_fract_y
 _atom_site_fract_z
 _atom_site_occupancy
  Tb  Tb0  1  0.996108  0.669112  0.250976  1
  Tb  Tb1  1  0.002134  0.330120  0.749254  1
  Tb  Tb2  1  0.669880  0.997866  0.250746  1
  Tb  Tb3  1  0.330888  0.003892  0.749024  1
  Ga  Ga4  1  0.134209  0.132366  0.249819  1
  Ga  Ga5  1  0.867634  0.865791  0.750181  1
  Ga  Ga6  1  0.005969  0.339318  0.080681  1
  Ga  Ga7  1  0.005008  0.665863  0.919552  1
  Ga  Ga8  1  0.000312  0.660800  0.578281  1
  Ga  Ga9  1  0.339200  0.999688  0.421719  1
  Ga  Ga10  1  0.001472  0.338846  0.420488  1
  Ga  Ga11  1  0.661154  0.998528  0.579512  1
  Ga  Ga12  1  0.660682  0.994031  0.919319  1
  Ga  Ga13  1  0.334137  0.994992  0.080448  1
  Ga  Ga14  1  0.340475  0.340322  0.563374  1
  Ga  Ga15  1  0.659678  0.659525  0.436626  1
  Ga  Ga16  1  0.658937  0.664918  0.066772  1
  Ga  Ga17  1  0.335082  0.341063  0.933228  1
  Ga  Ga18  1  0.337152  0.552200  0.250714  1
  Ga  Ga19  1  0.664162  0.453864  0.746030  1
  Ga  Ga20  1  0.546136  0.335838  0.253970  1
  Ga  Ga21  1  0.447800  0.662848  0.749286  1
  Ru  Ru22  1  0.328178  0.671822  0.000000  1
  Ru  Ru23  1  0.327725  0.672275  0.500000  1
  Ru  Ru24  1  0.673255  0.326745  0.500000  1
  Pt  Pt25  1  0.672154  0.327846  0.000000  1
  Pt  Pt26  1  0.000342  0.999658  0.000000  1
  Pt  Pt27  1  0.000137  0.999863  0.500000  1
