# generated using pymatgen
data_Li2TbErBiPb
_symmetry_space_group_name_H-M   'P 1'
_cell_length_a   4.82762700
_cell_length_b   4.82762758
_cell_length_c   7.14042200
_cell_angle_alpha   90.00000000
_cell_angle_beta   90.00000000
_cell_angle_gamma   120.00000290
_symmetry_Int_Tables_number   1
_chemical_formula_structural   Li2TbErBiPb
_chemical_formula_sum   'Li2 Tb1 Er1 Bi1 Pb1'
_cell_volume   144.11924074
_cell_formula_units_Z   1
loop_
 _symmetry_equiv_pos_site_id
 _symmetry_equiv_pos_as_xyz
  1  'x, y, z'
loop_
 _atom_site_type_symbol
 _atom_site_label
 _atom_site_symmetry_multiplicity
 _atom_site_fract_x
 _atom_site_fract_y
 _atom_site_fract_z
 _atom_site_occupancy
  Li  Li0  1  0.666667  0.333333  0.742192  1
  Li  Li1  1  0.333333  0.666667  0.255215  1
  Tb  Tb2  1  0.000000  0.000000  0.495633  1
  Er  Er3  1  0.000000  0.000000  0.005582  1
  Bi  Bi4  1  0.333333  0.666667  0.755103  1
  Pb  Pb5  1  0.666667  0.333333  0.246276  1
