# generated using pymatgen
data_YPa3(FeB4)4
_symmetry_space_group_name_H-M   'P 1'
_cell_length_a   3.44495700
_cell_length_b   5.91936333
_cell_length_c   11.47431964
_cell_angle_alpha   89.96175415
_cell_angle_beta   90.00000000
_cell_angle_gamma   90.00000000
_symmetry_Int_Tables_number   1
_chemical_formula_structural   YPa3(FeB4)4
_chemical_formula_sum   'Y1 Pa3 Fe4 B16'
_cell_volume   233.98372477
_cell_formula_units_Z   1
loop_
 _symmetry_equiv_pos_site_id
 _symmetry_equiv_pos_as_xyz
  1  'x, y, z'
loop_
 _atom_site_type_symbol
 _atom_site_label
 _atom_site_symmetry_multiplicity
 _atom_site_fract_x
 _atom_site_fract_y
 _atom_site_fract_z
 _atom_site_occupancy
  Y  Y0  1  0.500000  0.872654  0.350427  1
  Pa  Pa1  1  0.500000  0.372998  0.151140  1
  Pa  Pa2  1  0.500000  0.626659  0.849651  1
  Pa  Pa3  1  0.500000  0.126596  0.649119  1
  Fe  Fe4  1  0.500000  0.364514  0.411037  1
  Fe  Fe5  1  0.500000  0.636363  0.592726  1
  Fe  Fe6  1  0.500000  0.136102  0.907464  1
  Fe  Fe7  1  0.500000  0.865618  0.089181  1
  B  B8  1  0.000000  0.110566  0.046004  1
  B  B9  1  0.000000  0.887729  0.954929  1
  B  B10  1  0.000000  0.388767  0.544323  1
  B  B11  1  0.000000  0.612682  0.454234  1
  B  B12  1  0.000000  0.139952  0.466159  1
  B  B13  1  0.000000  0.860849  0.532639  1
  B  B14  1  0.000000  0.360173  0.966129  1
  B  B15  1  0.000000  0.638471  0.034540  1
  B  B16  1  0.000000  0.023198  0.189934  1
  B  B17  1  0.000000  0.976115  0.810370  1
  B  B18  1  0.000000  0.475799  0.689229  1
  B  B19  1  0.000000  0.524666  0.311283  1
  B  B20  1  0.000000  0.218496  0.315391  1
  B  B21  1  0.000000  0.781184  0.684825  1
  B  B22  1  0.000000  0.281860  0.814397  1
  B  B23  1  0.000000  0.717989  0.184870  1
