# generated using pymatgen
data_VNi4Mo7C2
_symmetry_space_group_name_H-M   'P 1'
_cell_length_a   7.96226846
_cell_length_b   7.98508786
_cell_length_c   7.96226861
_cell_angle_alpha   59.90515310
_cell_angle_beta   59.84779528
_cell_angle_gamma   59.90515575
_symmetry_Int_Tables_number   1
_chemical_formula_structural   VNi4Mo7C2
_chemical_formula_sum   'V2 Ni8 Mo14 C4'
_cell_volume   357.03733371
_cell_formula_units_Z   2
loop_
 _symmetry_equiv_pos_site_id
 _symmetry_equiv_pos_as_xyz
  1  'x, y, z'
loop_
 _atom_site_type_symbol
 _atom_site_label
 _atom_site_symmetry_multiplicity
 _atom_site_fract_x
 _atom_site_fract_y
 _atom_site_fract_z
 _atom_site_occupancy
  V  V0  1  0.625000  0.625000  0.125001  1
  V  V1  1  0.125001  0.625000  0.625000  1
  Ni  Ni2  1  0.834123  0.826215  0.834123  1
  Ni  Ni3  1  0.837442  0.828724  0.505112  1
  Ni  Ni4  1  0.505112  0.828724  0.837442  1
  Ni  Ni5  1  0.834123  0.505542  0.834123  1
  Ni  Ni6  1  0.415878  0.423786  0.415878  1
  Ni  Ni7  1  0.412559  0.421277  0.744888  1
  Ni  Ni8  1  0.415878  0.744458  0.415878  1
  Ni  Ni9  1  0.744888  0.421277  0.412559  1
  Mo  Mo10  1  0.810770  0.189641  0.188941  1
  Mo  Mo11  1  0.188940  0.810649  0.810771  1
  Mo  Mo12  1  0.188773  0.811227  0.188773  1
  Mo  Mo13  1  0.188941  0.189641  0.810770  1
  Mo  Mo14  1  0.810213  0.189787  0.810213  1
  Mo  Mo15  1  0.810771  0.810649  0.188940  1
  Mo  Mo16  1  0.061228  0.438773  0.061228  1
  Mo  Mo17  1  0.439787  0.060213  0.439787  1
  Mo  Mo18  1  0.439230  0.060360  0.061060  1
  Mo  Mo19  1  0.061060  0.060360  0.439230  1
  Mo  Mo20  1  0.061060  0.439351  0.439229  1
  Mo  Mo21  1  0.439229  0.439351  0.061060  1
  Mo  Mo22  1  0.625000  0.625000  0.625000  1
  Mo  Mo23  1  0.625000  0.125001  0.625000  1
  C  C24  1  0.125000  0.125000  0.125000  1
  C  C25  1  0.125000  0.125000  0.625001  1
  C  C26  1  0.625001  0.125000  0.125000  1
  C  C27  1  0.125000  0.625001  0.125000  1
