# generated using pymatgen
data_Lu2Sc2B12IrW
_symmetry_space_group_name_H-M   'P 1'
_cell_length_a   3.51356100
_cell_length_b   9.01001997
_cell_length_c   11.40849350
_cell_angle_alpha   90.17003625
_cell_angle_beta   90.00000000
_cell_angle_gamma   90.00000000
_symmetry_Int_Tables_number   1
_chemical_formula_structural   Lu2Sc2B12IrW
_chemical_formula_sum   'Lu4 Sc4 B24 Ir2 W2'
_cell_volume   361.15999478
_cell_formula_units_Z   2
loop_
 _symmetry_equiv_pos_site_id
 _symmetry_equiv_pos_as_xyz
  1  'x, y, z'
loop_
 _atom_site_type_symbol
 _atom_site_label
 _atom_site_symmetry_multiplicity
 _atom_site_fract_x
 _atom_site_fract_y
 _atom_site_fract_z
 _atom_site_occupancy
  Lu  Lu0  1  0.500000  0.316691  0.412285  1
  Lu  Lu1  1  0.500000  0.683309  0.587715  1
  Lu  Lu2  1  0.500000  0.178150  0.915793  1
  Lu  Lu3  1  0.500000  0.821850  0.084207  1
  Sc  Sc4  1  0.500000  0.444037  0.125253  1
  Sc  Sc5  1  0.500000  0.555963  0.874747  1
  Sc  Sc6  1  0.500000  0.052831  0.625788  1
  Sc  Sc7  1  0.500000  0.947169  0.374212  1
  B  B8  1  0.000000  0.101183  0.473976  1
  B  B9  1  0.000000  0.898817  0.526024  1
  B  B10  1  0.000000  0.400348  0.971788  1
  B  B11  1  0.000000  0.599652  0.028212  1
  B  B12  1  0.000000  0.130359  0.320597  1
  B  B13  1  0.000000  0.869641  0.679403  1
  B  B14  1  0.000000  0.370317  0.817824  1
  B  B15  1  0.000000  0.629683  0.182176  1
  B  B16  1  0.000000  0.051812  0.064896  1
  B  B17  1  0.000000  0.948188  0.935104  1
  B  B18  1  0.000000  0.445872  0.565384  1
  B  B19  1  0.000000  0.554128  0.434616  1
  B  B20  1  0.000000  0.481804  0.286983  1
  B  B21  1  0.000000  0.518196  0.713017  1
  B  B22  1  0.000000  0.023413  0.784697  1
  B  B23  1  0.000000  0.976587  0.215303  1
  B  B24  1  0.000000  0.255354  0.077477  1
  B  B25  1  0.000000  0.744646  0.922523  1
  B  B26  1  0.000000  0.246152  0.579385  1
  B  B27  1  0.000000  0.753848  0.420615  1
  B  B28  1  0.000000  0.299356  0.237128  1
  B  B29  1  0.000000  0.700644  0.762872  1
  B  B30  1  0.000000  0.207016  0.734710  1
  B  B31  1  0.000000  0.792984  0.265290  1
  Ir  Ir32  1  0.500000  0.360528  0.679375  1
  Ir  Ir33  1  0.500000  0.639472  0.320625  1
  W  W34  1  0.500000  0.140918  0.182364  1
  W  W35  1  0.500000  0.859082  0.817636  1
