# generated using pymatgen
data_La7Pr9(InIr)4
_symmetry_space_group_name_H-M   'P 1'
_cell_length_a   10.03933254
_cell_length_b   10.03676295
_cell_length_c   10.10172800
_cell_angle_alpha   59.80252287
_cell_angle_beta   60.22315993
_cell_angle_gamma   60.42015145
_symmetry_Int_Tables_number   1
_chemical_formula_structural   La7Pr9(InIr)4
_chemical_formula_sum   'La7 Pr9 In4 Ir4'
_cell_volume   722.12518693
_cell_formula_units_Z   1
loop_
 _symmetry_equiv_pos_site_id
 _symmetry_equiv_pos_as_xyz
  1  'x, y, z'
loop_
 _atom_site_type_symbol
 _atom_site_label
 _atom_site_symmetry_multiplicity
 _atom_site_fract_x
 _atom_site_fract_y
 _atom_site_fract_z
 _atom_site_occupancy
  La  La0  1  0.347241  0.347108  0.349018  1
  La  La1  1  0.348483  0.346298  0.957209  1
  La  La2  1  0.349018  0.956633  0.347241  1
  La  La3  1  0.957209  0.348009  0.348483  1
  La  La4  1  0.809047  0.190982  0.188665  1
  La  La5  1  0.188665  0.811306  0.809047  1
  La  La6  1  0.190187  0.809813  0.190187  1
  Pr  Pr7  1  0.807142  0.192858  0.807142  1
  Pr  Pr8  1  0.192318  0.195241  0.805263  1
  Pr  Pr9  1  0.805263  0.807179  0.192318  1
  Pr  Pr10  1  0.938102  0.561800  0.562368  1
  Pr  Pr11  1  0.562368  0.937730  0.938102  1
  Pr  Pr12  1  0.561803  0.938197  0.561803  1
  Pr  Pr13  1  0.938810  0.561190  0.938810  1
  Pr  Pr14  1  0.561631  0.560514  0.939027  1
  Pr  Pr15  1  0.939027  0.938827  0.561631  1
  In  In16  1  0.582625  0.580181  0.579659  1
  In  In17  1  0.581346  0.581772  0.257487  1
  In  In18  1  0.579659  0.257536  0.582625  1
  In  In19  1  0.257487  0.579396  0.581346  1
  Ir  Ir20  1  0.138139  0.138695  0.145394  1
  Ir  Ir21  1  0.143585  0.136590  0.575452  1
  Ir  Ir22  1  0.145394  0.577770  0.138139  1
  Ir  Ir23  1  0.575452  0.144373  0.143585  1
