# generated using pymatgen
data_Th3AsSe2
_symmetry_space_group_name_H-M   'P 1'
_cell_length_a   7.30420889
_cell_length_b   7.30421017
_cell_length_c   7.30421013
_cell_angle_alpha   146.31796588
_cell_angle_beta   131.93069460
_cell_angle_gamma   59.97622513
_symmetry_Int_Tables_number   1
_chemical_formula_structural   Th3AsSe2
_chemical_formula_sum   'Th3 As1 Se2'
_cell_volume   159.30857924
_cell_formula_units_Z   1
loop_
 _symmetry_equiv_pos_site_id
 _symmetry_equiv_pos_as_xyz
  1  'x, y, z'
loop_
 _atom_site_type_symbol
 _atom_site_label
 _atom_site_symmetry_multiplicity
 _atom_site_fract_x
 _atom_site_fract_y
 _atom_site_fract_z
 _atom_site_occupancy
  Th  Th0  1  0.000000  0.000000  0.000000  1
  Th  Th1  1  0.664646  0.664646  0.000000  1
  Th  Th2  1  0.335354  0.335354  0.000000  1
  As  As3  1  0.500000  0.000000  0.500000  1
  Se  Se4  1  0.166464  0.666464  0.500000  1
  Se  Se5  1  0.833536  0.333536  0.500000  1
