# generated using pymatgen
data_Tm2UGa3FeRu2
_symmetry_space_group_name_H-M   'P 1'
_cell_length_a   6.79194684
_cell_length_b   6.79194847
_cell_length_c   3.93485100
_cell_angle_alpha   90.00000000
_cell_angle_beta   90.00000000
_cell_angle_gamma   116.94222467
_symmetry_Int_Tables_number   1
_chemical_formula_structural   Tm2UGa3FeRu2
_chemical_formula_sum   'Tm2 U1 Ga3 Fe1 Ru2'
_cell_volume   161.81571420
_cell_formula_units_Z   1
loop_
 _symmetry_equiv_pos_site_id
 _symmetry_equiv_pos_as_xyz
  1  'x, y, z'
loop_
 _atom_site_type_symbol
 _atom_site_label
 _atom_site_symmetry_multiplicity
 _atom_site_fract_x
 _atom_site_fract_y
 _atom_site_fract_z
 _atom_site_occupancy
  Tm  Tm0  1  0.410437  0.010026  0.500000  1
  Tm  Tm1  1  0.010026  0.410437  0.500000  1
  U  U2  1  0.642657  0.642657  0.500000  1
  Ga  Ga3  1  0.747889  0.039082  0.000000  1
  Ga  Ga4  1  0.039082  0.747889  0.000000  1
  Ga  Ga5  1  0.195329  0.195329  0.000000  1
  Fe  Fe6  1  0.944724  0.944724  0.500000  1
  Ru  Ru7  1  0.378214  0.631643  0.000000  1
  Ru  Ru8  1  0.631643  0.378214  0.000000  1
