# generated using pymatgen
data_TbDy15MgCd3Pt4
_symmetry_space_group_name_H-M   'P 1'
_cell_length_a   9.70361705
_cell_length_b   9.70361718
_cell_length_c   9.70332416
_cell_angle_alpha   60.05023196
_cell_angle_beta   60.05023548
_cell_angle_gamma   60.04158648
_symmetry_Int_Tables_number   1
_chemical_formula_structural   TbDy15MgCd3Pt4
_chemical_formula_sum   'Tb1 Dy15 Mg1 Cd3 Pt4'
_cell_volume   646.75336489
_cell_formula_units_Z   1
loop_
 _symmetry_equiv_pos_site_id
 _symmetry_equiv_pos_as_xyz
  1  'x, y, z'
loop_
 _atom_site_type_symbol
 _atom_site_label
 _atom_site_symmetry_multiplicity
 _atom_site_fract_x
 _atom_site_fract_y
 _atom_site_fract_z
 _atom_site_occupancy
  Tb  Tb0  1  0.936347  0.936347  0.563607  1
  Dy  Dy1  1  0.349780  0.349780  0.349777  1
  Dy  Dy2  1  0.352427  0.352427  0.944971  1
  Dy  Dy3  1  0.352548  0.944929  0.352380  1
  Dy  Dy4  1  0.944929  0.352548  0.352380  1
  Dy  Dy5  1  0.809738  0.191285  0.191073  1
  Dy  Dy6  1  0.188541  0.811619  0.811708  1
  Dy  Dy7  1  0.191285  0.809738  0.191073  1
  Dy  Dy8  1  0.811619  0.188541  0.811708  1
  Dy  Dy9  1  0.191203  0.191203  0.809740  1
  Dy  Dy10  1  0.811669  0.811669  0.188440  1
  Dy  Dy11  1  0.935931  0.566089  0.566231  1
  Dy  Dy12  1  0.563453  0.936369  0.936500  1
  Dy  Dy13  1  0.566089  0.935931  0.566231  1
  Dy  Dy14  1  0.936369  0.563453  0.936500  1
  Dy  Dy15  1  0.566244  0.566244  0.935929  1
  Mg  Mg16  1  0.576412  0.576412  0.576384  1
  Cd  Cd17  1  0.581436  0.581436  0.253698  1
  Cd  Cd18  1  0.581335  0.253765  0.581457  1
  Cd  Cd19  1  0.253765  0.581335  0.581457  1
  Pt  Pt20  1  0.143883  0.143883  0.143771  1
  Pt  Pt21  1  0.141803  0.141803  0.571466  1
  Pt  Pt22  1  0.141754  0.571439  0.141758  1
  Pt  Pt23  1  0.571439  0.141754  0.141758  1
