# generated using pymatgen
data_Y4Al18OsPd5
_symmetry_space_group_name_H-M   'P 1'
_cell_length_a   7.63217620
_cell_length_b   7.63217488
_cell_length_c   9.49062516
_cell_angle_alpha   90.05566823
_cell_angle_beta   90.05567286
_cell_angle_gamma   119.69854941
_symmetry_Int_Tables_number   1
_chemical_formula_structural   Y4Al18OsPd5
_chemical_formula_sum   'Y4 Al18 Os1 Pd5'
_cell_volume   480.21150737
_cell_formula_units_Z   1
loop_
 _symmetry_equiv_pos_site_id
 _symmetry_equiv_pos_as_xyz
  1  'x, y, z'
loop_
 _atom_site_type_symbol
 _atom_site_label
 _atom_site_symmetry_multiplicity
 _atom_site_fract_x
 _atom_site_fract_y
 _atom_site_fract_z
 _atom_site_occupancy
  Y  Y0  1  0.995263  0.669495  0.248965  1
  Y  Y1  1  0.006019  0.330419  0.751117  1
  Y  Y2  1  0.669581  0.993981  0.248883  1
  Y  Y3  1  0.330505  0.004737  0.751035  1
  Al  Al4  1  0.128447  0.130304  0.249203  1
  Al  Al5  1  0.869696  0.871553  0.750797  1
  Al  Al6  1  0.995969  0.333862  0.075103  1
  Al  Al7  1  0.995778  0.660307  0.925388  1
  Al  Al8  1  0.999321  0.666077  0.577902  1
  Al  Al9  1  0.333923  0.000679  0.422098  1
  Al  Al10  1  0.000853  0.334483  0.423064  1
  Al  Al11  1  0.665517  0.999147  0.576936  1
  Al  Al12  1  0.666138  0.004031  0.924897  1
  Al  Al13  1  0.339693  0.004222  0.074612  1
  Al  Al14  1  0.334034  0.334501  0.560769  1
  Al  Al15  1  0.665499  0.665967  0.439231  1
  Al  Al16  1  0.667379  0.662055  0.054431  1
  Al  Al17  1  0.337946  0.332621  0.945569  1
  Al  Al18  1  0.336609  0.546262  0.249154  1
  Al  Al19  1  0.661057  0.453154  0.753606  1
  Al  Al20  1  0.546846  0.338943  0.246394  1
  Al  Al21  1  0.453738  0.663391  0.750846  1
  Os  Os22  1  0.671914  0.328086  0.000000  1
  Pd  Pd23  1  0.328196  0.671804  0.000000  1
  Pd  Pd24  1  0.327764  0.672236  0.500000  1
  Pd  Pd25  1  0.671709  0.328291  0.500000  1
  Pd  Pd26  1  0.000656  0.999344  0.000000  1
  Pd  Pd27  1  0.999956  0.000044  0.500000  1
