# generated using pymatgen
data_Ho2Er3CoRu
_symmetry_space_group_name_H-M   'P 1'
_cell_length_a   6.26603153
_cell_length_b   7.10058684
_cell_length_c   8.44560278
_cell_angle_alpha   96.53575273
_cell_angle_beta   111.77509155
_cell_angle_gamma   90.00000613
_symmetry_Int_Tables_number   1
_chemical_formula_structural   Ho2Er3CoRu
_chemical_formula_sum   'Ho4 Er6 Co2 Ru2'
_cell_volume   346.32292036
_cell_formula_units_Z   2
loop_
 _symmetry_equiv_pos_site_id
 _symmetry_equiv_pos_as_xyz
  1  'x, y, z'
loop_
 _atom_site_type_symbol
 _atom_site_label
 _atom_site_symmetry_multiplicity
 _atom_site_fract_x
 _atom_site_fract_y
 _atom_site_fract_z
 _atom_site_occupancy
  Ho  Ho0  1  0.787527  0.588341  0.810661  1
  Ho  Ho1  1  0.976866  0.911659  0.189339  1
  Ho  Ho2  1  0.199435  0.417575  0.185487  1
  Ho  Ho3  1  0.013949  0.082425  0.814513  1
  Er  Er4  1  0.214172  0.688056  0.566732  1
  Er  Er5  1  0.647440  0.811944  0.433268  1
  Er  Er6  1  0.792452  0.318483  0.434382  1
  Er  Er7  1  0.358070  0.181517  0.565618  1
  Er  Er8  1  0.427468  0.750000  0.000000  1
  Er  Er9  1  0.578720  0.250000  0.000000  1
  Co  Co10  1  0.602986  0.923363  0.777542  1
  Co  Co11  1  0.825443  0.576637  0.222458  1
  Ru  Ru12  1  0.398132  0.072872  0.220795  1
  Ru  Ru13  1  0.177338  0.427128  0.779205  1
