# generated using pymatgen
data_TaTiSiRh5
_symmetry_space_group_name_H-M   'P 1'
_cell_length_a   3.98417200
_cell_length_b   5.46391840
_cell_length_c   10.61408360
_cell_angle_alpha   90.52655202
_cell_angle_beta   90.00000000
_cell_angle_gamma   90.00000000
_symmetry_Int_Tables_number   1
_chemical_formula_structural   TaTiSiRh5
_chemical_formula_sum   'Ta2 Ti2 Si2 Rh10'
_cell_volume   231.05025284
_cell_formula_units_Z   2
loop_
 _symmetry_equiv_pos_site_id
 _symmetry_equiv_pos_as_xyz
  1  'x, y, z'
loop_
 _atom_site_type_symbol
 _atom_site_label
 _atom_site_symmetry_multiplicity
 _atom_site_fract_x
 _atom_site_fract_y
 _atom_site_fract_z
 _atom_site_occupancy
  Ta  Ta0  1  0.500000  0.326057  0.145055  1
  Ta  Ta1  1  0.500000  0.673943  0.854945  1
  Ti  Ti2  1  0.500000  0.827566  0.361427  1
  Ti  Ti3  1  0.500000  0.172434  0.638573  1
  Si  Si4  1  0.000000  0.000000  0.000000  1
  Si  Si5  1  0.000000  0.500000  0.500000  1
  Rh  Rh6  1  0.000000  0.000000  0.500000  1
  Rh  Rh7  1  0.000000  0.500000  0.000000  1
  Rh  Rh8  1  0.000000  0.074815  0.240469  1
  Rh  Rh9  1  0.000000  0.925185  0.759531  1
  Rh  Rh10  1  0.000000  0.577702  0.261582  1
  Rh  Rh11  1  0.000000  0.422298  0.738418  1
  Rh  Rh12  1  0.500000  0.316121  0.396587  1
  Rh  Rh13  1  0.500000  0.683879  0.603413  1
  Rh  Rh14  1  0.500000  0.815370  0.103481  1
  Rh  Rh15  1  0.500000  0.184630  0.896519  1
