# generated using pymatgen
data_DyErGa3(Fe7C)2
_symmetry_space_group_name_H-M   'P 1'
_cell_length_a   6.49154177
_cell_length_b   6.49154107
_cell_length_c   6.49689400
_cell_angle_alpha   83.76956707
_cell_angle_beta   83.76954998
_cell_angle_gamma   84.21801540
_symmetry_Int_Tables_number   1
_chemical_formula_structural   DyErGa3(Fe7C)2
_chemical_formula_sum   'Dy1 Er1 Ga3 Fe14 C2'
_cell_volume   269.45658475
_cell_formula_units_Z   1
loop_
 _symmetry_equiv_pos_site_id
 _symmetry_equiv_pos_as_xyz
  1  'x, y, z'
loop_
 _atom_site_type_symbol
 _atom_site_label
 _atom_site_symmetry_multiplicity
 _atom_site_fract_x
 _atom_site_fract_y
 _atom_site_fract_z
 _atom_site_occupancy
  Dy  Dy0  1  0.341449  0.341449  0.343117  1
  Er  Er1  1  0.659173  0.659173  0.657146  1
  Ga  Ga2  1  0.652571  0.652571  0.147788  1
  Ga  Ga3  1  0.347978  0.347978  0.851163  1
  Ga  Ga4  1  0.000242  0.000242  0.499749  1
  Fe  Fe5  1  0.656312  0.144461  0.662997  1
  Fe  Fe6  1  0.144461  0.656312  0.662997  1
  Fe  Fe7  1  0.344028  0.854833  0.337217  1
  Fe  Fe8  1  0.854833  0.344028  0.337217  1
  Fe  Fe9  1  0.095537  0.095537  0.092387  1
  Fe  Fe10  1  0.904044  0.904044  0.907374  1
  Fe  Fe11  1  0.999989  0.500153  0.000038  1
  Fe  Fe12  1  0.500153  0.999989  0.000038  1
  Fe  Fe13  1  0.716869  0.283332  0.999788  1
  Fe  Fe14  1  0.290722  0.994569  0.716647  1
  Fe  Fe15  1  0.004442  0.710002  0.283573  1
  Fe  Fe16  1  0.710002  0.004442  0.283573  1
  Fe  Fe17  1  0.994569  0.290722  0.716647  1
  Fe  Fe18  1  0.283332  0.716869  0.999788  1
  C  C19  1  0.500903  0.998392  0.500377  1
  C  C20  1  0.998392  0.500903  0.500377  1
