# generated using pymatgen
data_Er20IrOs3Pt8
_symmetry_space_group_name_H-M   'P 1'
_cell_length_a   10.91127100
_cell_length_b   10.91127100
_cell_length_c   6.37078700
_cell_angle_alpha   90.00000000
_cell_angle_beta   90.00000000
_cell_angle_gamma   90.00000000
_symmetry_Int_Tables_number   1
_chemical_formula_structural   Er20IrOs3Pt8
_chemical_formula_sum   'Er20 Ir1 Os3 Pt8'
_cell_volume   758.47936484
_cell_formula_units_Z   1
loop_
 _symmetry_equiv_pos_site_id
 _symmetry_equiv_pos_as_xyz
  1  'x, y, z'
loop_
 _atom_site_type_symbol
 _atom_site_label
 _atom_site_symmetry_multiplicity
 _atom_site_fract_x
 _atom_site_fract_y
 _atom_site_fract_z
 _atom_site_occupancy
  Er  Er0  1  0.296952  0.085751  0.373757  1
  Er  Er1  1  0.297092  0.914580  0.873804  1
  Er  Er2  1  0.702908  0.085420  0.873804  1
  Er  Er3  1  0.703048  0.914249  0.373757  1
  Er  Er4  1  0.585420  0.797092  0.873804  1
  Er  Er5  1  0.585751  0.203048  0.373757  1
  Er  Er6  1  0.414249  0.796952  0.373757  1
  Er  Er7  1  0.414580  0.202908  0.873804  1
  Er  Er8  1  0.204507  0.413435  0.627907  1
  Er  Er9  1  0.203857  0.586600  0.124186  1
  Er  Er10  1  0.796143  0.413400  0.124186  1
  Er  Er11  1  0.795493  0.586565  0.627907  1
  Er  Er12  1  0.913400  0.703857  0.124186  1
  Er  Er13  1  0.913435  0.295493  0.627907  1
  Er  Er14  1  0.086565  0.704507  0.627907  1
  Er  Er15  1  0.086600  0.296143  0.124186  1
  Er  Er16  1  0.000000  0.000000  0.499507  1
  Er  Er17  1  0.000000  0.000000  0.999533  1
  Er  Er18  1  0.500000  0.500000  0.999533  1
  Er  Er19  1  0.500000  0.500000  0.499507  1
  Ir  Ir20  1  0.000000  0.500000  0.377531  1
  Os  Os21  1  0.500000  0.000000  0.126223  1
  Os  Os22  1  0.500000  0.000000  0.625832  1
  Os  Os23  1  0.000000  0.500000  0.874503  1
  Pt  Pt24  1  0.847529  0.153589  0.250015  1
  Pt  Pt25  1  0.847391  0.846551  0.749791  1
  Pt  Pt26  1  0.152609  0.153449  0.749791  1
  Pt  Pt27  1  0.152471  0.846411  0.250015  1
  Pt  Pt28  1  0.653449  0.347391  0.749791  1
  Pt  Pt29  1  0.653589  0.652471  0.250015  1
  Pt  Pt30  1  0.346411  0.347529  0.250015  1
  Pt  Pt31  1  0.346551  0.652609  0.749791  1
