# generated using pymatgen
data_Tb4Sn5AsRh7
_symmetry_space_group_name_H-M   'P 1'
_cell_length_a   7.56803767
_cell_length_b   7.56803813
_cell_length_c   7.56803721
_cell_angle_alpha   109.73116401
_cell_angle_beta   108.95256933
_cell_angle_gamma   109.73116642
_symmetry_Int_Tables_number   1
_chemical_formula_structural   Tb4Sn5AsRh7
_chemical_formula_sum   'Tb4 Sn5 As1 Rh7'
_cell_volume   333.65783157
_cell_formula_units_Z   1
loop_
 _symmetry_equiv_pos_site_id
 _symmetry_equiv_pos_as_xyz
  1  'x, y, z'
loop_
 _atom_site_type_symbol
 _atom_site_label
 _atom_site_symmetry_multiplicity
 _atom_site_fract_x
 _atom_site_fract_y
 _atom_site_fract_z
 _atom_site_occupancy
  Tb  Tb0  1  0.478655  0.471320  0.478655  1
  Tb  Tb1  1  0.007335  0.528680  0.007335  1
  Tb  Tb2  1  0.478655  0.000000  0.007335  1
  Tb  Tb3  1  0.007335  0.000000  0.478655  1
  Sn  Sn4  1  0.704146  0.000000  0.704146  1
  Sn  Sn5  1  0.671601  0.683249  0.988353  1
  Sn  Sn6  1  0.305104  0.316751  0.988353  1
  Sn  Sn7  1  0.988353  0.683249  0.671601  1
  Sn  Sn8  1  0.988353  0.316751  0.305104  1
  As  As9  1  0.340674  0.000000  0.340674  1
  Rh  Rh10  1  0.504550  0.755350  0.259900  1
  Rh  Rh11  1  0.749200  0.244650  0.504550  1
  Rh  Rh12  1  0.259900  0.755350  0.504550  1
  Rh  Rh13  1  0.241311  0.500000  0.741311  1
  Rh  Rh14  1  0.028964  0.000000  0.028964  1
  Rh  Rh15  1  0.504550  0.244650  0.749200  1
  Rh  Rh16  1  0.741311  0.500000  0.241311  1
