# generated using pymatgen
data_TaTi3(VP)4
_symmetry_space_group_name_H-M   'P 1'
_cell_length_a   3.37543400
_cell_length_b   6.36720645
_cell_length_c   7.67334049
_cell_angle_alpha   90.28996443
_cell_angle_beta   90.00000000
_cell_angle_gamma   90.00000000
_symmetry_Int_Tables_number   1
_chemical_formula_structural   TaTi3(VP)4
_chemical_formula_sum   'Ta1 Ti3 V4 P4'
_cell_volume   164.91397512
_cell_formula_units_Z   1
loop_
 _symmetry_equiv_pos_site_id
 _symmetry_equiv_pos_as_xyz
  1  'x, y, z'
loop_
 _atom_site_type_symbol
 _atom_site_label
 _atom_site_symmetry_multiplicity
 _atom_site_fract_x
 _atom_site_fract_y
 _atom_site_fract_z
 _atom_site_occupancy
  Ta  Ta0  1  0.250000  0.541456  0.167881  1
  Ti  Ti1  1  0.750000  0.458904  0.831843  1
  Ti  Ti2  1  0.750000  0.959584  0.668163  1
  Ti  Ti3  1  0.250000  0.041966  0.331455  1
  V  V4  1  0.250000  0.631380  0.557776  1
  V  V5  1  0.750000  0.366580  0.442056  1
  V  V6  1  0.750000  0.865951  0.057691  1
  V  V7  1  0.250000  0.134621  0.941103  1
  P  P8  1  0.250000  0.755427  0.856491  1
  P  P9  1  0.750000  0.240532  0.141116  1
  P  P10  1  0.750000  0.750006  0.362701  1
  P  P11  1  0.250000  0.253593  0.641723  1
