# generated using pymatgen
data_CaInSn5Rh4
_symmetry_space_group_name_H-M   'P 1'
_cell_length_a   6.94627047
_cell_length_b   7.03729625
_cell_length_c   6.97310851
_cell_angle_alpha   120.31174165
_cell_angle_beta   119.87962578
_cell_angle_gamma   89.98816306
_symmetry_Int_Tables_number   1
_chemical_formula_structural   CaInSn5Rh4
_chemical_formula_sum   'Ca1 In1 Sn5 Rh4'
_cell_volume   240.35162599
_cell_formula_units_Z   1
loop_
 _symmetry_equiv_pos_site_id
 _symmetry_equiv_pos_as_xyz
  1  'x, y, z'
loop_
 _atom_site_type_symbol
 _atom_site_label
 _atom_site_symmetry_multiplicity
 _atom_site_fract_x
 _atom_site_fract_y
 _atom_site_fract_z
 _atom_site_occupancy
  Ca  Ca0  1  0.000723  0.000229  0.000001  1
  In  In1  1  0.465802  0.120004  0.000003  1
  Sn  Sn2  1  0.126801  0.463188  0.000001  1
  Sn  Sn3  1  0.874102  0.875376  0.338704  1
  Sn  Sn4  1  0.500191  0.002116  0.501333  1
  Sn  Sn5  1  0.998858  0.500784  0.498667  1
  Sn  Sn6  1  0.535400  0.536672  0.661299  1
  Rh  Rh7  1  0.756314  0.403584  0.999998  1
  Rh  Rh8  1  0.398386  0.748671  0.999998  1
  Rh  Rh9  1  0.601767  0.604744  0.360110  1
  Rh  Rh10  1  0.241657  0.244631  0.639886  1
