# generated using pymatgen
data_Lu3Sc5Au4
_symmetry_space_group_name_H-M   'P 1'
_cell_length_a   4.70532300
_cell_length_b   6.82278426
_cell_length_c   8.49587265
_cell_angle_alpha   90.14281181
_cell_angle_beta   90.00000000
_cell_angle_gamma   90.00000000
_symmetry_Int_Tables_number   1
_chemical_formula_structural   Lu3Sc5Au4
_chemical_formula_sum   'Lu3 Sc5 Au4'
_cell_volume   272.74558211
_cell_formula_units_Z   1
loop_
 _symmetry_equiv_pos_site_id
 _symmetry_equiv_pos_as_xyz
  1  'x, y, z'
loop_
 _atom_site_type_symbol
 _atom_site_label
 _atom_site_symmetry_multiplicity
 _atom_site_fract_x
 _atom_site_fract_y
 _atom_site_fract_z
 _atom_site_occupancy
  Lu  Lu0  1  0.250000  0.981160  0.318077  1
  Lu  Lu1  1  0.750000  0.518845  0.820112  1
  Lu  Lu2  1  0.750000  0.018978  0.680852  1
  Sc  Sc3  1  0.250000  0.851041  0.926526  1
  Sc  Sc4  1  0.250000  0.352708  0.573751  1
  Sc  Sc5  1  0.750000  0.150509  0.075774  1
  Sc  Sc6  1  0.750000  0.645381  0.422092  1
  Sc  Sc7  1  0.250000  0.481331  0.179940  1
  Au  Au8  1  0.250000  0.253582  0.897551  1
  Au  Au9  1  0.250000  0.751686  0.604854  1
  Au  Au10  1  0.750000  0.746958  0.105283  1
  Au  Au11  1  0.750000  0.247822  0.395188  1
