# generated using pymatgen
data_Tm4Zn4In3Sn
_symmetry_space_group_name_H-M   'P 1'
_cell_length_a   4.63223300
_cell_length_b   4.63223372
_cell_length_c   14.54018200
_cell_angle_alpha   90.00000000
_cell_angle_beta   90.00000000
_cell_angle_gamma   120.00000198
_symmetry_Int_Tables_number   1
_chemical_formula_structural   Tm4Zn4In3Sn
_chemical_formula_sum   'Tm4 Zn4 In3 Sn1'
_cell_volume   270.19749958
_cell_formula_units_Z   1
loop_
 _symmetry_equiv_pos_site_id
 _symmetry_equiv_pos_as_xyz
  1  'x, y, z'
loop_
 _atom_site_type_symbol
 _atom_site_label
 _atom_site_symmetry_multiplicity
 _atom_site_fract_x
 _atom_site_fract_y
 _atom_site_fract_z
 _atom_site_occupancy
  Tm  Tm0  1  0.000000  0.000000  0.252422  1
  Tm  Tm1  1  0.000000  0.000000  0.747140  1
  Tm  Tm2  1  0.000000  0.000000  0.004236  1
  Tm  Tm3  1  0.000000  0.000000  0.498541  1
  Zn  Zn4  1  0.333333  0.666667  0.106331  1
  Zn  Zn5  1  0.666667  0.333333  0.841025  1
  Zn  Zn6  1  0.666667  0.333333  0.649406  1
  Zn  Zn7  1  0.333333  0.666667  0.397698  1
  In  In8  1  0.333333  0.666667  0.608961  1
  In  In9  1  0.666667  0.333333  0.365598  1
  In  In10  1  0.666667  0.333333  0.138244  1
  Sn  Sn11  1  0.333333  0.666667  0.890397  1
