# generated using pymatgen
data_Ho16Tl2Ni4AgHg
_symmetry_space_group_name_H-M   'P 1'
_cell_length_a   9.48512114
_cell_length_b   9.47747127
_cell_length_c   9.51279100
_cell_angle_alpha   59.87664835
_cell_angle_beta   59.90345674
_cell_angle_gamma   60.01538980
_symmetry_Int_Tables_number   1
_chemical_formula_structural   Ho16Tl2Ni4AgHg
_chemical_formula_sum   'Ho16 Tl2 Ni4 Ag1 Hg1'
_cell_volume   603.74680963
_cell_formula_units_Z   1
loop_
 _symmetry_equiv_pos_site_id
 _symmetry_equiv_pos_as_xyz
  1  'x, y, z'
loop_
 _atom_site_type_symbol
 _atom_site_label
 _atom_site_symmetry_multiplicity
 _atom_site_fract_x
 _atom_site_fract_y
 _atom_site_fract_z
 _atom_site_occupancy
  Ho  Ho0  1  0.347326  0.347790  0.348715  1
  Ho  Ho1  1  0.347291  0.347958  0.955997  1
  Ho  Ho2  1  0.354003  0.946762  0.349610  1
  Ho  Ho3  1  0.949342  0.353591  0.348449  1
  Ho  Ho4  1  0.812121  0.188830  0.187841  1
  Ho  Ho5  1  0.189705  0.811727  0.810413  1
  Ho  Ho6  1  0.189732  0.811735  0.188164  1
  Ho  Ho7  1  0.812060  0.188883  0.811133  1
  Ho  Ho8  1  0.189828  0.188682  0.810687  1
  Ho  Ho9  1  0.811220  0.811535  0.188619  1
  Ho  Ho10  1  0.939596  0.565882  0.562583  1
  Ho  Ho11  1  0.564870  0.942908  0.929917  1
  Ho  Ho12  1  0.564983  0.942841  0.562329  1
  Ho  Ho13  1  0.939550  0.565935  0.931811  1
  Ho  Ho14  1  0.563844  0.565821  0.935155  1
  Ho  Ho15  1  0.937438  0.943338  0.559618  1
  Tl  Tl16  1  0.582632  0.579232  0.588646  1
  Tl  Tl17  1  0.582652  0.579158  0.249493  1
  Ni  Ni18  1  0.141966  0.140127  0.147868  1
  Ni  Ni19  1  0.141272  0.140143  0.570459  1
  Ni  Ni20  1  0.141579  0.573275  0.142759  1
  Ni  Ni21  1  0.573132  0.139495  0.143657  1
  Ag  Ag22  1  0.581779  0.245119  0.586718  1
  Hg  Hg23  1  0.242083  0.579229  0.589357  1
