# generated using pymatgen
data_Cs2AcPr(CdSe3)2
_symmetry_space_group_name_H-M   'P 1'
_cell_length_a   4.51694500
_cell_length_b   8.46446841
_cell_length_c   11.76606164
_cell_angle_alpha   89.01261646
_cell_angle_beta   90.00000000
_cell_angle_gamma   74.52499706
_symmetry_Int_Tables_number   1
_chemical_formula_structural   Cs2AcPr(CdSe3)2
_chemical_formula_sum   'Cs2 Ac1 Pr1 Cd2 Se6'
_cell_volume   433.48012794
_cell_formula_units_Z   1
loop_
 _symmetry_equiv_pos_site_id
 _symmetry_equiv_pos_as_xyz
  1  'x, y, z'
loop_
 _atom_site_type_symbol
 _atom_site_label
 _atom_site_symmetry_multiplicity
 _atom_site_fract_x
 _atom_site_fract_y
 _atom_site_fract_z
 _atom_site_occupancy
  Cs  Cs0  1  0.256811  0.486376  0.248826  1
  Cs  Cs1  1  0.743187  0.513624  0.751174  1
  Ac  Ac2  1  0.000000  0.000000  0.500000  1
  Pr  Pr3  1  0.000000  0.000000  0.000000  1
  Cd  Cd4  1  0.538970  0.922058  0.246961  1
  Cd  Cd5  1  0.461029  0.077942  0.753039  1
  Se  Se6  1  0.618761  0.762476  0.054840  1
  Se  Se7  1  0.940087  0.119825  0.243728  1
  Se  Se8  1  0.624229  0.751541  0.440077  1
  Se  Se9  1  0.375769  0.248459  0.559923  1
  Se  Se10  1  0.059912  0.880175  0.756272  1
  Se  Se11  1  0.381237  0.237524  0.945160  1
