# generated using pymatgen
data_LiPu6HfSb10
_symmetry_space_group_name_H-M   'P 1'
_cell_length_a   9.18363800
_cell_length_b   9.18363730
_cell_length_c   6.21521200
_cell_angle_alpha   90.00000000
_cell_angle_beta   90.00000000
_cell_angle_gamma   120.00000252
_symmetry_Int_Tables_number   1
_chemical_formula_structural   LiPu6HfSb10
_chemical_formula_sum   'Li1 Pu6 Hf1 Sb10'
_cell_volume   453.95839031
_cell_formula_units_Z   1
loop_
 _symmetry_equiv_pos_site_id
 _symmetry_equiv_pos_as_xyz
  1  'x, y, z'
loop_
 _atom_site_type_symbol
 _atom_site_label
 _atom_site_symmetry_multiplicity
 _atom_site_fract_x
 _atom_site_fract_y
 _atom_site_fract_z
 _atom_site_occupancy
  Li  Li0  1  0.000000  0.000000  0.500000  1
  Pu  Pu1  1  0.384277  0.000000  0.749918  1
  Pu  Pu2  1  0.384277  0.384277  0.250082  1
  Pu  Pu3  1  0.000000  0.615723  0.250082  1
  Pu  Pu4  1  0.000000  0.384277  0.749918  1
  Pu  Pu5  1  0.615723  0.615723  0.749918  1
  Pu  Pu6  1  0.615723  0.000000  0.250082  1
  Hf  Hf7  1  0.000000  0.000000  0.000000  1
  Sb  Sb8  1  0.333333  0.666667  0.500000  1
  Sb  Sb9  1  0.666667  0.333333  0.000000  1
  Sb  Sb10  1  0.666667  0.333333  0.500000  1
  Sb  Sb11  1  0.333333  0.666667  0.000000  1
  Sb  Sb12  1  0.735591  0.000000  0.746393  1
  Sb  Sb13  1  0.735591  0.735591  0.253607  1
  Sb  Sb14  1  0.000000  0.264409  0.253607  1
  Sb  Sb15  1  0.000000  0.735591  0.746393  1
  Sb  Sb16  1  0.264409  0.000000  0.253607  1
  Sb  Sb17  1  0.264409  0.264409  0.746393  1
