# generated using pymatgen
data_K2Ba2WO6
_symmetry_space_group_name_H-M   'P 1'
_cell_length_a   7.26683417
_cell_length_b   7.26683358
_cell_length_c   7.32364800
_cell_angle_alpha   91.23807464
_cell_angle_beta   91.23796413
_cell_angle_gamma   88.98434490
_symmetry_Int_Tables_number   1
_chemical_formula_structural   K2Ba2WO6
_chemical_formula_sum   'K4 Ba4 W2 O12'
_cell_volume   386.50079761
_cell_formula_units_Z   2
loop_
 _symmetry_equiv_pos_site_id
 _symmetry_equiv_pos_as_xyz
  1  'x, y, z'
loop_
 _atom_site_type_symbol
 _atom_site_label
 _atom_site_symmetry_multiplicity
 _atom_site_fract_x
 _atom_site_fract_y
 _atom_site_fract_z
 _atom_site_occupancy
  K  K0  1  0.739232  0.260766  0.999998  1
  K  K1  1  0.252911  0.747089  0.499999  1
  K  K2  1  0.748719  0.601162  0.355227  1
  K  K3  1  0.398839  0.251282  0.644773  1
  Ba  Ba4  1  0.101379  0.898620  0.000001  1
  Ba  Ba5  1  0.602348  0.747218  0.852040  1
  Ba  Ba6  1  0.895790  0.104211  0.499999  1
  Ba  Ba7  1  0.252782  0.397652  0.147961  1
  W  W8  1  0.500135  0.996506  0.253441  1
  W  W9  1  0.003494  0.499865  0.746559  1
  O  O10  1  0.567878  0.249788  0.308568  1
  O  O11  1  0.436116  0.064691  0.997564  1
  O  O12  1  0.755157  0.941354  0.175699  1
  O  O13  1  0.259783  0.574636  0.813697  1
  O  O14  1  0.944338  0.762185  0.685237  1
  O  O15  1  0.072627  0.438875  0.495763  1
  O  O16  1  0.425365  0.740217  0.186304  1
  O  O17  1  0.561125  0.927374  0.504236  1
  O  O18  1  0.237815  0.055662  0.314764  1
  O  O19  1  0.750212  0.432122  0.691430  1
  O  O20  1  0.058647  0.244844  0.824301  1
  O  O21  1  0.935309  0.563883  0.002437  1
