# generated using pymatgen
data_LaHo2IrO7
_symmetry_space_group_name_H-M   'P 1'
_cell_length_a   6.47483226
_cell_length_b   6.47483292
_cell_length_c   7.52241400
_cell_angle_alpha   90.00000000
_cell_angle_beta   90.00000000
_cell_angle_gamma   109.44207132
_symmetry_Int_Tables_number   1
_chemical_formula_structural   LaHo2IrO7
_chemical_formula_sum   'La2 Ho4 Ir2 O14'
_cell_volume   297.38298224
_cell_formula_units_Z   2
loop_
 _symmetry_equiv_pos_site_id
 _symmetry_equiv_pos_as_xyz
  1  'x, y, z'
loop_
 _atom_site_type_symbol
 _atom_site_label
 _atom_site_symmetry_multiplicity
 _atom_site_fract_x
 _atom_site_fract_y
 _atom_site_fract_z
 _atom_site_occupancy
  La  La0  1  0.000000  0.000000  0.500000  1
  La  La1  1  0.000000  0.000000  0.000000  1
  Ho  Ho2  1  0.515144  0.062544  0.250000  1
  Ho  Ho3  1  0.937456  0.484856  0.750000  1
  Ho  Ho4  1  0.484856  0.937456  0.750000  1
  Ho  Ho5  1  0.062544  0.515144  0.250000  1
  Ir  Ir6  1  0.500000  0.500000  0.500000  1
  Ir  Ir7  1  0.500000  0.500000  0.000000  1
  O  O8  1  0.443129  0.181145  0.534716  1
  O  O9  1  0.818855  0.556871  0.465284  1
  O  O10  1  0.443129  0.181145  0.965284  1
  O  O11  1  0.818855  0.556871  0.034716  1
  O  O12  1  0.556871  0.818855  0.465284  1
  O  O13  1  0.181145  0.443129  0.534716  1
  O  O14  1  0.556871  0.818855  0.034716  1
  O  O15  1  0.181145  0.443129  0.965284  1
  O  O16  1  0.162009  0.877710  0.250000  1
  O  O17  1  0.122290  0.837991  0.750000  1
  O  O18  1  0.837991  0.122290  0.750000  1
  O  O19  1  0.877710  0.162009  0.250000  1
  O  O20  1  0.407722  0.407722  0.250000  1
  O  O21  1  0.592278  0.592278  0.750000  1
