# generated using pymatgen
data_Tm3CdSn3Rh2
_symmetry_space_group_name_H-M   'P 1'
_cell_length_a   7.71278900
_cell_length_b   7.71278907
_cell_length_c   3.82650500
_cell_angle_alpha   90.00000000
_cell_angle_beta   90.00000000
_cell_angle_gamma   119.99999656
_symmetry_Int_Tables_number   1
_chemical_formula_structural   Tm3CdSn3Rh2
_chemical_formula_sum   'Tm3 Cd1 Sn3 Rh2'
_cell_volume   197.13141386
_cell_formula_units_Z   1
loop_
 _symmetry_equiv_pos_site_id
 _symmetry_equiv_pos_as_xyz
  1  'x, y, z'
loop_
 _atom_site_type_symbol
 _atom_site_label
 _atom_site_symmetry_multiplicity
 _atom_site_fract_x
 _atom_site_fract_y
 _atom_site_fract_z
 _atom_site_occupancy
  Tm  Tm0  1  0.027167  0.411548  0.000000  1
  Tm  Tm1  1  0.588452  0.615619  0.000000  1
  Tm  Tm2  1  0.384381  0.972833  0.000000  1
  Cd  Cd3  1  0.666667  0.333333  0.500000  1
  Sn  Sn4  1  0.255598  0.256922  0.500000  1
  Sn  Sn5  1  0.001323  0.744402  0.500000  1
  Sn  Sn6  1  0.743078  0.998677  0.500000  1
  Rh  Rh7  1  0.333333  0.666667  0.500000  1
  Rh  Rh8  1  0.000000  0.000000  0.000000  1
