# generated using pymatgen
data_Lu3Zr5(Ta3Ge4)4
_symmetry_space_group_name_H-M   'P 1'
_cell_length_a   6.88936608
_cell_length_b   7.00379805
_cell_length_c   13.37206008
_cell_angle_alpha   90.01005893
_cell_angle_beta   90.06329319
_cell_angle_gamma   90.00888827
_symmetry_Int_Tables_number   1
_chemical_formula_structural   Lu3Zr5(Ta3Ge4)4
_chemical_formula_sum   'Lu3 Zr5 Ta12 Ge16'
_cell_volume   645.22460354
_cell_formula_units_Z   1
loop_
 _symmetry_equiv_pos_site_id
 _symmetry_equiv_pos_as_xyz
  1  'x, y, z'
loop_
 _atom_site_type_symbol
 _atom_site_label
 _atom_site_symmetry_multiplicity
 _atom_site_fract_x
 _atom_site_fract_y
 _atom_site_fract_z
 _atom_site_occupancy
  Lu  Lu0  1  0.491110  0.673630  0.590306  1
  Lu  Lu1  1  0.990464  0.825407  0.908912  1
  Lu  Lu2  1  0.509728  0.326093  0.091983  1
  Zr  Zr3  1  0.012184  0.175505  0.409478  1
  Zr  Zr4  1  0.514410  0.322906  0.407880  1
  Zr  Zr5  1  0.010650  0.175662  0.091566  1
  Zr  Zr6  1  0.488873  0.675973  0.907471  1
  Zr  Zr7  1  0.988823  0.825750  0.590943  1
  Ta  Ta8  1  0.660027  0.166349  0.624766  1
  Ta  Ta9  1  0.159501  0.333465  0.874987  1
  Ta  Ta10  1  0.339249  0.835618  0.125240  1
  Ta  Ta11  1  0.840423  0.665786  0.375667  1
  Ta  Ta12  1  0.338094  0.836538  0.375155  1
  Ta  Ta13  1  0.840266  0.665872  0.126114  1
  Ta  Ta14  1  0.659512  0.165620  0.874511  1
  Ta  Ta15  1  0.156982  0.331984  0.624427  1
  Ta  Ta16  1  0.836972  0.488338  0.748664  1
  Ta  Ta17  1  0.336432  0.010762  0.750352  1
  Ta  Ta18  1  0.162769  0.510337  0.250928  1
  Ta  Ta19  1  0.663773  0.989661  0.251675  1
  Ge  Ge20  1  0.683627  0.961996  0.459218  1
  Ge  Ge21  1  0.179710  0.539273  0.041285  1
  Ge  Ge22  1  0.320415  0.038858  0.959275  1
  Ge  Ge23  1  0.820107  0.458774  0.539182  1
  Ge  Ge24  1  0.317297  0.040166  0.540162  1
  Ge  Ge25  1  0.817236  0.460970  0.958966  1
  Ge  Ge26  1  0.681391  0.960186  0.041081  1
  Ge  Ge27  1  0.182462  0.538423  0.459077  1
  Ge  Ge28  1  0.460411  0.385830  0.750079  1
  Ge  Ge29  1  0.960791  0.112892  0.749694  1
  Ge  Ge30  1  0.538273  0.614604  0.251039  1
  Ge  Ge31  1  0.038303  0.887744  0.250082  1
  Ge  Ge32  1  0.693021  0.849570  0.750120  1
  Ge  Ge33  1  0.193148  0.649685  0.749030  1
  Ge  Ge34  1  0.305590  0.150610  0.250546  1
  Ge  Ge35  1  0.807976  0.349166  0.250140  1
