# generated using pymatgen
data_Y8Tm4InGaCo4
_symmetry_space_group_name_H-M   'P 1'
_cell_length_a   8.34327596
_cell_length_b   8.34327615
_cell_length_c   8.34327583
_cell_angle_alpha   111.65333661
_cell_angle_beta   110.11687138
_cell_angle_gamma   106.68285817
_symmetry_Int_Tables_number   1
_chemical_formula_structural   Y8Tm4InGaCo4
_chemical_formula_sum   'Y8 Tm4 In1 Ga1 Co4'
_cell_volume   446.20892544
_cell_formula_units_Z   1
loop_
 _symmetry_equiv_pos_site_id
 _symmetry_equiv_pos_as_xyz
  1  'x, y, z'
loop_
 _atom_site_type_symbol
 _atom_site_label
 _atom_site_symmetry_multiplicity
 _atom_site_fract_x
 _atom_site_fract_y
 _atom_site_fract_z
 _atom_site_occupancy
  Y  Y0  1  0.429897  0.226629  0.203267  1
  Y  Y1  1  0.570103  0.773371  0.796733  1
  Y  Y2  1  0.023361  0.226629  0.796733  1
  Y  Y3  1  0.976639  0.773371  0.203267  1
  Y  Y4  1  0.185784  0.286459  0.472244  1
  Y  Y5  1  0.814216  0.713541  0.527756  1
  Y  Y6  1  0.185784  0.713541  0.899325  1
  Y  Y7  1  0.814216  0.286459  0.100675  1
  Tm  Tm8  1  0.316409  0.624732  0.308323  1
  Tm  Tm9  1  0.683591  0.375268  0.691677  1
  Tm  Tm10  1  0.316409  0.008087  0.691677  1
  Tm  Tm11  1  0.683591  0.991913  0.308323  1
  In  In12  1  0.500000  0.500000  0.000000  1
  Ga  Ga13  1  0.000000  0.000000  0.000000  1
  Co  Co14  1  0.378687  0.000000  0.378687  1
  Co  Co15  1  0.621313  0.000000  0.621313  1
  Co  Co16  1  0.112526  0.612526  0.500000  1
  Co  Co17  1  0.887474  0.387474  0.500000  1
