# generated using pymatgen
data_TbSc4Bi2As
_symmetry_space_group_name_H-M   'P 1'
_cell_length_a   7.62329600
_cell_length_b   8.78217400
_cell_length_c   11.22065100
_cell_angle_alpha   90.00000000
_cell_angle_beta   90.00000000
_cell_angle_gamma   90.00000000
_symmetry_Int_Tables_number   1
_chemical_formula_structural   TbSc4Bi2As
_chemical_formula_sum   'Tb4 Sc16 Bi8 As4'
_cell_volume   751.21261968
_cell_formula_units_Z   4
loop_
 _symmetry_equiv_pos_site_id
 _symmetry_equiv_pos_as_xyz
  1  'x, y, z'
loop_
 _atom_site_type_symbol
 _atom_site_label
 _atom_site_symmetry_multiplicity
 _atom_site_fract_x
 _atom_site_fract_y
 _atom_site_fract_z
 _atom_site_occupancy
  Tb  Tb0  1  0.328830  0.250000  0.212954  1
  Tb  Tb1  1  0.828830  0.250000  0.287046  1
  Tb  Tb2  1  0.671170  0.750000  0.787046  1
  Tb  Tb3  1  0.171170  0.750000  0.712954  1
  Sc  Sc4  1  0.348252  0.750000  0.209372  1
  Sc  Sc5  1  0.848252  0.750000  0.290628  1
  Sc  Sc6  1  0.651748  0.250000  0.790628  1
  Sc  Sc7  1  0.151748  0.250000  0.709372  1
  Sc  Sc8  1  0.679746  0.560266  0.058174  1
  Sc  Sc9  1  0.179746  0.939734  0.441826  1
  Sc  Sc10  1  0.320254  0.060266  0.941826  1
  Sc  Sc11  1  0.820254  0.439734  0.558174  1
  Sc  Sc12  1  0.320254  0.439734  0.941826  1
  Sc  Sc13  1  0.820254  0.060266  0.558174  1
  Sc  Sc14  1  0.679746  0.939734  0.058174  1
  Sc  Sc15  1  0.179746  0.560266  0.441826  1
  Sc  Sc16  1  0.471480  0.250000  0.487466  1
  Sc  Sc17  1  0.971480  0.250000  0.012534  1
  Sc  Sc18  1  0.528520  0.750000  0.512534  1
  Sc  Sc19  1  0.028520  0.750000  0.987466  1
  Bi  Bi20  1  0.563447  0.989134  0.327968  1
  Bi  Bi21  1  0.063447  0.510866  0.172032  1
  Bi  Bi22  1  0.436553  0.489134  0.672032  1
  Bi  Bi23  1  0.936553  0.010866  0.827968  1
  Bi  Bi24  1  0.436553  0.010866  0.672032  1
  Bi  Bi25  1  0.936553  0.489134  0.827968  1
  Bi  Bi26  1  0.563447  0.510866  0.327968  1
  Bi  Bi27  1  0.063447  0.989134  0.172032  1
  As  As28  1  0.405005  0.750000  0.969981  1
  As  As29  1  0.905005  0.750000  0.530019  1
  As  As30  1  0.594995  0.250000  0.030019  1
  As  As31  1  0.094995  0.250000  0.469981  1
