# generated using pymatgen
data_TbHoCoIr3
_symmetry_space_group_name_H-M   'P 1'
_cell_length_a   5.20132630
_cell_length_b   5.20132607
_cell_length_c   5.20132605
_cell_angle_alpha   62.19809997
_cell_angle_beta   62.19810549
_cell_angle_gamma   62.19810571
_symmetry_Int_Tables_number   1
_chemical_formula_structural   TbHoCoIr3
_chemical_formula_sum   'Tb1 Ho1 Co1 Ir3'
_cell_volume   104.38597687
_cell_formula_units_Z   1
loop_
 _symmetry_equiv_pos_site_id
 _symmetry_equiv_pos_as_xyz
  1  'x, y, z'
loop_
 _atom_site_type_symbol
 _atom_site_label
 _atom_site_symmetry_multiplicity
 _atom_site_fract_x
 _atom_site_fract_y
 _atom_site_fract_z
 _atom_site_occupancy
  Tb  Tb0  1  0.998943  0.998943  0.998943  1
  Ho  Ho1  1  0.251238  0.251238  0.251238  1
  Co  Co2  1  0.625012  0.625012  0.625012  1
  Ir  Ir3  1  0.624810  0.624810  0.125188  1
  Ir  Ir4  1  0.624810  0.125188  0.624810  1
  Ir  Ir5  1  0.125188  0.624810  0.624810  1
