# generated using pymatgen
data_Tb7Sm(GaRu)8
_symmetry_space_group_name_H-M   'P 1'
_cell_length_a   4.03910300
_cell_length_b   7.07035394
_cell_length_c   16.15862509
_cell_angle_alpha   90.02488564
_cell_angle_beta   90.00000000
_cell_angle_gamma   90.00000000
_symmetry_Int_Tables_number   1
_chemical_formula_structural   Tb7Sm(GaRu)8
_chemical_formula_sum   'Tb7 Sm1 Ga8 Ru8'
_cell_volume   461.45615901
_cell_formula_units_Z   1
loop_
 _symmetry_equiv_pos_site_id
 _symmetry_equiv_pos_as_xyz
  1  'x, y, z'
loop_
 _atom_site_type_symbol
 _atom_site_label
 _atom_site_symmetry_multiplicity
 _atom_site_fract_x
 _atom_site_fract_y
 _atom_site_fract_z
 _atom_site_occupancy
  Tb  Tb0  1  0.750000  0.961119  0.218840  1
  Tb  Tb1  1  0.250000  0.163150  0.560908  1
  Tb  Tb2  1  0.750000  0.839172  0.437940  1
  Tb  Tb3  1  0.750000  0.461351  0.281285  1
  Tb  Tb4  1  0.750000  0.336598  0.062105  1
  Tb  Tb5  1  0.250000  0.661086  0.938880  1
  Tb  Tb6  1  0.250000  0.038877  0.781795  1
  Sm  Sm7  1  0.250000  0.538266  0.719300  1
  Ga  Ga8  1  0.750000  0.497443  0.564078  1
  Ga  Ga9  1  0.750000  0.372766  0.849006  1
  Ga  Ga10  1  0.750000  0.994777  0.935314  1
  Ga  Ga11  1  0.750000  0.877288  0.651586  1
  Ga  Ga12  1  0.250000  0.505181  0.434238  1
  Ga  Ga13  1  0.250000  0.002141  0.065780  1
  Ga  Ga14  1  0.250000  0.623989  0.152660  1
  Ga  Ga15  1  0.250000  0.125941  0.347457  1
  Ru  Ru16  1  0.750000  0.752467  0.812662  1
  Ru  Ru17  1  0.250000  0.236082  0.935893  1
  Ru  Ru18  1  0.750000  0.263860  0.434496  1
  Ru  Ru19  1  0.250000  0.750276  0.311724  1
  Ru  Ru20  1  0.750000  0.761120  0.065386  1
  Ru  Ru21  1  0.750000  0.248648  0.686978  1
  Ru  Ru22  1  0.250000  0.248586  0.187804  1
  Ru  Ru23  1  0.250000  0.739818  0.563886  1
