# generated using pymatgen
data_Tm2Ga2Os2C
_symmetry_space_group_name_H-M   'P 1'
_cell_length_a   6.00532420
_cell_length_b   6.00532446
_cell_length_c   6.95890600
_cell_angle_alpha   126.93768341
_cell_angle_beta   126.93768526
_cell_angle_gamma   39.24466425
_symmetry_Int_Tables_number   1
_chemical_formula_structural   Tm2Ga2Os2C
_chemical_formula_sum   'Tm2 Ga2 Os2 C1'
_cell_volume   122.25839169
_cell_formula_units_Z   1
loop_
 _symmetry_equiv_pos_site_id
 _symmetry_equiv_pos_as_xyz
  1  'x, y, z'
loop_
 _atom_site_type_symbol
 _atom_site_label
 _atom_site_symmetry_multiplicity
 _atom_site_fract_x
 _atom_site_fract_y
 _atom_site_fract_z
 _atom_site_occupancy
  Tm  Tm0  1  0.436401  0.436401  0.161488  1
  Tm  Tm1  1  0.563599  0.563599  0.838512  1
  Ga  Ga2  1  0.854531  0.854531  0.386230  1
  Ga  Ga3  1  0.145469  0.145469  0.613770  1
  Os  Os4  1  0.200095  0.200095  0.310641  1
  Os  Os5  1  0.799905  0.799905  0.689359  1
  C  C6  1  0.000000  0.000000  0.000000  1
