# generated using pymatgen
data_TbDy4(Cd2Ni)2
_symmetry_space_group_name_H-M   'P 1'
_cell_length_a   3.58547300
_cell_length_b   7.85836300
_cell_length_c   18.17946100
_cell_angle_alpha   90.00000000
_cell_angle_beta   90.00000000
_cell_angle_gamma   90.00000000
_symmetry_Int_Tables_number   1
_chemical_formula_structural   TbDy4(Cd2Ni)2
_chemical_formula_sum   'Tb2 Dy8 Cd8 Ni4'
_cell_volume   512.22355436
_cell_formula_units_Z   2
loop_
 _symmetry_equiv_pos_site_id
 _symmetry_equiv_pos_as_xyz
  1  'x, y, z'
loop_
 _atom_site_type_symbol
 _atom_site_label
 _atom_site_symmetry_multiplicity
 _atom_site_fract_x
 _atom_site_fract_y
 _atom_site_fract_z
 _atom_site_occupancy
  Tb  Tb0  1  0.500000  0.500000  0.000000  1
  Tb  Tb1  1  0.500000  0.000000  0.500000  1
  Dy  Dy2  1  0.500000  0.385170  0.588948  1
  Dy  Dy3  1  0.500000  0.885170  0.911052  1
  Dy  Dy4  1  0.500000  0.114830  0.088948  1
  Dy  Dy5  1  0.500000  0.754073  0.720366  1
  Dy  Dy6  1  0.500000  0.254073  0.779634  1
  Dy  Dy7  1  0.500000  0.745927  0.220366  1
  Dy  Dy8  1  0.500000  0.245927  0.279634  1
  Dy  Dy9  1  0.500000  0.614830  0.411052  1
  Cd  Cd10  1  0.000000  0.790690  0.069177  1
  Cd  Cd11  1  0.000000  0.929555  0.348222  1
  Cd  Cd12  1  0.000000  0.070445  0.651778  1
  Cd  Cd13  1  0.000000  0.570445  0.848222  1
  Cd  Cd14  1  0.000000  0.709310  0.569177  1
  Cd  Cd15  1  0.000000  0.209310  0.930823  1
  Cd  Cd16  1  0.000000  0.290690  0.430823  1
  Cd  Cd17  1  0.000000  0.429555  0.151778  1
  Ni  Ni18  1  0.000000  0.973162  0.804008  1
  Ni  Ni19  1  0.000000  0.526838  0.304008  1
  Ni  Ni20  1  0.000000  0.473162  0.695992  1
  Ni  Ni21  1  0.000000  0.026838  0.195992  1
