# generated using pymatgen
data_Tb2Y2TmRu2
_symmetry_space_group_name_H-M   'P 1'
_cell_length_a   6.36220581
_cell_length_b   7.29741876
_cell_length_c   8.48015634
_cell_angle_alpha   96.70845379
_cell_angle_beta   112.03192415
_cell_angle_gamma   90.00000051
_symmetry_Int_Tables_number   1
_chemical_formula_structural   Tb2Y2TmRu2
_chemical_formula_sum   'Tb4 Y4 Tm2 Ru4'
_cell_volume   362.05342709
_cell_formula_units_Z   2
loop_
 _symmetry_equiv_pos_site_id
 _symmetry_equiv_pos_as_xyz
  1  'x, y, z'
loop_
 _atom_site_type_symbol
 _atom_site_label
 _atom_site_symmetry_multiplicity
 _atom_site_fract_x
 _atom_site_fract_y
 _atom_site_fract_z
 _atom_site_occupancy
  Tb  Tb0  1  0.206641  0.185326  0.567232  1
  Tb  Tb1  1  0.639409  0.314674  0.432768  1
  Tb  Tb2  1  0.793359  0.814674  0.432768  1
  Tb  Tb3  1  0.360591  0.685326  0.567232  1
  Y  Y4  1  0.792273  0.083471  0.814981  1
  Y  Y5  1  0.977293  0.416529  0.185019  1
  Y  Y6  1  0.207727  0.916529  0.185019  1
  Y  Y7  1  0.022707  0.583471  0.814981  1
  Tm  Tm8  1  0.422922  0.250000  0.000000  1
  Tm  Tm9  1  0.577078  0.750000  0.000000  1
  Ru  Ru10  1  0.601061  0.425635  0.781731  1
  Ru  Ru11  1  0.819328  0.074365  0.218269  1
  Ru  Ru12  1  0.398939  0.574365  0.218269  1
  Ru  Ru13  1  0.180672  0.925635  0.781731  1
