# generated using pymatgen
data_HoSc2Zn2Co9B4
_symmetry_space_group_name_H-M   'P 1'
_cell_length_a   5.03955822
_cell_length_b   5.04021053
_cell_length_c   9.61314100
_cell_angle_alpha   89.99948200
_cell_angle_beta   90.00034503
_cell_angle_gamma   120.03460485
_symmetry_Int_Tables_number   1
_chemical_formula_structural   HoSc2Zn2Co9B4
_chemical_formula_sum   'Ho1 Sc2 Zn2 Co9 B4'
_cell_volume   211.39053752
_cell_formula_units_Z   1
loop_
 _symmetry_equiv_pos_site_id
 _symmetry_equiv_pos_as_xyz
  1  'x, y, z'
loop_
 _atom_site_type_symbol
 _atom_site_label
 _atom_site_symmetry_multiplicity
 _atom_site_fract_x
 _atom_site_fract_y
 _atom_site_fract_z
 _atom_site_occupancy
  Ho  Ho0  1  0.999992  0.999995  0.999931  1
  Sc  Sc1  1  0.999994  0.000004  0.344472  1
  Sc  Sc2  1  0.999997  0.999996  0.655575  1
  Zn  Zn3  1  0.333208  0.666527  0.999964  1
  Zn  Zn4  1  0.666775  0.333473  0.999964  1
  Co  Co5  1  0.499996  0.999999  0.500028  1
  Co  Co6  1  0.499995  0.500001  0.500040  1
  Co  Co7  1  0.999996  0.500001  0.499988  1
  Co  Co8  1  0.499995  0.000003  0.211946  1
  Co  Co9  1  0.499996  0.500004  0.211942  1
  Co  Co10  1  0.999993  0.499998  0.211964  1
  Co  Co11  1  0.499996  0.999999  0.787997  1
  Co  Co12  1  0.499995  0.500000  0.787998  1
  Co  Co13  1  0.999995  0.499997  0.788107  1
  B  B14  1  0.333526  0.666850  0.351626  1
  B  B15  1  0.666461  0.333153  0.351626  1
  B  B16  1  0.666851  0.333361  0.648417  1
  B  B17  1  0.333138  0.666640  0.648416  1
