# generated using pymatgen
data_Dy13YHo2(InRh)4
_symmetry_space_group_name_H-M   'P 1'
_cell_length_a   9.66018903
_cell_length_b   9.66037369
_cell_length_c   9.66488100
_cell_angle_alpha   59.98464087
_cell_angle_beta   59.98716632
_cell_angle_gamma   59.98089459
_symmetry_Int_Tables_number   1
_chemical_formula_structural   Dy13YHo2(InRh)4
_chemical_formula_sum   'Dy13 Y1 Ho2 In4 Rh4'
_cell_volume   637.53756228
_cell_formula_units_Z   1
loop_
 _symmetry_equiv_pos_site_id
 _symmetry_equiv_pos_as_xyz
  1  'x, y, z'
loop_
 _atom_site_type_symbol
 _atom_site_label
 _atom_site_symmetry_multiplicity
 _atom_site_fract_x
 _atom_site_fract_y
 _atom_site_fract_z
 _atom_site_occupancy
  Dy  Dy0  1  0.599764  0.599751  0.202123  1
  Dy  Dy1  1  0.439230  0.060186  0.439492  1
  Dy  Dy2  1  0.439331  0.439291  0.060603  1
  Dy  Dy3  1  0.811943  0.188378  0.811575  1
  Dy  Dy4  1  0.188237  0.812073  0.187981  1
  Dy  Dy5  1  0.439156  0.060336  0.061083  1
  Dy  Dy6  1  0.188360  0.812003  0.811651  1
  Dy  Dy7  1  0.060338  0.439069  0.061232  1
  Dy  Dy8  1  0.812428  0.812396  0.187645  1
  Dy  Dy9  1  0.200443  0.600852  0.599370  1
  Dy  Dy10  1  0.060192  0.439132  0.439428  1
  Dy  Dy11  1  0.060711  0.060856  0.439210  1
  Dy  Dy12  1  0.812009  0.188254  0.188098  1
  Y  Y13  1  0.188357  0.188249  0.811698  1
  Ho  Ho14  1  0.600816  0.200645  0.599286  1
  Ho  Ho15  1  0.599700  0.599686  0.598312  1
  In  In16  1  0.832802  0.832967  0.833253  1
  In  In17  1  0.832735  0.832956  0.500949  1
  In  In18  1  0.501314  0.832617  0.832960  1
  In  In19  1  0.832518  0.501327  0.833005  1
  Rh  Rh20  1  0.392141  0.822724  0.392746  1
  Rh  Rh21  1  0.392418  0.392045  0.392654  1
  Rh  Rh22  1  0.822478  0.391982  0.392944  1
  Rh  Rh23  1  0.392582  0.392229  0.822702  1
