# generated using pymatgen
data_Tb2Tm7Pa3Ga20
_symmetry_space_group_name_H-M   'P 1'
_cell_length_a   6.05097720
_cell_length_b   9.53214853
_cell_length_c   11.59879851
_cell_angle_alpha   89.93819528
_cell_angle_beta   89.76452618
_cell_angle_gamma   89.97127775
_symmetry_Int_Tables_number   1
_chemical_formula_structural   Tb2Tm7Pa3Ga20
_chemical_formula_sum   'Tb2 Tm7 Pa3 Ga20'
_cell_volume   668.99881395
_cell_formula_units_Z   1
loop_
 _symmetry_equiv_pos_site_id
 _symmetry_equiv_pos_as_xyz
  1  'x, y, z'
loop_
 _atom_site_type_symbol
 _atom_site_label
 _atom_site_symmetry_multiplicity
 _atom_site_fract_x
 _atom_site_fract_y
 _atom_site_fract_z
 _atom_site_occupancy
  Tb  Tb0  1  0.883704  0.503517  0.350416  1
  Tb  Tb1  1  0.619039  0.995753  0.851548  1
  Tm  Tm2  1  0.857430  0.745627  0.073943  1
  Tm  Tm3  1  0.637821  0.752079  0.573401  1
  Tm  Tm4  1  0.143196  0.247412  0.927532  1
  Tm  Tm5  1  0.355114  0.254179  0.428200  1
  Tm  Tm6  1  0.385582  0.002570  0.148659  1
  Tm  Tm7  1  0.882725  0.998419  0.350482  1
  Tm  Tm8  1  0.616588  0.502156  0.851063  1
  Pa  Pa9  1  0.118561  0.003180  0.647378  1
  Pa  Pa10  1  0.383132  0.495043  0.148127  1
  Pa  Pa11  1  0.117743  0.498662  0.647102  1
  Ga  Ga12  1  0.869310  0.050177  0.093343  1
  Ga  Ga13  1  0.627573  0.449423  0.593424  1
  Ga  Ga14  1  0.133855  0.551485  0.909379  1
  Ga  Ga15  1  0.366524  0.950231  0.407284  1
  Ga  Ga16  1  0.130986  0.944122  0.908923  1
  Ga  Ga17  1  0.368060  0.557355  0.409895  1
  Ga  Ga18  1  0.874261  0.443326  0.091086  1
  Ga  Ga19  1  0.627090  0.053976  0.590747  1
  Ga  Ga20  1  0.161409  0.752344  0.258888  1
  Ga  Ga21  1  0.339162  0.748955  0.763138  1
  Ga  Ga22  1  0.844212  0.251275  0.738392  1
  Ga  Ga23  1  0.658247  0.248082  0.239078  1
  Ga  Ga24  1  0.390982  0.748926  0.000088  1
  Ga  Ga25  1  0.106338  0.753268  0.496977  1
  Ga  Ga26  1  0.610436  0.250003  0.002513  1
  Ga  Ga27  1  0.888451  0.250668  0.503959  1
  Ga  Ga28  1  0.599889  0.751419  0.295874  1
  Ga  Ga29  1  0.903186  0.747234  0.792280  1
  Ga  Ga30  1  0.395284  0.251104  0.703239  1
  Ga  Ga31  1  0.104111  0.248028  0.203642  1
