# generated using pymatgen
data_CaHo3V(ReN4)3
_symmetry_space_group_name_H-M   'P 1'
_cell_length_a   7.30350825
_cell_length_b   7.35067338
_cell_length_c   6.23559057
_cell_angle_alpha   73.47244638
_cell_angle_beta   73.68233579
_cell_angle_gamma   83.01503372
_symmetry_Int_Tables_number   1
_chemical_formula_structural   CaHo3V(ReN4)3
_chemical_formula_sum   'Ca1 Ho3 V1 Re3 N12'
_cell_volume   307.68698772
_cell_formula_units_Z   1
loop_
 _symmetry_equiv_pos_site_id
 _symmetry_equiv_pos_as_xyz
  1  'x, y, z'
loop_
 _atom_site_type_symbol
 _atom_site_label
 _atom_site_symmetry_multiplicity
 _atom_site_fract_x
 _atom_site_fract_y
 _atom_site_fract_z
 _atom_site_occupancy
  Ca  Ca0  1  0.706017  0.289892  0.246320  1
  Ho  Ho1  1  0.903482  0.082261  0.767192  1
  Ho  Ho2  1  0.298828  0.712181  0.740846  1
  Ho  Ho3  1  0.088994  0.906223  0.255607  1
  V  V4  1  0.619835  0.800054  0.275360  1
  Re  Re5  1  0.203809  0.379068  0.224636  1
  Re  Re6  1  0.378309  0.201602  0.726674  1
  Re  Re7  1  0.793675  0.622107  0.774719  1
  N  N8  1  0.338091  0.366161  0.923353  1
  N  N9  1  0.012242  0.216864  0.345128  1
  N  N10  1  0.785957  0.984704  0.155512  1
  N  N11  1  0.220683  0.001587  0.841845  1
  N  N12  1  0.658407  0.643998  0.061097  1
  N  N13  1  0.880052  0.381776  0.822646  1
  N  N14  1  0.125096  0.624529  0.160059  1
  N  N15  1  0.995852  0.782090  0.656879  1
  N  N16  1  0.382129  0.874944  0.339573  1
  N  N17  1  0.632351  0.665826  0.576278  1
  N  N18  1  0.620849  0.122424  0.672205  1
  N  N19  1  0.355344  0.341706  0.434073  1
