# generated using pymatgen
data_Nb3SBr5Cl2
_symmetry_space_group_name_H-M   'P 1'
_cell_length_a   7.13130411
_cell_length_b   7.13130445
_cell_length_c   6.78647312
_cell_angle_alpha   89.88535430
_cell_angle_beta   90.11464293
_cell_angle_gamma   119.81828812
_symmetry_Int_Tables_number   1
_chemical_formula_structural   Nb3SBr5Cl2
_chemical_formula_sum   'Nb3 S1 Br5 Cl2'
_cell_volume   299.43588394
_cell_formula_units_Z   1
loop_
 _symmetry_equiv_pos_site_id
 _symmetry_equiv_pos_as_xyz
  1  'x, y, z'
loop_
 _atom_site_type_symbol
 _atom_site_label
 _atom_site_symmetry_multiplicity
 _atom_site_fract_x
 _atom_site_fract_y
 _atom_site_fract_z
 _atom_site_occupancy
  Nb  Nb0  1  0.602682  0.802659  0.219785  1
  Nb  Nb1  1  0.197341  0.397318  0.219785  1
  Nb  Nb2  1  0.198477  0.801523  0.219237  1
  S  S3  1  0.333676  0.666324  0.476454  1
  Br  Br4  1  0.998383  0.001617  0.008629  1
  Br  Br5  1  0.335644  0.167306  0.432601  1
  Br  Br6  1  0.831375  0.168625  0.434039  1
  Br  Br7  1  0.832694  0.664356  0.432601  1
  Br  Br8  1  0.501350  0.498650  0.967223  1
  Cl  Cl9  1  0.007334  0.505620  0.987273  1
  Cl  Cl10  1  0.494380  0.992666  0.987273  1
