# generated using pymatgen
data_AcLa(CrN3)2
_symmetry_space_group_name_H-M   'P 1'
_cell_length_a   7.29138920
_cell_length_b   7.29138815
_cell_length_c   6.02522000
_cell_angle_alpha   78.92807712
_cell_angle_beta   78.92808675
_cell_angle_gamma   90.22646693
_symmetry_Int_Tables_number   1
_chemical_formula_structural   AcLa(CrN3)2
_chemical_formula_sum   'Ac2 La2 Cr4 N12'
_cell_volume   308.23593706
_cell_formula_units_Z   2
loop_
 _symmetry_equiv_pos_site_id
 _symmetry_equiv_pos_as_xyz
  1  'x, y, z'
loop_
 _atom_site_type_symbol
 _atom_site_label
 _atom_site_symmetry_multiplicity
 _atom_site_fract_x
 _atom_site_fract_y
 _atom_site_fract_z
 _atom_site_occupancy
  Ac  Ac0  1  0.333181  0.666819  0.750000  1
  Ac  Ac1  1  0.666819  0.333181  0.250000  1
  La  La2  1  0.096214  0.903786  0.250000  1
  La  La3  1  0.903786  0.096214  0.750000  1
  Cr  Cr4  1  0.369651  0.198286  0.765477  1
  Cr  Cr5  1  0.630349  0.801714  0.234523  1
  Cr  Cr6  1  0.801714  0.630349  0.734523  1
  Cr  Cr7  1  0.198286  0.369651  0.265477  1
  N  N8  1  0.995313  0.776628  0.656019  1
  N  N9  1  0.861515  0.414536  0.826657  1
  N  N10  1  0.776628  0.995313  0.156019  1
  N  N11  1  0.138485  0.585464  0.173343  1
  N  N12  1  0.004687  0.223372  0.343981  1
  N  N13  1  0.223372  0.004687  0.843981  1
  N  N14  1  0.585464  0.138485  0.673343  1
  N  N15  1  0.643282  0.683033  0.983505  1
  N  N16  1  0.356718  0.316967  0.016495  1
  N  N17  1  0.414536  0.861515  0.326657  1
  N  N18  1  0.683033  0.643282  0.483505  1
  N  N19  1  0.316967  0.356718  0.516495  1
