# generated using pymatgen
data_MnFe2P6(WO12)2
_symmetry_space_group_name_H-M   'P 1'
_cell_length_a   8.73161583
_cell_length_b   8.73161660
_cell_length_c   8.78323575
_cell_angle_alpha   119.80577705
_cell_angle_beta   60.19422170
_cell_angle_gamma   120.00000511
_symmetry_Int_Tables_number   1
_chemical_formula_structural   MnFe2P6(WO12)2
_chemical_formula_sum   'Mn1 Fe2 P6 W2 O24'
_cell_volume   474.89492522
_cell_formula_units_Z   1
loop_
 _symmetry_equiv_pos_site_id
 _symmetry_equiv_pos_as_xyz
  1  'x, y, z'
loop_
 _atom_site_type_symbol
 _atom_site_label
 _atom_site_symmetry_multiplicity
 _atom_site_fract_x
 _atom_site_fract_y
 _atom_site_fract_z
 _atom_site_occupancy
  Mn  Mn0  1  0.000000  0.000000  0.000000  1
  Fe  Fe1  1  0.854499  0.145501  0.436504  1
  Fe  Fe2  1  0.145502  0.854499  0.563495  1
  P  P3  1  0.238865  0.031968  0.249502  1
  P  P4  1  0.968032  0.456400  0.249502  1
  P  P5  1  0.543601  0.761134  0.249502  1
  P  P6  1  0.456399  0.238865  0.750499  1
  P  P7  1  0.031967  0.543601  0.750499  1
  P  P8  1  0.761134  0.968032  0.750499  1
  W  W9  1  0.637834  0.362167  0.086499  1
  W  W10  1  0.362167  0.637834  0.913501  1
  O  O11  1  0.137455  0.493992  0.074530  1
  O  O12  1  0.506008  0.717994  0.074530  1
  O  O13  1  0.282006  0.862545  0.074530  1
  O  O14  1  0.418278  0.209318  0.238559  1
  O  O15  1  0.790682  0.447518  0.238559  1
  O  O16  1  0.552482  0.581722  0.238559  1
  O  O17  1  0.087070  0.062461  0.235723  1
  O  O18  1  0.937539  0.260331  0.235723  1
  O  O19  1  0.739668  0.912931  0.235723  1
  O  O20  1  0.186424  0.000103  0.426240  1
  O  O21  1  0.999897  0.612562  0.426240  1
  O  O22  1  0.387438  0.813576  0.426240  1
  O  O23  1  0.612563  0.186424  0.573760  1
  O  O24  1  0.000102  0.387437  0.573760  1
  O  O25  1  0.813575  0.999897  0.573760  1
  O  O26  1  0.260332  0.087070  0.764278  1
  O  O27  1  0.062461  0.739668  0.764278  1
  O  O28  1  0.912930  0.937538  0.764278  1
  O  O29  1  0.447518  0.418277  0.761440  1
  O  O30  1  0.209318  0.552482  0.761440  1
  O  O31  1  0.581723  0.790683  0.761440  1
  O  O32  1  0.717993  0.137455  0.925470  1
  O  O33  1  0.493991  0.282006  0.925470  1
  O  O34  1  0.862544  0.506008  0.925470  1
