# generated using pymatgen
data_Mn7(Re2Mo)2
_symmetry_space_group_name_H-M   'P 1'
_cell_length_a   9.10657654
_cell_length_b   9.10657763
_cell_length_c   9.10657733
_cell_angle_alpha   29.92368670
_cell_angle_beta   29.92368557
_cell_angle_gamma   29.92368639
_symmetry_Int_Tables_number   1
_chemical_formula_structural   Mn7(Re2Mo)2
_chemical_formula_sum   'Mn7 Re4 Mo2'
_cell_volume   166.44716220
_cell_formula_units_Z   1
loop_
 _symmetry_equiv_pos_site_id
 _symmetry_equiv_pos_as_xyz
  1  'x, y, z'
loop_
 _atom_site_type_symbol
 _atom_site_label
 _atom_site_symmetry_multiplicity
 _atom_site_fract_x
 _atom_site_fract_y
 _atom_site_fract_z
 _atom_site_occupancy
  Mn  Mn0  1  0.000000  0.000000  0.000000  1
  Mn  Mn1  1  0.585542  0.094948  0.094948  1
  Mn  Mn2  1  0.094948  0.094948  0.585542  1
  Mn  Mn3  1  0.094948  0.585542  0.094948  1
  Mn  Mn4  1  0.905052  0.414458  0.905052  1
  Mn  Mn5  1  0.414458  0.905052  0.905052  1
  Mn  Mn6  1  0.905052  0.905052  0.414458  1
  Re  Re7  1  0.348185  0.348185  0.348185  1
  Re  Re8  1  0.651815  0.651815  0.651815  1
  Re  Re9  1  0.451688  0.451688  0.451688  1
  Re  Re10  1  0.548312  0.548312  0.548312  1
  Mo  Mo11  1  0.165513  0.165513  0.165513  1
  Mo  Mo12  1  0.834487  0.834487  0.834487  1
