# generated using pymatgen
data_Er5Ti3(Co4P3)4
_symmetry_space_group_name_H-M   'P 1'
_cell_length_a   12.08147100
_cell_length_b   12.08147006
_cell_length_c   3.65107100
_cell_angle_alpha   90.00000000
_cell_angle_beta   90.00000000
_cell_angle_gamma   119.99999985
_symmetry_Int_Tables_number   1
_chemical_formula_structural   Er5Ti3(Co4P3)4
_chemical_formula_sum   'Er5 Ti3 Co16 P12'
_cell_volume   461.51998140
_cell_formula_units_Z   1
loop_
 _symmetry_equiv_pos_site_id
 _symmetry_equiv_pos_as_xyz
  1  'x, y, z'
loop_
 _atom_site_type_symbol
 _atom_site_label
 _atom_site_symmetry_multiplicity
 _atom_site_fract_x
 _atom_site_fract_y
 _atom_site_fract_z
 _atom_site_occupancy
  Er  Er0  1  0.815004  0.000000  0.500000  1
  Er  Er1  1  0.000000  0.815004  0.500000  1
  Er  Er2  1  0.184996  0.184996  0.500000  1
  Er  Er3  1  0.333333  0.666667  0.000000  1
  Er  Er4  1  0.666667  0.333333  0.000000  1
  Ti  Ti5  1  0.439891  0.000000  0.000000  1
  Ti  Ti6  1  0.000000  0.439891  0.000000  1
  Ti  Ti7  1  0.560109  0.560109  0.000000  1
  Co  Co8  1  0.281200  0.000000  0.500000  1
  Co  Co9  1  0.000000  0.281200  0.500000  1
  Co  Co10  1  0.718800  0.718800  0.500000  1
  Co  Co11  1  0.624476  0.802224  0.000000  1
  Co  Co12  1  0.197776  0.822252  0.000000  1
  Co  Co13  1  0.177748  0.375524  0.000000  1
  Co  Co14  1  0.375524  0.177748  0.000000  1
  Co  Co15  1  0.802224  0.624476  0.000000  1
  Co  Co16  1  0.822252  0.197776  0.000000  1
  Co  Co17  1  0.518687  0.874855  0.500000  1
  Co  Co18  1  0.125145  0.643833  0.500000  1
  Co  Co19  1  0.356167  0.481313  0.500000  1
  Co  Co20  1  0.481313  0.356167  0.500000  1
  Co  Co21  1  0.874855  0.518687  0.500000  1
  Co  Co22  1  0.643833  0.125145  0.500000  1
  Co  Co23  1  0.000000  0.000000  0.000000  1
  P  P24  1  0.178894  0.000000  0.000000  1
  P  P25  1  0.000000  0.178894  0.000000  1
  P  P26  1  0.821106  0.821106  0.000000  1
  P  P27  1  0.519308  0.687230  0.500000  1
  P  P28  1  0.312770  0.832078  0.500000  1
  P  P29  1  0.167922  0.480692  0.500000  1
  P  P30  1  0.480692  0.167922  0.500000  1
  P  P31  1  0.687230  0.519308  0.500000  1
  P  P32  1  0.832078  0.312770  0.500000  1
  P  P33  1  0.641811  0.000000  0.000000  1
  P  P34  1  0.000000  0.641811  0.000000  1
  P  P35  1  0.358189  0.358189  0.000000  1
