# generated using pymatgen
data_Sc2FeB2Ir2Rh3
_symmetry_space_group_name_H-M   'P 1'
_cell_length_a   3.07747000
_cell_length_b   9.34544800
_cell_length_c   9.34529300
_cell_angle_alpha   90.00000000
_cell_angle_beta   90.00000000
_cell_angle_gamma   90.00000000
_symmetry_Int_Tables_number   1
_chemical_formula_structural   Sc2FeB2Ir2Rh3
_chemical_formula_sum   'Sc4 Fe2 B4 Ir4 Rh6'
_cell_volume   268.77376536
_cell_formula_units_Z   2
loop_
 _symmetry_equiv_pos_site_id
 _symmetry_equiv_pos_as_xyz
  1  'x, y, z'
loop_
 _atom_site_type_symbol
 _atom_site_label
 _atom_site_symmetry_multiplicity
 _atom_site_fract_x
 _atom_site_fract_y
 _atom_site_fract_z
 _atom_site_occupancy
  Sc  Sc0  1  0.000000  0.325678  0.824646  1
  Sc  Sc1  1  0.000000  0.674322  0.175354  1
  Sc  Sc2  1  0.000000  0.825678  0.675354  1
  Sc  Sc3  1  0.000000  0.174322  0.324646  1
  Fe  Fe4  1  0.000000  0.500000  0.500000  1
  Fe  Fe5  1  0.000000  0.000000  0.000000  1
  B  B6  1  0.000000  0.876882  0.374809  1
  B  B7  1  0.000000  0.123118  0.625191  1
  B  B8  1  0.000000  0.376882  0.125191  1
  B  B9  1  0.000000  0.623118  0.874809  1
  Ir  Ir10  1  0.500000  0.429138  0.284742  1
  Ir  Ir11  1  0.500000  0.570862  0.715258  1
  Ir  Ir12  1  0.500000  0.929138  0.215258  1
  Ir  Ir13  1  0.500000  0.070862  0.784742  1
  Rh  Rh14  1  0.500000  0.715839  0.430254  1
  Rh  Rh15  1  0.500000  0.284161  0.569746  1
  Rh  Rh16  1  0.500000  0.784161  0.930254  1
  Rh  Rh17  1  0.500000  0.215839  0.069746  1
  Rh  Rh18  1  0.500000  0.500000  0.000000  1
  Rh  Rh19  1  0.500000  0.000000  0.500000  1
