# generated using pymatgen
data_Ga2Te2IBr13
_symmetry_space_group_name_H-M   'P 1'
_cell_length_a   6.91633701
_cell_length_b   7.23604915
_cell_length_c   15.92445116
_cell_angle_alpha   75.55466712
_cell_angle_beta   90.36157953
_cell_angle_gamma   90.36506551
_symmetry_Int_Tables_number   1
_chemical_formula_structural   Ga2Te2IBr13
_chemical_formula_sum   'Ga2 Te2 I1 Br13'
_cell_volume   771.75009941
_cell_formula_units_Z   1
loop_
 _symmetry_equiv_pos_site_id
 _symmetry_equiv_pos_as_xyz
  1  'x, y, z'
loop_
 _atom_site_type_symbol
 _atom_site_label
 _atom_site_symmetry_multiplicity
 _atom_site_fract_x
 _atom_site_fract_y
 _atom_site_fract_z
 _atom_site_occupancy
  Ga  Ga0  1  0.493667  0.711580  0.807701  1
  Ga  Ga1  1  0.505571  0.712075  0.310188  1
  Te  Te2  1  0.092213  0.994436  0.655769  1
  Te  Te3  1  0.908680  0.995092  0.158208  1
  I  I4  1  0.117425  0.881452  0.034445  1
  Br  Br5  1  0.834928  0.693313  0.812880  1
  Br  Br6  1  0.163480  0.693004  0.313315  1
  Br  Br7  1  0.352089  0.497898  0.926256  1
  Br  Br8  1  0.643755  0.492989  0.428135  1
  Br  Br9  1  0.375790  0.650833  0.674837  1
  Br  Br10  1  0.622427  0.650998  0.177663  1
  Br  Br11  1  0.384962  0.027702  0.804201  1
  Br  Br12  1  0.615472  0.026597  0.308127  1
  Br  Br13  1  0.320259  0.203373  0.549491  1
  Br  Br14  1  0.678117  0.203375  0.051992  1
  Br  Br15  1  0.887220  0.267971  0.676776  1
  Br  Br16  1  0.113831  0.271833  0.179689  1
  Br  Br17  1  0.890114  0.892877  0.542225  1
