# generated using pymatgen
data_DyY(Er2Ni)2
_symmetry_space_group_name_H-M   'P 1'
_cell_length_a   6.28898400
_cell_length_b   6.80854800
_cell_length_c   9.47568900
_cell_angle_alpha   90.00000000
_cell_angle_beta   90.00000000
_cell_angle_gamma   90.00000000
_symmetry_Int_Tables_number   1
_chemical_formula_structural   DyY(Er2Ni)2
_chemical_formula_sum   'Dy2 Y2 Er8 Ni4'
_cell_volume   405.73810059
_cell_formula_units_Z   2
loop_
 _symmetry_equiv_pos_site_id
 _symmetry_equiv_pos_as_xyz
  1  'x, y, z'
loop_
 _atom_site_type_symbol
 _atom_site_label
 _atom_site_symmetry_multiplicity
 _atom_site_fract_x
 _atom_site_fract_y
 _atom_site_fract_z
 _atom_site_occupancy
  Dy  Dy0  1  0.137284  0.468517  0.750000  1
  Dy  Dy1  1  0.362716  0.968517  0.750000  1
  Y  Y2  1  0.863078  0.529811  0.250000  1
  Y  Y3  1  0.636922  0.029811  0.250000  1
  Er  Er4  1  0.320299  0.677900  0.065536  1
  Er  Er5  1  0.179701  0.177900  0.434464  1
  Er  Er6  1  0.679303  0.322352  0.566872  1
  Er  Er7  1  0.820697  0.822352  0.933128  1
  Er  Er8  1  0.679303  0.322352  0.933128  1
  Er  Er9  1  0.820697  0.822352  0.566872  1
  Er  Er10  1  0.320299  0.677900  0.434464  1
  Er  Er11  1  0.179701  0.177900  0.065536  1
  Ni  Ni12  1  0.061740  0.893052  0.250000  1
  Ni  Ni13  1  0.438260  0.393052  0.250000  1
  Ni  Ni14  1  0.945268  0.108116  0.750000  1
  Ni  Ni15  1  0.554732  0.608116  0.750000  1
