# generated using pymatgen
data_Li4Th3Si3Ge
_symmetry_space_group_name_H-M   'P 1'
_cell_length_a   4.41550551
_cell_length_b   6.74969598
_cell_length_c   8.30597463
_cell_angle_alpha   113.97358828
_cell_angle_beta   105.41468627
_cell_angle_gamma   89.99999993
_symmetry_Int_Tables_number   1
_chemical_formula_structural   Li4Th3Si3Ge
_chemical_formula_sum   'Li4 Th3 Si3 Ge1'
_cell_volume   216.40873087
_cell_formula_units_Z   1
loop_
 _symmetry_equiv_pos_site_id
 _symmetry_equiv_pos_as_xyz
  1  'x, y, z'
loop_
 _atom_site_type_symbol
 _atom_site_label
 _atom_site_symmetry_multiplicity
 _atom_site_fract_x
 _atom_site_fract_y
 _atom_site_fract_z
 _atom_site_occupancy
  Li  Li0  1  0.669433  0.982005  0.338867  1
  Li  Li1  1  0.330722  0.016349  0.661442  1
  Li  Li2  1  0.330722  0.645094  0.661442  1
  Li  Li3  1  0.669433  0.356861  0.338867  1
  Th  Th4  1  0.998969  0.998969  0.997940  1
  Th  Th5  1  0.128023  0.628023  0.256046  1
  Th  Th6  1  0.872791  0.372791  0.745581  1
  Si  Si7  1  0.500082  0.680648  0.000164  1
  Si  Si8  1  0.500082  0.319516  0.000164  1
  Si  Si9  1  0.785875  0.785875  0.571751  1
  Ge  Ge10  1  0.213868  0.213868  0.427736  1
