# generated using pymatgen
data_Tb4YP12Pd2Ru17
_symmetry_space_group_name_H-M   'P 1'
_cell_length_a   12.66613800
_cell_length_b   12.55562843
_cell_length_c   3.97571100
_cell_angle_alpha   90.00000000
_cell_angle_beta   90.00000000
_cell_angle_gamma   120.29247133
_symmetry_Int_Tables_number   1
_chemical_formula_structural   Tb4YP12Pd2Ru17
_chemical_formula_sum   'Tb4 Y1 P12 Pd2 Ru17'
_cell_volume   545.93460733
_cell_formula_units_Z   1
loop_
 _symmetry_equiv_pos_site_id
 _symmetry_equiv_pos_as_xyz
  1  'x, y, z'
loop_
 _atom_site_type_symbol
 _atom_site_label
 _atom_site_symmetry_multiplicity
 _atom_site_fract_x
 _atom_site_fract_y
 _atom_site_fract_z
 _atom_site_occupancy
  Tb  Tb0  1  0.000729  0.182437  0.500000  1
  Tb  Tb1  1  0.818294  0.817569  0.500000  1
  Tb  Tb2  1  0.183431  0.999994  0.500000  1
  Tb  Tb3  1  0.664027  0.327726  0.000000  1
  Y  Y4  1  0.336314  0.672279  0.000000  1
  P  P5  1  0.998174  0.811831  0.000000  1
  P  P6  1  0.186313  0.188181  0.000000  1
  P  P7  1  0.817563  0.999976  0.000000  1
  P  P8  1  0.692791  0.169730  0.500000  1
  P  P9  1  0.818335  0.517204  0.500000  1
  P  P10  1  0.476987  0.299677  0.500000  1
  P  P11  1  0.177335  0.700286  0.500000  1
  P  P12  1  0.522991  0.830226  0.500000  1
  P  P13  1  0.301204  0.482883  0.500000  1
  P  P14  1  0.000522  0.366450  0.000000  1
  P  P15  1  0.634063  0.633508  0.000000  1
  P  P16  1  0.374288  0.000023  0.000000  1
  Pd  Pd17  1  0.999164  0.552270  0.000000  1
  Pd  Pd18  1  0.446928  0.447686  0.000000  1
  Ru  Ru19  1  0.555692  0.000093  0.000000  1
  Ru  Ru20  1  0.997888  0.711709  0.500000  1
  Ru  Ru21  1  0.286157  0.288306  0.500000  1
  Ru  Ru22  1  0.718231  0.999976  0.500000  1
  Ru  Ru23  1  0.808529  0.184782  0.000000  1
  Ru  Ru24  1  0.812705  0.618299  0.000000  1
  Ru  Ru25  1  0.376067  0.191654  0.000000  1
  Ru  Ru26  1  0.184466  0.808335  0.000000  1
  Ru  Ru27  1  0.623689  0.815165  0.000000  1
  Ru  Ru28  1  0.194429  0.381773  0.000000  1
  Ru  Ru29  1  0.871835  0.365147  0.500000  1
  Ru  Ru30  1  0.629777  0.507366  0.500000  1
  Ru  Ru31  1  0.491655  0.123772  0.500000  1
  Ru  Ru32  1  0.367913  0.876095  0.500000  1
  Ru  Ru33  1  0.506530  0.634785  0.500000  1
  Ru  Ru34  1  0.122511  0.492800  0.500000  1
  Ru  Ru35  1  0.002476  0.000004  0.000000  1
