# generated using pymatgen
data_Nd8Hg2IrPd
_symmetry_space_group_name_H-M   'P 1'
_cell_length_a   9.96431123
_cell_length_b   9.96431180
_cell_length_c   9.94021900
_cell_angle_alpha   60.07995492
_cell_angle_beta   60.07995305
_cell_angle_gamma   60.33145400
_symmetry_Int_Tables_number   1
_chemical_formula_structural   Nd8Hg2IrPd
_chemical_formula_sum   'Nd16 Hg4 Ir2 Pd2'
_cell_volume   700.45150369
_cell_formula_units_Z   2
loop_
 _symmetry_equiv_pos_site_id
 _symmetry_equiv_pos_as_xyz
  1  'x, y, z'
loop_
 _atom_site_type_symbol
 _atom_site_label
 _atom_site_symmetry_multiplicity
 _atom_site_fract_x
 _atom_site_fract_y
 _atom_site_fract_z
 _atom_site_occupancy
  Nd  Nd0  1  0.601842  0.601842  0.596648  1
  Nd  Nd1  1  0.601842  0.601842  0.199668  1
  Nd  Nd2  1  0.609188  0.187995  0.601409  1
  Nd  Nd3  1  0.187995  0.609188  0.601409  1
  Nd  Nd4  1  0.055405  0.440774  0.439893  1
  Nd  Nd5  1  0.440774  0.055405  0.063927  1
  Nd  Nd6  1  0.440774  0.055405  0.439893  1
  Nd  Nd7  1  0.055405  0.440774  0.063927  1
  Nd  Nd8  1  0.442287  0.442287  0.057713  1
  Nd  Nd9  1  0.060569  0.060569  0.439431  1
  Nd  Nd10  1  0.189652  0.814205  0.810346  1
  Nd  Nd11  1  0.814205  0.189652  0.185796  1
  Nd  Nd12  1  0.814205  0.189652  0.810346  1
  Nd  Nd13  1  0.189652  0.814205  0.185796  1
  Nd  Nd14  1  0.812332  0.812332  0.187668  1
  Nd  Nd15  1  0.188455  0.188455  0.811545  1
  Hg  Hg16  1  0.834706  0.834706  0.835204  1
  Hg  Hg17  1  0.834706  0.834706  0.495385  1
  Hg  Hg18  1  0.833953  0.495866  0.835090  1
  Hg  Hg19  1  0.495866  0.833953  0.835090  1
  Ir  Ir20  1  0.391321  0.820668  0.394006  1
  Ir  Ir21  1  0.820668  0.391321  0.394006  1
  Pd  Pd22  1  0.392098  0.392098  0.397227  1
  Pd  Pd23  1  0.392098  0.392098  0.818578  1
