# generated using pymatgen
data_Tb4Lu16BiSb11
_symmetry_space_group_name_H-M   'P 1'
_cell_length_a   8.01703823
_cell_length_b   9.19335682
_cell_length_c   11.69715006
_cell_angle_alpha   90.04598604
_cell_angle_beta   89.91597965
_cell_angle_gamma   90.01451192
_symmetry_Int_Tables_number   1
_chemical_formula_structural   Tb4Lu16BiSb11
_chemical_formula_sum   'Tb4 Lu16 Bi1 Sb11'
_cell_volume   862.11958668
_cell_formula_units_Z   1
loop_
 _symmetry_equiv_pos_site_id
 _symmetry_equiv_pos_as_xyz
  1  'x, y, z'
loop_
 _atom_site_type_symbol
 _atom_site_label
 _atom_site_symmetry_multiplicity
 _atom_site_fract_x
 _atom_site_fract_y
 _atom_site_fract_z
 _atom_site_occupancy
  Tb  Tb0  1  0.317513  0.253444  0.219199  1
  Tb  Tb1  1  0.813309  0.252210  0.282001  1
  Tb  Tb2  1  0.685089  0.750041  0.781159  1
  Tb  Tb3  1  0.185109  0.749946  0.718666  1
  Lu  Lu4  1  0.355304  0.747618  0.217181  1
  Lu  Lu5  1  0.849451  0.746964  0.284371  1
  Lu  Lu6  1  0.647368  0.249990  0.783199  1
  Lu  Lu7  1  0.147383  0.249911  0.716610  1
  Lu  Lu8  1  0.691455  0.563612  0.060425  1
  Lu  Lu9  1  0.193218  0.935897  0.441460  1
  Lu  Lu10  1  0.309260  0.064194  0.937771  1
  Lu  Lu11  1  0.807923  0.436391  0.560794  1
  Lu  Lu12  1  0.308452  0.436501  0.939149  1
  Lu  Lu13  1  0.808061  0.063753  0.560677  1
  Lu  Lu14  1  0.689887  0.935608  0.059974  1
  Lu  Lu15  1  0.191932  0.563509  0.439402  1
  Lu  Lu16  1  0.474350  0.250033  0.489488  1
  Lu  Lu17  1  0.973649  0.252137  0.009362  1
  Lu  Lu18  1  0.526006  0.749857  0.510823  1
  Lu  Lu19  1  0.025013  0.747898  0.987633  1
  Bi  Bi20  1  0.066213  0.994079  0.173904  1
  Sb  Sb21  1  0.405338  0.750108  0.961469  1
  Sb  Sb22  1  0.906258  0.750003  0.538692  1
  Sb  Sb23  1  0.594211  0.249882  0.038265  1
  Sb  Sb24  1  0.093874  0.249895  0.461327  1
  Sb  Sb25  1  0.565249  0.993643  0.327470  1
  Sb  Sb26  1  0.065367  0.506640  0.172358  1
  Sb  Sb27  1  0.434712  0.493600  0.672349  1
  Sb  Sb28  1  0.934603  0.006365  0.827757  1
  Sb  Sb29  1  0.434822  0.006416  0.672270  1
  Sb  Sb30  1  0.934291  0.493526  0.826737  1
  Sb  Sb31  1  0.565329  0.506326  0.328056  1
