# generated using pymatgen
data_Ho4ZnAs5Rh7
_symmetry_space_group_name_H-M   'P 1'
_cell_length_a   7.25803274
_cell_length_b   7.25803144
_cell_length_c   7.25803198
_cell_angle_alpha   109.87847615
_cell_angle_beta   108.65973708
_cell_angle_gamma   109.87848195
_symmetry_Int_Tables_number   1
_chemical_formula_structural   Ho4ZnAs5Rh7
_chemical_formula_sum   'Ho4 Zn1 As5 Rh7'
_cell_volume   294.28595312
_cell_formula_units_Z   1
loop_
 _symmetry_equiv_pos_site_id
 _symmetry_equiv_pos_as_xyz
  1  'x, y, z'
loop_
 _atom_site_type_symbol
 _atom_site_label
 _atom_site_symmetry_multiplicity
 _atom_site_fract_x
 _atom_site_fract_y
 _atom_site_fract_z
 _atom_site_occupancy
  Ho  Ho0  1  0.493278  0.495922  0.493278  1
  Ho  Ho1  1  0.997356  0.504078  0.997356  1
  Ho  Ho2  1  0.493278  0.000000  0.997356  1
  Ho  Ho3  1  0.997356  0.000000  0.493278  1
  Zn  Zn4  1  0.693397  0.000000  0.693397  1
  As  As5  1  0.678823  0.684321  0.994502  1
  As  As6  1  0.310181  0.315679  0.994502  1
  As  As7  1  0.994502  0.684321  0.678823  1
  As  As8  1  0.994502  0.315679  0.310181  1
  As  As9  1  0.334111  0.000000  0.334111  1
  Rh  Rh10  1  0.500941  0.748085  0.249025  1
  Rh  Rh11  1  0.752856  0.251915  0.500941  1
  Rh  Rh12  1  0.249025  0.748085  0.500941  1
  Rh  Rh13  1  0.246777  0.500000  0.746777  1
  Rh  Rh14  1  0.015899  0.000000  0.015899  1
  Rh  Rh15  1  0.500941  0.251915  0.752856  1
  Rh  Rh16  1  0.746777  0.500000  0.246777  1
