# generated using pymatgen
data_Li2Tb3AgGe3
_symmetry_space_group_name_H-M   'P 1'
_cell_length_a   7.10924425
_cell_length_b   7.10924471
_cell_length_c   4.27363700
_cell_angle_alpha   90.00000000
_cell_angle_beta   90.00000000
_cell_angle_gamma   120.03054166
_symmetry_Int_Tables_number   1
_chemical_formula_structural   Li2Tb3AgGe3
_chemical_formula_sum   'Li2 Tb3 Ag1 Ge3'
_cell_volume   186.99992030
_cell_formula_units_Z   1
loop_
 _symmetry_equiv_pos_site_id
 _symmetry_equiv_pos_as_xyz
  1  'x, y, z'
loop_
 _atom_site_type_symbol
 _atom_site_label
 _atom_site_symmetry_multiplicity
 _atom_site_fract_x
 _atom_site_fract_y
 _atom_site_fract_z
 _atom_site_occupancy
  Li  Li0  1  0.232184  0.996984  0.500000  1
  Li  Li1  1  0.996984  0.232184  0.500000  1
  Tb  Tb2  1  0.425841  0.425841  0.000000  1
  Tb  Tb3  1  0.580486  0.999034  0.000000  1
  Tb  Tb4  1  0.999034  0.580486  0.000000  1
  Ag  Ag5  1  0.760705  0.760705  0.500000  1
  Ge  Ge6  1  0.006870  0.006870  0.000000  1
  Ge  Ge7  1  0.667050  0.330845  0.500000  1
  Ge  Ge8  1  0.330845  0.667050  0.500000  1
