# generated using pymatgen
data_YbZrReB6
_symmetry_space_group_name_H-M   'P 1'
_cell_length_a   3.58121800
_cell_length_b   8.92381200
_cell_length_c   11.33478400
_cell_angle_alpha   90.00000000
_cell_angle_beta   90.00000000
_cell_angle_gamma   90.00000000
_symmetry_Int_Tables_number   1
_chemical_formula_structural   YbZrReB6
_chemical_formula_sum   'Yb4 Zr4 Re4 B24'
_cell_volume   362.23834375
_cell_formula_units_Z   4
loop_
 _symmetry_equiv_pos_site_id
 _symmetry_equiv_pos_as_xyz
  1  'x, y, z'
loop_
 _atom_site_type_symbol
 _atom_site_label
 _atom_site_symmetry_multiplicity
 _atom_site_fract_x
 _atom_site_fract_y
 _atom_site_fract_z
 _atom_site_occupancy
  Yb  Yb0  1  0.000000  0.323760  0.414985  1
  Yb  Yb1  1  0.000000  0.676240  0.585015  1
  Yb  Yb2  1  0.000000  0.823760  0.085015  1
  Yb  Yb3  1  0.000000  0.176240  0.914985  1
  Zr  Zr4  1  0.000000  0.944747  0.370102  1
  Zr  Zr5  1  0.000000  0.055253  0.629898  1
  Zr  Zr6  1  0.000000  0.444747  0.129898  1
  Zr  Zr7  1  0.000000  0.555253  0.870102  1
  Re  Re8  1  0.000000  0.641524  0.317338  1
  Re  Re9  1  0.000000  0.358476  0.682662  1
  Re  Re10  1  0.000000  0.141524  0.182662  1
  Re  Re11  1  0.000000  0.858476  0.817338  1
  B  B12  1  0.500000  0.553509  0.433476  1
  B  B13  1  0.500000  0.446491  0.566524  1
  B  B14  1  0.500000  0.053509  0.066524  1
  B  B15  1  0.500000  0.946491  0.933476  1
  B  B16  1  0.500000  0.752396  0.418609  1
  B  B17  1  0.500000  0.247604  0.581391  1
  B  B18  1  0.500000  0.252396  0.081391  1
  B  B19  1  0.500000  0.747604  0.918609  1
  B  B20  1  0.500000  0.796093  0.263542  1
  B  B21  1  0.500000  0.203907  0.736458  1
  B  B22  1  0.500000  0.296093  0.236458  1
  B  B23  1  0.500000  0.703907  0.763542  1
  B  B24  1  0.500000  0.632119  0.182794  1
  B  B25  1  0.500000  0.367881  0.817206  1
  B  B26  1  0.500000  0.132119  0.317206  1
  B  B27  1  0.500000  0.867881  0.682794  1
  B  B28  1  0.500000  0.982365  0.212376  1
  B  B29  1  0.500000  0.017635  0.787624  1
  B  B30  1  0.500000  0.482365  0.287624  1
  B  B31  1  0.500000  0.517635  0.712376  1
  B  B32  1  0.500000  0.597869  0.025887  1
  B  B33  1  0.500000  0.402131  0.974113  1
  B  B34  1  0.500000  0.097869  0.474113  1
  B  B35  1  0.500000  0.902131  0.525887  1
