# generated using pymatgen
data_LaTb6Pr(WO6)4
_symmetry_space_group_name_H-M   'P 1'
_cell_length_a   5.48246500
_cell_length_b   7.81730960
_cell_length_c   11.62674207
_cell_angle_alpha   75.65776880
_cell_angle_beta   90.00000000
_cell_angle_gamma   90.00000000
_symmetry_Int_Tables_number   1
_chemical_formula_structural   LaTb6Pr(WO6)4
_chemical_formula_sum   'La1 Tb6 Pr1 W4 O24'
_cell_volume   482.77005720
_cell_formula_units_Z   1
loop_
 _symmetry_equiv_pos_site_id
 _symmetry_equiv_pos_as_xyz
  1  'x, y, z'
loop_
 _atom_site_type_symbol
 _atom_site_label
 _atom_site_symmetry_multiplicity
 _atom_site_fract_x
 _atom_site_fract_y
 _atom_site_fract_z
 _atom_site_occupancy
  La  La0  1  0.685723  0.500000  0.750000  1
  Tb  Tb1  1  0.740730  0.000000  0.750000  1
  Tb  Tb2  1  0.259461  0.000000  0.250000  1
  Tb  Tb3  1  0.187325  0.798112  0.575817  1
  Tb  Tb4  1  0.812988  0.797164  0.076550  1
  Tb  Tb5  1  0.187325  0.201888  0.924183  1
  Tb  Tb6  1  0.812988  0.202836  0.423450  1
  Pr  Pr7  1  0.315345  0.500000  0.250000  1
  W  W8  1  0.252334  0.728599  0.884353  1
  W  W9  1  0.747674  0.728147  0.383586  1
  W  W10  1  0.252334  0.271401  0.615647  1
  W  W11  1  0.747674  0.271853  0.116414  1
  O  O12  1  0.041498  0.940481  0.896273  1
  O  O13  1  0.530160  0.846711  0.930397  1
  O  O14  1  0.957962  0.940955  0.395397  1
  O  O15  1  0.452953  0.794801  0.728433  1
  O  O16  1  0.470497  0.846774  0.430208  1
  O  O17  1  0.986877  0.720668  0.770049  1
  O  O18  1  0.545431  0.793808  0.228012  1
  O  O19  1  0.855511  0.642417  0.543489  1
  O  O20  1  0.346147  0.495212  0.887659  1
  O  O21  1  0.013886  0.718848  0.270305  1
  O  O22  1  0.346147  0.504788  0.612341  1
  O  O23  1  0.855511  0.357583  0.956511  1
  O  O24  1  0.146699  0.642673  0.045091  1
  O  O25  1  0.651430  0.495041  0.387122  1
  O  O26  1  0.986877  0.279332  0.729951  1
  O  O27  1  0.651430  0.504959  0.112878  1
  O  O28  1  0.146699  0.357327  0.454909  1
  O  O29  1  0.452953  0.205199  0.771567  1
  O  O30  1  0.013886  0.281152  0.229695  1
  O  O31  1  0.530160  0.153289  0.569603  1
  O  O32  1  0.545431  0.206192  0.271988  1
  O  O33  1  0.041498  0.059519  0.603727  1
  O  O34  1  0.470497  0.153226  0.069792  1
  O  O35  1  0.957962  0.059045  0.104603  1
