# generated using pymatgen
data_Lu2Pa2Bi3SbRh4
_symmetry_space_group_name_H-M   'P 1'
_cell_length_a   6.65044291
_cell_length_b   4.69858000
_cell_length_c   9.35071055
_cell_angle_alpha   90.00000000
_cell_angle_beta   89.78679249
_cell_angle_gamma   90.00000000
_symmetry_Int_Tables_number   1
_chemical_formula_structural   Lu2Pa2Bi3SbRh4
_chemical_formula_sum   'Lu2 Pa2 Bi3 Sb1 Rh4'
_cell_volume   292.18559554
_cell_formula_units_Z   1
loop_
 _symmetry_equiv_pos_site_id
 _symmetry_equiv_pos_as_xyz
  1  'x, y, z'
loop_
 _atom_site_type_symbol
 _atom_site_label
 _atom_site_symmetry_multiplicity
 _atom_site_fract_x
 _atom_site_fract_y
 _atom_site_fract_z
 _atom_site_occupancy
  Lu  Lu0  1  0.008489  0.499999  0.375310  1
  Lu  Lu1  1  0.508174  0.000000  0.628543  1
  Pa  Pa2  1  0.488572  0.000000  0.124264  1
  Pa  Pa3  1  0.991339  0.499999  0.872735  1
  Bi  Bi4  1  0.986404  0.000000  0.131961  1
  Bi  Bi5  1  0.509247  0.499999  0.384834  1
  Bi  Bi6  1  0.008231  0.000000  0.615767  1
  Sb  Sb7  1  0.487955  0.499999  0.867305  1
  Rh  Rh8  1  0.733104  0.499999  0.109578  1
  Rh  Rh9  1  0.266542  0.000000  0.357761  1
  Rh  Rh10  1  0.762342  0.499999  0.647568  1
  Rh  Rh11  1  0.249607  0.000000  0.884385  1
