# generated using pymatgen
data_Tb2DyHf5Pt4
_symmetry_space_group_name_H-M   'P 1'
_cell_length_a   4.63611600
_cell_length_b   6.97414865
_cell_length_c   8.20315202
_cell_angle_alpha   90.24671442
_cell_angle_beta   90.00000000
_cell_angle_gamma   90.00000000
_symmetry_Int_Tables_number   1
_chemical_formula_structural   Tb2DyHf5Pt4
_chemical_formula_sum   'Tb2 Dy1 Hf5 Pt4'
_cell_volume   265.22974492
_cell_formula_units_Z   1
loop_
 _symmetry_equiv_pos_site_id
 _symmetry_equiv_pos_as_xyz
  1  'x, y, z'
loop_
 _atom_site_type_symbol
 _atom_site_label
 _atom_site_symmetry_multiplicity
 _atom_site_fract_x
 _atom_site_fract_y
 _atom_site_fract_z
 _atom_site_occupancy
  Tb  Tb0  1  0.750000  0.986588  0.675969  1
  Tb  Tb1  1  0.750000  0.485459  0.819206  1
  Dy  Dy2  1  0.250000  0.516818  0.181964  1
  Hf  Hf3  1  0.250000  0.148864  0.926918  1
  Hf  Hf4  1  0.250000  0.651948  0.577549  1
  Hf  Hf5  1  0.750000  0.856058  0.083805  1
  Hf  Hf6  1  0.750000  0.345552  0.418935  1
  Hf  Hf7  1  0.250000  0.012929  0.327425  1
  Pt  Pt8  1  0.250000  0.261786  0.586483  1
  Pt  Pt9  1  0.250000  0.769999  0.905818  1
  Pt  Pt10  1  0.750000  0.733148  0.400263  1
  Pt  Pt11  1  0.750000  0.230851  0.095663  1
