# generated using pymatgen
data_Pa6Zn23N
_symmetry_space_group_name_H-M   'P 1'
_cell_length_a   8.97353142
_cell_length_b   8.97353005
_cell_length_c   8.97353000
_cell_angle_alpha   59.99999279
_cell_angle_beta   59.99999785
_cell_angle_gamma   59.99999564
_symmetry_Int_Tables_number   1
_chemical_formula_structural   Pa6Zn23N
_chemical_formula_sum   'Pa6 Zn23 N1'
_cell_volume   510.94597826
_cell_formula_units_Z   1
loop_
 _symmetry_equiv_pos_site_id
 _symmetry_equiv_pos_as_xyz
  1  'x, y, z'
loop_
 _atom_site_type_symbol
 _atom_site_label
 _atom_site_symmetry_multiplicity
 _atom_site_fract_x
 _atom_site_fract_y
 _atom_site_fract_z
 _atom_site_occupancy
  Pa  Pa0  1  0.692819  0.307181  0.307181  1
  Pa  Pa1  1  0.307181  0.692819  0.692819  1
  Pa  Pa2  1  0.307181  0.692819  0.307181  1
  Pa  Pa3  1  0.692819  0.307181  0.692819  1
  Pa  Pa4  1  0.307181  0.307181  0.692819  1
  Pa  Pa5  1  0.692819  0.692819  0.307181  1
  Zn  Zn6  1  0.120241  0.120241  0.120241  1
  Zn  Zn7  1  0.879759  0.879759  0.879759  1
  Zn  Zn8  1  0.120241  0.120241  0.639280  1
  Zn  Zn9  1  0.120241  0.639280  0.120241  1
  Zn  Zn10  1  0.879759  0.879759  0.360720  1
  Zn  Zn11  1  0.879759  0.360720  0.879759  1
  Zn  Zn12  1  0.639280  0.120241  0.120241  1
  Zn  Zn13  1  0.360720  0.879759  0.879759  1
  Zn  Zn14  1  0.500000  0.000000  0.000000  1
  Zn  Zn15  1  0.000000  0.500000  0.500000  1
  Zn  Zn16  1  0.000000  0.500000  0.000000  1
  Zn  Zn17  1  0.500000  0.000000  0.500000  1
  Zn  Zn18  1  0.000000  0.000000  0.500000  1
  Zn  Zn19  1  0.500000  0.500000  0.000000  1
  Zn  Zn20  1  0.327675  0.327675  0.327675  1
  Zn  Zn21  1  0.672325  0.672325  0.672325  1
  Zn  Zn22  1  0.327675  0.327675  0.016975  1
  Zn  Zn23  1  0.327675  0.016975  0.327675  1
  Zn  Zn24  1  0.672325  0.672325  0.983025  1
  Zn  Zn25  1  0.672325  0.983025  0.672325  1
  Zn  Zn26  1  0.016975  0.327675  0.327675  1
  Zn  Zn27  1  0.983025  0.672325  0.672325  1
  Zn  Zn28  1  0.000000  0.000000  0.000000  1
  N  N29  1  0.500000  0.500000  0.500000  1
