# generated using pymatgen
data_TiAg7(SO4)6
_symmetry_space_group_name_H-M   'P 1'
_cell_length_a   8.70095013
_cell_length_b   8.70095054
_cell_length_c   8.70094998
_cell_angle_alpha   107.96929226
_cell_angle_beta   107.96930242
_cell_angle_gamma   107.96931044
_symmetry_Int_Tables_number   1
_chemical_formula_structural   TiAg7(SO4)6
_chemical_formula_sum   'Ti1 Ag7 S6 O24'
_cell_volume   533.41747694
_cell_formula_units_Z   1
loop_
 _symmetry_equiv_pos_site_id
 _symmetry_equiv_pos_as_xyz
  1  'x, y, z'
loop_
 _atom_site_type_symbol
 _atom_site_label
 _atom_site_symmetry_multiplicity
 _atom_site_fract_x
 _atom_site_fract_y
 _atom_site_fract_z
 _atom_site_occupancy
  Ti  Ti0  1  0.000000  0.000000  0.000000  1
  Ag  Ag1  1  0.500000  0.500000  0.500000  1
  Ag  Ag2  1  0.831829  0.337039  0.676750  1
  Ag  Ag3  1  0.337039  0.676750  0.831829  1
  Ag  Ag4  1  0.676750  0.831829  0.337039  1
  Ag  Ag5  1  0.168171  0.662961  0.323250  1
  Ag  Ag6  1  0.662961  0.323250  0.168171  1
  Ag  Ag7  1  0.323250  0.168171  0.662961  1
  S  S8  1  0.970977  0.749884  0.607553  1
  S  S9  1  0.749884  0.607553  0.970977  1
  S  S10  1  0.607553  0.970977  0.749884  1
  S  S11  1  0.029023  0.250116  0.392447  1
  S  S12  1  0.250116  0.392447  0.029023  1
  S  S13  1  0.392447  0.029023  0.250116  1
  O  O14  1  0.460256  0.905795  0.168592  1
  O  O15  1  0.905795  0.168592  0.460256  1
  O  O16  1  0.168592  0.460256  0.905795  1
  O  O17  1  0.539744  0.094205  0.831408  1
  O  O18  1  0.094205  0.831408  0.539744  1
  O  O19  1  0.831408  0.539744  0.094205  1
  O  O20  1  0.321042  0.978443  0.370147  1
  O  O21  1  0.978443  0.370147  0.321042  1
  O  O22  1  0.370147  0.321042  0.978443  1
  O  O23  1  0.678958  0.021557  0.629853  1
  O  O24  1  0.021557  0.629853  0.678958  1
  O  O25  1  0.629853  0.678958  0.021557  1
  O  O26  1  0.757384  0.982357  0.907165  1
  O  O27  1  0.982357  0.907165  0.757384  1
  O  O28  1  0.651093  0.465078  0.778828  1
  O  O29  1  0.778828  0.651093  0.465078  1
  O  O30  1  0.465078  0.778828  0.651093  1
  O  O31  1  0.348907  0.534922  0.221172  1
  O  O32  1  0.221172  0.348907  0.534922  1
  O  O33  1  0.534922  0.221172  0.348907  1
  O  O34  1  0.092835  0.242616  0.017643  1
  O  O35  1  0.017643  0.092835  0.242616  1
  O  O36  1  0.242616  0.017643  0.092835  1
  O  O37  1  0.907165  0.757384  0.982357  1
