# generated using pymatgen
data_Ca2YbHo(Al3Pd)6
_symmetry_space_group_name_H-M   'P 1'
_cell_length_a   7.66479415
_cell_length_b   7.65968294
_cell_length_c   9.49515700
_cell_angle_alpha   90.00000000
_cell_angle_beta   90.00000000
_cell_angle_gamma   119.56735142
_symmetry_Int_Tables_number   1
_chemical_formula_structural   Ca2YbHo(Al3Pd)6
_chemical_formula_sum   'Ca2 Yb1 Ho1 Al18 Pd6'
_cell_volume   484.86516441
_cell_formula_units_Z   1
loop_
 _symmetry_equiv_pos_site_id
 _symmetry_equiv_pos_as_xyz
  1  'x, y, z'
loop_
 _atom_site_type_symbol
 _atom_site_label
 _atom_site_symmetry_multiplicity
 _atom_site_fract_x
 _atom_site_fract_y
 _atom_site_fract_z
 _atom_site_occupancy
  Ca  Ca0  1  0.004476  0.330256  0.750000  1
  Ca  Ca1  1  0.671477  0.996402  0.250000  1
  Yb  Yb2  1  0.995216  0.669910  0.250000  1
  Ho  Ho3  1  0.329516  0.003067  0.750000  1
  Al  Al4  1  0.132665  0.131967  0.250000  1
  Al  Al5  1  0.871459  0.869000  0.750000  1
  Al  Al6  1  0.001288  0.335310  0.075727  1
  Al  Al7  1  0.999388  0.665197  0.922611  1
  Al  Al8  1  0.999388  0.665197  0.577389  1
  Al  Al9  1  0.334439  0.000155  0.424713  1
  Al  Al10  1  0.001288  0.335310  0.424273  1
  Al  Al11  1  0.664791  0.999751  0.577768  1
  Al  Al12  1  0.664791  0.999751  0.922232  1
  Al  Al13  1  0.334439  0.000155  0.075287  1
  Al  Al14  1  0.332969  0.332067  0.557785  1
  Al  Al15  1  0.666641  0.666560  0.445476  1
  Al  Al16  1  0.666641  0.666560  0.054524  1
  Al  Al17  1  0.332969  0.332067  0.942215  1
  Al  Al18  1  0.339959  0.546347  0.250000  1
  Al  Al19  1  0.656334  0.451598  0.750000  1
  Al  Al20  1  0.544501  0.339871  0.250000  1
  Al  Al21  1  0.455844  0.663665  0.750000  1
  Pd  Pd22  1  0.671168  0.328339  0.999693  1
  Pd  Pd23  1  0.327874  0.671921  0.999074  1
  Pd  Pd24  1  0.327874  0.671921  0.500926  1
  Pd  Pd25  1  0.671168  0.328339  0.500307  1
  Pd  Pd26  1  0.000716  0.999660  0.999380  1
  Pd  Pd27  1  0.000716  0.999660  0.500620  1
