# generated using pymatgen
data_Hf6FeCl15
_symmetry_space_group_name_H-M   'P 1'
_cell_length_a   8.90206781
_cell_length_b   8.90206788
_cell_length_c   8.90206800
_cell_angle_alpha   109.47122090
_cell_angle_beta   109.47122106
_cell_angle_gamma   109.47122004
_symmetry_Int_Tables_number   1
_chemical_formula_structural   Hf6FeCl15
_chemical_formula_sum   'Hf6 Fe1 Cl15'
_cell_volume   543.06375228
_cell_formula_units_Z   1
loop_
 _symmetry_equiv_pos_site_id
 _symmetry_equiv_pos_as_xyz
  1  'x, y, z'
loop_
 _atom_site_type_symbol
 _atom_site_label
 _atom_site_symmetry_multiplicity
 _atom_site_fract_x
 _atom_site_fract_y
 _atom_site_fract_z
 _atom_site_occupancy
  Hf  Hf0  1  0.763638  0.763638  0.000000  1
  Hf  Hf1  1  0.236362  0.000000  0.236362  1
  Hf  Hf2  1  0.000000  0.236362  0.236362  1
  Hf  Hf3  1  0.236362  0.236362  0.000000  1
  Hf  Hf4  1  0.763638  0.000000  0.763638  1
  Hf  Hf5  1  0.000000  0.763638  0.763638  1
  Fe  Fe6  1  0.000000  0.000000  0.000000  1
  Cl  Cl7  1  0.246155  0.246155  0.492311  1
  Cl  Cl8  1  0.753845  0.000000  0.246155  1
  Cl  Cl9  1  0.000000  0.753845  0.246155  1
  Cl  Cl10  1  0.753845  0.246155  0.000000  1
  Cl  Cl11  1  0.246155  0.492311  0.246155  1
  Cl  Cl12  1  0.000000  0.246155  0.753845  1
  Cl  Cl13  1  0.246155  0.753845  0.000000  1
  Cl  Cl14  1  0.246155  0.000000  0.753845  1
  Cl  Cl15  1  0.492311  0.246155  0.246155  1
  Cl  Cl16  1  0.753845  0.753845  0.507689  1
  Cl  Cl17  1  0.753845  0.507689  0.753845  1
  Cl  Cl18  1  0.507689  0.753845  0.753845  1
  Cl  Cl19  1  0.500000  0.500000  0.000000  1
  Cl  Cl20  1  0.500000  0.000000  0.500000  1
  Cl  Cl21  1  0.000000  0.500000  0.500000  1
