# generated using pymatgen
data_TmLu9Os4
_symmetry_space_group_name_H-M   'P 1'
_cell_length_a   6.22052292
_cell_length_b   7.29482707
_cell_length_c   8.21670767
_cell_angle_alpha   97.06268879
_cell_angle_beta   112.21088105
_cell_angle_gamma   89.98692375
_symmetry_Int_Tables_number   1
_chemical_formula_structural   TmLu9Os4
_chemical_formula_sum   'Tm1 Lu9 Os4'
_cell_volume   342.13498366
_cell_formula_units_Z   1
loop_
 _symmetry_equiv_pos_site_id
 _symmetry_equiv_pos_as_xyz
  1  'x, y, z'
loop_
 _atom_site_type_symbol
 _atom_site_label
 _atom_site_symmetry_multiplicity
 _atom_site_fract_x
 _atom_site_fract_y
 _atom_site_fract_z
 _atom_site_occupancy
  Tm  Tm0  1  0.526837  0.082207  0.818828  1
  Lu  Lu1  1  0.472828  0.917372  0.180666  1
  Lu  Lu2  1  0.707817  0.417518  0.180321  1
  Lu  Lu3  1  0.292673  0.582611  0.820216  1
  Lu  Lu4  1  0.295678  0.319816  0.436759  1
  Lu  Lu5  1  0.704679  0.680611  0.563298  1
  Lu  Lu6  1  0.858208  0.180212  0.563077  1
  Lu  Lu7  1  0.142045  0.819620  0.436557  1
  Lu  Lu8  1  0.080482  0.250293  0.000017  1
  Lu  Lu9  1  0.919530  0.749437  0.000227  1
  Os  Os10  1  0.322160  0.579395  0.218488  1
  Os  Os11  1  0.678247  0.420714  0.780940  1
  Os  Os12  1  0.102316  0.919712  0.781089  1
  Os  Os13  1  0.896500  0.080482  0.219520  1
