# generated using pymatgen
data_NaHf2ZnF11
_symmetry_space_group_name_H-M   'P 1'
_cell_length_a   5.69890790
_cell_length_b   5.69890801
_cell_length_c   7.78940601
_cell_angle_alpha   69.33581157
_cell_angle_beta   69.33580998
_cell_angle_gamma   72.92177979
_symmetry_Int_Tables_number   1
_chemical_formula_structural   NaHf2ZnF11
_chemical_formula_sum   'Na1 Hf2 Zn1 F11'
_cell_volume   217.30376670
_cell_formula_units_Z   1
loop_
 _symmetry_equiv_pos_site_id
 _symmetry_equiv_pos_as_xyz
  1  'x, y, z'
loop_
 _atom_site_type_symbol
 _atom_site_label
 _atom_site_symmetry_multiplicity
 _atom_site_fract_x
 _atom_site_fract_y
 _atom_site_fract_z
 _atom_site_occupancy
  Na  Na0  1  0.000000  0.000000  0.000000  1
  Hf  Hf1  1  0.506081  0.506081  0.763970  1
  Hf  Hf2  1  0.493919  0.493919  0.236030  1
  Zn  Zn3  1  0.000000  0.000000  0.500000  1
  F  F4  1  0.223406  0.809285  0.689093  1
  F  F5  1  0.190715  0.776594  0.310907  1
  F  F6  1  0.776594  0.190715  0.310907  1
  F  F7  1  0.809285  0.223406  0.689093  1
  F  F8  1  0.500000  0.500000  0.500000  1
  F  F9  1  0.669558  0.330442  0.000000  1
  F  F10  1  0.330442  0.669558  0.000000  1
  F  F11  1  0.248804  0.248804  0.349934  1
  F  F12  1  0.751196  0.751196  0.650066  1
  F  F13  1  0.269078  0.269078  0.889450  1
  F  F14  1  0.730922  0.730922  0.110550  1
