# generated using pymatgen
data_La2Nd2IrI5
_symmetry_space_group_name_H-M   'P 1'
_cell_length_a   10.07942393
_cell_length_b   10.07942387
_cell_length_c   9.40593600
_cell_angle_alpha   77.02096651
_cell_angle_beta   77.02096657
_cell_angle_gamma   25.43017659
_symmetry_Int_Tables_number   1
_chemical_formula_structural   La2Nd2IrI5
_chemical_formula_sum   'La2 Nd2 Ir1 I5'
_cell_volume   399.31806457
_cell_formula_units_Z   1
loop_
 _symmetry_equiv_pos_site_id
 _symmetry_equiv_pos_as_xyz
  1  'x, y, z'
loop_
 _atom_site_type_symbol
 _atom_site_label
 _atom_site_symmetry_multiplicity
 _atom_site_fract_x
 _atom_site_fract_y
 _atom_site_fract_z
 _atom_site_occupancy
  La  La0  1  0.861565  0.861565  0.071848  1
  La  La1  1  0.138435  0.138435  0.928152  1
  Nd  Nd2  1  0.500663  0.500663  0.213845  1
  Nd  Nd3  1  0.499337  0.499337  0.786155  1
  Ir  Ir4  1  0.000000  0.000000  0.000000  1
  I  I5  1  0.672995  0.672995  0.169417  1
  I  I6  1  0.327005  0.327005  0.830583  1
  I  I7  1  0.666545  0.666545  0.660796  1
  I  I8  1  0.333455  0.333455  0.339204  1
  I  I9  1  0.000000  0.000000  0.500000  1
