# generated using pymatgen
data_Dy2HoTiAl11Ru4
_symmetry_space_group_name_H-M   'P 1'
_cell_length_a   8.84336308
_cell_length_b   8.84336251
_cell_length_c   9.53002900
_cell_angle_alpha   90.00002418
_cell_angle_beta   89.99997502
_cell_angle_gamma   120.01569874
_symmetry_Int_Tables_number   1
_chemical_formula_structural   Dy2HoTiAl11Ru4
_chemical_formula_sum   'Dy4 Ho2 Ti2 Al22 Ru8'
_cell_volume   645.34361145
_cell_formula_units_Z   2
loop_
 _symmetry_equiv_pos_site_id
 _symmetry_equiv_pos_as_xyz
  1  'x, y, z'
loop_
 _atom_site_type_symbol
 _atom_site_label
 _atom_site_symmetry_multiplicity
 _atom_site_fract_x
 _atom_site_fract_y
 _atom_site_fract_z
 _atom_site_occupancy
  Dy  Dy0  1  0.193709  0.387461  0.251065  1
  Dy  Dy1  1  0.806291  0.612539  0.748935  1
  Dy  Dy2  1  0.612539  0.806291  0.251065  1
  Dy  Dy3  1  0.387461  0.193709  0.748935  1
  Ho  Ho4  1  0.193912  0.806088  0.251026  1
  Ho  Ho5  1  0.806088  0.193912  0.748974  1
  Ti  Ti6  1  0.333300  0.666700  0.997480  1
  Ti  Ti7  1  0.666700  0.333300  0.002520  1
  Al  Al8  1  0.666710  0.333290  0.516706  1
  Al  Al9  1  0.333290  0.666710  0.483294  1
  Al  Al10  1  0.161385  0.322945  0.577409  1
  Al  Al11  1  0.838615  0.677055  0.422591  1
  Al  Al12  1  0.677055  0.838615  0.577409  1
  Al  Al13  1  0.840866  0.681571  0.077218  1
  Al  Al14  1  0.322945  0.161385  0.422591  1
  Al  Al15  1  0.159134  0.318429  0.922782  1
  Al  Al16  1  0.161484  0.838516  0.577276  1
  Al  Al17  1  0.318429  0.159134  0.077218  1
  Al  Al18  1  0.838516  0.161484  0.422724  1
  Al  Al19  1  0.681571  0.840866  0.922782  1
  Al  Al20  1  0.840765  0.159235  0.077073  1
  Al  Al21  1  0.159235  0.840765  0.922927  1
  Al  Al22  1  0.560769  0.121731  0.251975  1
  Al  Al23  1  0.439231  0.878269  0.748025  1
  Al  Al24  1  0.878269  0.439231  0.251975  1
  Al  Al25  1  0.121731  0.560769  0.748025  1
  Al  Al26  1  0.560959  0.439041  0.251999  1
  Al  Al27  1  0.439041  0.560959  0.748001  1
  Al  Al28  1  0.000115  0.999885  0.250480  1
  Al  Al29  1  0.999885  0.000115  0.749520  1
  Ru  Ru30  1  0.500000  0.000000  0.000000  1
  Ru  Ru31  1  0.000000  0.500000  0.000000  1
  Ru  Ru32  1  0.500000  0.000000  0.500000  1
  Ru  Ru33  1  0.500000  0.500000  0.000000  1
  Ru  Ru34  1  0.000000  0.500000  0.500000  1
  Ru  Ru35  1  0.500000  0.500000  0.500000  1
  Ru  Ru36  1  0.000000  0.000000  0.000000  1
  Ru  Ru37  1  0.000000  0.000000  0.500000  1
