# generated using pymatgen
data_TmLu9Si5Sn
_symmetry_space_group_name_H-M   'P 1'
_cell_length_a   8.32176300
_cell_length_b   8.34532921
_cell_length_c   6.20960700
_cell_angle_alpha   90.00000000
_cell_angle_beta   90.00000000
_cell_angle_gamma   119.90663462
_symmetry_Int_Tables_number   1
_chemical_formula_structural   TmLu9Si5Sn
_chemical_formula_sum   'Tm1 Lu9 Si5 Sn1'
_cell_volume   373.81901131
_cell_formula_units_Z   1
loop_
 _symmetry_equiv_pos_site_id
 _symmetry_equiv_pos_as_xyz
  1  'x, y, z'
loop_
 _atom_site_type_symbol
 _atom_site_label
 _atom_site_symmetry_multiplicity
 _atom_site_fract_x
 _atom_site_fract_y
 _atom_site_fract_z
 _atom_site_occupancy
  Tm  Tm0  1  0.766209  0.000000  0.750000  1
  Lu  Lu1  1  0.673532  0.341970  0.003055  1
  Lu  Lu2  1  0.331560  0.658030  0.496945  1
  Lu  Lu3  1  0.331560  0.658030  0.003055  1
  Lu  Lu4  1  0.673532  0.341970  0.496945  1
  Lu  Lu5  1  0.757242  0.758192  0.250000  1
  Lu  Lu6  1  0.999050  0.241808  0.250000  1
  Lu  Lu7  1  0.989445  0.750102  0.750000  1
  Lu  Lu8  1  0.239342  0.249898  0.750000  1
  Lu  Lu9  1  0.239744  0.000000  0.250000  1
  Si  Si10  1  0.394009  0.392784  0.250000  1
  Si  Si11  1  0.001225  0.607216  0.250000  1
  Si  Si12  1  0.999095  0.395160  0.750000  1
  Si  Si13  1  0.603936  0.604840  0.750000  1
  Si  Si14  1  0.605494  0.000000  0.250000  1
  Sn  Sn15  1  0.395025  0.000000  0.750000  1
