# generated using pymatgen
data_Ce4HoCo19(Si3P)3
_symmetry_space_group_name_H-M   'P 1'
_cell_length_a   12.21571500
_cell_length_b   12.21571567
_cell_length_c   3.73758600
_cell_angle_alpha   90.00000000
_cell_angle_beta   90.00000000
_cell_angle_gamma   120.00000089
_symmetry_Int_Tables_number   1
_chemical_formula_structural   Ce4HoCo19(Si3P)3
_chemical_formula_sum   'Ce4 Ho1 Co19 Si9 P3'
_cell_volume   483.01390074
_cell_formula_units_Z   1
loop_
 _symmetry_equiv_pos_site_id
 _symmetry_equiv_pos_as_xyz
  1  'x, y, z'
loop_
 _atom_site_type_symbol
 _atom_site_label
 _atom_site_symmetry_multiplicity
 _atom_site_fract_x
 _atom_site_fract_y
 _atom_site_fract_z
 _atom_site_occupancy
  Ce  Ce0  1  0.333333  0.666667  0.000000  1
  Ce  Ce1  1  0.185354  0.185091  0.500000  1
  Ce  Ce2  1  0.814909  0.000263  0.500000  1
  Ce  Ce3  1  0.999737  0.814646  0.500000  1
  Ho  Ho4  1  0.666667  0.333333  0.000000  1
  Co  Co5  1  0.822594  0.196299  0.000000  1
  Co  Co6  1  0.803701  0.626294  0.000000  1
  Co  Co7  1  0.373706  0.177406  0.000000  1
  Co  Co8  1  0.196629  0.823853  0.000000  1
  Co  Co9  1  0.627223  0.803371  0.000000  1
  Co  Co10  1  0.176147  0.372777  0.000000  1
  Co  Co11  1  0.560293  0.559331  0.000000  1
  Co  Co12  1  0.440669  0.000961  0.000000  1
  Co  Co13  1  0.999039  0.439707  0.000000  1
  Co  Co14  1  0.643080  0.122899  0.500000  1
  Co  Co15  1  0.877101  0.520181  0.500000  1
  Co  Co16  1  0.479819  0.356920  0.500000  1
  Co  Co17  1  0.124037  0.643760  0.500000  1
  Co  Co18  1  0.519723  0.875963  0.500000  1
  Co  Co19  1  0.356240  0.480277  0.500000  1
  Co  Co20  1  0.722288  0.720628  0.500000  1
  Co  Co21  1  0.279372  0.001659  0.500000  1
  Co  Co22  1  0.998341  0.277712  0.500000  1
  Co  Co23  1  0.000000  0.000000  0.000000  1
  Si  Si24  1  0.373585  0.373580  0.000000  1
  Si  Si25  1  0.626420  0.000004  0.000000  1
  Si  Si26  1  0.999996  0.626415  0.000000  1
  Si  Si27  1  0.838052  0.317107  0.500000  1
  Si  Si28  1  0.682893  0.520946  0.500000  1
  Si  Si29  1  0.479054  0.161948  0.500000  1
  Si  Si30  1  0.318046  0.842080  0.500000  1
  Si  Si31  1  0.524035  0.681954  0.500000  1
  Si  Si32  1  0.157920  0.475965  0.500000  1
  P  P33  1  0.815764  0.815239  0.000000  1
  P  P34  1  0.184761  0.000524  0.000000  1
  P  P35  1  0.999476  0.184236  0.000000  1
