# generated using pymatgen
data_Gd8Er3Tm9Pt16
_symmetry_space_group_name_H-M   'P 1'
_cell_length_a   7.42254007
_cell_length_b   7.51909212
_cell_length_c   14.62547900
_cell_angle_alpha   89.99230376
_cell_angle_beta   90.00761109
_cell_angle_gamma   89.99312775
_symmetry_Int_Tables_number   1
_chemical_formula_structural   Gd8Er3Tm9Pt16
_chemical_formula_sum   'Gd8 Er3 Tm9 Pt16'
_cell_volume   816.25911493
_cell_formula_units_Z   1
loop_
 _symmetry_equiv_pos_site_id
 _symmetry_equiv_pos_as_xyz
  1  'x, y, z'
loop_
 _atom_site_type_symbol
 _atom_site_label
 _atom_site_symmetry_multiplicity
 _atom_site_fract_x
 _atom_site_fract_y
 _atom_site_fract_z
 _atom_site_occupancy
  Gd  Gd0  1  0.499924  0.678647  0.592368  1
  Gd  Gd1  1  0.001464  0.820443  0.907649  1
  Gd  Gd2  1  0.499446  0.321363  0.093601  1
  Gd  Gd3  1  0.999367  0.179274  0.406820  1
  Gd  Gd4  1  0.499791  0.322442  0.406666  1
  Gd  Gd5  1  0.000171  0.180044  0.093221  1
  Gd  Gd6  1  0.498965  0.678945  0.907793  1
  Gd  Gd7  1  0.001055  0.819473  0.592584  1
  Er  Er8  1  0.656220  0.167846  0.622323  1
  Er  Er9  1  0.157008  0.332592  0.877339  1
  Er  Er10  1  0.343907  0.832257  0.123573  1
  Tm  Tm11  1  0.843694  0.667402  0.376351  1
  Tm  Tm12  1  0.344016  0.831948  0.376446  1
  Tm  Tm13  1  0.843000  0.667271  0.123421  1
  Tm  Tm14  1  0.656001  0.168079  0.877379  1
  Tm  Tm15  1  0.156972  0.332621  0.622850  1
  Tm  Tm16  1  0.819649  0.508912  0.749977  1
  Tm  Tm17  1  0.319836  0.990521  0.749801  1
  Tm  Tm18  1  0.180158  0.491389  0.249833  1
  Tm  Tm19  1  0.680455  0.009038  0.249913  1
  Pt  Pt20  1  0.681084  0.963945  0.457365  1
  Pt  Pt21  1  0.183863  0.533542  0.042770  1
  Pt  Pt22  1  0.318202  0.034223  0.959027  1
  Pt  Pt23  1  0.817225  0.466896  0.541529  1
  Pt  Pt24  1  0.318200  0.033307  0.541753  1
  Pt  Pt25  1  0.816231  0.465928  0.959154  1
  Pt  Pt26  1  0.682070  0.966661  0.043045  1
  Pt  Pt27  1  0.182986  0.535196  0.457872  1
  Pt  Pt28  1  0.454176  0.385698  0.749619  1
  Pt  Pt29  1  0.953815  0.115697  0.749891  1
  Pt  Pt30  1  0.545566  0.614827  0.249830  1
  Pt  Pt31  1  0.046394  0.883505  0.250034  1
  Pt  Pt32  1  0.681836  0.856725  0.749773  1
  Pt  Pt33  1  0.183347  0.642209  0.749916  1
  Pt  Pt34  1  0.317921  0.142805  0.249265  1
  Pt  Pt35  1  0.815987  0.358331  0.249245  1
