# generated using pymatgen
data_TbPrV3P7Rh9
_symmetry_space_group_name_H-M   'P 1'
_cell_length_a   3.88453301
_cell_length_b   9.60547757
_cell_length_c   9.57537852
_cell_angle_alpha   119.88772298
_cell_angle_beta   89.99958412
_cell_angle_gamma   90.00871043
_symmetry_Int_Tables_number   1
_chemical_formula_structural   TbPrV3P7Rh9
_chemical_formula_sum   'Tb1 Pr1 V3 P7 Rh9'
_cell_volume   309.76660435
_cell_formula_units_Z   1
loop_
 _symmetry_equiv_pos_site_id
 _symmetry_equiv_pos_as_xyz
  1  'x, y, z'
loop_
 _atom_site_type_symbol
 _atom_site_label
 _atom_site_symmetry_multiplicity
 _atom_site_fract_x
 _atom_site_fract_y
 _atom_site_fract_z
 _atom_site_occupancy
  Tb  Tb0  1  0.761806  0.333405  0.666634  1
  Pr  Pr1  1  0.262089  0.667044  0.333475  1
  V  V2  1  0.761956  0.092543  0.878441  1
  V  V3  1  0.761957  0.121943  0.214847  1
  V  V4  1  0.761923  0.784682  0.907535  1
  P  P5  1  0.261955  0.999481  0.999549  1
  P  P6  1  0.761908  0.889992  0.601646  1
  P  P7  1  0.761922  0.399411  0.288309  1
  P  P8  1  0.761888  0.711731  0.108768  1
  P  P9  1  0.261828  0.115939  0.412633  1
  P  P10  1  0.261804  0.587638  0.703972  1
  P  P11  1  0.261820  0.296547  0.883905  1
  Rh  Rh12  1  0.261931  0.886155  0.158254  1
  Rh  Rh13  1  0.261949  0.841234  0.727201  1
  Rh  Rh14  1  0.261937  0.272003  0.113998  1
  Rh  Rh15  1  0.761886  0.610587  0.565696  1
  Rh  Rh16  1  0.761908  0.434703  0.045471  1
  Rh  Rh17  1  0.761896  0.954683  0.389468  1
  Rh  Rh18  1  0.261863  0.366316  0.435889  1
  Rh  Rh19  1  0.261883  0.564234  0.930356  1
  Rh  Rh20  1  0.261893  0.069727  0.633952  1
