# generated using pymatgen
data_LaHo2Mg3Si2Ag
_symmetry_space_group_name_H-M   'P 1'
_cell_length_a   7.38497934
_cell_length_b   7.38498076
_cell_length_c   4.37668900
_cell_angle_alpha   90.00000000
_cell_angle_beta   90.00000000
_cell_angle_gamma   120.70512880
_symmetry_Int_Tables_number   1
_chemical_formula_structural   LaHo2Mg3Si2Ag
_chemical_formula_sum   'La1 Ho2 Mg3 Si2 Ag1'
_cell_volume   205.23200968
_cell_formula_units_Z   1
loop_
 _symmetry_equiv_pos_site_id
 _symmetry_equiv_pos_as_xyz
  1  'x, y, z'
loop_
 _atom_site_type_symbol
 _atom_site_label
 _atom_site_symmetry_multiplicity
 _atom_site_fract_x
 _atom_site_fract_y
 _atom_site_fract_z
 _atom_site_occupancy
  La  La0  1  0.423033  0.423033  0.000000  1
  Ho  Ho1  1  0.579094  0.002502  0.000000  1
  Ho  Ho2  1  0.002502  0.579094  0.000000  1
  Mg  Mg3  1  0.247111  0.996294  0.500000  1
  Mg  Mg4  1  0.996294  0.247111  0.500000  1
  Mg  Mg5  1  0.756747  0.756747  0.500000  1
  Si  Si6  1  0.330719  0.672387  0.500000  1
  Si  Si7  1  0.672387  0.330719  0.500000  1
  Ag  Ag8  1  0.992112  0.992112  0.000000  1
