# generated using pymatgen
data_Tb12Th4CdHg3Ir4
_symmetry_space_group_name_H-M   'P 1'
_cell_length_a   9.76479174
_cell_length_b   9.75764639
_cell_length_c   9.75764700
_cell_angle_alpha   60.00000134
_cell_angle_beta   60.02420435
_cell_angle_gamma   60.02420599
_symmetry_Int_Tables_number   1
_chemical_formula_structural   Tb12Th4CdHg3Ir4
_chemical_formula_sum   'Tb12 Th4 Cd1 Hg3 Ir4'
_cell_volume   657.65324130
_cell_formula_units_Z   1
loop_
 _symmetry_equiv_pos_site_id
 _symmetry_equiv_pos_as_xyz
  1  'x, y, z'
loop_
 _atom_site_type_symbol
 _atom_site_label
 _atom_site_symmetry_multiplicity
 _atom_site_fract_x
 _atom_site_fract_y
 _atom_site_fract_z
 _atom_site_occupancy
  Tb  Tb0  1  0.060698  0.439104  0.439104  1
  Tb  Tb1  1  0.437698  0.061637  0.061637  1
  Tb  Tb2  1  0.437698  0.061637  0.439027  1
  Tb  Tb3  1  0.060698  0.439104  0.061095  1
  Tb  Tb4  1  0.437698  0.439027  0.061637  1
  Tb  Tb5  1  0.060698  0.061095  0.439104  1
  Tb  Tb6  1  0.183355  0.815511  0.815511  1
  Tb  Tb7  1  0.813541  0.185961  0.185961  1
  Tb  Tb8  1  0.813541  0.185961  0.814536  1
  Tb  Tb9  1  0.183355  0.815511  0.185623  1
  Tb  Tb10  1  0.813541  0.814536  0.185961  1
  Tb  Tb11  1  0.183355  0.185623  0.815511  1
  Th  Th12  1  0.599969  0.599723  0.599723  1
  Th  Th13  1  0.599969  0.599723  0.200585  1
  Th  Th14  1  0.599969  0.200585  0.599723  1
  Th  Th15  1  0.200344  0.599885  0.599885  1
  Cd  Cd16  1  0.502178  0.832607  0.832607  1
  Hg  Hg17  1  0.836648  0.837112  0.837112  1
  Hg  Hg18  1  0.836648  0.837112  0.489129  1
  Hg  Hg19  1  0.836648  0.489129  0.837112  1
  Ir  Ir20  1  0.393765  0.392912  0.392912  1
  Ir  Ir21  1  0.393765  0.392912  0.820412  1
  Ir  Ir22  1  0.393765  0.820412  0.392912  1
  Ir  Ir23  1  0.820456  0.393182  0.393182  1
