# generated using pymatgen
data_LaEuU2(NiP)4
_symmetry_space_group_name_H-M   'P 1'
_cell_length_a   3.93932100
_cell_length_b   3.93932033
_cell_length_c   15.88692500
_cell_angle_alpha   90.00000000
_cell_angle_beta   90.00000000
_cell_angle_gamma   120.00001400
_symmetry_Int_Tables_number   1
_chemical_formula_structural   LaEuU2(NiP)4
_chemical_formula_sum   'La1 Eu1 U2 Ni4 P4'
_cell_volume   213.50747503
_cell_formula_units_Z   1
loop_
 _symmetry_equiv_pos_site_id
 _symmetry_equiv_pos_as_xyz
  1  'x, y, z'
loop_
 _atom_site_type_symbol
 _atom_site_label
 _atom_site_symmetry_multiplicity
 _atom_site_fract_x
 _atom_site_fract_y
 _atom_site_fract_z
 _atom_site_occupancy
  La  La0  1  0.000000  0.000000  0.750000  1
  Eu  Eu1  1  0.000000  0.000000  0.250000  1
  U  U2  1  0.000000  0.000000  0.498951  1
  U  U3  1  0.000000  0.000000  0.001049  1
  Ni  Ni4  1  0.333333  0.666667  0.395711  1
  Ni  Ni5  1  0.666667  0.333333  0.604132  1
  Ni  Ni6  1  0.666667  0.333333  0.895868  1
  Ni  Ni7  1  0.333333  0.666667  0.104289  1
  P  P8  1  0.333333  0.666667  0.879622  1
  P  P9  1  0.666667  0.333333  0.120240  1
  P  P10  1  0.666667  0.333333  0.379760  1
  P  P11  1  0.333333  0.666667  0.620378  1
