# generated using pymatgen
data_Ho16CdCo2Hg3Ru2
_symmetry_space_group_name_H-M   'P 1'
_cell_length_a   9.57238391
_cell_length_b   9.48255295
_cell_length_c   9.48242214
_cell_angle_alpha   59.53991559
_cell_angle_beta   59.68566483
_cell_angle_gamma   59.68613544
_symmetry_Int_Tables_number   1
_chemical_formula_structural   Ho16CdCo2Hg3Ru2
_chemical_formula_sum   'Ho16 Cd1 Co2 Hg3 Ru2'
_cell_volume   603.60514395
_cell_formula_units_Z   1
loop_
 _symmetry_equiv_pos_site_id
 _symmetry_equiv_pos_as_xyz
  1  'x, y, z'
loop_
 _atom_site_type_symbol
 _atom_site_label
 _atom_site_symmetry_multiplicity
 _atom_site_fract_x
 _atom_site_fract_y
 _atom_site_fract_z
 _atom_site_occupancy
  Ho  Ho0  1  0.939367  0.937915  0.558941  1
  Ho  Ho1  1  0.811392  0.188364  0.188852  1
  Ho  Ho2  1  0.936957  0.562909  0.563178  1
  Ho  Ho3  1  0.938263  0.558885  0.939126  1
  Ho  Ho4  1  0.815369  0.806452  0.187539  1
  Ho  Ho5  1  0.340446  0.349765  0.349585  1
  Ho  Ho6  1  0.558822  0.940392  0.941964  1
  Ho  Ho7  1  0.563777  0.937915  0.558941  1
  Ho  Ho8  1  0.190206  0.809620  0.809968  1
  Ho  Ho9  1  0.190380  0.186749  0.807060  1
  Ho  Ho10  1  0.344185  0.354075  0.957556  1
  Ho  Ho11  1  0.344969  0.955581  0.354482  1
  Ho  Ho12  1  0.815812  0.186749  0.807060  1
  Ho  Ho13  1  0.563726  0.558885  0.939126  1
  Ho  Ho14  1  0.190640  0.806452  0.187539  1
  Ho  Ho15  1  0.960206  0.349765  0.349585  1
  Cd  Cd16  1  0.580669  0.259635  0.579028  1
  Co  Co17  1  0.138631  0.579708  0.143032  1
  Co  Co18  1  0.138738  0.142678  0.579848  1
  Hg  Hg19  1  0.585408  0.582034  0.247150  1
  Hg  Hg20  1  0.247816  0.582347  0.584107  1
  Hg  Hg21  1  0.585731  0.582347  0.584107  1
  Ru  Ru22  1  0.579821  0.140392  0.141116  1
  Ru  Ru23  1  0.138670  0.140392  0.141116  1
