# generated using pymatgen
data_Li3NdP2Pd
_symmetry_space_group_name_H-M   'P 1'
_cell_length_a   7.91706880
_cell_length_b   7.91706877
_cell_length_c   7.91706892
_cell_angle_alpha   30.78721020
_cell_angle_beta   30.78721138
_cell_angle_gamma   30.78721956
_symmetry_Int_Tables_number   1
_chemical_formula_structural   Li3NdP2Pd
_chemical_formula_sum   'Li3 Nd1 P2 Pd1'
_cell_volume   115.29766586
_cell_formula_units_Z   1
loop_
 _symmetry_equiv_pos_site_id
 _symmetry_equiv_pos_as_xyz
  1  'x, y, z'
loop_
 _atom_site_type_symbol
 _atom_site_label
 _atom_site_symmetry_multiplicity
 _atom_site_fract_x
 _atom_site_fract_y
 _atom_site_fract_z
 _atom_site_occupancy
  Li  Li0  1  0.141412  0.141412  0.141412  1
  Li  Li1  1  0.563256  0.563256  0.563256  1
  Li  Li2  1  0.860076  0.860076  0.860076  1
  Nd  Nd3  1  0.003243  0.003243  0.003243  1
  P  P4  1  0.749725  0.749725  0.749725  1
  P  P5  1  0.253640  0.253640  0.253640  1
  Pd  Pd6  1  0.428649  0.428649  0.428649  1
