# generated using pymatgen
data_Ta8Ti3Nb(BOs)12
_symmetry_space_group_name_H-M   'P 1'
_cell_length_a   3.10230200
_cell_length_b   9.05364636
_cell_length_c   15.71094329
_cell_angle_alpha   90.00702827
_cell_angle_beta   90.00000000
_cell_angle_gamma   90.00000000
_symmetry_Int_Tables_number   1
_chemical_formula_structural   Ta8Ti3Nb(BOs)12
_chemical_formula_sum   'Ta8 Ti3 Nb1 B12 Os12'
_cell_volume   441.27554228
_cell_formula_units_Z   1
loop_
 _symmetry_equiv_pos_site_id
 _symmetry_equiv_pos_as_xyz
  1  'x, y, z'
loop_
 _atom_site_type_symbol
 _atom_site_label
 _atom_site_symmetry_multiplicity
 _atom_site_fract_x
 _atom_site_fract_y
 _atom_site_fract_z
 _atom_site_occupancy
  Ta  Ta0  1  0.000000  0.698608  0.995334  1
  Ta  Ta1  1  0.000000  0.516769  0.593185  1
  Ta  Ta2  1  0.000000  0.483769  0.407004  1
  Ta  Ta3  1  0.000000  0.016717  0.906103  1
  Ta  Ta4  1  0.000000  0.984610  0.093800  1
  Ta  Ta5  1  0.000000  0.686542  0.203946  1
  Ta  Ta6  1  0.000000  0.311687  0.795874  1
  Ta  Ta7  1  0.000000  0.186594  0.297305  1
  Ti  Ti8  1  0.000000  0.803293  0.494138  1
  Ti  Ti9  1  0.000000  0.197645  0.505512  1
  Ti  Ti10  1  0.000000  0.300821  0.005590  1
  Nb  Nb11  1  0.000000  0.812033  0.700950  1
  B  B12  1  0.500000  0.609907  0.495632  1
  B  B13  1  0.500000  0.390781  0.504300  1
  B  B14  1  0.500000  0.109408  0.003759  1
  B  B15  1  0.500000  0.894537  0.996716  1
  B  B16  1  0.000000  0.606017  0.834439  1
  B  B17  1  0.000000  0.389835  0.166065  1
  B  B18  1  0.000000  0.106536  0.663391  1
  B  B19  1  0.000000  0.893523  0.336177  1
  B  B20  1  0.500000  0.718366  0.594951  1
  B  B21  1  0.500000  0.282482  0.403879  1
  B  B22  1  0.500000  0.218805  0.903939  1
  B  B23  1  0.500000  0.784705  0.098670  1
  Os  Os24  1  0.500000  0.718983  0.357811  1
  Os  Os25  1  0.500000  0.281414  0.641729  1
  Os  Os26  1  0.500000  0.218715  0.142528  1
  Os  Os27  1  0.500000  0.781400  0.855867  1
  Os  Os28  1  0.500000  0.516487  0.094284  1
  Os  Os29  1  0.500000  0.480062  0.907241  1
  Os  Os30  1  0.500000  0.019933  0.407215  1
  Os  Os31  1  0.500000  0.981556  0.591890  1
  Os  Os32  1  0.500000  0.560636  0.734676  1
  Os  Os33  1  0.500000  0.436607  0.266065  1
  Os  Os34  1  0.500000  0.062951  0.765240  1
  Os  Os35  1  0.500000  0.937268  0.234791  1
