# generated using pymatgen
data_VSeI
_symmetry_space_group_name_H-M   'P 1'
_cell_length_a   7.49576706
_cell_length_b   7.49576730
_cell_length_c   7.49576800
_cell_angle_alpha   60.00000576
_cell_angle_beta   60.00000467
_cell_angle_gamma   60.00000930
_symmetry_Int_Tables_number   1
_chemical_formula_structural   VSeI
_chemical_formula_sum   'V4 Se4 I4'
_cell_volume   297.80595730
_cell_formula_units_Z   4
loop_
 _symmetry_equiv_pos_site_id
 _symmetry_equiv_pos_as_xyz
  1  'x, y, z'
loop_
 _atom_site_type_symbol
 _atom_site_label
 _atom_site_symmetry_multiplicity
 _atom_site_fract_x
 _atom_site_fract_y
 _atom_site_fract_z
 _atom_site_occupancy
  V  V0  1  0.348341  0.348341  0.348341  1
  V  V1  1  0.348341  0.348341  0.954978  1
  V  V2  1  0.348341  0.954978  0.348341  1
  V  V3  1  0.954978  0.348341  0.348341  1
  Se  Se4  1  0.122520  0.122520  0.122520  1
  Se  Se5  1  0.122520  0.122520  0.632440  1
  Se  Se6  1  0.122520  0.632440  0.122520  1
  Se  Se7  1  0.632440  0.122520  0.122520  1
  I  I8  1  0.622037  0.622037  0.622037  1
  I  I9  1  0.622037  0.622037  0.133887  1
  I  I10  1  0.622037  0.133887  0.622037  1
  I  I11  1  0.133887  0.622037  0.622037  1
