# generated using pymatgen
data_Pr2Dy2Y2CoI10
_symmetry_space_group_name_H-M   'P 1'
_cell_length_a   7.80873157
_cell_length_b   9.82345576
_cell_length_c   9.82443982
_cell_angle_alpha   106.86627147
_cell_angle_beta   96.05037634
_cell_angle_gamma   105.18898018
_symmetry_Int_Tables_number   1
_chemical_formula_structural   Pr2Dy2Y2CoI10
_chemical_formula_sum   'Pr2 Dy2 Y2 Co1 I10'
_cell_volume   682.44838247
_cell_formula_units_Z   1
loop_
 _symmetry_equiv_pos_site_id
 _symmetry_equiv_pos_as_xyz
  1  'x, y, z'
loop_
 _atom_site_type_symbol
 _atom_site_label
 _atom_site_symmetry_multiplicity
 _atom_site_fract_x
 _atom_site_fract_y
 _atom_site_fract_z
 _atom_site_occupancy
  Pr  Pr0  1  0.886113  0.957679  0.231394  1
  Pr  Pr1  1  0.113887  0.042321  0.768606  1
  Dy  Dy2  1  0.029647  0.719589  0.915891  1
  Dy  Dy3  1  0.970353  0.280411  0.084109  1
  Y  Y4  1  0.658071  0.877959  0.839127  1
  Y  Y5  1  0.341929  0.122041  0.160873  1
  Co  Co6  1  0.000000  0.000000  0.000000  1
  I  I7  1  0.653209  0.553869  0.731763  1
  I  I8  1  0.346791  0.446131  0.268237  1
  I  I9  1  0.734424  0.911631  0.544177  1
  I  I10  1  0.265576  0.088369  0.455823  1
  I  I11  1  0.082417  0.377612  0.824430  1
  I  I12  1  0.917583  0.622388  0.175570  1
  I  I13  1  0.447569  0.816889  0.089443  1
  I  I14  1  0.552431  0.183111  0.910557  1
  I  I15  1  0.228422  0.739746  0.660202  1
  I  I16  1  0.771578  0.260254  0.339798  1
