# generated using pymatgen
data_Zr10Bi5PbS
_symmetry_space_group_name_H-M   'P 1'
_cell_length_a   5.93911026
_cell_length_b   8.75310519
_cell_length_c   8.73197000
_cell_angle_alpha   119.92014287
_cell_angle_beta   90.10115094
_cell_angle_gamma   89.94931759
_symmetry_Int_Tables_number   1
_chemical_formula_structural   Zr10Bi5PbS
_chemical_formula_sum   'Zr10 Bi5 Pb1 S1'
_cell_volume   393.43649011
_cell_formula_units_Z   1
loop_
 _symmetry_equiv_pos_site_id
 _symmetry_equiv_pos_as_xyz
  1  'x, y, z'
loop_
 _atom_site_type_symbol
 _atom_site_label
 _atom_site_symmetry_multiplicity
 _atom_site_fract_x
 _atom_site_fract_y
 _atom_site_fract_z
 _atom_site_occupancy
  Zr  Zr0  1  0.499483  0.333506  0.666573  1
  Zr  Zr1  1  0.499227  0.666368  0.333140  1
  Zr  Zr2  1  0.001037  0.666459  0.333164  1
  Zr  Zr3  1  0.000587  0.333362  0.666966  1
  Zr  Zr4  1  0.761707  0.244270  0.999727  1
  Zr  Zr5  1  0.760528  0.755314  0.755232  1
  Zr  Zr6  1  0.760553  0.000198  0.243322  1
  Zr  Zr7  1  0.238317  0.755452  0.001079  1
  Zr  Zr8  1  0.238784  0.245116  0.246009  1
  Zr  Zr9  1  0.238907  0.999894  0.755717  1
  Bi  Bi10  1  0.750541  0.605973  0.000292  1
  Bi  Bi11  1  0.750761  0.394154  0.394521  1
  Bi  Bi12  1  0.751466  0.999818  0.603948  1
  Bi  Bi13  1  0.249368  0.393538  0.000021  1
  Bi  Bi14  1  0.248943  0.606394  0.606458  1
  Pb  Pb15  1  0.250499  0.999968  0.393591  1
  S  S16  1  0.499287  0.000222  0.000241  1
