# generated using pymatgen
data_ErLuB(Pt2Rh)2
_symmetry_space_group_name_H-M   'P 1'
_cell_length_a   4.20763200
_cell_length_b   4.20763200
_cell_length_c   8.08750300
_cell_angle_alpha   90.00000000
_cell_angle_beta   90.00000000
_cell_angle_gamma   90.00000000
_symmetry_Int_Tables_number   1
_chemical_formula_structural   ErLuB(Pt2Rh)2
_chemical_formula_sum   'Er1 Lu1 B1 Pt4 Rh2'
_cell_volume   143.18250411
_cell_formula_units_Z   1
loop_
 _symmetry_equiv_pos_site_id
 _symmetry_equiv_pos_as_xyz
  1  'x, y, z'
loop_
 _atom_site_type_symbol
 _atom_site_label
 _atom_site_symmetry_multiplicity
 _atom_site_fract_x
 _atom_site_fract_y
 _atom_site_fract_z
 _atom_site_occupancy
  Er  Er0  1  0.000000  0.000000  0.501617  1
  Lu  Lu1  1  0.000000  0.000000  0.998293  1
  B  B2  1  0.500000  0.500000  0.250062  1
  Pt  Pt3  1  0.500000  0.500000  0.990117  1
  Pt  Pt4  1  0.500000  0.500000  0.510001  1
  Pt  Pt5  1  0.500000  0.000000  0.750595  1
  Pt  Pt6  1  0.000000  0.500000  0.750595  1
  Rh  Rh7  1  0.500000  0.000000  0.249360  1
  Rh  Rh8  1  0.000000  0.500000  0.249360  1
