# generated using pymatgen
data_Er2FeCo16
_symmetry_space_group_name_H-M   'P 1'
_cell_length_a   6.25651572
_cell_length_b   6.25651547
_cell_length_c   6.25651543
_cell_angle_alpha   82.95462907
_cell_angle_beta   82.95463310
_cell_angle_gamma   82.95462399
_symmetry_Int_Tables_number   1
_chemical_formula_structural   Er2FeCo16
_chemical_formula_sum   'Er2 Fe1 Co16'
_cell_volume   239.77653746
_cell_formula_units_Z   1
loop_
 _symmetry_equiv_pos_site_id
 _symmetry_equiv_pos_as_xyz
  1  'x, y, z'
loop_
 _atom_site_type_symbol
 _atom_site_label
 _atom_site_symmetry_multiplicity
 _atom_site_fract_x
 _atom_site_fract_y
 _atom_site_fract_z
 _atom_site_occupancy
  Er  Er0  1  0.344747  0.344747  0.344747  1
  Er  Er1  1  0.656902  0.656902  0.656902  1
  Fe  Fe2  1  0.096005  0.096005  0.096005  1
  Co  Co3  1  0.347643  0.347643  0.848511  1
  Co  Co4  1  0.347643  0.848511  0.347643  1
  Co  Co5  1  0.848511  0.347643  0.347643  1
  Co  Co6  1  0.653287  0.653287  0.152022  1
  Co  Co7  1  0.653287  0.152022  0.653287  1
  Co  Co8  1  0.152022  0.653287  0.653287  1
  Co  Co9  1  0.999371  0.999371  0.501169  1
  Co  Co10  1  0.999371  0.501169  0.999371  1
  Co  Co11  1  0.501169  0.999371  0.999371  1
  Co  Co12  1  0.290331  0.709378  0.999197  1
  Co  Co13  1  0.709378  0.999197  0.290331  1
  Co  Co14  1  0.999197  0.290331  0.709378  1
  Co  Co15  1  0.290331  0.999197  0.709378  1
  Co  Co16  1  0.999197  0.709378  0.290331  1
  Co  Co17  1  0.709378  0.290331  0.999197  1
  Co  Co18  1  0.902234  0.902234  0.902234  1
