# generated using pymatgen
data_Cs6Rb2SnPbBr12
_symmetry_space_group_name_H-M   'P 1'
_cell_length_a   9.92534751
_cell_length_b   9.92534712
_cell_length_c   9.92534691
_cell_angle_alpha   90.49055373
_cell_angle_beta   90.49055186
_cell_angle_gamma   90.49055958
_symmetry_Int_Tables_number   1
_chemical_formula_structural   Cs6Rb2SnPbBr12
_chemical_formula_sum   'Cs6 Rb2 Sn1 Pb1 Br12'
_cell_volume   977.66279979
_cell_formula_units_Z   1
loop_
 _symmetry_equiv_pos_site_id
 _symmetry_equiv_pos_as_xyz
  1  'x, y, z'
loop_
 _atom_site_type_symbol
 _atom_site_label
 _atom_site_symmetry_multiplicity
 _atom_site_fract_x
 _atom_site_fract_y
 _atom_site_fract_z
 _atom_site_occupancy
  Cs  Cs0  1  0.750117  0.128689  0.371093  1
  Cs  Cs1  1  0.371093  0.750117  0.128689  1
  Cs  Cs2  1  0.128689  0.371093  0.750117  1
  Cs  Cs3  1  0.249883  0.871311  0.628907  1
  Cs  Cs4  1  0.628907  0.249883  0.871311  1
  Cs  Cs5  1  0.871311  0.628907  0.249883  1
  Rb  Rb6  1  0.249843  0.249843  0.249843  1
  Rb  Rb7  1  0.750157  0.750157  0.750157  1
  Sn  Sn8  1  0.000000  0.000000  0.000000  1
  Pb  Pb9  1  0.500000  0.500000  0.500000  1
  Br  Br10  1  0.447195  0.575841  0.795332  1
  Br  Br11  1  0.795332  0.447195  0.575841  1
  Br  Br12  1  0.575841  0.795332  0.447195  1
  Br  Br13  1  0.052158  0.707878  0.924916  1
  Br  Br14  1  0.924916  0.052158  0.707878  1
  Br  Br15  1  0.707878  0.924916  0.052158  1
  Br  Br16  1  0.552805  0.424159  0.204668  1
  Br  Br17  1  0.204668  0.552805  0.424159  1
  Br  Br18  1  0.424159  0.204668  0.552805  1
  Br  Br19  1  0.947842  0.292122  0.075084  1
  Br  Br20  1  0.292122  0.075084  0.947842  1
  Br  Br21  1  0.075084  0.947842  0.292122  1
