# generated using pymatgen
data_Pr5SiBi2
_symmetry_space_group_name_H-M   'P 1'
_cell_length_a   12.65048000
_cell_length_b   9.53212800
_cell_length_c   8.38443600
_cell_angle_alpha   90.00000000
_cell_angle_beta   90.00000000
_cell_angle_gamma   90.00000000
_symmetry_Int_Tables_number   1
_chemical_formula_structural   Pr5SiBi2
_chemical_formula_sum   'Pr20 Si4 Bi8'
_cell_volume   1011.04555440
_cell_formula_units_Z   4
loop_
 _symmetry_equiv_pos_site_id
 _symmetry_equiv_pos_as_xyz
  1  'x, y, z'
loop_
 _atom_site_type_symbol
 _atom_site_label
 _atom_site_symmetry_multiplicity
 _atom_site_fract_x
 _atom_site_fract_y
 _atom_site_fract_z
 _atom_site_occupancy
  Pr  Pr0  1  0.060452  0.549591  0.817289  1
  Pr  Pr1  1  0.560452  0.950409  0.682711  1
  Pr  Pr2  1  0.939548  0.049591  0.182711  1
  Pr  Pr3  1  0.439548  0.450409  0.317289  1
  Pr  Pr4  1  0.939548  0.450409  0.182711  1
  Pr  Pr5  1  0.439548  0.049591  0.317289  1
  Pr  Pr6  1  0.060452  0.950409  0.817289  1
  Pr  Pr7  1  0.560452  0.549591  0.682711  1
  Pr  Pr8  1  0.002276  0.750000  0.467740  1
  Pr  Pr9  1  0.502276  0.750000  0.032260  1
  Pr  Pr10  1  0.997724  0.250000  0.532260  1
  Pr  Pr11  1  0.497724  0.250000  0.967740  1
  Pr  Pr12  1  0.213181  0.750000  0.162447  1
  Pr  Pr13  1  0.713181  0.750000  0.337553  1
  Pr  Pr14  1  0.786819  0.250000  0.837553  1
  Pr  Pr15  1  0.286819  0.250000  0.662447  1
  Pr  Pr16  1  0.294312  0.750000  0.635488  1
  Pr  Pr17  1  0.794312  0.750000  0.864512  1
  Pr  Pr18  1  0.705688  0.250000  0.364512  1
  Pr  Pr19  1  0.205688  0.250000  0.135488  1
  Si  Si20  1  0.478223  0.750000  0.414043  1
  Si  Si21  1  0.978223  0.750000  0.085957  1
  Si  Si22  1  0.521777  0.250000  0.585957  1
  Si  Si23  1  0.021777  0.250000  0.914043  1
  Bi  Bi24  1  0.325073  0.509707  0.927994  1
  Bi  Bi25  1  0.825073  0.990293  0.572006  1
  Bi  Bi26  1  0.674927  0.009707  0.072006  1
  Bi  Bi27  1  0.174927  0.490293  0.427994  1
  Bi  Bi28  1  0.674927  0.490293  0.072006  1
  Bi  Bi29  1  0.174927  0.009707  0.427994  1
  Bi  Bi30  1  0.325073  0.990293  0.927994  1
  Bi  Bi31  1  0.825073  0.509707  0.572006  1
