# generated using pymatgen
data_Pr4Eu5Rh6
_symmetry_space_group_name_H-M   'P 1'
_cell_length_a   7.66953537
_cell_length_b   7.68617716
_cell_length_c   7.71859200
_cell_angle_alpha   70.32313321
_cell_angle_beta   70.56201434
_cell_angle_gamma   70.90011788
_symmetry_Int_Tables_number   1
_chemical_formula_structural   Pr4Eu5Rh6
_chemical_formula_sum   'Pr4 Eu5 Rh6'
_cell_volume   391.97627559
_cell_formula_units_Z   1
loop_
 _symmetry_equiv_pos_site_id
 _symmetry_equiv_pos_as_xyz
  1  'x, y, z'
loop_
 _atom_site_type_symbol
 _atom_site_label
 _atom_site_symmetry_multiplicity
 _atom_site_fract_x
 _atom_site_fract_y
 _atom_site_fract_z
 _atom_site_occupancy
  Pr  Pr0  1  0.396932  0.671751  0.152321  1
  Pr  Pr1  1  0.848610  0.602750  0.327120  1
  Pr  Pr2  1  0.328919  0.845928  0.605634  1
  Pr  Pr3  1  0.604172  0.327849  0.845173  1
  Eu  Eu4  1  0.998006  0.003916  0.999078  1
  Eu  Eu5  1  0.801659  0.801202  0.796969  1
  Eu  Eu6  1  0.199619  0.197367  0.199374  1
  Eu  Eu7  1  0.154605  0.399378  0.668490  1
  Eu  Eu8  1  0.666913  0.157222  0.398639  1
  Rh  Rh9  1  0.952333  0.171776  0.586201  1
  Rh  Rh10  1  0.587384  0.946933  0.173511  1
  Rh  Rh11  1  0.174799  0.584850  0.953327  1
  Rh  Rh12  1  0.053413  0.828681  0.410263  1
  Rh  Rh13  1  0.412250  0.041164  0.836461  1
  Rh  Rh14  1  0.820385  0.419233  0.047441  1
