# generated using pymatgen
data_Cs3Tb2I9
_symmetry_space_group_name_H-M   'P 1'
_cell_length_a   8.66379117
_cell_length_b   8.66379064
_cell_length_c   22.33208499
_cell_angle_alpha   87.98043239
_cell_angle_beta   87.98043876
_cell_angle_gamma   119.65217954
_symmetry_Int_Tables_number   1
_chemical_formula_structural   Cs3Tb2I9
_chemical_formula_sum   'Cs6 Tb4 I18'
_cell_volume   1453.17270020
_cell_formula_units_Z   2
loop_
 _symmetry_equiv_pos_site_id
 _symmetry_equiv_pos_as_xyz
  1  'x, y, z'
loop_
 _atom_site_type_symbol
 _atom_site_label
 _atom_site_symmetry_multiplicity
 _atom_site_fract_x
 _atom_site_fract_y
 _atom_site_fract_z
 _atom_site_occupancy
  Cs  Cs0  1  0.990833  0.009167  0.750000  1
  Cs  Cs1  1  0.681719  0.339465  0.057686  1
  Cs  Cs2  1  0.009167  0.990833  0.250000  1
  Cs  Cs3  1  0.339465  0.681719  0.557686  1
  Cs  Cs4  1  0.318281  0.660535  0.942314  1
  Cs  Cs5  1  0.660535  0.318281  0.442314  1
  Tb  Tb6  1  0.645715  0.314586  0.658248  1
  Tb  Tb7  1  0.354285  0.685414  0.341752  1
  Tb  Tb8  1  0.314586  0.645715  0.158248  1
  Tb  Tb9  1  0.685414  0.354285  0.841752  1
  I  I10  1  0.634224  0.799189  0.073849  1
  I  I11  1  0.365776  0.200811  0.926151  1
  I  I12  1  0.508293  0.015712  0.765086  1
  I  I13  1  0.206523  0.873467  0.411678  1
  I  I14  1  0.873467  0.206523  0.911678  1
  I  I15  1  0.799189  0.634224  0.573849  1
  I  I16  1  0.793477  0.126533  0.588322  1
  I  I17  1  0.296938  0.132293  0.602613  1
  I  I18  1  0.491707  0.984288  0.234914  1
  I  I19  1  0.984288  0.491707  0.734914  1
  I  I20  1  0.126533  0.793477  0.088322  1
  I  I21  1  0.015712  0.508293  0.265086  1
  I  I22  1  0.506269  0.493731  0.750000  1
  I  I23  1  0.867707  0.703062  0.897387  1
  I  I24  1  0.132293  0.296938  0.102613  1
  I  I25  1  0.703062  0.867707  0.397387  1
  I  I26  1  0.493731  0.506269  0.250000  1
  I  I27  1  0.200811  0.365776  0.426151  1
