# generated using pymatgen
data_CaDy6RhI12
_symmetry_space_group_name_H-M   'P 1'
_cell_length_a   9.81805111
_cell_length_b   9.81805201
_cell_length_c   9.81805272
_cell_angle_alpha   107.16279796
_cell_angle_beta   107.16279475
_cell_angle_gamma   107.16279751
_symmetry_Int_Tables_number   1
_chemical_formula_structural   CaDy6RhI12
_chemical_formula_sum   'Ca1 Dy6 Rh1 I12'
_cell_volume   784.64671777
_cell_formula_units_Z   1
loop_
 _symmetry_equiv_pos_site_id
 _symmetry_equiv_pos_as_xyz
  1  'x, y, z'
loop_
 _atom_site_type_symbol
 _atom_site_label
 _atom_site_symmetry_multiplicity
 _atom_site_fract_x
 _atom_site_fract_y
 _atom_site_fract_z
 _atom_site_occupancy
  Ca  Ca0  1  0.500000  0.500000  0.500000  1
  Dy  Dy1  1  0.904458  0.977083  0.702064  1
  Dy  Dy2  1  0.977083  0.702064  0.904458  1
  Dy  Dy3  1  0.702064  0.904458  0.977083  1
  Dy  Dy4  1  0.095542  0.022917  0.297936  1
  Dy  Dy5  1  0.022917  0.297936  0.095542  1
  Dy  Dy6  1  0.297936  0.095542  0.022917  1
  Rh  Rh7  1  0.000000  0.000000  0.000000  1
  I  I8  1  0.542367  0.849545  0.620932  1
  I  I9  1  0.849545  0.620932  0.542367  1
  I  I10  1  0.620932  0.542367  0.849545  1
  I  I11  1  0.457633  0.150455  0.379068  1
  I  I12  1  0.150455  0.379068  0.457633  1
  I  I13  1  0.379068  0.457633  0.150455  1
  I  I14  1  0.677132  0.222688  0.070828  1
  I  I15  1  0.222688  0.070828  0.677132  1
  I  I16  1  0.070828  0.677132  0.222688  1
  I  I17  1  0.322868  0.777312  0.929172  1
  I  I18  1  0.777312  0.929172  0.322868  1
  I  I19  1  0.929172  0.322868  0.777312  1
