# generated using pymatgen
data_DyTm19(Bi2Sb)4
_symmetry_space_group_name_H-M   'P 1'
_cell_length_a   8.09055392
_cell_length_b   9.36850100
_cell_length_c   11.82599500
_cell_angle_alpha   90.00000000
_cell_angle_beta   89.93680190
_cell_angle_gamma   90.00000000
_symmetry_Int_Tables_number   1
_chemical_formula_structural   DyTm19(Bi2Sb)4
_chemical_formula_sum   'Dy1 Tm19 Bi8 Sb4'
_cell_volume   896.36685873
_cell_formula_units_Z   1
loop_
 _symmetry_equiv_pos_site_id
 _symmetry_equiv_pos_as_xyz
  1  'x, y, z'
loop_
 _atom_site_type_symbol
 _atom_site_label
 _atom_site_symmetry_multiplicity
 _atom_site_fract_x
 _atom_site_fract_y
 _atom_site_fract_z
 _atom_site_occupancy
  Dy  Dy0  1  0.145733  0.250000  0.713939  1
  Tm  Tm1  1  0.026963  0.750000  0.989074  1
  Tm  Tm2  1  0.527249  0.750000  0.510915  1
  Tm  Tm3  1  0.972965  0.250000  0.011795  1
  Tm  Tm4  1  0.472888  0.250000  0.488579  1
  Tm  Tm5  1  0.183409  0.750000  0.716972  1
  Tm  Tm6  1  0.683479  0.750000  0.783156  1
  Tm  Tm7  1  0.815373  0.250000  0.282548  1
  Tm  Tm8  1  0.316211  0.250000  0.216966  1
  Tm  Tm9  1  0.310919  0.435926  0.942648  1
  Tm  Tm10  1  0.810870  0.064248  0.557612  1
  Tm  Tm11  1  0.689019  0.935883  0.058149  1
  Tm  Tm12  1  0.189204  0.564041  0.442068  1
  Tm  Tm13  1  0.689019  0.564117  0.058149  1
  Tm  Tm14  1  0.189204  0.935959  0.442068  1
  Tm  Tm15  1  0.310919  0.064074  0.942648  1
  Tm  Tm16  1  0.810870  0.435752  0.557612  1
  Tm  Tm17  1  0.354402  0.750000  0.214694  1
  Tm  Tm18  1  0.853855  0.750000  0.285517  1
  Tm  Tm19  1  0.646441  0.250000  0.785443  1
  Bi  Bi20  1  0.434491  0.003233  0.674553  1
  Bi  Bi21  1  0.932870  0.496785  0.826143  1
  Bi  Bi22  1  0.566556  0.503727  0.325431  1
  Bi  Bi23  1  0.066531  0.996268  0.174613  1
  Bi  Bi24  1  0.566556  0.996273  0.325431  1
  Bi  Bi25  1  0.066531  0.503732  0.174613  1
  Bi  Bi26  1  0.434491  0.496767  0.674553  1
  Bi  Bi27  1  0.932870  0.003215  0.826143  1
  Sb  Sb28  1  0.405951  0.750000  0.958469  1
  Sb  Sb29  1  0.905963  0.750000  0.541682  1
  Sb  Sb30  1  0.594268  0.250000  0.041648  1
  Sb  Sb31  1  0.093928  0.250000  0.456165  1
