# generated using pymatgen
data_Sr4DyNp3O12
_symmetry_space_group_name_H-M   'P 1'
_cell_length_a   6.00044797
_cell_length_b   6.14090806
_cell_length_c   8.55318883
_cell_angle_alpha   89.97902222
_cell_angle_beta   90.22449765
_cell_angle_gamma   89.98806150
_symmetry_Int_Tables_number   1
_chemical_formula_structural   Sr4DyNp3O12
_chemical_formula_sum   'Sr4 Dy1 Np3 O12'
_cell_volume   315.16715922
_cell_formula_units_Z   1
loop_
 _symmetry_equiv_pos_site_id
 _symmetry_equiv_pos_as_xyz
  1  'x, y, z'
loop_
 _atom_site_type_symbol
 _atom_site_label
 _atom_site_symmetry_multiplicity
 _atom_site_fract_x
 _atom_site_fract_y
 _atom_site_fract_z
 _atom_site_occupancy
  Sr  Sr0  1  0.988860  0.041468  0.254400  1
  Sr  Sr1  1  0.485656  0.455131  0.746146  1
  Sr  Sr2  1  0.514344  0.544869  0.253854  1
  Sr  Sr3  1  0.011140  0.958532  0.745600  1
  Dy  Dy4  1  0.500000  0.000000  0.500000  1
  Np  Np5  1  0.500000  0.000000  0.000000  1
  Np  Np6  1  0.000000  0.500000  0.000000  1
  Np  Np7  1  0.000000  0.500000  0.500000  1
  O  O8  1  0.199828  0.213299  0.553419  1
  O  O9  1  0.713805  0.298470  0.448346  1
  O  O10  1  0.289416  0.704136  0.943263  1
  O  O11  1  0.792014  0.794303  0.055444  1
  O  O12  1  0.800172  0.786701  0.446581  1
  O  O13  1  0.286195  0.701530  0.551654  1
  O  O14  1  0.710584  0.295864  0.056737  1
  O  O15  1  0.207986  0.205697  0.944556  1
  O  O16  1  0.102088  0.463351  0.244967  1
  O  O17  1  0.598528  0.036633  0.757997  1
  O  O18  1  0.401472  0.963367  0.242003  1
  O  O19  1  0.897912  0.536649  0.755033  1
