# generated using pymatgen
data_Ba8Y8Mn5Fe3O32
_symmetry_space_group_name_H-M   'P 1'
_cell_length_a   5.75043500
_cell_length_b   10.37372861
_cell_length_c   13.35184241
_cell_angle_alpha   89.52599432
_cell_angle_beta   90.00000000
_cell_angle_gamma   90.00000000
_symmetry_Int_Tables_number   1
_chemical_formula_structural   Ba8Y8Mn5Fe3O32
_chemical_formula_sum   'Ba8 Y8 Mn5 Fe3 O32'
_cell_volume   796.45623499
_cell_formula_units_Z   1
loop_
 _symmetry_equiv_pos_site_id
 _symmetry_equiv_pos_as_xyz
  1  'x, y, z'
loop_
 _atom_site_type_symbol
 _atom_site_label
 _atom_site_symmetry_multiplicity
 _atom_site_fract_x
 _atom_site_fract_y
 _atom_site_fract_z
 _atom_site_occupancy
  Ba  Ba0  1  0.250000  0.822018  0.710753  1
  Ba  Ba1  1  0.250000  0.676286  0.209740  1
  Ba  Ba2  1  0.750000  0.176134  0.290068  1
  Ba  Ba3  1  0.750000  0.325736  0.789543  1
  Ba  Ba4  1  0.250000  0.099373  0.918804  1
  Ba  Ba5  1  0.250000  0.399582  0.417700  1
  Ba  Ba6  1  0.750000  0.900709  0.081343  1
  Ba  Ba7  1  0.750000  0.598961  0.583414  1
  Y  Y8  1  0.250000  0.485999  0.913225  1
  Y  Y9  1  0.250000  0.016278  0.413895  1
  Y  Y10  1  0.750000  0.517225  0.085820  1
  Y  Y11  1  0.750000  0.981811  0.586473  1
  Y  Y12  1  0.250000  0.188569  0.642238  1
  Y  Y13  1  0.250000  0.310568  0.144335  1
  Y  Y14  1  0.750000  0.809593  0.355812  1
  Y  Y15  1  0.750000  0.690576  0.855601  1
  Mn  Mn16  1  0.250000  0.775407  0.962356  1
  Mn  Mn17  1  0.250000  0.723634  0.463168  1
  Mn  Mn18  1  0.750000  0.226057  0.037794  1
  Mn  Mn19  1  0.750000  0.273776  0.536803  1
  Mn  Mn20  1  0.250000  0.474421  0.690338  1
  Fe  Fe21  1  0.250000  0.020935  0.191156  1
  Fe  Fe22  1  0.750000  0.520923  0.308229  1
  Fe  Fe23  1  0.750000  0.980248  0.809049  1
  O  O24  1  0.250000  0.887167  0.090640  1
  O  O25  1  0.250000  0.611326  0.592472  1
  O  O26  1  0.750000  0.114846  0.909154  1
  O  O27  1  0.750000  0.385495  0.408047  1
  O  O28  1  0.250000  0.323234  0.786168  1
  O  O29  1  0.250000  0.182235  0.289196  1
  O  O30  1  0.750000  0.682507  0.211422  1
  O  O31  1  0.750000  0.818624  0.710877  1
  O  O32  1  0.510373  0.138401  0.505604  1
  O  O33  1  0.988572  0.360057  0.005787  1
  O  O34  1  0.011795  0.857229  0.494776  1
  O  O35  1  0.487984  0.641525  0.994902  1
  O  O36  1  0.488205  0.857229  0.494776  1
  O  O37  1  0.012016  0.641525  0.994902  1
  O  O38  1  0.989627  0.138401  0.505604  1
  O  O39  1  0.511428  0.360057  0.005787  1
  O  O40  1  0.509176  0.056051  0.715481  1
  O  O41  1  0.990938  0.444967  0.215115  1
  O  O42  1  0.009405  0.944313  0.284914  1
  O  O43  1  0.493108  0.557583  0.786061  1
  O  O44  1  0.490595  0.944313  0.284914  1
  O  O45  1  0.006892  0.557583  0.786061  1
  O  O46  1  0.990824  0.056051  0.715481  1
  O  O47  1  0.509062  0.444967  0.215115  1
  O  O48  1  0.995513  0.364460  0.608957  1
  O  O49  1  0.503680  0.134280  0.110746  1
  O  O50  1  0.495033  0.633615  0.390257  1
  O  O51  1  0.004193  0.867391  0.889584  1
  O  O52  1  0.004967  0.633615  0.390257  1
  O  O53  1  0.495807  0.867391  0.889584  1
  O  O54  1  0.504487  0.364460  0.608957  1
  O  O55  1  0.996320  0.134280  0.110746  1
