# generated using pymatgen
data_Dy4Os7W
_symmetry_space_group_name_H-M   'P 1'
_cell_length_a   5.30346586
_cell_length_b   5.30346702
_cell_length_c   8.89840500
_cell_angle_alpha   90.00000000
_cell_angle_beta   90.00000000
_cell_angle_gamma   117.99985496
_symmetry_Int_Tables_number   1
_chemical_formula_structural   Dy4Os7W
_chemical_formula_sum   'Dy4 Os7 W1'
_cell_volume   220.98730698
_cell_formula_units_Z   1
loop_
 _symmetry_equiv_pos_site_id
 _symmetry_equiv_pos_as_xyz
  1  'x, y, z'
loop_
 _atom_site_type_symbol
 _atom_site_label
 _atom_site_symmetry_multiplicity
 _atom_site_fract_x
 _atom_site_fract_y
 _atom_site_fract_z
 _atom_site_occupancy
  Dy  Dy0  1  0.328867  0.671133  0.437606  1
  Dy  Dy1  1  0.666646  0.333354  0.566360  1
  Dy  Dy2  1  0.666646  0.333354  0.933640  1
  Dy  Dy3  1  0.328867  0.671133  0.062394  1
  Os  Os4  1  0.992125  0.007875  0.502399  1
  Os  Os5  1  0.992125  0.007875  0.997601  1
  Os  Os6  1  0.825252  0.649467  0.250000  1
  Os  Os7  1  0.350533  0.174748  0.250000  1
  Os  Os8  1  0.177265  0.822735  0.750000  1
  Os  Os9  1  0.173335  0.338604  0.750000  1
  Os  Os10  1  0.661396  0.826665  0.750000  1
  W  W11  1  0.836942  0.163058  0.250000  1
