# generated using pymatgen
data_Sr6ZrCd(CoO6)2
_symmetry_space_group_name_H-M   'P 1'
_cell_length_a   6.73368231
_cell_length_b   6.73156478
_cell_length_c   6.73285045
_cell_angle_alpha   92.23789718
_cell_angle_beta   92.27304978
_cell_angle_gamma   92.25520719
_symmetry_Int_Tables_number   1
_chemical_formula_structural   Sr6ZrCd(CoO6)2
_chemical_formula_sum   'Sr6 Zr1 Cd1 Co2 O12'
_cell_volume   304.45964597
_cell_formula_units_Z   1
loop_
 _symmetry_equiv_pos_site_id
 _symmetry_equiv_pos_as_xyz
  1  'x, y, z'
loop_
 _atom_site_type_symbol
 _atom_site_label
 _atom_site_symmetry_multiplicity
 _atom_site_fract_x
 _atom_site_fract_y
 _atom_site_fract_z
 _atom_site_occupancy
  Sr  Sr0  1  0.622727  0.877115  0.250474  1
  Sr  Sr1  1  0.877311  0.249798  0.622774  1
  Sr  Sr2  1  0.249742  0.622913  0.877158  1
  Sr  Sr3  1  0.110112  0.750042  0.389823  1
  Sr  Sr4  1  0.750040  0.389368  0.110560  1
  Sr  Sr5  1  0.389680  0.110452  0.749915  1
  Zr  Zr6  1  0.250059  0.250062  0.249881  1
  Cd  Cd7  1  0.749620  0.749707  0.750669  1
  Co  Co8  1  0.496043  0.496152  0.495968  1
  Co  Co9  1  0.004062  0.003922  0.003848  1
  O  O10  1  0.531898  0.211565  0.399860  1
  O  O11  1  0.211413  0.399775  0.531566  1
  O  O12  1  0.399971  0.531639  0.211145  1
  O  O13  1  0.055002  0.923857  0.728006  1
  O  O14  1  0.924379  0.727895  0.055160  1
  O  O15  1  0.728211  0.054842  0.923675  1
  O  O16  1  0.444826  0.772120  0.575737  1
  O  O17  1  0.771838  0.576402  0.445182  1
  O  O18  1  0.575952  0.444983  0.771928  1
  O  O19  1  0.968250  0.100243  0.288401  1
  O  O20  1  0.100028  0.288646  0.968146  1
  O  O21  1  0.288834  0.968503  0.100124  1
