# generated using pymatgen
data_Ho2Er2Pd3PtO14
_symmetry_space_group_name_H-M   'P 1'
_cell_length_a   7.24089870
_cell_length_b   7.24089866
_cell_length_c   7.23419044
_cell_angle_alpha   59.95191958
_cell_angle_beta   59.95192014
_cell_angle_gamma   59.97974580
_symmetry_Int_Tables_number   1
_chemical_formula_structural   Ho2Er2Pd3PtO14
_chemical_formula_sum   'Ho2 Er2 Pd3 Pt1 O14'
_cell_volume   267.96462019
_cell_formula_units_Z   1
loop_
 _symmetry_equiv_pos_site_id
 _symmetry_equiv_pos_as_xyz
  1  'x, y, z'
loop_
 _atom_site_type_symbol
 _atom_site_label
 _atom_site_symmetry_multiplicity
 _atom_site_fract_x
 _atom_site_fract_y
 _atom_site_fract_z
 _atom_site_occupancy
  Ho  Ho0  1  0.625000  0.625000  0.125000  1
  Ho  Ho1  1  0.625000  0.625000  0.625000  1
  Er  Er2  1  0.625000  0.125000  0.625000  1
  Er  Er3  1  0.125000  0.625000  0.625000  1
  Pd  Pd4  1  0.625000  0.125000  0.125000  1
  Pd  Pd5  1  0.125000  0.125000  0.125000  1
  Pd  Pd6  1  0.125000  0.625000  0.125000  1
  Pt  Pt7  1  0.125000  0.125000  0.625000  1
  O  O8  1  0.033354  0.465986  0.468061  1
  O  O9  1  0.783538  0.783538  0.216522  1
  O  O10  1  0.783393  0.216197  0.217069  1
  O  O11  1  0.750885  0.750885  0.748932  1
  O  O12  1  0.033803  0.466607  0.032931  1
  O  O13  1  0.465986  0.033354  0.468061  1
  O  O14  1  0.032822  0.032822  0.468200  1
  O  O15  1  0.499115  0.499115  0.501068  1
  O  O16  1  0.217178  0.217178  0.781800  1
  O  O17  1  0.216197  0.783393  0.217069  1
  O  O18  1  0.784014  0.216646  0.781939  1
  O  O19  1  0.466607  0.033803  0.032931  1
  O  O20  1  0.466462  0.466462  0.033478  1
  O  O21  1  0.216646  0.784014  0.781939  1
