# generated using pymatgen
data_Sr2HoSi5AsPd20
_symmetry_space_group_name_H-M   'P 1'
_cell_length_a   8.78519967
_cell_length_b   8.82510293
_cell_length_c   8.82510280
_cell_angle_alpha   59.70108540
_cell_angle_beta   60.14945649
_cell_angle_gamma   60.14945641
_symmetry_Int_Tables_number   1
_chemical_formula_structural   Sr2HoSi5AsPd20
_chemical_formula_sum   'Sr2 Ho1 Si5 As1 Pd20'
_cell_volume   483.79180554
_cell_formula_units_Z   1
loop_
 _symmetry_equiv_pos_site_id
 _symmetry_equiv_pos_as_xyz
  1  'x, y, z'
loop_
 _atom_site_type_symbol
 _atom_site_label
 _atom_site_symmetry_multiplicity
 _atom_site_fract_x
 _atom_site_fract_y
 _atom_site_fract_z
 _atom_site_occupancy
  Sr  Sr0  1  0.250240  0.249760  0.249760  1
  Sr  Sr1  1  0.750240  0.749760  0.749760  1
  Ho  Ho2  1  0.001333  0.998667  0.998667  1
  Si  Si3  1  0.267868  0.732132  0.732132  1
  Si  Si4  1  0.267507  0.732493  0.267512  1
  Si  Si5  1  0.732488  0.267512  0.732493  1
  Si  Si6  1  0.267507  0.267512  0.732493  1
  Si  Si7  1  0.732488  0.732493  0.267512  1
  As  As8  1  0.734211  0.265789  0.265789  1
  Pd  Pd9  1  0.380597  0.389251  0.389251  1
  Pd  Pd10  1  0.612736  0.613945  0.613945  1
  Pd  Pd11  1  0.386055  0.387264  0.840629  1
  Pd  Pd12  1  0.386055  0.840629  0.387264  1
  Pd  Pd13  1  0.610749  0.619403  0.159097  1
  Pd  Pd14  1  0.610749  0.159097  0.619403  1
  Pd  Pd15  1  0.840903  0.389251  0.389251  1
  Pd  Pd16  1  0.159371  0.613945  0.613945  1
  Pd  Pd17  1  0.344100  0.999505  0.999505  1
  Pd  Pd18  1  0.656890  0.999505  0.999505  1
  Pd  Pd19  1  0.000495  0.343110  0.655900  1
  Pd  Pd20  1  0.000495  0.655900  0.343110  1
  Pd  Pd21  1  0.006560  0.345238  0.993440  1
  Pd  Pd22  1  0.654762  0.993440  0.345238  1
  Pd  Pd23  1  0.999638  0.657498  0.000362  1
  Pd  Pd24  1  0.342502  0.000362  0.657498  1
  Pd  Pd25  1  0.006560  0.993440  0.345238  1
  Pd  Pd26  1  0.999638  0.000362  0.657498  1
  Pd  Pd27  1  0.654762  0.345238  0.993440  1
  Pd  Pd28  1  0.342502  0.657498  0.000362  1
