# generated using pymatgen
data_Eu2Ga9PdRh2
_symmetry_space_group_name_H-M   'P 1'
_cell_length_a   7.64626975
_cell_length_b   7.64626999
_cell_length_c   9.78674100
_cell_angle_alpha   90.00000000
_cell_angle_beta   90.00000000
_cell_angle_gamma   119.30220923
_symmetry_Int_Tables_number   1
_chemical_formula_structural   Eu2Ga9PdRh2
_chemical_formula_sum   'Eu4 Ga18 Pd2 Rh4'
_cell_volume   498.97516019
_cell_formula_units_Z   2
loop_
 _symmetry_equiv_pos_site_id
 _symmetry_equiv_pos_as_xyz
  1  'x, y, z'
loop_
 _atom_site_type_symbol
 _atom_site_label
 _atom_site_symmetry_multiplicity
 _atom_site_fract_x
 _atom_site_fract_y
 _atom_site_fract_z
 _atom_site_occupancy
  Eu  Eu0  1  0.671926  0.997874  0.250000  1
  Eu  Eu1  1  0.002126  0.328074  0.750000  1
  Eu  Eu2  1  0.997874  0.671926  0.250000  1
  Eu  Eu3  1  0.328074  0.002126  0.750000  1
  Ga  Ga4  1  0.661198  0.996509  0.924318  1
  Ga  Ga5  1  0.133212  0.133212  0.250000  1
  Ga  Ga6  1  0.003491  0.338802  0.424318  1
  Ga  Ga7  1  0.338550  0.338550  0.559643  1
  Ga  Ga8  1  0.337594  0.546364  0.250000  1
  Ga  Ga9  1  0.453636  0.662406  0.750000  1
  Ga  Ga10  1  0.866788  0.866788  0.750000  1
  Ga  Ga11  1  0.661450  0.661450  0.059643  1
  Ga  Ga12  1  0.661450  0.661450  0.440357  1
  Ga  Ga13  1  0.996509  0.661198  0.575682  1
  Ga  Ga14  1  0.996509  0.661198  0.924318  1
  Ga  Ga15  1  0.338802  0.003491  0.424318  1
  Ga  Ga16  1  0.662406  0.453636  0.750000  1
  Ga  Ga17  1  0.546364  0.337594  0.250000  1
  Ga  Ga18  1  0.338550  0.338550  0.940357  1
  Ga  Ga19  1  0.338802  0.003491  0.075682  1
  Ga  Ga20  1  0.661198  0.996509  0.575682  1
  Ga  Ga21  1  0.003491  0.338802  0.075682  1
  Pd  Pd22  1  0.000000  0.000000  0.000000  1
  Pd  Pd23  1  0.000000  0.000000  0.500000  1
  Rh  Rh24  1  0.329205  0.670795  0.500000  1
  Rh  Rh25  1  0.329205  0.670795  0.000000  1
  Rh  Rh26  1  0.670795  0.329205  0.500000  1
  Rh  Rh27  1  0.670795  0.329205  0.000000  1
