# generated using pymatgen
data_Dy4TmLu3Pt4
_symmetry_space_group_name_H-M   'P 1'
_cell_length_a   4.73690200
_cell_length_b   7.08614244
_cell_length_c   8.67758461
_cell_angle_alpha   90.04147603
_cell_angle_beta   90.00000000
_cell_angle_gamma   90.00000000
_symmetry_Int_Tables_number   1
_chemical_formula_structural   Dy4TmLu3Pt4
_chemical_formula_sum   'Dy4 Tm1 Lu3 Pt4'
_cell_volume   291.27487219
_cell_formula_units_Z   1
loop_
 _symmetry_equiv_pos_site_id
 _symmetry_equiv_pos_as_xyz
  1  'x, y, z'
loop_
 _atom_site_type_symbol
 _atom_site_label
 _atom_site_symmetry_multiplicity
 _atom_site_fract_x
 _atom_site_fract_y
 _atom_site_fract_z
 _atom_site_occupancy
  Dy  Dy0  1  0.250000  0.009708  0.329782  1
  Dy  Dy1  1  0.250000  0.511294  0.169360  1
  Dy  Dy2  1  0.750000  0.988443  0.671200  1
  Dy  Dy3  1  0.750000  0.489632  0.829686  1
  Tm  Tm4  1  0.750000  0.356041  0.421017  1
  Lu  Lu5  1  0.250000  0.143187  0.921608  1
  Lu  Lu6  1  0.250000  0.644015  0.579062  1
  Lu  Lu7  1  0.750000  0.856835  0.078386  1
  Pt  Pt8  1  0.250000  0.243813  0.595208  1
  Pt  Pt9  1  0.250000  0.745247  0.906531  1
  Pt  Pt10  1  0.750000  0.756998  0.406827  1
  Pt  Pt11  1  0.750000  0.254789  0.091332  1
