# generated using pymatgen
data_Ho3Tm7Cd3Ru
_symmetry_space_group_name_H-M   'P 1'
_cell_length_a   9.48516400
_cell_length_b   9.48516351
_cell_length_c   9.73803500
_cell_angle_alpha   90.00000000
_cell_angle_beta   90.00000000
_cell_angle_gamma   119.99999472
_symmetry_Int_Tables_number   1
_chemical_formula_structural   Ho3Tm7Cd3Ru
_chemical_formula_sum   'Ho6 Tm14 Cd6 Ru2'
_cell_volume   758.73768011
_cell_formula_units_Z   2
loop_
 _symmetry_equiv_pos_site_id
 _symmetry_equiv_pos_as_xyz
  1  'x, y, z'
loop_
 _atom_site_type_symbol
 _atom_site_label
 _atom_site_symmetry_multiplicity
 _atom_site_fract_x
 _atom_site_fract_y
 _atom_site_fract_z
 _atom_site_occupancy
  Ho  Ho0  1  0.540609  0.459391  0.250000  1
  Ho  Ho1  1  0.540609  0.081220  0.250000  1
  Ho  Ho2  1  0.918780  0.459391  0.250000  1
  Ho  Ho3  1  0.459391  0.540609  0.750000  1
  Ho  Ho4  1  0.459391  0.918780  0.750000  1
  Ho  Ho5  1  0.081220  0.540609  0.750000  1
  Tm  Tm6  1  0.000000  0.000000  0.500000  1
  Tm  Tm7  1  0.000000  0.000000  0.000000  1
  Tm  Tm8  1  0.209999  0.790001  0.440480  1
  Tm  Tm9  1  0.209999  0.419998  0.440480  1
  Tm  Tm10  1  0.580002  0.790001  0.440480  1
  Tm  Tm11  1  0.790001  0.209999  0.559520  1
  Tm  Tm12  1  0.790001  0.580002  0.559520  1
  Tm  Tm13  1  0.419998  0.209999  0.559520  1
  Tm  Tm14  1  0.790001  0.209999  0.940480  1
  Tm  Tm15  1  0.790001  0.580002  0.940480  1
  Tm  Tm16  1  0.419998  0.209999  0.940480  1
  Tm  Tm17  1  0.209999  0.790001  0.059520  1
  Tm  Tm18  1  0.209999  0.419998  0.059520  1
  Tm  Tm19  1  0.580002  0.790001  0.059520  1
  Cd  Cd20  1  0.885849  0.114151  0.250000  1
  Cd  Cd21  1  0.885849  0.771699  0.250000  1
  Cd  Cd22  1  0.228301  0.114151  0.250000  1
  Cd  Cd23  1  0.114151  0.885849  0.750000  1
  Cd  Cd24  1  0.114151  0.228301  0.750000  1
  Cd  Cd25  1  0.771699  0.885849  0.750000  1
  Ru  Ru26  1  0.333333  0.666667  0.250000  1
  Ru  Ru27  1  0.666667  0.333333  0.750000  1
