# generated using pymatgen
data_LiHf4Tl(PO4)6
_symmetry_space_group_name_H-M   'P 1'
_cell_length_a   8.76138741
_cell_length_b   8.76851277
_cell_length_c   9.47177677
_cell_angle_alpha   62.43892368
_cell_angle_beta   62.17602688
_cell_angle_gamma   60.17671407
_symmetry_Int_Tables_number   1
_chemical_formula_structural   LiHf4Tl(PO4)6
_chemical_formula_sum   'Li1 Hf4 Tl1 P6 O24'
_cell_volume   532.50292152
_cell_formula_units_Z   1
loop_
 _symmetry_equiv_pos_site_id
 _symmetry_equiv_pos_as_xyz
  1  'x, y, z'
loop_
 _atom_site_type_symbol
 _atom_site_label
 _atom_site_symmetry_multiplicity
 _atom_site_fract_x
 _atom_site_fract_y
 _atom_site_fract_z
 _atom_site_occupancy
  Li  Li0  1  0.182197  0.256901  0.856016  1
  Hf  Hf1  1  0.851751  0.357990  0.193679  1
  Hf  Hf2  1  0.653478  0.148925  0.795868  1
  Hf  Hf3  1  0.352601  0.848288  0.697551  1
  Hf  Hf4  1  0.144793  0.647686  0.307298  1
  Tl  Tl5  1  0.497023  0.997466  0.248684  1
  P  P6  1  0.537292  0.747390  0.995346  1
  P  P7  1  0.751205  0.540287  0.493150  1
  P  P8  1  0.033391  0.970655  0.494406  1
  P  P9  1  0.970217  0.035893  0.996230  1
  P  P10  1  0.250255  0.464406  0.997052  1
  P  P11  1  0.459553  0.250389  0.505633  1
  O  O12  1  0.850046  0.996632  0.639401  1
  O  O13  1  0.453247  0.246242  0.675060  1
  O  O14  1  0.705258  0.579688  0.040712  1
  O  O15  1  0.362906  0.738303  0.147476  1
  O  O16  1  0.081353  0.803215  0.447039  1
  O  O17  1  0.745269  0.359658  0.634926  1
  O  O18  1  0.771232  0.527647  0.327296  1
  O  O19  1  0.562165  0.929065  0.953469  1
  O  O20  1  0.566430  0.697854  0.540507  1
  O  O21  1  0.914303  0.582090  0.466716  1
  O  O22  1  0.018035  0.143471  0.339304  1
  O  O23  1  0.188457  0.939278  0.552142  1
  O  O24  1  0.815397  0.066041  0.939808  1
  O  O25  1  0.989362  0.864163  0.149042  1
  O  O26  1  0.098633  0.405048  0.016818  1
  O  O27  1  0.438297  0.309848  0.949209  1
  O  O28  1  0.440605  0.070309  0.536688  1
  O  O29  1  0.243805  0.646926  0.854040  1
  O  O30  1  0.221360  0.484162  0.161402  1
  O  O31  1  0.926809  0.206557  0.039209  1
  O  O32  1  0.640770  0.262638  0.364538  1
  O  O33  1  0.295106  0.418268  0.454905  1
  O  O34  1  0.517112  0.748900  0.841577  1
  O  O35  1  0.153585  0.024419  0.847802  1
