# generated using pymatgen
data_Tb7Th(NiAg)2
_symmetry_space_group_name_H-M   'P 1'
_cell_length_a   9.52170657
_cell_length_b   9.52170582
_cell_length_c   9.52705200
_cell_angle_alpha   59.98141793
_cell_angle_beta   59.98142055
_cell_angle_gamma   60.07328017
_symmetry_Int_Tables_number   1
_chemical_formula_structural   Tb7Th(NiAg)2
_chemical_formula_sum   'Tb14 Th2 Ni4 Ag4'
_cell_volume   610.92918069
_cell_formula_units_Z   2
loop_
 _symmetry_equiv_pos_site_id
 _symmetry_equiv_pos_as_xyz
  1  'x, y, z'
loop_
 _atom_site_type_symbol
 _atom_site_label
 _atom_site_symmetry_multiplicity
 _atom_site_fract_x
 _atom_site_fract_y
 _atom_site_fract_z
 _atom_site_occupancy
  Tb  Tb0  1  0.350878  0.945646  0.351738  1
  Tb  Tb1  1  0.945646  0.350878  0.351738  1
  Tb  Tb2  1  0.811008  0.190752  0.188193  1
  Tb  Tb3  1  0.190752  0.811008  0.810048  1
  Tb  Tb4  1  0.190752  0.811008  0.188193  1
  Tb  Tb5  1  0.811008  0.190752  0.810048  1
  Tb  Tb6  1  0.186862  0.186862  0.813138  1
  Tb  Tb7  1  0.809872  0.809872  0.190128  1
  Tb  Tb8  1  0.935346  0.565933  0.564815  1
  Tb  Tb9  1  0.565933  0.935346  0.933905  1
  Tb  Tb10  1  0.565933  0.935346  0.564815  1
  Tb  Tb11  1  0.935346  0.565933  0.933905  1
  Tb  Tb12  1  0.564942  0.564942  0.935058  1
  Tb  Tb13  1  0.935947  0.935947  0.564053  1
  Th  Th14  1  0.346905  0.346905  0.353140  1
  Th  Th15  1  0.346905  0.346905  0.953050  1
  Ni  Ni16  1  0.143971  0.143971  0.141864  1
  Ni  Ni17  1  0.143971  0.143971  0.570196  1
  Ni  Ni18  1  0.146800  0.567321  0.142940  1
  Ni  Ni19  1  0.567321  0.146800  0.142940  1
  Ag  Ag20  1  0.583525  0.583525  0.579271  1
  Ag  Ag21  1  0.583525  0.583525  0.253677  1
  Ag  Ag22  1  0.585917  0.250938  0.581572  1
  Ag  Ag23  1  0.250938  0.585917  0.581572  1
