# generated using pymatgen
data_Tb7Y9(HgRh)4
_symmetry_space_group_name_H-M   'P 1'
_cell_length_a   9.62719524
_cell_length_b   9.62965706
_cell_length_c   9.63482980
_cell_angle_alpha   59.96532933
_cell_angle_beta   60.00909676
_cell_angle_gamma   60.04400298
_symmetry_Int_Tables_number   1
_chemical_formula_structural   Tb7Y9(HgRh)4
_chemical_formula_sum   'Tb7 Y9 Hg4 Rh4'
_cell_volume   631.68377122
_cell_formula_units_Z   1
loop_
 _symmetry_equiv_pos_site_id
 _symmetry_equiv_pos_as_xyz
  1  'x, y, z'
loop_
 _atom_site_type_symbol
 _atom_site_label
 _atom_site_symmetry_multiplicity
 _atom_site_fract_x
 _atom_site_fract_y
 _atom_site_fract_z
 _atom_site_occupancy
  Tb  Tb0  1  0.601039  0.601013  0.601691  1
  Tb  Tb1  1  0.601704  0.600774  0.196046  1
  Tb  Tb2  1  0.601691  0.196258  0.601039  1
  Tb  Tb3  1  0.196046  0.601477  0.601704  1
  Tb  Tb4  1  0.060088  0.439878  0.439139  1
  Tb  Tb5  1  0.439139  0.060894  0.060088  1
  Tb  Tb6  1  0.439502  0.060498  0.439502  1
  Y  Y7  1  0.060298  0.439702  0.060298  1
  Y  Y8  1  0.439355  0.440264  0.059737  1
  Y  Y9  1  0.059737  0.060644  0.439355  1
  Y  Y10  1  0.186915  0.813476  0.813045  1
  Y  Y11  1  0.813045  0.186564  0.186915  1
  Y  Y12  1  0.813077  0.186923  0.813077  1
  Y  Y13  1  0.186923  0.813077  0.186923  1
  Y  Y14  1  0.812581  0.813092  0.187370  1
  Y  Y15  1  0.187370  0.186958  0.812581  1
  Hg  Hg16  1  0.835358  0.834698  0.834802  1
  Hg  Hg17  1  0.835327  0.835226  0.494720  1
  Hg  Hg18  1  0.834802  0.495142  0.835358  1
  Hg  Hg19  1  0.494720  0.834726  0.835327  1
  Rh  Rh20  1  0.392165  0.391820  0.394358  1
  Rh  Rh21  1  0.394061  0.391545  0.820700  1
  Rh  Rh22  1  0.394358  0.821658  0.392165  1
  Rh  Rh23  1  0.820700  0.393695  0.394061  1
