# generated using pymatgen
data_Er6Zn17Ir6S
_symmetry_space_group_name_H-M   'P 1'
_cell_length_a   8.96147901
_cell_length_b   8.96201690
_cell_length_c   8.96164000
_cell_angle_alpha   59.99588397
_cell_angle_beta   59.99868961
_cell_angle_gamma   59.99282793
_symmetry_Int_Tables_number   1
_chemical_formula_structural   Er6Zn17Ir6S
_chemical_formula_sum   'Er6 Zn17 Ir6 S1'
_cell_volume   508.88141558
_cell_formula_units_Z   1
loop_
 _symmetry_equiv_pos_site_id
 _symmetry_equiv_pos_as_xyz
  1  'x, y, z'
loop_
 _atom_site_type_symbol
 _atom_site_label
 _atom_site_symmetry_multiplicity
 _atom_site_fract_x
 _atom_site_fract_y
 _atom_site_fract_z
 _atom_site_occupancy
  Er  Er0  1  0.718604  0.281388  0.281367  1
  Er  Er1  1  0.718572  0.281391  0.718643  1
  Er  Er2  1  0.718618  0.718647  0.281341  1
  Er  Er3  1  0.281396  0.718612  0.718633  1
  Er  Er4  1  0.281428  0.718609  0.281357  1
  Er  Er5  1  0.281382  0.281353  0.718659  1
  Zn  Zn6  1  0.626110  0.124627  0.124631  1
  Zn  Zn7  1  0.124623  0.626118  0.124623  1
  Zn  Zn8  1  0.124628  0.124622  0.626116  1
  Zn  Zn9  1  0.124625  0.124632  0.124637  1
  Zn  Zn10  1  0.373890  0.875373  0.875369  1
  Zn  Zn11  1  0.875377  0.373882  0.875377  1
  Zn  Zn12  1  0.875372  0.875378  0.373884  1
  Zn  Zn13  1  0.875375  0.875368  0.875363  1
  Zn  Zn14  1  0.000000  0.000000  0.000000  1
  Zn  Zn15  1  0.004428  0.331854  0.331866  1
  Zn  Zn16  1  0.331859  0.004413  0.331858  1
  Zn  Zn17  1  0.331887  0.331873  0.004367  1
  Zn  Zn18  1  0.331874  0.331884  0.331874  1
  Zn  Zn19  1  0.995572  0.668146  0.668134  1
  Zn  Zn20  1  0.668141  0.995587  0.668142  1
  Zn  Zn21  1  0.668113  0.668127  0.995633  1
  Zn  Zn22  1  0.668126  0.668116  0.668126  1
  Ir  Ir23  1  0.500000  0.000000  0.000000  1
  Ir  Ir24  1  0.500000  0.000000  0.500000  1
  Ir  Ir25  1  0.500000  0.500000  0.000000  1
  Ir  Ir26  1  0.000000  0.500000  0.500000  1
  Ir  Ir27  1  0.000000  0.500000  0.000000  1
  Ir  Ir28  1  0.000000  0.000000  0.500000  1
  S  S29  1  0.500000  0.500000  0.500000  1
