# generated using pymatgen
data_NdGd5Tc2
_symmetry_space_group_name_H-M   'P 1'
_cell_length_a   6.41337700
_cell_length_b   7.44692708
_cell_length_c   9.36984100
_cell_angle_alpha   90.00000000
_cell_angle_beta   90.00000000
_cell_angle_gamma   90.44842711
_symmetry_Int_Tables_number   1
_chemical_formula_structural   NdGd5Tc2
_chemical_formula_sum   'Nd2 Gd10 Tc4'
_cell_volume   447.48943983
_cell_formula_units_Z   2
loop_
 _symmetry_equiv_pos_site_id
 _symmetry_equiv_pos_as_xyz
  1  'x, y, z'
loop_
 _atom_site_type_symbol
 _atom_site_label
 _atom_site_symmetry_multiplicity
 _atom_site_fract_x
 _atom_site_fract_y
 _atom_site_fract_z
 _atom_site_occupancy
  Nd  Nd0  1  0.371873  0.539837  0.250000  1
  Nd  Nd1  1  0.628127  0.460163  0.750000  1
  Gd  Gd2  1  0.837736  0.674418  0.065799  1
  Gd  Gd3  1  0.665506  0.172875  0.064834  1
  Gd  Gd4  1  0.162264  0.325582  0.934201  1
  Gd  Gd5  1  0.334494  0.827125  0.564834  1
  Gd  Gd6  1  0.866741  0.953070  0.750000  1
  Gd  Gd7  1  0.133259  0.046930  0.250000  1
  Gd  Gd8  1  0.162264  0.325582  0.565799  1
  Gd  Gd9  1  0.665506  0.172875  0.435166  1
  Gd  Gd10  1  0.334494  0.827125  0.935166  1
  Gd  Gd11  1  0.837736  0.674418  0.434201  1
  Tc  Tc12  1  0.537252  0.888270  0.250000  1
  Tc  Tc13  1  0.462748  0.111730  0.750000  1
  Tc  Tc14  1  0.043359  0.617320  0.750000  1
  Tc  Tc15  1  0.956641  0.382680  0.250000  1
