# generated using pymatgen
data_Ta3Ti3(B2Ru5)2
_symmetry_space_group_name_H-M   'P 1'
_cell_length_a   9.31399174
_cell_length_b   9.31399174
_cell_length_c   3.02371000
_cell_angle_alpha   90.00000000
_cell_angle_beta   90.00000000
_cell_angle_gamma   89.81043278
_symmetry_Int_Tables_number   1
_chemical_formula_structural   Ta3Ti3(B2Ru5)2
_chemical_formula_sum   'Ta3 Ti3 B4 Ru10'
_cell_volume   262.30674395
_cell_formula_units_Z   1
loop_
 _symmetry_equiv_pos_site_id
 _symmetry_equiv_pos_as_xyz
  1  'x, y, z'
loop_
 _atom_site_type_symbol
 _atom_site_label
 _atom_site_symmetry_multiplicity
 _atom_site_fract_x
 _atom_site_fract_y
 _atom_site_fract_z
 _atom_site_occupancy
  Ta  Ta0  1  0.176210  0.323790  0.000000  1
  Ta  Ta1  1  0.322663  0.821594  0.000000  1
  Ta  Ta2  1  0.678406  0.177337  0.000000  1
  Ti  Ti3  1  0.822228  0.677772  0.000000  1
  Ti  Ti4  1  0.501277  0.500657  0.000000  1
  Ti  Ti5  1  0.999343  0.998723  0.000000  1
  B  B6  1  0.625242  0.874758  0.000000  1
  B  B7  1  0.376582  0.123418  0.000000  1
  B  B8  1  0.122053  0.623615  0.000000  1
  B  B9  1  0.876385  0.377947  0.000000  1
  Ru  Ru10  1  0.571133  0.715506  0.500000  1
  Ru  Ru11  1  0.428724  0.284416  0.500000  1
  Ru  Ru12  1  0.071563  0.784661  0.500000  1
  Ru  Ru13  1  0.930155  0.215850  0.500000  1
  Ru  Ru14  1  0.284150  0.569845  0.500000  1
  Ru  Ru15  1  0.715339  0.428437  0.500000  1
  Ru  Ru16  1  0.215584  0.071276  0.500000  1
  Ru  Ru17  1  0.784494  0.928867  0.500000  1
  Ru  Ru18  1  0.500073  0.999927  0.500000  1
  Ru  Ru19  1  0.998395  0.501605  0.500000  1
