# generated using pymatgen
data_Tb5Ho5(Bi2Ru)2
_symmetry_space_group_name_H-M   'P 1'
_cell_length_a   7.98031018
_cell_length_b   9.01363700
_cell_length_c   12.47431584
_cell_angle_alpha   90.00000000
_cell_angle_beta   89.93769511
_cell_angle_gamma   90.00000000
_symmetry_Int_Tables_number   1
_chemical_formula_structural   Tb5Ho5(Bi2Ru)2
_chemical_formula_sum   'Tb10 Ho10 Bi8 Ru4'
_cell_volume   897.29720537
_cell_formula_units_Z   2
loop_
 _symmetry_equiv_pos_site_id
 _symmetry_equiv_pos_as_xyz
  1  'x, y, z'
loop_
 _atom_site_type_symbol
 _atom_site_label
 _atom_site_symmetry_multiplicity
 _atom_site_fract_x
 _atom_site_fract_y
 _atom_site_fract_z
 _atom_site_occupancy
  Tb  Tb0  1  0.840373  0.750000  0.792761  1
  Tb  Tb1  1  0.159627  0.250000  0.207239  1
  Tb  Tb2  1  0.340590  0.250000  0.707691  1
  Tb  Tb3  1  0.659410  0.750000  0.292309  1
  Tb  Tb4  1  0.375199  0.750000  0.690596  1
  Tb  Tb5  1  0.624801  0.250000  0.309404  1
  Tb  Tb6  1  0.875245  0.250000  0.809538  1
  Tb  Tb7  1  0.124755  0.750000  0.190462  1
  Tb  Tb8  1  0.945939  0.750000  0.504286  1
  Tb  Tb9  1  0.054061  0.250000  0.495714  1
  Ho  Ho10  1  0.445692  0.250000  0.995648  1
  Ho  Ho11  1  0.554308  0.750000  0.004352  1
  Ho  Ho12  1  0.674080  0.041932  0.564763  1
  Ho  Ho13  1  0.325920  0.958068  0.435237  1
  Ho  Ho14  1  0.174494  0.958261  0.935295  1
  Ho  Ho15  1  0.325920  0.541932  0.435237  1
  Ho  Ho16  1  0.825506  0.041739  0.064705  1
  Ho  Ho17  1  0.674080  0.458068  0.564763  1
  Ho  Ho18  1  0.825506  0.458261  0.064705  1
  Ho  Ho19  1  0.174494  0.541739  0.935295  1
  Bi  Bi20  1  0.567079  0.493239  0.827965  1
  Bi  Bi21  1  0.432921  0.506761  0.172035  1
  Bi  Bi22  1  0.067348  0.506743  0.672729  1
  Bi  Bi23  1  0.432921  0.993239  0.172035  1
  Bi  Bi24  1  0.932652  0.493257  0.327271  1
  Bi  Bi25  1  0.567079  0.006761  0.827965  1
  Bi  Bi26  1  0.932652  0.006743  0.327271  1
  Bi  Bi27  1  0.067348  0.993257  0.672729  1
  Ru  Ru28  1  0.573710  0.750000  0.510066  1
  Ru  Ru29  1  0.426290  0.250000  0.489934  1
  Ru  Ru30  1  0.074126  0.250000  0.989937  1
  Ru  Ru31  1  0.925874  0.750000  0.010063  1
