# generated using pymatgen
data_HoLu3(ThIr9)2
_symmetry_space_group_name_H-M   'P 1'
_cell_length_a   5.33403984
_cell_length_b   5.33403997
_cell_length_c   17.70303662
_cell_angle_alpha   98.66479263
_cell_angle_beta   98.66479216
_cell_angle_gamma   60.00000396
_symmetry_Int_Tables_number   1
_chemical_formula_structural   HoLu3(ThIr9)2
_chemical_formula_sum   'Ho1 Lu3 Th2 Ir18'
_cell_volume   429.55439115
_cell_formula_units_Z   1
loop_
 _symmetry_equiv_pos_site_id
 _symmetry_equiv_pos_as_xyz
  1  'x, y, z'
loop_
 _atom_site_type_symbol
 _atom_site_label
 _atom_site_symmetry_multiplicity
 _atom_site_fract_x
 _atom_site_fract_y
 _atom_site_fract_z
 _atom_site_occupancy
  Ho  Ho0  1  0.570410  0.570410  0.711230  1
  Lu  Lu1  1  0.429448  0.429448  0.288346  1
  Lu  Lu2  1  0.929876  0.929876  0.789629  1
  Lu  Lu3  1  0.070459  0.070459  0.211376  1
  Th  Th4  1  0.000255  0.000255  0.000764  1
  Th  Th5  1  0.499653  0.499653  0.498957  1
  Ir  Ir6  1  0.456528  0.959021  0.374570  1
  Ir  Ir7  1  0.958273  0.458740  0.875752  1
  Ir  Ir8  1  0.959021  0.959021  0.374570  1
  Ir  Ir9  1  0.458740  0.458740  0.875752  1
  Ir  Ir10  1  0.959021  0.456528  0.374570  1
  Ir  Ir11  1  0.458740  0.958273  0.875752  1
  Ir  Ir12  1  0.042541  0.541391  0.125322  1
  Ir  Ir13  1  0.542245  0.040979  0.624203  1
  Ir  Ir14  1  0.541391  0.541391  0.125322  1
  Ir  Ir15  1  0.040979  0.040979  0.624203  1
  Ir  Ir16  1  0.541391  0.042541  0.125322  1
  Ir  Ir17  1  0.040979  0.542245  0.624203  1
  Ir  Ir18  1  0.333544  0.333544  0.000634  1
  Ir  Ir19  1  0.833091  0.833091  0.499274  1
  Ir  Ir20  1  0.166607  0.166607  0.499821  1
  Ir  Ir21  1  0.666787  0.666787  0.000358  1
  Ir  Ir22  1  0.750079  0.750079  0.250238  1
  Ir  Ir23  1  0.249945  0.249945  0.749836  1
