# generated using pymatgen
data_Nd4DyHo3(ReB6)4
_symmetry_space_group_name_H-M   'P 1'
_cell_length_a   3.73079100
_cell_length_b   9.25275201
_cell_length_c   11.71232400
_cell_angle_alpha   90.00223616
_cell_angle_beta   90.00000000
_cell_angle_gamma   90.00000000
_symmetry_Int_Tables_number   1
_chemical_formula_structural   Nd4DyHo3(ReB6)4
_chemical_formula_sum   'Nd4 Dy1 Ho3 Re4 B24'
_cell_volume   404.31040695
_cell_formula_units_Z   1
loop_
 _symmetry_equiv_pos_site_id
 _symmetry_equiv_pos_as_xyz
  1  'x, y, z'
loop_
 _atom_site_type_symbol
 _atom_site_label
 _atom_site_symmetry_multiplicity
 _atom_site_fract_x
 _atom_site_fract_y
 _atom_site_fract_z
 _atom_site_occupancy
  Nd  Nd0  1  0.000000  0.322524  0.414445  1
  Nd  Nd1  1  0.000000  0.677424  0.585692  1
  Nd  Nd2  1  0.000000  0.822583  0.085597  1
  Nd  Nd3  1  0.000000  0.177525  0.914422  1
  Dy  Dy4  1  0.000000  0.942504  0.369540  1
  Ho  Ho5  1  0.000000  0.057610  0.630948  1
  Ho  Ho6  1  0.000000  0.442495  0.130466  1
  Ho  Ho7  1  0.000000  0.557546  0.869334  1
  Re  Re8  1  0.000000  0.638670  0.318996  1
  Re  Re9  1  0.000000  0.360913  0.681119  1
  Re  Re10  1  0.000000  0.139409  0.180821  1
  Re  Re11  1  0.000000  0.860808  0.818971  1
  B  B12  1  0.500000  0.554593  0.430327  1
  B  B13  1  0.500000  0.445030  0.569730  1
  B  B14  1  0.500000  0.054932  0.069507  1
  B  B15  1  0.500000  0.945115  0.930301  1
  B  B16  1  0.500000  0.748881  0.415362  1
  B  B17  1  0.500000  0.250572  0.584652  1
  B  B18  1  0.500000  0.249522  0.084415  1
  B  B19  1  0.500000  0.750579  0.915413  1
  B  B20  1  0.500000  0.790641  0.265650  1
  B  B21  1  0.500000  0.209042  0.734317  1
  B  B22  1  0.500000  0.291218  0.234111  1
  B  B23  1  0.500000  0.708973  0.765752  1
  B  B24  1  0.500000  0.629073  0.186037  1
  B  B25  1  0.500000  0.370843  0.813863  1
  B  B26  1  0.500000  0.129552  0.313574  1
  B  B27  1  0.500000  0.870803  0.686215  1
  B  B28  1  0.500000  0.983883  0.212882  1
  B  B29  1  0.500000  0.016333  0.786922  1
  B  B30  1  0.500000  0.483459  0.286735  1
  B  B31  1  0.500000  0.516384  0.713147  1
  B  B32  1  0.500000  0.595923  0.026492  1
  B  B33  1  0.500000  0.404155  0.973353  1
  B  B34  1  0.500000  0.096358  0.473843  1
  B  B35  1  0.500000  0.904128  0.527048  1
