# generated using pymatgen
data_Ba4HfSe6
_symmetry_space_group_name_H-M   'P 1'
_cell_length_a   8.95159882
_cell_length_b   8.95159925
_cell_length_c   8.95160023
_cell_angle_alpha   89.43826431
_cell_angle_beta   89.43826047
_cell_angle_gamma   89.43826908
_symmetry_Int_Tables_number   1
_chemical_formula_structural   Ba4HfSe6
_chemical_formula_sum   'Ba8 Hf2 Se12'
_cell_volume   717.19905048
_cell_formula_units_Z   2
loop_
 _symmetry_equiv_pos_site_id
 _symmetry_equiv_pos_as_xyz
  1  'x, y, z'
loop_
 _atom_site_type_symbol
 _atom_site_label
 _atom_site_symmetry_multiplicity
 _atom_site_fract_x
 _atom_site_fract_y
 _atom_site_fract_z
 _atom_site_occupancy
  Ba  Ba0  1  0.873871  0.626129  0.250000  1
  Ba  Ba1  1  0.250000  0.873871  0.626129  1
  Ba  Ba2  1  0.626129  0.250000  0.873871  1
  Ba  Ba3  1  0.750000  0.126129  0.373871  1
  Ba  Ba4  1  0.373871  0.750000  0.126129  1
  Ba  Ba5  1  0.126129  0.373871  0.750000  1
  Ba  Ba6  1  0.250000  0.250000  0.250000  1
  Ba  Ba7  1  0.750000  0.750000  0.750000  1
  Hf  Hf8  1  0.500000  0.500000  0.500000  1
  Hf  Hf9  1  0.000000  0.000000  0.000000  1
  Se  Se10  1  0.211238  0.560179  0.426885  1
  Se  Se11  1  0.426885  0.211238  0.560179  1
  Se  Se12  1  0.560179  0.426885  0.211238  1
  Se  Se13  1  0.926885  0.060179  0.711238  1
  Se  Se14  1  0.711238  0.926885  0.060179  1
  Se  Se15  1  0.060179  0.711238  0.926885  1
  Se  Se16  1  0.788762  0.439821  0.573115  1
  Se  Se17  1  0.573115  0.788762  0.439821  1
  Se  Se18  1  0.439821  0.573115  0.788762  1
  Se  Se19  1  0.073115  0.939821  0.288762  1
  Se  Se20  1  0.288762  0.073115  0.939821  1
  Se  Se21  1  0.939821  0.288762  0.073115  1
