# generated using pymatgen
data_Yb2YLu(Al8Pt3)3
_symmetry_space_group_name_H-M   'P 1'
_cell_length_a   7.52245064
_cell_length_b   7.54599006
_cell_length_c   13.23458415
_cell_angle_alpha   84.66961589
_cell_angle_beta   79.09577150
_cell_angle_gamma   59.88938903
_symmetry_Int_Tables_number   1
_chemical_formula_structural   Yb2YLu(Al8Pt3)3
_chemical_formula_sum   'Yb2 Y1 Lu1 Al24 Pt9'
_cell_volume   638.14183359
_cell_formula_units_Z   1
loop_
 _symmetry_equiv_pos_site_id
 _symmetry_equiv_pos_as_xyz
  1  'x, y, z'
loop_
 _atom_site_type_symbol
 _atom_site_label
 _atom_site_symmetry_multiplicity
 _atom_site_fract_x
 _atom_site_fract_y
 _atom_site_fract_z
 _atom_site_occupancy
  Yb  Yb0  1  0.394808  0.167995  0.807647  1
  Yb  Yb1  1  0.605307  0.831976  0.192411  1
  Y  Y2  1  0.733111  0.499742  0.807963  1
  Lu  Lu3  1  0.266537  0.500048  0.193237  1
  Al  Al4  1  0.684058  0.834134  0.945714  1
  Al  Al5  1  0.315785  0.166788  0.054967  1
  Al  Al6  1  0.147526  0.831231  0.561001  1
  Al  Al7  1  0.852584  0.168728  0.438827  1
  Al  Al8  1  0.480403  0.165701  0.558899  1
  Al  Al9  1  0.519636  0.834308  0.440917  1
  Al  Al10  1  0.218097  0.164857  0.328278  1
  Al  Al11  1  0.782092  0.835642  0.671167  1
  Al  Al12  1  0.436369  0.506490  0.670485  1
  Al  Al13  1  0.563279  0.493521  0.328926  1
  Al  Al14  1  0.110812  0.159572  0.668740  1
  Al  Al15  1  0.889895  0.839891  0.330670  1
  Al  Al16  1  0.352227  0.499361  0.945400  1
  Al  Al17  1  0.646381  0.500749  0.055782  1
  Al  Al18  1  0.015686  0.167453  0.954610  1
  Al  Al19  1  0.984793  0.831776  0.046104  1
  Al  Al20  1  0.186111  0.499999  0.441282  1
  Al  Al21  1  0.814059  0.499909  0.558440  1
  Al  Al22  1  0.731444  0.168589  0.183024  1
  Al  Al23  1  0.267477  0.832337  0.816910  1
  Al  Al24  1  0.058820  0.632406  0.815751  1
  Al  Al25  1  0.942235  0.367707  0.184191  1
  Al  Al26  1  0.856925  0.042804  0.816276  1
  Al  Al27  1  0.143279  0.956064  0.183653  1
  Pt  Pt28  1  0.120181  0.491933  0.638034  1
  Pt  Pt29  1  0.880547  0.508171  0.361475  1
  Pt  Pt30  1  0.657571  0.171698  0.999575  1
  Pt  Pt31  1  0.342247  0.828445  0.000617  1
  Pt  Pt32  1  0.537347  0.167892  0.361603  1
  Pt  Pt33  1  0.462199  0.832651  0.637827  1
  Pt  Pt34  1  0.780007  0.174441  0.636715  1
  Pt  Pt35  1  0.220264  0.824905  0.362771  1
  Pt  Pt36  1  0.999901  0.500085  0.000111  1
