# generated using pymatgen
data_Tb5Dy7(LuRh3)2
_symmetry_space_group_name_H-M   'P 1'
_cell_length_a   9.78526007
_cell_length_b   9.78526015
_cell_length_c   6.16063000
_cell_angle_alpha   89.99644571
_cell_angle_beta   90.00355649
_cell_angle_gamma   120.01299076
_symmetry_Int_Tables_number   1
_chemical_formula_structural   Tb5Dy7(LuRh3)2
_chemical_formula_sum   'Tb5 Dy7 Lu2 Rh6'
_cell_volume   510.79147500
_cell_formula_units_Z   1
loop_
 _symmetry_equiv_pos_site_id
 _symmetry_equiv_pos_as_xyz
  1  'x, y, z'
loop_
 _atom_site_type_symbol
 _atom_site_label
 _atom_site_symmetry_multiplicity
 _atom_site_fract_x
 _atom_site_fract_y
 _atom_site_fract_z
 _atom_site_occupancy
  Tb  Tb0  1  0.876081  0.751976  0.740987  1
  Tb  Tb1  1  0.248024  0.123919  0.740987  1
  Tb  Tb2  1  0.875964  0.124036  0.740991  1
  Tb  Tb3  1  0.124058  0.247944  0.240981  1
  Tb  Tb4  1  0.752056  0.875942  0.240981  1
  Dy  Dy5  1  0.124066  0.875934  0.240723  1
  Dy  Dy6  1  0.458891  0.917961  0.547336  1
  Dy  Dy7  1  0.082039  0.541109  0.547336  1
  Dy  Dy8  1  0.458959  0.541041  0.547419  1
  Dy  Dy9  1  0.540927  0.081997  0.047433  1
  Dy  Dy10  1  0.918003  0.459073  0.047433  1
  Dy  Dy11  1  0.541023  0.458977  0.047517  1
  Lu  Lu12  1  0.666664  0.333336  0.533135  1
  Lu  Lu13  1  0.333294  0.666706  0.033162  1
  Rh  Rh14  1  0.191050  0.382146  0.814119  1
  Rh  Rh15  1  0.617854  0.808950  0.814119  1
  Rh  Rh16  1  0.191003  0.808997  0.814467  1
  Rh  Rh17  1  0.809181  0.618057  0.314073  1
  Rh  Rh18  1  0.381943  0.190819  0.314073  1
  Rh  Rh19  1  0.808921  0.191079  0.314166  1
