# generated using pymatgen
data_Tb4Hf3ZnPt4
_symmetry_space_group_name_H-M   'P 1'
_cell_length_a   4.56179800
_cell_length_b   7.08519064
_cell_length_c   8.21967188
_cell_angle_alpha   86.76298319
_cell_angle_beta   90.00000000
_cell_angle_gamma   90.00000000
_symmetry_Int_Tables_number   1
_chemical_formula_structural   Tb4Hf3ZnPt4
_chemical_formula_sum   'Tb4 Hf3 Zn1 Pt4'
_cell_volume   265.24585051
_cell_formula_units_Z   1
loop_
 _symmetry_equiv_pos_site_id
 _symmetry_equiv_pos_as_xyz
  1  'x, y, z'
loop_
 _atom_site_type_symbol
 _atom_site_label
 _atom_site_symmetry_multiplicity
 _atom_site_fract_x
 _atom_site_fract_y
 _atom_site_fract_z
 _atom_site_occupancy
  Tb  Tb0  1  0.250000  0.510744  0.164553  1
  Tb  Tb1  1  0.750000  0.455003  0.831336  1
  Tb  Tb2  1  0.750000  0.984882  0.685882  1
  Tb  Tb3  1  0.250000  0.031654  0.307722  1
  Hf  Hf4  1  0.250000  0.646924  0.574825  1
  Hf  Hf5  1  0.750000  0.367227  0.430350  1
  Hf  Hf6  1  0.750000  0.857935  0.062973  1
  Zn  Zn7  1  0.250000  0.140902  0.930004  1
  Pt  Pt8  1  0.250000  0.763811  0.889633  1
  Pt  Pt9  1  0.750000  0.230247  0.127838  1
  Pt  Pt10  1  0.750000  0.737868  0.396727  1
  Pt  Pt11  1  0.250000  0.272805  0.598159  1
