# generated using pymatgen
data_Tb2DyPa3(Co3P2)6
_symmetry_space_group_name_H-M   'P 1'
_cell_length_a   3.73375200
_cell_length_b   10.47148230
_cell_length_c   12.20321500
_cell_angle_alpha   90.10620597
_cell_angle_beta   90.00000000
_cell_angle_gamma   90.00000000
_symmetry_Int_Tables_number   1
_chemical_formula_structural   Tb2DyPa3(Co3P2)6
_chemical_formula_sum   'Tb2 Dy1 Pa3 Co18 P12'
_cell_volume   477.11947946
_cell_formula_units_Z   1
loop_
 _symmetry_equiv_pos_site_id
 _symmetry_equiv_pos_as_xyz
  1  'x, y, z'
loop_
 _atom_site_type_symbol
 _atom_site_label
 _atom_site_symmetry_multiplicity
 _atom_site_fract_x
 _atom_site_fract_y
 _atom_site_fract_z
 _atom_site_occupancy
  Tb  Tb0  1  0.500000  0.186971  0.205786  1
  Tb  Tb1  1  0.000000  0.314047  0.792905  1
  Dy  Dy2  1  0.000000  0.686067  0.794324  1
  Pa  Pa3  1  0.000000  0.499056  0.528110  1
  Pa  Pa4  1  0.500000  0.000736  0.474563  1
  Pa  Pa5  1  0.500000  0.817867  0.208301  1
  Co  Co6  1  0.500000  0.500131  0.159615  1
  Co  Co7  1  0.000000  0.998994  0.843240  1
  Co  Co8  1  0.500000  0.499495  0.695228  1
  Co  Co9  1  0.000000  0.993652  0.300358  1
  Co  Co10  1  0.000000  0.500304  0.981113  1
  Co  Co11  1  0.500000  0.999937  0.016598  1
  Co  Co12  1  0.500000  0.335430  0.992885  1
  Co  Co13  1  0.500000  0.666229  0.994655  1
  Co  Co14  1  0.000000  0.167480  0.006088  1
  Co  Co15  1  0.000000  0.834661  0.007972  1
  Co  Co16  1  0.500000  0.300760  0.430831  1
  Co  Co17  1  0.500000  0.696732  0.430022  1
  Co  Co18  1  0.000000  0.195401  0.567731  1
  Co  Co19  1  0.000000  0.803238  0.571023  1
  Co  Co20  1  0.500000  0.880873  0.712635  1
  Co  Co21  1  0.500000  0.118686  0.711773  1
  Co  Co22  1  0.000000  0.622836  0.286228  1
  Co  Co23  1  0.000000  0.381500  0.288657  1
  P  P24  1  0.500000  0.500661  0.877082  1
  P  P25  1  0.000000  0.002976  0.118954  1
  P  P26  1  0.500000  0.498548  0.343307  1
  P  P27  1  0.000000  0.999544  0.659028  1
  P  P28  1  0.500000  0.305320  0.615580  1
  P  P29  1  0.500000  0.693371  0.617062  1
  P  P30  1  0.000000  0.190698  0.382480  1
  P  P31  1  0.000000  0.806175  0.388867  1
  P  P32  1  0.500000  0.848009  0.895000  1
  P  P33  1  0.500000  0.152896  0.894985  1
  P  P34  1  0.000000  0.650521  0.102634  1
  P  P35  1  0.000000  0.350198  0.104378  1
