# generated using pymatgen
data_SmDy2WO7
_symmetry_space_group_name_H-M   'P 1'
_cell_length_a   6.49478887
_cell_length_b   6.49478820
_cell_length_c   7.55455600
_cell_angle_alpha   90.00000000
_cell_angle_beta   90.00000000
_cell_angle_gamma   109.20678214
_symmetry_Int_Tables_number   1
_chemical_formula_structural   SmDy2WO7
_chemical_formula_sum   'Sm2 Dy4 W2 O14'
_cell_volume   300.93048277
_cell_formula_units_Z   2
loop_
 _symmetry_equiv_pos_site_id
 _symmetry_equiv_pos_as_xyz
  1  'x, y, z'
loop_
 _atom_site_type_symbol
 _atom_site_label
 _atom_site_symmetry_multiplicity
 _atom_site_fract_x
 _atom_site_fract_y
 _atom_site_fract_z
 _atom_site_occupancy
  Sm  Sm0  1  0.500000  0.500000  0.500000  1
  Sm  Sm1  1  0.500000  0.500000  0.000000  1
  Dy  Dy2  1  0.533092  0.001355  0.750000  1
  Dy  Dy3  1  0.001355  0.533092  0.250000  1
  Dy  Dy4  1  0.466908  0.998645  0.250000  1
  Dy  Dy5  1  0.998645  0.466908  0.750000  1
  W  W6  1  0.000000  0.000000  0.500000  1
  W  W7  1  0.000000  0.000000  0.000000  1
  O  O8  1  0.677850  0.926240  0.471047  1
  O  O9  1  0.926240  0.677850  0.528953  1
  O  O10  1  0.677850  0.926240  0.028953  1
  O  O11  1  0.926240  0.677850  0.971047  1
  O  O12  1  0.322150  0.073760  0.528953  1
  O  O13  1  0.073760  0.322150  0.471047  1
  O  O14  1  0.322150  0.073760  0.971047  1
  O  O15  1  0.073760  0.322150  0.028953  1
  O  O16  1  0.927224  0.072776  0.750000  1
  O  O17  1  0.072776  0.927224  0.250000  1
  O  O18  1  0.365053  0.634947  0.750000  1
  O  O19  1  0.634947  0.365053  0.250000  1
  O  O20  1  0.639417  0.360583  0.750000  1
  O  O21  1  0.360583  0.639417  0.250000  1
