# generated using pymatgen
data_Zn2FeNiIO8
_symmetry_space_group_name_H-M   'P 1'
_cell_length_a   5.84932633
_cell_length_b   5.84932515
_cell_length_c   5.17937744
_cell_angle_alpha   81.47462760
_cell_angle_beta   81.47463568
_cell_angle_gamma   61.62807068
_symmetry_Int_Tables_number   1
_chemical_formula_structural   Zn2FeNiIO8
_chemical_formula_sum   'Zn2 Fe1 Ni1 I1 O8'
_cell_volume   153.58363320
_cell_formula_units_Z   1
loop_
 _symmetry_equiv_pos_site_id
 _symmetry_equiv_pos_as_xyz
  1  'x, y, z'
loop_
 _atom_site_type_symbol
 _atom_site_label
 _atom_site_symmetry_multiplicity
 _atom_site_fract_x
 _atom_site_fract_y
 _atom_site_fract_z
 _atom_site_occupancy
  Zn  Zn0  1  0.712312  0.702331  0.426013  1
  Zn  Zn1  1  0.297669  0.287688  0.573987  1
  Fe  Fe2  1  0.033388  0.966612  0.500000  1
  Ni  Ni3  1  0.248691  0.751309  0.000000  1
  I  I4  1  0.742786  0.257214  0.000000  1
  O  O5  1  0.408666  0.380924  0.884788  1
  O  O6  1  0.619076  0.591334  0.115212  1
  O  O7  1  0.874242  0.921234  0.869326  1
  O  O8  1  0.078766  0.125758  0.130674  1
  O  O9  1  0.359338  0.904719  0.617014  1
  O  O10  1  0.878392  0.348607  0.661056  1
  O  O11  1  0.095281  0.640662  0.382986  1
  O  O12  1  0.651393  0.121608  0.338944  1
