# generated using pymatgen
data_Cs6Nb4SbAsSe22
_symmetry_space_group_name_H-M   'P 1'
_cell_length_a   10.69934003
_cell_length_b   10.69832616
_cell_length_c   10.44883054
_cell_angle_alpha   85.12587512
_cell_angle_beta   85.01432936
_cell_angle_gamma   85.23062268
_symmetry_Int_Tables_number   1
_chemical_formula_structural   Cs6Nb4SbAsSe22
_chemical_formula_sum   'Cs6 Nb4 Sb1 As1 Se22'
_cell_volume   1183.72871917
_cell_formula_units_Z   1
loop_
 _symmetry_equiv_pos_site_id
 _symmetry_equiv_pos_as_xyz
  1  'x, y, z'
loop_
 _atom_site_type_symbol
 _atom_site_label
 _atom_site_symmetry_multiplicity
 _atom_site_fract_x
 _atom_site_fract_y
 _atom_site_fract_z
 _atom_site_occupancy
  Cs  Cs0  1  0.354898  0.200085  0.657353  1
  Cs  Cs1  1  0.193079  0.355007  0.156372  1
  Cs  Cs2  1  0.956623  0.818480  0.396795  1
  Cs  Cs3  1  0.818721  0.957956  0.896497  1
  Cs  Cs4  1  0.557812  0.714442  0.565215  1
  Cs  Cs5  1  0.718740  0.565309  0.060319  1
  Nb  Nb6  1  0.455680  0.917195  0.169906  1
  Nb  Nb7  1  0.207015  0.804448  0.983891  1
  Nb  Nb8  1  0.920496  0.459011  0.669252  1
  Nb  Nb9  1  0.806936  0.208191  0.484420  1
  Sb  Sb10  1  0.587182  0.249923  0.216173  1
  As  As11  1  0.251491  0.590374  0.726350  1
  Se  Se12  1  0.427343  0.101090  0.330136  1
  Se  Se13  1  0.138584  0.040651  0.925696  1
  Se  Se14  1  0.376908  0.613961  0.911205  1
  Se  Se15  1  0.890014  0.465707  0.419887  1
  Se  Se16  1  0.817878  0.167145  0.234301  1
  Se  Se17  1  0.486439  0.097218  0.986684  1
  Se  Se18  1  0.618854  0.382945  0.415086  1
  Se  Se19  1  0.167101  0.805282  0.736573  1
  Se  Se20  1  0.660784  0.841566  0.225584  1
  Se  Se21  1  0.029401  0.694468  0.064540  1
  Se  Se22  1  0.695189  0.031011  0.562301  1
  Se  Se23  1  0.098046  0.488518  0.485954  1
  Se  Se24  1  0.702021  0.348908  0.683281  1
  Se  Se25  1  0.465979  0.888266  0.919958  1
  Se  Se26  1  0.188511  0.983397  0.142300  1
  Se  Se27  1  0.984512  0.190400  0.644543  1
  Se  Se28  1  0.840885  0.663526  0.724562  1
  Se  Se29  1  0.829746  0.311007  0.863979  1
  Se  Se30  1  0.308574  0.823732  0.362054  1
  Se  Se31  1  0.042922  0.137329  0.428785  1
  Se  Se32  1  0.347659  0.698048  0.180431  1
  Se  Se33  1  0.108178  0.439602  0.824536  1
