# generated using pymatgen
data_Dy20Ir2Rh9Au
_symmetry_space_group_name_H-M   'P 1'
_cell_length_a   10.97845042
_cell_length_b   10.97845092
_cell_length_c   6.34756632
_cell_angle_alpha   89.96098449
_cell_angle_beta   89.96097833
_cell_angle_gamma   89.85677981
_symmetry_Int_Tables_number   1
_chemical_formula_structural   Dy20Ir2Rh9Au
_chemical_formula_sum   'Dy20 Ir2 Rh9 Au1'
_cell_volume   765.04644033
_cell_formula_units_Z   1
loop_
 _symmetry_equiv_pos_site_id
 _symmetry_equiv_pos_as_xyz
  1  'x, y, z'
loop_
 _atom_site_type_symbol
 _atom_site_label
 _atom_site_symmetry_multiplicity
 _atom_site_fract_x
 _atom_site_fract_y
 _atom_site_fract_z
 _atom_site_occupancy
  Dy  Dy0  1  0.288363  0.086999  0.376438  1
  Dy  Dy1  1  0.292256  0.907679  0.878133  1
  Dy  Dy2  1  0.704273  0.085130  0.866568  1
  Dy  Dy3  1  0.705094  0.904660  0.380332  1
  Dy  Dy4  1  0.587077  0.789458  0.879866  1
  Dy  Dy5  1  0.580728  0.209856  0.378578  1
  Dy  Dy6  1  0.407907  0.790019  0.380287  1
  Dy  Dy7  1  0.408401  0.207760  0.878603  1
  Dy  Dy8  1  0.210542  0.412923  0.620134  1
  Dy  Dy9  1  0.209981  0.592093  0.119713  1
  Dy  Dy10  1  0.790144  0.419272  0.121422  1
  Dy  Dy11  1  0.792240  0.591599  0.621397  1
  Dy  Dy12  1  0.913001  0.711637  0.123562  1
  Dy  Dy13  1  0.914870  0.295727  0.633432  1
  Dy  Dy14  1  0.092321  0.707744  0.621867  1
  Dy  Dy15  1  0.095340  0.294906  0.119668  1
  Dy  Dy16  1  0.002242  0.995283  0.501543  1
  Dy  Dy17  1  0.004717  0.997758  0.998457  1
  Dy  Dy18  1  0.498544  0.498374  0.999413  1
  Dy  Dy19  1  0.501626  0.501456  0.500587  1
  Ir  Ir20  1  0.155172  0.844828  0.250000  1
  Ir  Ir21  1  0.346737  0.653263  0.750000  1
  Rh  Rh22  1  0.844682  0.847404  0.749412  1
  Rh  Rh23  1  0.152596  0.155318  0.750588  1
  Rh  Rh24  1  0.655770  0.344230  0.750000  1
  Rh  Rh25  1  0.655858  0.652974  0.248211  1
  Rh  Rh26  1  0.347026  0.344142  0.251789  1
  Rh  Rh27  1  0.500770  0.000279  0.126077  1
  Rh  Rh28  1  0.500013  0.001438  0.622353  1
  Rh  Rh29  1  0.998562  0.499987  0.877647  1
  Rh  Rh30  1  0.999721  0.499230  0.373923  1
  Au  Au31  1  0.843428  0.156572  0.250000  1
