# generated using pymatgen
data_Nd2Pa2Al17GaIr6
_symmetry_space_group_name_H-M   'P 1'
_cell_length_a   7.61716682
_cell_length_b   7.61223745
_cell_length_c   9.44143400
_cell_angle_alpha   90.00000000
_cell_angle_beta   90.00000000
_cell_angle_gamma   119.55701251
_symmetry_Int_Tables_number   1
_chemical_formula_structural   Nd2Pa2Al17GaIr6
_chemical_formula_sum   'Nd2 Pa2 Al17 Ga1 Ir6'
_cell_volume   476.20697291
_cell_formula_units_Z   1
loop_
 _symmetry_equiv_pos_site_id
 _symmetry_equiv_pos_as_xyz
  1  'x, y, z'
loop_
 _atom_site_type_symbol
 _atom_site_label
 _atom_site_symmetry_multiplicity
 _atom_site_fract_x
 _atom_site_fract_y
 _atom_site_fract_z
 _atom_site_occupancy
  Nd  Nd0  1  0.672483  0.992936  0.250000  1
  Nd  Nd1  1  0.330004  0.006009  0.750000  1
  Pa  Pa2  1  0.997412  0.674184  0.250000  1
  Pa  Pa3  1  0.001885  0.327556  0.750000  1
  Al  Al4  1  0.866796  0.870637  0.750000  1
  Al  Al5  1  0.001652  0.334000  0.075288  1
  Al  Al6  1  0.998014  0.666255  0.924274  1
  Al  Al7  1  0.998014  0.666255  0.575726  1
  Al  Al8  1  0.337491  0.003567  0.425549  1
  Al  Al9  1  0.001652  0.334000  0.424712  1
  Al  Al10  1  0.662648  0.996301  0.574624  1
  Al  Al11  1  0.662648  0.996301  0.925376  1
  Al  Al12  1  0.337491  0.003567  0.074451  1
  Al  Al13  1  0.334997  0.334546  0.553671  1
  Al  Al14  1  0.664176  0.664642  0.449182  1
  Al  Al15  1  0.664176  0.664642  0.050818  1
  Al  Al16  1  0.334997  0.334546  0.946329  1
  Al  Al17  1  0.337232  0.546579  0.250000  1
  Al  Al18  1  0.661947  0.454044  0.750000  1
  Al  Al19  1  0.550931  0.342585  0.250000  1
  Al  Al20  1  0.449777  0.655910  0.750000  1
  Ga  Ga21  1  0.136967  0.133543  0.250000  1
  Ir  Ir22  1  0.675218  0.330499  0.999577  1
  Ir  Ir23  1  0.323504  0.668350  0.000329  1
  Ir  Ir24  1  0.323504  0.668350  0.499671  1
  Ir  Ir25  1  0.675218  0.330499  0.500423  1
  Ir  Ir26  1  0.999584  0.999849  0.997561  1
  Ir  Ir27  1  0.999584  0.999849  0.502439  1
