# generated using pymatgen
data_Ti7NbAl14GeIr7
_symmetry_space_group_name_H-M   'P 1'
_cell_length_a   8.63561558
_cell_length_b   8.63802605
_cell_length_c   8.62920800
_cell_angle_alpha   120.00503196
_cell_angle_beta   119.89737877
_cell_angle_gamma   90.11416870
_symmetry_Int_Tables_number   1
_chemical_formula_structural   Ti7NbAl14GeIr7
_chemical_formula_sum   'Ti7 Nb1 Al14 Ge1 Ir7'
_cell_volume   455.37630039
_cell_formula_units_Z   1
loop_
 _symmetry_equiv_pos_site_id
 _symmetry_equiv_pos_as_xyz
  1  'x, y, z'
loop_
 _atom_site_type_symbol
 _atom_site_label
 _atom_site_symmetry_multiplicity
 _atom_site_fract_x
 _atom_site_fract_y
 _atom_site_fract_z
 _atom_site_occupancy
  Ti  Ti0  1  0.211083  0.292753  0.496990  1
  Ti  Ti1  1  0.204331  0.704652  0.498214  1
  Ti  Ti2  1  0.213574  0.715982  0.922046  1
  Ti  Ti3  1  0.794883  0.710938  0.498363  1
  Ti  Ti4  1  0.787414  0.286562  0.497275  1
  Ti  Ti5  1  0.379923  0.123724  0.744464  1
  Ti  Ti6  1  0.379270  0.636484  0.256256  1
  Nb  Nb7  1  0.797439  0.297574  0.089323  1
  Al  Al8  1  0.158026  0.339162  0.180453  1
  Al  Al9  1  0.157236  0.974231  0.816340  1
  Al  Al10  1  0.152650  0.342747  0.809344  1
  Al  Al11  1  0.527883  0.341236  0.186827  1
  Al  Al12  1  0.841587  0.655955  0.813511  1
  Al  Al13  1  0.840544  0.023750  0.182522  1
  Al  Al14  1  0.838177  0.659216  0.178453  1
  Al  Al15  1  0.476055  0.657910  0.818040  1
  Al  Al16  1  0.380372  0.120886  0.260237  1
  Al  Al17  1  0.861563  0.120575  0.741155  1
  Al  Al18  1  0.621259  0.879476  0.259233  1
  Al  Al19  1  0.620419  0.362407  0.740846  1
  Al  Al20  1  0.621236  0.878464  0.742126  1
  Al  Al21  1  0.136985  0.879170  0.258112  1
  Ge  Ge22  1  0.003851  0.502432  0.511484  1
  Ir  Ir23  1  0.000893  0.999252  0.500517  1
  Ir  Ir24  1  0.497189  0.998236  0.998257  1
  Ir  Ir25  1  0.496212  0.498375  0.999778  1
  Ir  Ir26  1  0.497733  0.499620  0.498098  1
  Ir  Ir27  1  0.001771  0.500578  0.000818  1
  Ir  Ir28  1  0.000873  0.998510  0.999510  1
  Ir  Ir29  1  0.499564  0.999142  0.501409  1
