# generated using pymatgen
data_Dy6Y4Si6O
_symmetry_space_group_name_H-M   'P 1'
_cell_length_a   8.42160416
_cell_length_b   8.41901129
_cell_length_c   6.30724612
_cell_angle_alpha   90.01120077
_cell_angle_beta   89.97760536
_cell_angle_gamma   120.01018836
_symmetry_Int_Tables_number   1
_chemical_formula_structural   Dy6Y4Si6O
_chemical_formula_sum   'Dy6 Y4 Si6 O1'
_cell_volume   387.24132490
_cell_formula_units_Z   1
loop_
 _symmetry_equiv_pos_site_id
 _symmetry_equiv_pos_as_xyz
  1  'x, y, z'
loop_
 _atom_site_type_symbol
 _atom_site_label
 _atom_site_symmetry_multiplicity
 _atom_site_fract_x
 _atom_site_fract_y
 _atom_site_fract_z
 _atom_site_occupancy
  Dy  Dy0  1  0.333279  0.666617  0.499957  1
  Dy  Dy1  1  0.666663  0.333383  0.499957  1
  Dy  Dy2  1  0.666669  0.333370  0.000016  1
  Dy  Dy3  1  0.333298  0.666630  0.000016  1
  Dy  Dy4  1  0.000017  0.763842  0.260039  1
  Dy  Dy5  1  0.236175  0.236158  0.260039  1
  Y  Y6  1  0.763539  0.000000  0.259651  1
  Y  Y7  1  0.000066  0.236618  0.740364  1
  Y  Y8  1  0.763448  0.763382  0.740364  1
  Y  Y9  1  0.236569  0.000000  0.740377  1
  Si  Si10  1  0.000053  0.396988  0.249723  1
  Si  Si11  1  0.603065  0.603012  0.249723  1
  Si  Si12  1  0.396807  0.000000  0.249738  1
  Si  Si13  1  0.999978  0.603199  0.750290  1
  Si  Si14  1  0.396779  0.396801  0.750290  1
  Si  Si15  1  0.603145  0.000000  0.750249  1
  O  O16  1  0.000451  0.000000  0.499206  1
