# generated using pymatgen
data_YTm4ThRh18
_symmetry_space_group_name_H-M   'P 1'
_cell_length_a   5.26732400
_cell_length_b   5.26732366
_cell_length_c   17.52086500
_cell_angle_alpha   90.00000000
_cell_angle_beta   90.00000000
_cell_angle_gamma   120.00000214
_symmetry_Int_Tables_number   1
_chemical_formula_structural   YTm4ThRh18
_chemical_formula_sum   'Y1 Tm4 Th1 Rh18'
_cell_volume   420.98459487
_cell_formula_units_Z   1
loop_
 _symmetry_equiv_pos_site_id
 _symmetry_equiv_pos_as_xyz
  1  'x, y, z'
loop_
 _atom_site_type_symbol
 _atom_site_label
 _atom_site_symmetry_multiplicity
 _atom_site_fract_x
 _atom_site_fract_y
 _atom_site_fract_z
 _atom_site_occupancy
  Y  Y0  1  0.333333  0.666667  0.750000  1
  Tm  Tm1  1  0.333333  0.666667  0.542248  1
  Tm  Tm2  1  0.666667  0.333333  0.039323  1
  Tm  Tm3  1  0.666667  0.333333  0.460677  1
  Tm  Tm4  1  0.333333  0.666667  0.957752  1
  Th  Th5  1  0.666667  0.333333  0.250000  1
  Rh  Rh6  1  0.167618  0.335233  0.123823  1
  Rh  Rh7  1  0.832631  0.665261  0.625140  1
  Rh  Rh8  1  0.664767  0.832382  0.123823  1
  Rh  Rh9  1  0.167618  0.832382  0.123823  1
  Rh  Rh10  1  0.832631  0.167369  0.625140  1
  Rh  Rh11  1  0.334739  0.167369  0.625140  1
  Rh  Rh12  1  0.832631  0.665261  0.874860  1
  Rh  Rh13  1  0.832631  0.167369  0.874860  1
  Rh  Rh14  1  0.334739  0.167369  0.874860  1
  Rh  Rh15  1  0.664767  0.832382  0.376177  1
  Rh  Rh16  1  0.167618  0.832382  0.376177  1
  Rh  Rh17  1  0.167618  0.335233  0.376177  1
  Rh  Rh18  1  0.000000  0.000000  0.250000  1
  Rh  Rh19  1  0.000000  0.000000  0.750000  1
  Rh  Rh20  1  0.333333  0.666667  0.250000  1
  Rh  Rh21  1  0.666667  0.333333  0.750000  1
  Rh  Rh22  1  0.000000  0.000000  0.999552  1
  Rh  Rh23  1  0.000000  0.000000  0.500448  1
