# generated using pymatgen
data_La13Th(Ir2Pd)2
_symmetry_space_group_name_H-M   'P 1'
_cell_length_a   6.57522288
_cell_length_b   10.28849927
_cell_length_c   10.27694021
_cell_angle_alpha   120.03453460
_cell_angle_beta   90.16500828
_cell_angle_gamma   90.00179883
_symmetry_Int_Tables_number   1
_chemical_formula_structural   La13Th(Ir2Pd)2
_chemical_formula_sum   'La13 Th1 Ir4 Pd2'
_cell_volume   601.87084259
_cell_formula_units_Z   1
loop_
 _symmetry_equiv_pos_site_id
 _symmetry_equiv_pos_as_xyz
  1  'x, y, z'
loop_
 _atom_site_type_symbol
 _atom_site_label
 _atom_site_symmetry_multiplicity
 _atom_site_fract_x
 _atom_site_fract_y
 _atom_site_fract_z
 _atom_site_occupancy
  La  La0  1  0.964231  0.669811  0.339602  1
  La  La1  1  0.252106  0.121414  0.865075  1
  La  La2  1  0.252095  0.743635  0.865088  1
  La  La3  1  0.254190  0.129947  0.259913  1
  La  La4  1  0.740706  0.875491  0.124826  1
  La  La5  1  0.740737  0.249305  0.124773  1
  La  La6  1  0.748947  0.874452  0.748921  1
  La  La7  1  0.439816  0.541519  0.468165  1
  La  La8  1  0.439731  0.926687  0.468176  1
  La  La9  1  0.445450  0.534275  0.068475  1
  La  La10  1  0.937488  0.461240  0.541758  1
  La  La11  1  0.937436  0.080516  0.541743  1
  La  La12  1  0.940829  0.460034  0.920137  1
  Th  Th13  1  0.479168  0.333336  0.666663  1
  Ir  Ir14  1  0.191943  0.810577  0.621207  1
  Ir  Ir15  1  0.684911  0.192459  0.809119  1
  Ir  Ir16  1  0.684970  0.616651  0.809130  1
  Ir  Ir17  1  0.684958  0.190910  0.381779  1
  Pd  Pd18  1  0.191140  0.811202  0.187718  1
  Pd  Pd19  1  0.191143  0.376537  0.187732  1
