# generated using pymatgen
data_Tm12TcNi4Hg
_symmetry_space_group_name_H-M   'P 1'
_cell_length_a   8.16618071
_cell_length_b   8.16502705
_cell_length_c   8.16588633
_cell_angle_alpha   106.89798827
_cell_angle_beta   110.00568164
_cell_angle_gamma   111.54760248
_symmetry_Int_Tables_number   1
_chemical_formula_structural   Tm12TcNi4Hg
_chemical_formula_sum   'Tm12 Tc1 Ni4 Hg1'
_cell_volume   418.41079598
_cell_formula_units_Z   1
loop_
 _symmetry_equiv_pos_site_id
 _symmetry_equiv_pos_as_xyz
  1  'x, y, z'
loop_
 _atom_site_type_symbol
 _atom_site_label
 _atom_site_symmetry_multiplicity
 _atom_site_fract_x
 _atom_site_fract_y
 _atom_site_fract_z
 _atom_site_occupancy
  Tm  Tm0  1  0.690317  0.272885  0.963202  1
  Tm  Tm1  1  0.309682  0.727154  0.036836  1
  Tm  Tm2  1  0.690345  0.727161  0.417456  1
  Tm  Tm3  1  0.309650  0.272828  0.582527  1
  Tm  Tm4  1  0.803270  0.126259  0.323104  1
  Tm  Tm5  1  0.803196  0.480067  0.676947  1
  Tm  Tm6  1  0.196754  0.873748  0.676886  1
  Tm  Tm7  1  0.196787  0.519899  0.323044  1
  Tm  Tm8  1  0.599713  0.778800  0.820929  1
  Tm  Tm9  1  0.957899  0.778758  0.179182  1
  Tm  Tm10  1  0.042081  0.221251  0.820799  1
  Tm  Tm11  1  0.400261  0.221202  0.179050  1
  Tc  Tc12  1  0.499984  0.500007  0.999990  1
  Ni  Ni13  1  0.855722  0.499943  0.355779  1
  Ni  Ni14  1  0.144312  0.500072  0.644277  1
  Ni  Ni15  1  0.999994  0.120077  0.120051  1
  Ni  Ni16  1  0.000008  0.879889  0.879917  1
  Hg  Hg17  1  0.500025  0.999998  0.500023  1
