# generated using pymatgen
data_Tb8In(Pd3Pt)6
_symmetry_space_group_name_H-M   'P 1'
_cell_length_a   8.43198400
_cell_length_b   8.45078400
_cell_length_c   8.41590500
_cell_angle_alpha   90.00000000
_cell_angle_beta   90.00000000
_cell_angle_gamma   90.00000000
_symmetry_Int_Tables_number   1
_chemical_formula_structural   Tb8In(Pd3Pt)6
_chemical_formula_sum   'Tb8 In1 Pd18 Pt6'
_cell_volume   599.69109460
_cell_formula_units_Z   1
loop_
 _symmetry_equiv_pos_site_id
 _symmetry_equiv_pos_as_xyz
  1  'x, y, z'
loop_
 _atom_site_type_symbol
 _atom_site_label
 _atom_site_symmetry_multiplicity
 _atom_site_fract_x
 _atom_site_fract_y
 _atom_site_fract_z
 _atom_site_occupancy
  Tb  Tb0  1  0.251542  0.251962  0.251021  1
  Tb  Tb1  1  0.748458  0.748038  0.748979  1
  Tb  Tb2  1  0.748458  0.748038  0.251021  1
  Tb  Tb3  1  0.748458  0.251962  0.748979  1
  Tb  Tb4  1  0.251542  0.251962  0.748979  1
  Tb  Tb5  1  0.251542  0.748038  0.251021  1
  Tb  Tb6  1  0.251542  0.748038  0.748979  1
  Tb  Tb7  1  0.748458  0.251962  0.251021  1
  In  In8  1  0.000000  0.000000  0.000000  1
  Pd  Pd9  1  0.500000  0.000000  0.266981  1
  Pd  Pd10  1  0.266904  0.000000  0.500000  1
  Pd  Pd11  1  0.500000  0.000000  0.733019  1
  Pd  Pd12  1  0.733096  0.000000  0.500000  1
  Pd  Pd13  1  0.000000  0.500000  0.266560  1
  Pd  Pd14  1  0.000000  0.500000  0.733440  1
  Pd  Pd15  1  0.255229  0.500000  0.500000  1
  Pd  Pd16  1  0.744771  0.500000  0.500000  1
  Pd  Pd17  1  0.500000  0.255326  0.500000  1
  Pd  Pd18  1  0.500000  0.744674  0.500000  1
  Pd  Pd19  1  0.500000  0.500000  0.255825  1
  Pd  Pd20  1  0.500000  0.500000  0.744175  1
  Pd  Pd21  1  0.312381  0.000000  0.000000  1
  Pd  Pd22  1  0.687619  0.000000  0.000000  1
  Pd  Pd23  1  0.000000  0.312188  0.000000  1
  Pd  Pd24  1  0.000000  0.687812  0.000000  1
  Pd  Pd25  1  0.000000  0.000000  0.312694  1
  Pd  Pd26  1  0.000000  0.000000  0.687306  1
  Pt  Pt27  1  0.265498  0.500000  0.000000  1
  Pt  Pt28  1  0.734502  0.500000  0.000000  1
  Pt  Pt29  1  0.000000  0.265826  0.500000  1
  Pt  Pt30  1  0.500000  0.265318  0.000000  1
  Pt  Pt31  1  0.000000  0.734174  0.500000  1
  Pt  Pt32  1  0.500000  0.734682  0.000000  1
