# generated using pymatgen
data_YbHoCo5B4
_symmetry_space_group_name_H-M   'P 1'
_cell_length_a   6.98774894
_cell_length_b   5.88671729
_cell_length_c   5.18930286
_cell_angle_alpha   77.95100889
_cell_angle_beta   55.47456672
_cell_angle_gamma   46.57442984
_symmetry_Int_Tables_number   1
_chemical_formula_structural   YbHoCo5B4
_chemical_formula_sum   'Yb1 Ho1 Co5 B4'
_cell_volume   121.75123152
_cell_formula_units_Z   1
loop_
 _symmetry_equiv_pos_site_id
 _symmetry_equiv_pos_as_xyz
  1  'x, y, z'
loop_
 _atom_site_type_symbol
 _atom_site_label
 _atom_site_symmetry_multiplicity
 _atom_site_fract_x
 _atom_site_fract_y
 _atom_site_fract_z
 _atom_site_occupancy
  Yb  Yb0  1  0.143953  0.143952  0.856048  1
  Ho  Ho1  1  0.858571  0.858569  0.141430  1
  Co  Co2  1  0.500446  0.500448  0.999553  1
  Co  Co3  1  0.249025  0.249027  0.250974  1
  Co  Co4  1  0.000447  0.000447  0.499554  1
  Co  Co5  1  0.499427  0.499425  0.500574  1
  Co  Co6  1  0.749026  0.749027  0.750974  1
  B  B7  1  0.472397  0.787598  0.212401  1
  B  B8  1  0.210969  0.528140  0.471859  1
  B  B9  1  0.787600  0.472395  0.527604  1
  B  B10  1  0.528141  0.210968  0.789032  1
