# generated using pymatgen
data_Sm3V(Ga3Pd)8
_symmetry_space_group_name_H-M   'P 1'
_cell_length_a   8.53239645
_cell_length_b   8.53787630
_cell_length_c   8.53022000
_cell_angle_alpha   89.64146100
_cell_angle_beta   89.51123651
_cell_angle_gamma   89.71807080
_symmetry_Int_Tables_number   1
_chemical_formula_structural   Sm3V(Ga3Pd)8
_chemical_formula_sum   'Sm3 V1 Ga24 Pd8'
_cell_volume   621.37198213
_cell_formula_units_Z   1
loop_
 _symmetry_equiv_pos_site_id
 _symmetry_equiv_pos_as_xyz
  1  'x, y, z'
loop_
 _atom_site_type_symbol
 _atom_site_label
 _atom_site_symmetry_multiplicity
 _atom_site_fract_x
 _atom_site_fract_y
 _atom_site_fract_z
 _atom_site_occupancy
  Sm  Sm0  1  0.000000  0.500000  0.000000  1
  Sm  Sm1  1  0.500000  0.000000  0.000000  1
  Sm  Sm2  1  0.000000  0.000000  0.500000  1
  V  V3  1  0.500000  0.500000  0.500000  1
  Ga  Ga4  1  0.990328  0.642630  0.642754  1
  Ga  Ga5  1  0.642749  0.642652  0.990264  1
  Ga  Ga6  1  0.642707  0.990409  0.642735  1
  Ga  Ga7  1  0.009672  0.357370  0.357246  1
  Ga  Ga8  1  0.357251  0.357348  0.009736  1
  Ga  Ga9  1  0.357293  0.009591  0.357265  1
  Ga  Ga10  1  0.733433  0.500043  0.266578  1
  Ga  Ga11  1  0.266567  0.499957  0.733422  1
  Ga  Ga12  1  0.499886  0.266256  0.733663  1
  Ga  Ga13  1  0.500114  0.733744  0.266337  1
  Ga  Ga14  1  0.266192  0.733878  0.500074  1
  Ga  Ga15  1  0.733808  0.266122  0.499926  1
  Ga  Ga16  1  0.838586  0.141697  0.838678  1
  Ga  Ga17  1  0.141628  0.838598  0.838838  1
  Ga  Ga18  1  0.838862  0.838723  0.141557  1
  Ga  Ga19  1  0.161414  0.858303  0.161322  1
  Ga  Ga20  1  0.858372  0.161402  0.161162  1
  Ga  Ga21  1  0.161138  0.161277  0.858443  1
  Ga  Ga22  1  0.725896  0.489161  0.725837  1
  Ga  Ga23  1  0.489328  0.725895  0.725736  1
  Ga  Ga24  1  0.725729  0.725837  0.489410  1
  Ga  Ga25  1  0.274104  0.510839  0.274163  1
  Ga  Ga26  1  0.510672  0.274105  0.274264  1
  Ga  Ga27  1  0.274271  0.274163  0.510590  1
  Pd  Pd28  1  0.835943  0.836232  0.835744  1
  Pd  Pd29  1  0.164057  0.163768  0.164256  1
  Pd  Pd30  1  0.664800  0.335161  0.000122  1
  Pd  Pd31  1  0.000214  0.335159  0.664829  1
  Pd  Pd32  1  0.335177  0.000085  0.664848  1
  Pd  Pd33  1  0.335200  0.664839  0.999878  1
  Pd  Pd34  1  0.999786  0.664841  0.335171  1
  Pd  Pd35  1  0.664823  0.999915  0.335152  1
