# generated using pymatgen
data_Li12La5Y4Bi3(WO6)8
_symmetry_space_group_name_H-M   'P 1'
_cell_length_a   10.97054242
_cell_length_b   10.91302233
_cell_length_c   10.94681700
_cell_angle_alpha   109.42780111
_cell_angle_beta   109.63980653
_cell_angle_gamma   109.32949739
_symmetry_Int_Tables_number   1
_chemical_formula_structural   Li12La5Y4Bi3(WO6)8
_chemical_formula_sum   'Li12 La5 Y4 Bi3 W8 O48'
_cell_volume   1009.07936468
_cell_formula_units_Z   1
loop_
 _symmetry_equiv_pos_site_id
 _symmetry_equiv_pos_as_xyz
  1  'x, y, z'
loop_
 _atom_site_type_symbol
 _atom_site_label
 _atom_site_symmetry_multiplicity
 _atom_site_fract_x
 _atom_site_fract_y
 _atom_site_fract_z
 _atom_site_occupancy
  Li  Li0  1  0.747380  0.375773  0.123780  1
  Li  Li1  1  0.877534  0.748382  0.124754  1
  Li  Li2  1  0.125522  0.377339  0.251474  1
  Li  Li3  1  0.625507  0.876342  0.252291  1
  Li  Li4  1  0.625881  0.251819  0.373390  1
  Li  Li5  1  0.246939  0.119222  0.372674  1
  Li  Li6  1  0.374464  0.752348  0.623790  1
  Li  Li7  1  0.750657  0.870473  0.624115  1
  Li  Li8  1  0.377836  0.125095  0.752731  1
  Li  Li9  1  0.874429  0.629298  0.750060  1
  Li  Li10  1  0.126949  0.249599  0.874807  1
  Li  Li11  1  0.246576  0.625291  0.875815  1
  La  La12  1  0.244686  0.372498  0.620977  1
  La  La13  1  0.626138  0.374187  0.748676  1
  La  La14  1  0.125291  0.876063  0.751805  1
  La  La15  1  0.626634  0.753536  0.879316  1
  La  La16  1  0.754115  0.126796  0.878139  1
  Y  Y17  1  0.253989  0.876283  0.127990  1
  Y  Y18  1  0.374500  0.251662  0.127266  1
  Y  Y19  1  0.875807  0.126937  0.252273  1
  Y  Y20  1  0.374464  0.624131  0.248190  1
  Bi  Bi21  1  0.133959  0.746483  0.362253  1
  Bi  Bi22  1  0.739601  0.619745  0.369265  1
  Bi  Bi23  1  0.880618  0.244529  0.610047  1
  W  W24  1  0.006120  0.002360  0.008607  1
  W  W25  1  0.502557  0.005979  0.007683  1
  W  W26  1  0.496122  0.497990  0.000369  1
  W  W27  1  0.003947  0.501608  0.996750  1
  W  W28  1  0.502164  0.997299  0.496418  1
  W  W29  1  0.996776  0.500175  0.495788  1
  W  W30  1  0.999240  0.994607  0.494442  1
  W  W31  1  0.495532  0.498740  0.495431  1
  O  O32  1  0.328238  0.406869  0.028485  1
  O  O33  1  0.201959  0.622448  0.030223  1
  O  O34  1  0.887515  0.910277  0.085211  1
  O  O35  1  0.698492  0.174779  0.084723  1
  O  O36  1  0.623168  0.929475  0.100195  1
  O  O37  1  0.977829  0.171193  0.100459  1
  O  O38  1  0.033392  0.704536  0.121244  1
  O  O39  1  0.587556  0.416092  0.117175  1
  O  O40  1  0.202782  0.078651  0.174805  1
  O  O41  1  0.472545  0.096224  0.174168  1
  O  O42  1  0.124176  0.532300  0.201893  1
  O  O43  1  0.575539  0.670608  0.198263  1
  O  O44  1  0.327054  0.420597  0.297908  1
  O  O45  1  0.469791  0.876833  0.297489  1
  O  O46  1  0.914529  0.805686  0.323394  1
  O  O47  1  0.902144  0.515666  0.324482  1
  O  O48  1  0.575226  0.405910  0.377116  1
  O  O49  1  0.299667  0.967892  0.377020  1
  O  O50  1  0.828810  0.031260  0.407328  1
  O  O51  1  0.072629  0.377663  0.403591  1
  O  O52  1  0.085543  0.113592  0.413128  1
  O  O53  1  0.826021  0.295173  0.415572  1
  O  O54  1  0.587680  0.671427  0.470062  1
  O  O55  1  0.380205  0.795578  0.467930  1
  O  O56  1  0.607381  0.187869  0.514181  1
  O  O57  1  0.405504  0.326309  0.516798  1
  O  O58  1  0.172209  0.687878  0.583128  1
  O  O59  1  0.907236  0.886720  0.578265  1
  O  O60  1  0.174385  0.987947  0.596014  1
  O  O61  1  0.916506  0.610908  0.590501  1
  O  O62  1  0.419240  0.593041  0.610729  1
  O  O63  1  0.687799  0.011377  0.608967  1
  O  O64  1  0.076905  0.196744  0.669665  1
  O  O65  1  0.084797  0.470599  0.670495  1
  O  O66  1  0.669567  0.578529  0.689019  1
  O  O67  1  0.520124  0.110580  0.689699  1
  O  O68  1  0.890965  0.489714  0.813453  1
  O  O69  1  0.420361  0.327398  0.807742  1
  O  O70  1  0.519173  0.909343  0.831220  1
  O  O71  1  0.813008  0.922189  0.831783  1
  O  O72  1  0.986178  0.311587  0.893933  1
  O  O73  1  0.405744  0.579793  0.888398  1
  O  O74  1  0.387302  0.085958  0.914218  1
  O  O75  1  0.027739  0.828958  0.914327  1
  O  O76  1  0.122396  0.098751  0.931138  1
  O  O77  1  0.309254  0.832430  0.931017  1
  O  O78  1  0.811507  0.390194  0.980825  1
  O  O79  1  0.670283  0.591870  0.981254  1
