# generated using pymatgen
data_Rb7NbP4
_symmetry_space_group_name_H-M   'P 1'
_cell_length_a   8.56436800
_cell_length_b   9.42841000
_cell_length_c   10.54019300
_cell_angle_alpha   90.00000000
_cell_angle_beta   90.00000000
_cell_angle_gamma   90.00000000
_symmetry_Int_Tables_number   1
_chemical_formula_structural   Rb7NbP4
_chemical_formula_sum   'Rb14 Nb2 P8'
_cell_volume   851.10343475
_cell_formula_units_Z   2
loop_
 _symmetry_equiv_pos_site_id
 _symmetry_equiv_pos_as_xyz
  1  'x, y, z'
loop_
 _atom_site_type_symbol
 _atom_site_label
 _atom_site_symmetry_multiplicity
 _atom_site_fract_x
 _atom_site_fract_y
 _atom_site_fract_z
 _atom_site_occupancy
  Rb  Rb0  1  0.877632  0.029694  0.000000  1
  Rb  Rb1  1  0.707838  0.833200  0.714662  1
  Rb  Rb2  1  0.391930  0.888971  0.000000  1
  Rb  Rb3  1  0.377632  0.970306  0.500000  1
  Rb  Rb4  1  0.873716  0.467900  0.288971  1
  Rb  Rb5  1  0.891930  0.111029  0.500000  1
  Rb  Rb6  1  0.663778  0.339190  0.000000  1
  Rb  Rb7  1  0.163778  0.660810  0.500000  1
  Rb  Rb8  1  0.207838  0.166800  0.214662  1
  Rb  Rb9  1  0.373716  0.532100  0.211029  1
  Rb  Rb10  1  0.373716  0.532100  0.788971  1
  Rb  Rb11  1  0.873716  0.467900  0.711029  1
  Rb  Rb12  1  0.707838  0.833200  0.285338  1
  Rb  Rb13  1  0.207838  0.166800  0.785338  1
  Nb  Nb14  1  0.998294  0.672443  0.000000  1
  Nb  Nb15  1  0.498294  0.327557  0.500000  1
  P  P16  1  0.715112  0.682612  0.000000  1
  P  P17  1  0.215112  0.317388  0.500000  1
  P  P18  1  0.073597  0.422429  0.000000  1
  P  P19  1  0.573597  0.577571  0.500000  1
  P  P20  1  0.088825  0.798952  0.192228  1
  P  P21  1  0.588825  0.201048  0.307772  1
  P  P22  1  0.588825  0.201048  0.692228  1
  P  P23  1  0.088825  0.798952  0.807772  1
