# generated using pymatgen
data_Ho2Tm4Al24Ru7Rh
_symmetry_space_group_name_H-M   'P 1'
_cell_length_a   8.75685647
_cell_length_b   8.78969770
_cell_length_c   9.58955014
_cell_angle_alpha   90.00977494
_cell_angle_beta   89.85323882
_cell_angle_gamma   120.11979275
_symmetry_Int_Tables_number   1
_chemical_formula_structural   Ho2Tm4Al24Ru7Rh
_chemical_formula_sum   'Ho2 Tm4 Al24 Ru7 Rh1'
_cell_volume   638.44537046
_cell_formula_units_Z   1
loop_
 _symmetry_equiv_pos_site_id
 _symmetry_equiv_pos_as_xyz
  1  'x, y, z'
loop_
 _atom_site_type_symbol
 _atom_site_label
 _atom_site_symmetry_multiplicity
 _atom_site_fract_x
 _atom_site_fract_y
 _atom_site_fract_z
 _atom_site_occupancy
  Ho  Ho0  1  0.805160  0.191491  0.748934  1
  Ho  Ho1  1  0.194840  0.808509  0.251066  1
  Tm  Tm2  1  0.388711  0.194435  0.749594  1
  Tm  Tm3  1  0.611289  0.805565  0.250406  1
  Tm  Tm4  1  0.804434  0.612536  0.748813  1
  Tm  Tm5  1  0.195566  0.387464  0.251187  1
  Al  Al6  1  0.665171  0.332868  0.979962  1
  Al  Al7  1  0.334829  0.667132  0.020038  1
  Al  Al8  1  0.333279  0.666367  0.480755  1
  Al  Al9  1  0.666721  0.333633  0.519245  1
  Al  Al10  1  0.837917  0.163326  0.421820  1
  Al  Al11  1  0.162083  0.836674  0.578180  1
  Al  Al12  1  0.326351  0.163305  0.422674  1
  Al  Al13  1  0.163655  0.838774  0.921760  1
  Al  Al14  1  0.673649  0.836695  0.577326  1
  Al  Al15  1  0.836345  0.161226  0.078240  1
  Al  Al16  1  0.837708  0.674431  0.422101  1
  Al  Al17  1  0.674402  0.837104  0.922305  1
  Al  Al18  1  0.162292  0.325569  0.577899  1
  Al  Al19  1  0.325598  0.162896  0.077695  1
  Al  Al20  1  0.163819  0.325043  0.921988  1
  Al  Al21  1  0.836181  0.674957  0.078012  1
  Al  Al22  1  0.437619  0.560963  0.750216  1
  Al  Al23  1  0.562381  0.439037  0.249784  1
  Al  Al24  1  0.122793  0.561675  0.749330  1
  Al  Al25  1  0.877207  0.438325  0.250670  1
  Al  Al26  1  0.437100  0.876196  0.750213  1
  Al  Al27  1  0.562900  0.123804  0.249787  1
  Al  Al28  1  0.000018  0.999682  0.749958  1
  Al  Al29  1  0.999982  0.000318  0.250042  1
  Ru  Ru30  1  0.500000  0.500000  0.000000  1
  Ru  Ru31  1  0.500000  0.500000  0.500000  1
  Ru  Ru32  1  0.500000  0.000000  0.000000  1
  Ru  Ru33  1  0.000000  0.500000  0.500000  1
  Ru  Ru34  1  0.500000  0.000000  0.500000  1
  Ru  Ru35  1  0.000000  0.000000  0.000000  1
  Ru  Ru36  1  0.000000  0.000000  0.500000  1
  Rh  Rh37  1  0.000000  0.500000  0.000000  1
