# generated using pymatgen
data_Mg3In9CoRh3
_symmetry_space_group_name_H-M   'P 1'
_cell_length_a   7.11001050
_cell_length_b   7.01156764
_cell_length_c   7.03766000
_cell_angle_alpha   90.00000000
_cell_angle_beta   90.00000000
_cell_angle_gamma   90.33208632
_symmetry_Int_Tables_number   1
_chemical_formula_structural   Mg3In9CoRh3
_chemical_formula_sum   'Mg3 In9 Co1 Rh3'
_cell_volume   350.83778192
_cell_formula_units_Z   1
loop_
 _symmetry_equiv_pos_site_id
 _symmetry_equiv_pos_as_xyz
  1  'x, y, z'
loop_
 _atom_site_type_symbol
 _atom_site_label
 _atom_site_symmetry_multiplicity
 _atom_site_fract_x
 _atom_site_fract_y
 _atom_site_fract_z
 _atom_site_occupancy
  Mg  Mg0  1  0.998744  0.501839  0.000000  1
  Mg  Mg1  1  0.999499  0.500223  0.500000  1
  Mg  Mg2  1  0.500125  0.000279  0.500000  1
  In  In3  1  0.504281  0.995911  0.000000  1
  In  In4  1  0.156064  0.162251  0.263534  1
  In  In5  1  0.341906  0.656202  0.758857  1
  In  In6  1  0.665266  0.351926  0.760426  1
  In  In7  1  0.665266  0.351926  0.239574  1
  In  In8  1  0.341906  0.656202  0.241143  1
  In  In9  1  0.837794  0.831215  0.260355  1
  In  In10  1  0.156064  0.162251  0.736466  1
  In  In11  1  0.837794  0.831215  0.739645  1
  Co  Co12  1  0.646180  0.650745  0.000000  1
  Rh  Rh13  1  0.352690  0.349660  0.000000  1
  Rh  Rh14  1  0.148532  0.850451  0.500000  1
  Rh  Rh15  1  0.847888  0.147703  0.500000  1
