# generated using pymatgen
data_Yb3Er3(Si3Ru)8
_symmetry_space_group_name_H-M   'P 1'
_cell_length_a   10.14619057
_cell_length_b   10.14619108
_cell_length_c   8.12134107
_cell_angle_alpha   89.99419104
_cell_angle_beta   89.99418628
_cell_angle_gamma   132.80099285
_symmetry_Int_Tables_number   1
_chemical_formula_structural   Yb3Er3(Si3Ru)8
_chemical_formula_sum   'Yb3 Er3 Si24 Ru8'
_cell_volume   613.42718039
_cell_formula_units_Z   1
loop_
 _symmetry_equiv_pos_site_id
 _symmetry_equiv_pos_as_xyz
  1  'x, y, z'
loop_
 _atom_site_type_symbol
 _atom_site_label
 _atom_site_symmetry_multiplicity
 _atom_site_fract_x
 _atom_site_fract_y
 _atom_site_fract_z
 _atom_site_occupancy
  Yb  Yb0  1  0.498687  0.998819  0.250237  1
  Yb  Yb1  1  0.001181  0.501313  0.749763  1
  Yb  Yb2  1  0.500016  0.499984  0.500000  1
  Er  Er3  1  0.501516  0.001412  0.749804  1
  Er  Er4  1  0.998588  0.498484  0.250196  1
  Er  Er5  1  0.000006  0.999994  0.000000  1
  Si  Si6  1  0.389003  0.154966  0.004435  1
  Si  Si7  1  0.653455  0.886964  0.494427  1
  Si  Si8  1  0.113036  0.346545  0.505573  1
  Si  Si9  1  0.845034  0.610997  0.995565  1
  Si  Si10  1  0.611323  0.844960  0.993847  1
  Si  Si11  1  0.346380  0.113453  0.506958  1
  Si  Si12  1  0.886547  0.653620  0.493042  1
  Si  Si13  1  0.155040  0.388677  0.006153  1
  Si  Si14  1  0.610067  0.376776  0.229842  1
  Si  Si15  1  0.876348  0.110072  0.271438  1
  Si  Si16  1  0.889928  0.123652  0.728562  1
  Si  Si17  1  0.623224  0.389933  0.770158  1
  Si  Si18  1  0.390621  0.623739  0.770395  1
  Si  Si19  1  0.124472  0.890667  0.728407  1
  Si  Si20  1  0.705603  0.294397  0.000000  1
  Si  Si21  1  0.794565  0.205435  0.500000  1
  Si  Si22  1  0.294809  0.705191  0.000000  1
  Si  Si23  1  0.205002  0.794998  0.500000  1
  Si  Si24  1  0.164805  0.171173  0.334071  1
  Si  Si25  1  0.669032  0.662586  0.168239  1
  Si  Si26  1  0.337414  0.330968  0.831761  1
  Si  Si27  1  0.828827  0.835195  0.665929  1
  Si  Si28  1  0.376261  0.609379  0.229605  1
  Si  Si29  1  0.109333  0.875528  0.271593  1
  Ru  Ru30  1  0.627089  0.628469  0.874991  1
  Ru  Ru31  1  0.125604  0.124378  0.627690  1
  Ru  Ru32  1  0.875622  0.874396  0.372310  1
  Ru  Ru33  1  0.371531  0.372911  0.125009  1
  Ru  Ru34  1  0.329003  0.670997  0.500000  1
  Ru  Ru35  1  0.170069  0.829931  0.000000  1
  Ru  Ru36  1  0.670314  0.329686  0.500000  1
  Ru  Ru37  1  0.830643  0.169357  0.000000  1
