# generated using pymatgen
data_DyHo3CdPd
_symmetry_space_group_name_H-M   'P 1'
_cell_length_a   9.67031796
_cell_length_b   9.67031742
_cell_length_c   9.67031800
_cell_angle_alpha   59.99999802
_cell_angle_beta   59.99999985
_cell_angle_gamma   60.00000005
_symmetry_Int_Tables_number   1
_chemical_formula_structural   DyHo3CdPd
_chemical_formula_sum   'Dy4 Ho12 Cd4 Pd4'
_cell_volume   639.45094658
_cell_formula_units_Z   4
loop_
 _symmetry_equiv_pos_site_id
 _symmetry_equiv_pos_as_xyz
  1  'x, y, z'
loop_
 _atom_site_type_symbol
 _atom_site_label
 _atom_site_symmetry_multiplicity
 _atom_site_fract_x
 _atom_site_fract_y
 _atom_site_fract_z
 _atom_site_occupancy
  Dy  Dy0  1  0.353744  0.353744  0.353744  1
  Dy  Dy1  1  0.353744  0.353744  0.938769  1
  Dy  Dy2  1  0.353744  0.938769  0.353744  1
  Dy  Dy3  1  0.938769  0.353744  0.353744  1
  Ho  Ho4  1  0.810988  0.189012  0.189012  1
  Ho  Ho5  1  0.189012  0.810988  0.810988  1
  Ho  Ho6  1  0.189012  0.810988  0.189012  1
  Ho  Ho7  1  0.810988  0.189012  0.810988  1
  Ho  Ho8  1  0.189012  0.189012  0.810988  1
  Ho  Ho9  1  0.810988  0.810988  0.189012  1
  Ho  Ho10  1  0.933620  0.566380  0.566380  1
  Ho  Ho11  1  0.566380  0.933620  0.933620  1
  Ho  Ho12  1  0.566380  0.933620  0.566380  1
  Ho  Ho13  1  0.933620  0.566380  0.933620  1
  Ho  Ho14  1  0.566380  0.566380  0.933620  1
  Ho  Ho15  1  0.933620  0.933620  0.566380  1
  Cd  Cd16  1  0.582307  0.582307  0.582307  1
  Cd  Cd17  1  0.582307  0.582307  0.253078  1
  Cd  Cd18  1  0.582307  0.253078  0.582307  1
  Cd  Cd19  1  0.253078  0.582307  0.582307  1
  Pd  Pd20  1  0.143867  0.143867  0.143867  1
  Pd  Pd21  1  0.143867  0.143867  0.568399  1
  Pd  Pd22  1  0.143867  0.568399  0.143867  1
  Pd  Pd23  1  0.568399  0.143867  0.143867  1
