# generated using pymatgen
data_CoSb12Ru2Au
_symmetry_space_group_name_H-M   'P 1'
_cell_length_a   8.09826751
_cell_length_b   8.10429531
_cell_length_c   9.36614758
_cell_angle_alpha   54.62339081
_cell_angle_beta   55.13465195
_cell_angle_gamma   70.78129533
_symmetry_Int_Tables_number   1
_chemical_formula_structural   CoSb12Ru2Au
_chemical_formula_sum   'Co1 Sb12 Ru2 Au1'
_cell_volume   411.24050119
_cell_formula_units_Z   1
loop_
 _symmetry_equiv_pos_site_id
 _symmetry_equiv_pos_as_xyz
  1  'x, y, z'
loop_
 _atom_site_type_symbol
 _atom_site_label
 _atom_site_symmetry_multiplicity
 _atom_site_fract_x
 _atom_site_fract_y
 _atom_site_fract_z
 _atom_site_occupancy
  Co  Co0  1  0.500000  0.000000  0.500000  1
  Sb  Sb1  1  0.156275  0.155496  0.177077  1
  Sb  Sb2  1  0.843725  0.844504  0.822923  1
  Sb  Sb3  1  0.830856  0.860458  0.499553  1
  Sb  Sb4  1  0.169144  0.139542  0.500447  1
  Sb  Sb5  1  0.805251  0.502778  0.335820  1
  Sb  Sb6  1  0.194749  0.497222  0.664180  1
  Sb  Sb7  1  0.508097  0.825832  0.336731  1
  Sb  Sb8  1  0.491903  0.174168  0.663269  1
  Sb  Sb9  1  0.644756  0.337826  0.857558  1
  Sb  Sb10  1  0.355244  0.662174  0.142442  1
  Sb  Sb11  1  0.662135  0.328821  0.163603  1
  Sb  Sb12  1  0.337865  0.671179  0.836397  1
  Ru  Ru13  1  0.000000  0.500000  0.000000  1
  Ru  Ru14  1  0.500000  0.000000  0.000000  1
  Au  Au15  1  0.000000  0.500000  0.500000  1
