# generated using pymatgen
data_Zr10ZnBi2PPb4
_symmetry_space_group_name_H-M   'P 1'
_cell_length_a   8.80824428
_cell_length_b   8.80862403
_cell_length_c   5.96218151
_cell_angle_alpha   89.87599004
_cell_angle_beta   90.06200311
_cell_angle_gamma   120.00142259
_symmetry_Int_Tables_number   1
_chemical_formula_structural   Zr10ZnBi2PPb4
_chemical_formula_sum   'Zr10 Zn1 Bi2 P1 Pb4'
_cell_volume   400.61389329
_cell_formula_units_Z   1
loop_
 _symmetry_equiv_pos_site_id
 _symmetry_equiv_pos_as_xyz
  1  'x, y, z'
loop_
 _atom_site_type_symbol
 _atom_site_label
 _atom_site_symmetry_multiplicity
 _atom_site_fract_x
 _atom_site_fract_y
 _atom_site_fract_z
 _atom_site_occupancy
  Zr  Zr0  1  0.333477  0.666739  0.000000  1
  Zr  Zr1  1  0.666738  0.333369  0.500000  1
  Zr  Zr2  1  0.666497  0.333248  0.000000  1
  Zr  Zr3  1  0.333177  0.666589  0.500000  1
  Zr  Zr4  1  0.255462  0.999802  0.239207  1
  Zr  Zr5  1  0.255462  0.255660  0.760793  1
  Zr  Zr6  1  0.001306  0.744003  0.760120  1
  Zr  Zr7  1  0.001306  0.257304  0.239880  1
  Zr  Zr8  1  0.744396  0.742914  0.239431  1
  Zr  Zr9  1  0.744396  0.001482  0.760569  1
  Zn  Zn10  1  0.000548  0.000274  0.500000  1
  Bi  Bi11  1  0.606387  0.000492  0.256478  1
  Bi  Bi12  1  0.606387  0.605895  0.743522  1
  P  P13  1  0.999922  0.999961  0.000000  1
  Pb  Pb14  1  0.000532  0.393151  0.743850  1
  Pb  Pb15  1  0.000532  0.607381  0.256150  1
  Pb  Pb16  1  0.391737  0.391504  0.255608  1
  Pb  Pb17  1  0.391737  0.000234  0.744392  1
