# generated using pymatgen
data_Tb8Be(Si4Ni)3
_symmetry_space_group_name_H-M   'P 1'
_cell_length_a   7.92718800
_cell_length_b   7.92718747
_cell_length_c   8.14083900
_cell_angle_alpha   90.00000000
_cell_angle_beta   90.00000000
_cell_angle_gamma   120.00001055
_symmetry_Int_Tables_number   1
_chemical_formula_structural   Tb8Be(Si4Ni)3
_chemical_formula_sum   'Tb8 Be1 Si12 Ni3'
_cell_volume   443.03500127
_cell_formula_units_Z   1
loop_
 _symmetry_equiv_pos_site_id
 _symmetry_equiv_pos_as_xyz
  1  'x, y, z'
loop_
 _atom_site_type_symbol
 _atom_site_label
 _atom_site_symmetry_multiplicity
 _atom_site_fract_x
 _atom_site_fract_y
 _atom_site_fract_z
 _atom_site_occupancy
  Tb  Tb0  1  0.500078  0.000156  0.249119  1
  Tb  Tb1  1  0.499814  0.999630  0.750869  1
  Tb  Tb2  1  0.999844  0.499922  0.249119  1
  Tb  Tb3  1  0.000370  0.500186  0.750869  1
  Tb  Tb4  1  0.500078  0.499922  0.249119  1
  Tb  Tb5  1  0.499814  0.500186  0.750869  1
  Tb  Tb6  1  0.000000  0.000000  0.249224  1
  Tb  Tb7  1  0.000000  0.000000  0.750770  1
  Be  Be8  1  0.333333  0.666667  0.499722  1
  Si  Si9  1  0.171028  0.342056  0.000194  1
  Si  Si10  1  0.828814  0.657627  0.999870  1
  Si  Si11  1  0.657944  0.828972  0.000194  1
  Si  Si12  1  0.827829  0.655658  0.500047  1
  Si  Si13  1  0.342373  0.171186  0.999870  1
  Si  Si14  1  0.171184  0.342368  0.499877  1
  Si  Si15  1  0.171028  0.828972  0.000194  1
  Si  Si16  1  0.344342  0.172171  0.500047  1
  Si  Si17  1  0.828814  0.171186  0.999870  1
  Si  Si18  1  0.657632  0.828816  0.499877  1
  Si  Si19  1  0.827829  0.172171  0.500047  1
  Si  Si20  1  0.171184  0.828816  0.499877  1
  Ni  Ni21  1  0.333333  0.666667  0.000216  1
  Ni  Ni22  1  0.666667  0.333333  0.999331  1
  Ni  Ni23  1  0.666667  0.333333  0.500806  1
