# generated using pymatgen
data_TbEr3Ni2(B8Ir)2
_symmetry_space_group_name_H-M   'P 1'
_cell_length_a   6.90449538
_cell_length_b   6.90449454
_cell_length_c   6.90449343
_cell_angle_alpha   113.30948529
_cell_angle_beta   111.16553526
_cell_angle_gamma   104.07776016
_symmetry_Int_Tables_number   1
_chemical_formula_structural   TbEr3Ni2(B8Ir)2
_chemical_formula_sum   'Tb1 Er3 Ni2 B16 Ir2'
_cell_volume   251.62055901
_cell_formula_units_Z   1
loop_
 _symmetry_equiv_pos_site_id
 _symmetry_equiv_pos_as_xyz
  1  'x, y, z'
loop_
 _atom_site_type_symbol
 _atom_site_label
 _atom_site_symmetry_multiplicity
 _atom_site_fract_x
 _atom_site_fract_y
 _atom_site_fract_z
 _atom_site_occupancy
  Tb  Tb0  1  0.251979  0.751979  0.500000  1
  Er  Er1  1  0.210678  0.210678  0.000000  1
  Er  Er2  1  0.789975  0.789975  0.000000  1
  Er  Er3  1  0.748291  0.248291  0.500000  1
  Ni  Ni4  1  0.745288  0.498601  0.246687  1
  Ni  Ni5  1  0.251914  0.498601  0.753313  1
  B  B6  1  0.108393  0.271985  0.380012  1
  B  B7  1  0.891973  0.728381  0.619988  1
  B  B8  1  0.891973  0.271985  0.163593  1
  B  B9  1  0.108393  0.728381  0.836407  1
  B  B10  1  0.730044  0.889094  0.619713  1
  B  B11  1  0.269381  0.110330  0.380287  1
  B  B12  1  0.730044  0.110330  0.840950  1
  B  B13  1  0.269381  0.889094  0.159050  1
  B  B14  1  0.414156  0.419363  0.529255  1
  B  B15  1  0.890108  0.884902  0.470745  1
  B  B16  1  0.586486  0.115780  0.006535  1
  B  B17  1  0.109246  0.579951  0.993465  1
  B  B18  1  0.586486  0.579951  0.470705  1
  B  B19  1  0.109246  0.115780  0.529295  1
  B  B20  1  0.890108  0.419363  0.005205  1
  B  B21  1  0.414156  0.884902  0.994795  1
  Ir  Ir22  1  0.501151  0.278637  0.777486  1
  Ir  Ir23  1  0.501151  0.723666  0.222514  1
