# generated using pymatgen
data_Pt2BrF18
_symmetry_space_group_name_H-M   'P 1'
_cell_length_a   5.18281799
_cell_length_b   8.54595243
_cell_length_c   8.61362720
_cell_angle_alpha   62.13671425
_cell_angle_beta   84.76864616
_cell_angle_gamma   84.72730748
_symmetry_Int_Tables_number   1
_chemical_formula_structural   Pt2BrF18
_chemical_formula_sum   'Pt2 Br1 F18'
_cell_volume   335.35326795
_cell_formula_units_Z   1
loop_
 _symmetry_equiv_pos_site_id
 _symmetry_equiv_pos_as_xyz
  1  'x, y, z'
loop_
 _atom_site_type_symbol
 _atom_site_label
 _atom_site_symmetry_multiplicity
 _atom_site_fract_x
 _atom_site_fract_y
 _atom_site_fract_z
 _atom_site_occupancy
  Pt  Pt0  1  0.562988  0.335103  0.335137  1
  Pt  Pt1  1  0.437051  0.664375  0.665023  1
  Br  Br2  1  0.999886  0.000509  0.999761  1
  F  F3  1  0.875510  0.784702  0.070573  1
  F  F4  1  0.695004  0.073254  0.073234  1
  F  F5  1  0.742907  0.415052  0.111425  1
  F  F6  1  0.123097  0.924102  0.215151  1
  F  F7  1  0.381559  0.560045  0.256112  1
  F  F8  1  0.298328  0.253820  0.256465  1
  F  F9  1  0.828029  0.416283  0.413742  1
  F  F10  1  0.744978  0.110151  0.414861  1
  F  F11  1  0.616562  0.744450  0.441446  1
  F  F12  1  0.383750  0.255766  0.558834  1
  F  F13  1  0.254850  0.889098  0.586132  1
  F  F14  1  0.172392  0.583573  0.585952  1
  F  F15  1  0.701469  0.745274  0.744289  1
  F  F16  1  0.618794  0.439657  0.743431  1
  F  F17  1  0.876665  0.077008  0.784326  1
  F  F18  1  0.257146  0.583723  0.888738  1
  F  F19  1  0.304844  0.927754  0.926362  1
  F  F20  1  0.124194  0.216302  0.929013  1
