# generated using pymatgen
data_SmTm3Hg2
_symmetry_space_group_name_H-M   'P 1'
_cell_length_a   5.06352800
_cell_length_b   7.10231385
_cell_length_c   9.19852001
_cell_angle_alpha   89.90241534
_cell_angle_beta   90.00000000
_cell_angle_gamma   90.00000000
_symmetry_Int_Tables_number   1
_chemical_formula_structural   SmTm3Hg2
_chemical_formula_sum   'Sm2 Tm6 Hg4'
_cell_volume   330.80373383
_cell_formula_units_Z   2
loop_
 _symmetry_equiv_pos_site_id
 _symmetry_equiv_pos_as_xyz
  1  'x, y, z'
loop_
 _atom_site_type_symbol
 _atom_site_label
 _atom_site_symmetry_multiplicity
 _atom_site_fract_x
 _atom_site_fract_y
 _atom_site_fract_z
 _atom_site_occupancy
  Sm  Sm0  1  0.750000  0.014965  0.692217  1
  Sm  Sm1  1  0.250000  0.985035  0.307783  1
  Tm  Tm2  1  0.750000  0.663178  0.423428  1
  Tm  Tm3  1  0.250000  0.336822  0.576572  1
  Tm  Tm4  1  0.750000  0.168478  0.074033  1
  Tm  Tm5  1  0.250000  0.831522  0.925967  1
  Tm  Tm6  1  0.750000  0.515510  0.808670  1
  Tm  Tm7  1  0.250000  0.484490  0.191330  1
  Hg  Hg8  1  0.750000  0.243602  0.396588  1
  Hg  Hg9  1  0.250000  0.756398  0.603412  1
  Hg  Hg10  1  0.750000  0.739394  0.099996  1
  Hg  Hg11  1  0.250000  0.260606  0.900004  1
