# generated using pymatgen
data_Dy5Y(Si3Os2)2
_symmetry_space_group_name_H-M   'P 1'
_cell_length_a   5.76248110
_cell_length_b   5.76247976
_cell_length_c   13.70842900
_cell_angle_alpha   90.00000000
_cell_angle_beta   90.00000000
_cell_angle_gamma   137.31560690
_symmetry_Int_Tables_number   1
_chemical_formula_structural   Dy5Y(Si3Os2)2
_chemical_formula_sum   'Dy5 Y1 Si6 Os4'
_cell_volume   308.61024515
_cell_formula_units_Z   1
loop_
 _symmetry_equiv_pos_site_id
 _symmetry_equiv_pos_as_xyz
  1  'x, y, z'
loop_
 _atom_site_type_symbol
 _atom_site_label
 _atom_site_symmetry_multiplicity
 _atom_site_fract_x
 _atom_site_fract_y
 _atom_site_fract_z
 _atom_site_occupancy
  Dy  Dy0  1  0.576587  0.423413  0.615630  1
  Dy  Dy1  1  0.423397  0.576603  0.384456  1
  Dy  Dy2  1  0.423397  0.576603  0.115544  1
  Dy  Dy3  1  0.576587  0.423413  0.884370  1
  Dy  Dy4  1  0.860653  0.139347  0.750000  1
  Y  Y5  1  0.139276  0.860724  0.250000  1
  Si  Si6  1  0.882477  0.117523  0.537978  1
  Si  Si7  1  0.117522  0.882478  0.462046  1
  Si  Si8  1  0.117522  0.882478  0.037954  1
  Si  Si9  1  0.882477  0.117523  0.962022  1
  Si  Si10  1  0.823806  0.176194  0.250000  1
  Si  Si11  1  0.176209  0.823791  0.750000  1
  Os  Os12  1  0.286380  0.713620  0.918093  1
  Os  Os13  1  0.713665  0.286335  0.081874  1
  Os  Os14  1  0.713665  0.286335  0.418126  1
  Os  Os15  1  0.286380  0.713620  0.581907  1
