# generated using pymatgen
data_Lu2CoSi14Ir5
_symmetry_space_group_name_H-M   'P 1'
_cell_length_a   7.99153996
_cell_length_b   8.00537556
_cell_length_c   8.00537500
_cell_angle_alpha   56.61423917
_cell_angle_beta   56.69951781
_cell_angle_gamma   56.69952126
_symmetry_Int_Tables_number   1
_chemical_formula_structural   Lu2CoSi14Ir5
_chemical_formula_sum   'Lu2 Co1 Si14 Ir5'
_cell_volume   334.29989181
_cell_formula_units_Z   1
loop_
 _symmetry_equiv_pos_site_id
 _symmetry_equiv_pos_as_xyz
  1  'x, y, z'
loop_
 _atom_site_type_symbol
 _atom_site_label
 _atom_site_symmetry_multiplicity
 _atom_site_fract_x
 _atom_site_fract_y
 _atom_site_fract_z
 _atom_site_occupancy
  Lu  Lu0  1  0.500586  0.501445  0.498935  1
  Lu  Lu1  1  0.999414  0.001065  0.998555  1
  Co  Co2  1  0.750000  0.070387  0.429613  1
  Si  Si3  1  0.846295  0.062833  0.666704  1
  Si  Si4  1  0.670994  0.850857  0.066025  1
  Si  Si5  1  0.064061  0.671561  0.850740  1
  Si  Si6  1  0.653705  0.833296  0.437167  1
  Si  Si7  1  0.250000  0.249709  0.250291  1
  Si  Si8  1  0.750000  0.759522  0.740478  1
  Si  Si9  1  0.172525  0.565578  0.350285  1
  Si  Si10  1  0.572285  0.342654  0.179116  1
  Si  Si11  1  0.359431  0.170669  0.561499  1
  Si  Si12  1  0.927715  0.320884  0.157346  1
  Si  Si13  1  0.327475  0.149715  0.934422  1
  Si  Si14  1  0.140569  0.938501  0.329331  1
  Si  Si15  1  0.829006  0.433975  0.649143  1
  Si  Si16  1  0.435939  0.649260  0.828439  1
  Ir  Ir17  1  0.427792  0.751030  0.071337  1
  Ir  Ir18  1  0.072208  0.428663  0.748970  1
  Ir  Ir19  1  0.250000  0.928323  0.571677  1
  Ir  Ir20  1  0.573107  0.248710  0.928636  1
  Ir  Ir21  1  0.926893  0.571364  0.251290  1
