# generated using pymatgen
data_TbSm4Ho5Sn8
_symmetry_space_group_name_H-M   'P 1'
_cell_length_a   8.08952600
_cell_length_b   8.24391322
_cell_length_c   15.56494941
_cell_angle_alpha   89.97380553
_cell_angle_beta   90.00000000
_cell_angle_gamma   90.00000000
_symmetry_Int_Tables_number   1
_chemical_formula_structural   TbSm4Ho5Sn8
_chemical_formula_sum   'Tb2 Sm8 Ho10 Sn16'
_cell_volume   1038.01625487
_cell_formula_units_Z   2
loop_
 _symmetry_equiv_pos_site_id
 _symmetry_equiv_pos_as_xyz
  1  'x, y, z'
loop_
 _atom_site_type_symbol
 _atom_site_label
 _atom_site_symmetry_multiplicity
 _atom_site_fract_x
 _atom_site_fract_y
 _atom_site_fract_z
 _atom_site_occupancy
  Tb  Tb0  1  0.366333  0.835235  0.878090  1
  Tb  Tb1  1  0.866333  0.664765  0.621910  1
  Sm  Sm2  1  0.519242  0.320537  0.902048  1
  Sm  Sm3  1  0.019242  0.179463  0.597952  1
  Sm  Sm4  1  0.480779  0.679420  0.402003  1
  Sm  Sm5  1  0.980779  0.820580  0.097997  1
  Sm  Sm6  1  0.480791  0.679447  0.098131  1
  Sm  Sm7  1  0.980791  0.820553  0.401869  1
  Sm  Sm8  1  0.519154  0.320428  0.597905  1
  Sm  Sm9  1  0.019154  0.179572  0.902095  1
  Ho  Ho10  1  0.633800  0.164712  0.377766  1
  Ho  Ho11  1  0.133800  0.335288  0.122234  1
  Ho  Ho12  1  0.633775  0.164629  0.122108  1
  Ho  Ho13  1  0.133775  0.335371  0.377892  1
  Ho  Ho14  1  0.366095  0.835353  0.622021  1
  Ho  Ho15  1  0.866095  0.664647  0.877979  1
  Ho  Ho16  1  0.197954  0.503064  0.749949  1
  Ho  Ho17  1  0.697954  0.996936  0.750051  1
  Ho  Ho18  1  0.802097  0.496602  0.249976  1
  Ho  Ho19  1  0.302097  0.003398  0.250024  1
  Sn  Sn20  1  0.295940  0.037440  0.042243  1
  Sn  Sn21  1  0.795940  0.462560  0.457757  1
  Sn  Sn22  1  0.703589  0.963468  0.541751  1
  Sn  Sn23  1  0.203589  0.536532  0.958249  1
  Sn  Sn24  1  0.704526  0.963156  0.958204  1
  Sn  Sn25  1  0.204526  0.536844  0.541796  1
  Sn  Sn26  1  0.296073  0.037065  0.458087  1
  Sn  Sn27  1  0.796073  0.462935  0.041913  1
  Sn  Sn28  1  0.564655  0.621288  0.750009  1
  Sn  Sn29  1  0.064655  0.878712  0.749991  1
  Sn  Sn30  1  0.435453  0.378216  0.250001  1
  Sn  Sn31  1  0.935453  0.121784  0.249999  1
  Sn  Sn32  1  0.326882  0.143885  0.749897  1
  Sn  Sn33  1  0.826882  0.356115  0.750103  1
  Sn  Sn34  1  0.672859  0.856233  0.250004  1
  Sn  Sn35  1  0.172859  0.643767  0.249996  1
