# generated using pymatgen
data_CaYb(UH4)6
_symmetry_space_group_name_H-M   'P 1'
_cell_length_a   6.61157200
_cell_length_b   6.62536400
_cell_length_c   6.62536400
_cell_angle_alpha   90.00000000
_cell_angle_beta   90.00000000
_cell_angle_gamma   90.00000000
_symmetry_Int_Tables_number   1
_chemical_formula_structural   CaYb(UH4)6
_chemical_formula_sum   'Ca1 Yb1 U6 H24'
_cell_volume   290.21791580
_cell_formula_units_Z   1
loop_
 _symmetry_equiv_pos_site_id
 _symmetry_equiv_pos_as_xyz
  1  'x, y, z'
loop_
 _atom_site_type_symbol
 _atom_site_label
 _atom_site_symmetry_multiplicity
 _atom_site_fract_x
 _atom_site_fract_y
 _atom_site_fract_z
 _atom_site_occupancy
  Ca  Ca0  1  0.250000  0.000000  0.500000  1
  Yb  Yb1  1  0.750000  0.000000  0.500000  1
  U  U2  1  0.999507  0.000000  0.000000  1
  U  U3  1  0.500493  0.500000  0.500000  1
  U  U4  1  0.999777  0.500000  0.252249  1
  U  U5  1  0.999777  0.500000  0.747751  1
  U  U6  1  0.500223  0.752249  0.000000  1
  U  U7  1  0.500223  0.247751  0.000000  1
  H  H8  1  0.999197  0.160569  0.290528  1
  H  H9  1  0.500803  0.209472  0.660569  1
  H  H10  1  0.500803  0.790528  0.339431  1
  H  H11  1  0.809274  0.648514  0.500000  1
  H  H12  1  0.190574  0.647398  0.500000  1
  H  H13  1  0.345256  0.500000  0.803672  1
  H  H14  1  0.654768  0.500000  0.803706  1
  H  H15  1  0.309426  0.000000  0.147398  1
  H  H16  1  0.154744  0.303672  0.000000  1
  H  H17  1  0.845232  0.696294  0.000000  1
  H  H18  1  0.309426  0.000000  0.852602  1
  H  H19  1  0.845232  0.303706  0.000000  1
  H  H20  1  0.690726  0.000000  0.148514  1
  H  H21  1  0.690726  0.000000  0.851486  1
  H  H22  1  0.154744  0.696328  0.000000  1
  H  H23  1  0.999197  0.839431  0.709472  1
  H  H24  1  0.999197  0.160569  0.709472  1
  H  H25  1  0.999197  0.839431  0.290528  1
  H  H26  1  0.654768  0.500000  0.196294  1
  H  H27  1  0.345256  0.500000  0.196328  1
  H  H28  1  0.809274  0.351486  0.500000  1
  H  H29  1  0.190574  0.352602  0.500000  1
  H  H30  1  0.500803  0.790528  0.660569  1
  H  H31  1  0.500803  0.209472  0.339431  1
