# generated using pymatgen
data_Hg3BiRu2(PtO7)2
_symmetry_space_group_name_H-M   'P 1'
_cell_length_a   7.38276944
_cell_length_b   7.29707220
_cell_length_c   7.24892600
_cell_angle_alpha   60.21803071
_cell_angle_beta   60.59792647
_cell_angle_gamma   60.57591673
_symmetry_Int_Tables_number   1
_chemical_formula_structural   Hg3BiRu2(PtO7)2
_chemical_formula_sum   'Hg3 Bi1 Ru2 Pt2 O14'
_cell_volume   279.02677652
_cell_formula_units_Z   1
loop_
 _symmetry_equiv_pos_site_id
 _symmetry_equiv_pos_as_xyz
  1  'x, y, z'
loop_
 _atom_site_type_symbol
 _atom_site_label
 _atom_site_symmetry_multiplicity
 _atom_site_fract_x
 _atom_site_fract_y
 _atom_site_fract_z
 _atom_site_occupancy
  Hg  Hg0  1  0.125000  0.125000  0.625000  1
  Hg  Hg1  1  0.125000  0.625000  0.125000  1
  Hg  Hg2  1  0.125000  0.125000  0.125000  1
  Bi  Bi3  1  0.625000  0.125000  0.125000  1
  Ru  Ru4  1  0.625000  0.125000  0.625000  1
  Ru  Ru5  1  0.125000  0.625000  0.625000  1
  Pt  Pt6  1  0.625000  0.625000  0.125000  1
  Pt  Pt7  1  0.625000  0.625000  0.625000  1
  O  O8  1  0.243460  0.246539  0.255000  1
  O  O9  1  0.006540  0.003461  0.995000  1
  O  O10  1  0.548599  0.956740  0.541603  1
  O  O11  1  0.298123  0.708110  0.304158  1
  O  O12  1  0.540297  0.537546  0.961078  1
  O  O13  1  0.951877  0.541890  0.560391  1
  O  O14  1  0.548599  0.956740  0.953058  1
  O  O15  1  0.922086  0.926469  0.575722  1
  O  O16  1  0.951877  0.541890  0.945842  1
  O  O17  1  0.701401  0.293260  0.296942  1
  O  O18  1  0.298123  0.708110  0.689609  1
  O  O19  1  0.701401  0.293260  0.708397  1
  O  O20  1  0.327914  0.323531  0.674278  1
  O  O21  1  0.709703  0.712454  0.288922  1
