# generated using pymatgen
data_Er2Al3ZnAu2
_symmetry_space_group_name_H-M   'P 1'
_cell_length_a   5.58245725
_cell_length_b   5.58245669
_cell_length_c   6.76955506
_cell_angle_alpha   89.85973342
_cell_angle_beta   90.14027272
_cell_angle_gamma   133.17587655
_symmetry_Int_Tables_number   1
_chemical_formula_structural   Er2Al3ZnAu2
_chemical_formula_sum   'Er2 Al3 Zn1 Au2'
_cell_volume   153.84728015
_cell_formula_units_Z   1
loop_
 _symmetry_equiv_pos_site_id
 _symmetry_equiv_pos_as_xyz
  1  'x, y, z'
loop_
 _atom_site_type_symbol
 _atom_site_label
 _atom_site_symmetry_multiplicity
 _atom_site_fract_x
 _atom_site_fract_y
 _atom_site_fract_z
 _atom_site_occupancy
  Er  Er0  1  0.920628  0.079372  0.248756  1
  Er  Er1  1  0.081638  0.918362  0.755373  1
  Al  Al2  1  0.628530  0.371470  0.442845  1
  Al  Al3  1  0.373100  0.626900  0.552659  1
  Al  Al4  1  0.370889  0.629111  0.948144  1
  Zn  Zn5  1  0.621534  0.378466  0.051728  1
  Au  Au6  1  0.210348  0.789652  0.253210  1
  Au  Au7  1  0.793331  0.206669  0.747282  1
