# generated using pymatgen
data_Dy(TaS2)6
_symmetry_space_group_name_H-M   'P 1'
_cell_length_a   5.80920117
_cell_length_b   5.80920135
_cell_length_c   13.76808824
_cell_angle_alpha   85.95579052
_cell_angle_beta   85.95579266
_cell_angle_gamma   119.99881383
_symmetry_Int_Tables_number   1
_chemical_formula_structural   Dy(TaS2)6
_chemical_formula_sum   'Dy1 Ta6 S12'
_cell_volume   398.36264058
_cell_formula_units_Z   1
loop_
 _symmetry_equiv_pos_site_id
 _symmetry_equiv_pos_as_xyz
  1  'x, y, z'
loop_
 _atom_site_type_symbol
 _atom_site_label
 _atom_site_symmetry_multiplicity
 _atom_site_fract_x
 _atom_site_fract_y
 _atom_site_fract_z
 _atom_site_occupancy
  Dy  Dy0  1  0.000000  0.000000  0.000000  1
  Ta  Ta1  1  0.085060  0.085060  0.744748  1
  Ta  Ta2  1  0.418764  0.752189  0.743719  1
  Ta  Ta3  1  0.752189  0.418764  0.743719  1
  Ta  Ta4  1  0.247811  0.581236  0.256281  1
  Ta  Ta5  1  0.581236  0.247811  0.256281  1
  Ta  Ta6  1  0.914940  0.914940  0.255252  1
  S  S7  1  0.290370  0.290370  0.139131  1
  S  S8  1  0.616976  0.953671  0.139149  1
  S  S9  1  0.953671  0.616976  0.139149  1
  S  S10  1  0.046329  0.383024  0.860851  1
  S  S11  1  0.383024  0.046329  0.860851  1
  S  S12  1  0.709630  0.709630  0.860869  1
  S  S13  1  0.209323  0.209323  0.368426  1
  S  S14  1  0.544607  0.877045  0.368387  1
  S  S15  1  0.877045  0.544607  0.368387  1
  S  S16  1  0.122955  0.455393  0.631613  1
  S  S17  1  0.455393  0.122955  0.631613  1
  S  S18  1  0.790677  0.790677  0.631574  1
