# generated using pymatgen
data_Ho12AlTlInFe2
_symmetry_space_group_name_H-M   'P 1'
_cell_length_a   8.38538605
_cell_length_b   8.38538783
_cell_length_c   8.38538669
_cell_angle_alpha   109.84428895
_cell_angle_beta   110.06431646
_cell_angle_gamma   108.50939365
_symmetry_Int_Tables_number   1
_chemical_formula_structural   Ho12AlTlInFe2
_chemical_formula_sum   'Ho12 Al1 Tl1 In1 Fe2'
_cell_volume   453.78922100
_cell_formula_units_Z   1
loop_
 _symmetry_equiv_pos_site_id
 _symmetry_equiv_pos_as_xyz
  1  'x, y, z'
loop_
 _atom_site_type_symbol
 _atom_site_label
 _atom_site_symmetry_multiplicity
 _atom_site_fract_x
 _atom_site_fract_y
 _atom_site_fract_z
 _atom_site_occupancy
  Ho  Ho0  1  0.449125  0.204600  0.244524  1
  Ho  Ho1  1  0.550875  0.795400  0.755476  1
  Ho  Ho2  1  0.960075  0.204600  0.755476  1
  Ho  Ho3  1  0.203958  0.959802  0.755845  1
  Ho  Ho4  1  0.039925  0.795400  0.244524  1
  Ho  Ho5  1  0.796042  0.040198  0.244155  1
  Ho  Ho6  1  0.203958  0.448113  0.244155  1
  Ho  Ho7  1  0.796042  0.551887  0.755845  1
  Ho  Ho8  1  0.303843  0.304723  0.608567  1
  Ho  Ho9  1  0.696157  0.695277  0.391433  1
  Ho  Ho10  1  0.303843  0.695277  0.999120  1
  Ho  Ho11  1  0.696157  0.304723  0.000880  1
  Al  Al12  1  0.000000  0.000000  0.000000  1
  Tl  Tl13  1  0.500000  0.000000  0.500000  1
  In  In14  1  0.000000  0.500000  0.500000  1
  Fe  Fe15  1  0.388576  0.388576  0.000000  1
  Fe  Fe16  1  0.611424  0.611424  0.000000  1
