# generated using pymatgen
data_Y16In4IrRu2Pt
_symmetry_space_group_name_H-M   'P 1'
_cell_length_a   9.71607584
_cell_length_b   9.71607568
_cell_length_c   9.71958059
_cell_angle_alpha   59.86567073
_cell_angle_beta   59.86567256
_cell_angle_gamma   59.84142420
_symmetry_Int_Tables_number   1
_chemical_formula_structural   Y16In4IrRu2Pt
_chemical_formula_sum   'Y16 In4 Ir1 Ru2 Pt1'
_cell_volume   646.70837009
_cell_formula_units_Z   1
loop_
 _symmetry_equiv_pos_site_id
 _symmetry_equiv_pos_as_xyz
  1  'x, y, z'
loop_
 _atom_site_type_symbol
 _atom_site_label
 _atom_site_symmetry_multiplicity
 _atom_site_fract_x
 _atom_site_fract_y
 _atom_site_fract_z
 _atom_site_occupancy
  Y  Y0  1  0.803169  0.189996  0.813080  1
  Y  Y1  1  0.939437  0.563675  0.558048  1
  Y  Y2  1  0.563675  0.939437  0.558048  1
  Y  Y3  1  0.807024  0.190938  0.190855  1
  Y  Y4  1  0.190938  0.807024  0.190855  1
  Y  Y5  1  0.352411  0.950872  0.347469  1
  Y  Y6  1  0.939204  0.939204  0.559382  1
  Y  Y7  1  0.560545  0.941261  0.940013  1
  Y  Y8  1  0.189996  0.803169  0.813080  1
  Y  Y9  1  0.349683  0.349683  0.953786  1
  Y  Y10  1  0.560028  0.560028  0.939379  1
  Y  Y11  1  0.350566  0.350566  0.346289  1
  Y  Y12  1  0.191518  0.191518  0.811055  1
  Y  Y13  1  0.808859  0.808859  0.189301  1
  Y  Y14  1  0.941261  0.560545  0.940013  1
  Y  Y15  1  0.950872  0.352411  0.347469  1
  In  In16  1  0.582966  0.582966  0.583638  1
  In  In17  1  0.582660  0.251546  0.582668  1
  In  In18  1  0.583417  0.583417  0.249865  1
  In  In19  1  0.251546  0.582660  0.582668  1
  Ir  Ir20  1  0.140490  0.140490  0.142544  1
  Ru  Ru21  1  0.577070  0.141479  0.142041  1
  Ru  Ru22  1  0.141479  0.577070  0.142041  1
  Pt  Pt23  1  0.141190  0.141190  0.576420  1
