# generated using pymatgen
data_Dy5Lu6PaGa20
_symmetry_space_group_name_H-M   'P 1'
_cell_length_a   6.10081391
_cell_length_b   9.53181875
_cell_length_c   11.39449774
_cell_angle_alpha   89.98311923
_cell_angle_beta   89.91795084
_cell_angle_gamma   90.01041256
_symmetry_Int_Tables_number   1
_chemical_formula_structural   Dy5Lu6PaGa20
_chemical_formula_sum   'Dy5 Lu6 Pa1 Ga20'
_cell_volume   662.61043234
_cell_formula_units_Z   1
loop_
 _symmetry_equiv_pos_site_id
 _symmetry_equiv_pos_as_xyz
  1  'x, y, z'
loop_
 _atom_site_type_symbol
 _atom_site_label
 _atom_site_symmetry_multiplicity
 _atom_site_fract_x
 _atom_site_fract_y
 _atom_site_fract_z
 _atom_site_occupancy
  Dy  Dy0  1  0.389305  0.489588  0.148965  1
  Dy  Dy1  1  0.110983  0.489257  0.648791  1
  Dy  Dy2  1  0.388239  0.011533  0.148061  1
  Dy  Dy3  1  0.888838  0.989325  0.352391  1
  Dy  Dy4  1  0.609899  0.510770  0.850534  1
  Lu  Lu5  1  0.851461  0.749227  0.074490  1
  Lu  Lu6  1  0.650554  0.749361  0.575277  1
  Lu  Lu7  1  0.150201  0.249885  0.923739  1
  Lu  Lu8  1  0.352663  0.252103  0.425834  1
  Lu  Lu9  1  0.609298  0.988082  0.851348  1
  Lu  Lu10  1  0.112097  0.010638  0.649159  1
  Pa  Pa11  1  0.888084  0.510671  0.352822  1
  Ga  Ga12  1  0.873669  0.052418  0.090544  1
  Ga  Ga13  1  0.627346  0.446109  0.588690  1
  Ga  Ga14  1  0.126077  0.553503  0.909507  1
  Ga  Ga15  1  0.374098  0.948991  0.409764  1
  Ga  Ga16  1  0.127280  0.947659  0.909426  1
  Ga  Ga17  1  0.377329  0.553382  0.409564  1
  Ga  Ga18  1  0.874390  0.446372  0.089855  1
  Ga  Ga19  1  0.628425  0.051560  0.592325  1
  Ga  Ga20  1  0.170926  0.749490  0.253856  1
  Ga  Ga21  1  0.325605  0.751664  0.751763  1
  Ga  Ga22  1  0.824746  0.247174  0.748957  1
  Ga  Ga23  1  0.672918  0.250099  0.246848  1
  Ga  Ga24  1  0.377026  0.750719  0.004997  1
  Ga  Ga25  1  0.121470  0.750399  0.503170  1
  Ga  Ga26  1  0.623071  0.248332  0.993254  1
  Ga  Ga27  1  0.877594  0.249582  0.495053  1
  Ga  Ga28  1  0.602238  0.750300  0.297525  1
  Ga  Ga29  1  0.897573  0.751608  0.797863  1
  Ga  Ga30  1  0.397244  0.248161  0.701268  1
  Ga  Ga31  1  0.099347  0.252037  0.204359  1
