# generated using pymatgen
data_AlCoSb2(SeO3)8
_symmetry_space_group_name_H-M   'P 1'
_cell_length_a   8.11354390
_cell_length_b   8.03035021
_cell_length_c   8.08750930
_cell_angle_alpha   89.50092627
_cell_angle_beta   90.18166178
_cell_angle_gamma   89.86390414
_symmetry_Int_Tables_number   1
_chemical_formula_structural   AlCoSb2(SeO3)8
_chemical_formula_sum   'Al1 Co1 Sb2 Se8 O24'
_cell_volume   526.91426531
_cell_formula_units_Z   1
loop_
 _symmetry_equiv_pos_site_id
 _symmetry_equiv_pos_as_xyz
  1  'x, y, z'
loop_
 _atom_site_type_symbol
 _atom_site_label
 _atom_site_symmetry_multiplicity
 _atom_site_fract_x
 _atom_site_fract_y
 _atom_site_fract_z
 _atom_site_occupancy
  Al  Al0  1  0.500000  0.500000  0.500000  1
  Co  Co1  1  0.000000  0.500000  0.000000  1
  Sb  Sb2  1  0.000000  0.000000  0.500000  1
  Sb  Sb3  1  0.500000  0.000000  0.000000  1
  Se  Se4  1  0.315335  0.656607  0.175125  1
  Se  Se5  1  0.824824  0.345074  0.313765  1
  Se  Se6  1  0.666812  0.815550  0.664578  1
  Se  Se7  1  0.161624  0.191217  0.839575  1
  Se  Se8  1  0.684665  0.343393  0.824875  1
  Se  Se9  1  0.175176  0.654926  0.686235  1
  Se  Se10  1  0.333188  0.184450  0.335422  1
  Se  Se11  1  0.838376  0.808783  0.160425  1
  O  O12  1  0.235391  0.521748  0.031664  1
  O  O13  1  0.730371  0.467660  0.454899  1
  O  O14  1  0.756254  0.969362  0.533589  1
  O  O15  1  0.256146  0.036508  0.967363  1
  O  O16  1  0.525808  0.956125  0.755788  1
  O  O17  1  0.454380  0.527250  0.269202  1
  O  O18  1  0.965015  0.486637  0.235466  1
  O  O19  1  0.026609  0.047994  0.743859  1
  O  O20  1  0.967680  0.243162  0.455407  1
  O  O21  1  0.537852  0.734229  0.523265  1
  O  O22  1  0.462536  0.757043  0.039087  1
  O  O23  1  0.026858  0.262029  0.984073  1
  O  O24  1  0.764609  0.478252  0.968336  1
  O  O25  1  0.269629  0.532340  0.545101  1
  O  O26  1  0.243746  0.030638  0.466411  1
  O  O27  1  0.743854  0.963492  0.032637  1
  O  O28  1  0.474192  0.043875  0.244212  1
  O  O29  1  0.545620  0.472750  0.730798  1
  O  O30  1  0.034985  0.513363  0.764534  1
  O  O31  1  0.973391  0.952006  0.256141  1
  O  O32  1  0.032320  0.756838  0.544593  1
  O  O33  1  0.462148  0.265771  0.476735  1
  O  O34  1  0.537464  0.242957  0.960913  1
  O  O35  1  0.973142  0.737971  0.015927  1
