# generated using pymatgen
data_TaNbReSi2Mo
_symmetry_space_group_name_H-M   'P 1'
_cell_length_a   7.64961228
_cell_length_b   7.67264694
_cell_length_c   7.64814823
_cell_angle_alpha   126.13246434
_cell_angle_beta   128.41717834
_cell_angle_gamma   77.73834016
_symmetry_Int_Tables_number   1
_chemical_formula_structural   TaNbReSi2Mo
_chemical_formula_sum   'Ta3 Nb3 Re3 Si6 Mo3'
_cell_volume   275.51733994
_cell_formula_units_Z   3
loop_
 _symmetry_equiv_pos_site_id
 _symmetry_equiv_pos_as_xyz
  1  'x, y, z'
loop_
 _atom_site_type_symbol
 _atom_site_label
 _atom_site_symmetry_multiplicity
 _atom_site_fract_x
 _atom_site_fract_y
 _atom_site_fract_z
 _atom_site_occupancy
  Ta  Ta0  1  0.551715  0.092549  0.040414  1
  Ta  Ta1  1  0.445993  0.491683  0.545302  1
  Ta  Ta2  1  0.947571  0.493526  0.046758  1
  Nb  Nb3  1  0.052042  0.090145  0.539355  1
  Nb  Nb4  1  0.753000  0.904945  0.652853  1
  Nb  Nb5  1  0.251966  0.905250  0.152754  1
  Re  Re6  1  0.867514  0.495909  0.626005  1
  Re  Re7  1  0.626659  0.751976  0.121292  1
  Re  Re8  1  0.371208  0.496769  0.127722  1
  Si  Si9  1  0.749365  0.501083  0.252127  1
  Si  Si10  1  0.247029  0.498694  0.750573  1
  Si  Si11  1  0.335016  0.826137  0.493104  1
  Si  Si12  1  0.668872  0.162557  0.494303  1
  Si  Si13  1  0.832466  0.825891  0.992156  1
  Si  Si14  1  0.168884  0.165043  0.996194  1
  Mo  Mo15  1  0.501322  0.243370  0.743157  1
  Mo  Mo16  1  0.998881  0.241944  0.241389  1
  Mo  Mo17  1  0.130495  0.754728  0.626740  1
