# generated using pymatgen
data_Ho4Al6ReOs
_symmetry_space_group_name_H-M   'P 1'
_cell_length_a   5.48462100
_cell_length_b   5.48462152
_cell_length_c   8.90583500
_cell_angle_alpha   90.00000000
_cell_angle_beta   90.00000000
_cell_angle_gamma   119.99999086
_symmetry_Int_Tables_number   1
_chemical_formula_structural   Ho4Al6ReOs
_chemical_formula_sum   'Ho4 Al6 Re1 Os1'
_cell_volume   232.00567147
_cell_formula_units_Z   1
loop_
 _symmetry_equiv_pos_site_id
 _symmetry_equiv_pos_as_xyz
  1  'x, y, z'
loop_
 _atom_site_type_symbol
 _atom_site_label
 _atom_site_symmetry_multiplicity
 _atom_site_fract_x
 _atom_site_fract_y
 _atom_site_fract_z
 _atom_site_occupancy
  Ho  Ho0  1  0.666667  0.333334  0.052253  1
  Ho  Ho1  1  0.666667  0.333334  0.447982  1
  Ho  Ho2  1  0.333333  0.666666  0.552019  1
  Ho  Ho3  1  0.333333  0.666666  0.947747  1
  Al  Al4  1  0.162006  0.324009  0.251320  1
  Al  Al5  1  0.162005  0.837993  0.251320  1
  Al  Al6  1  0.675991  0.837993  0.251320  1
  Al  Al7  1  0.324010  0.162005  0.748680  1
  Al  Al8  1  0.837994  0.162005  0.748680  1
  Al  Al9  1  0.837994  0.675991  0.748680  1
  Re  Re10  1  0.000000  0.000000  0.000000  1
  Os  Os11  1  0.000000  0.000000  0.500000  1
