# generated using pymatgen
data_TbYCo17
_symmetry_space_group_name_H-M   'P 1'
_cell_length_a   6.27683876
_cell_length_b   6.27683879
_cell_length_c   6.27683807
_cell_angle_alpha   83.10895197
_cell_angle_beta   83.10894742
_cell_angle_gamma   83.10896083
_symmetry_Int_Tables_number   1
_chemical_formula_structural   TbYCo17
_chemical_formula_sum   'Tb1 Y1 Co17'
_cell_volume   242.33659911
_cell_formula_units_Z   1
loop_
 _symmetry_equiv_pos_site_id
 _symmetry_equiv_pos_as_xyz
  1  'x, y, z'
loop_
 _atom_site_type_symbol
 _atom_site_label
 _atom_site_symmetry_multiplicity
 _atom_site_fract_x
 _atom_site_fract_y
 _atom_site_fract_z
 _atom_site_occupancy
  Tb  Tb0  1  0.655017  0.655017  0.655017  1
  Y  Y1  1  0.344209  0.344209  0.344209  1
  Co  Co2  1  0.712000  0.288468  0.999920  1
  Co  Co3  1  0.999920  0.712000  0.288468  1
  Co  Co4  1  0.288468  0.999920  0.712000  1
  Co  Co5  1  0.999920  0.288468  0.712000  1
  Co  Co6  1  0.712000  0.999920  0.288468  1
  Co  Co7  1  0.288468  0.712000  0.999920  1
  Co  Co8  1  0.345963  0.345963  0.850049  1
  Co  Co9  1  0.850049  0.345963  0.345963  1
  Co  Co10  1  0.345963  0.850049  0.345963  1
  Co  Co11  1  0.654226  0.654226  0.148450  1
  Co  Co12  1  0.148450  0.654226  0.654226  1
  Co  Co13  1  0.654226  0.148450  0.654226  1
  Co  Co14  1  0.000733  0.000733  0.499842  1
  Co  Co15  1  0.499842  0.000733  0.000733  1
  Co  Co16  1  0.000733  0.499842  0.000733  1
  Co  Co17  1  0.903612  0.903612  0.903612  1
  Co  Co18  1  0.096198  0.096198  0.096198  1
