# generated using pymatgen
data_Hf4Tc5B8Ru5
_symmetry_space_group_name_H-M   'P 1'
_cell_length_a   3.08208200
_cell_length_b   8.60020098
_cell_length_c   9.99849415
_cell_angle_alpha   89.88609554
_cell_angle_beta   90.00000000
_cell_angle_gamma   90.00000000
_symmetry_Int_Tables_number   1
_chemical_formula_structural   Hf4Tc5B8Ru5
_chemical_formula_sum   'Hf4 Tc5 B8 Ru5'
_cell_volume   265.02480799
_cell_formula_units_Z   1
loop_
 _symmetry_equiv_pos_site_id
 _symmetry_equiv_pos_as_xyz
  1  'x, y, z'
loop_
 _atom_site_type_symbol
 _atom_site_label
 _atom_site_symmetry_multiplicity
 _atom_site_fract_x
 _atom_site_fract_y
 _atom_site_fract_z
 _atom_site_occupancy
  Hf  Hf0  1  0.500000  0.838901  0.181119  1
  Hf  Hf1  1  0.500000  0.163362  0.817350  1
  Hf  Hf2  1  0.500000  0.658692  0.683775  1
  Hf  Hf3  1  0.500000  0.338113  0.319891  1
  Tc  Tc4  1  0.000000  0.662539  0.954430  1
  Tc  Tc5  1  0.000000  0.339359  0.049228  1
  Tc  Tc6  1  0.000000  0.838297  0.451843  1
  Tc  Tc7  1  0.000000  0.160022  0.545255  1
  Tc  Tc8  1  0.000000  0.408308  0.760588  1
  B  B9  1  0.500000  0.966297  0.586455  1
  B  B10  1  0.500000  0.033680  0.412487  1
  B  B11  1  0.500000  0.848528  0.900602  1
  B  B12  1  0.500000  0.151964  0.098338  1
  B  B13  1  0.500000  0.650542  0.401197  1
  B  B14  1  0.500000  0.348634  0.602229  1
  B  B15  1  0.500000  0.466307  0.912788  1
  B  B16  1  0.500000  0.533867  0.087108  1
  Ru  Ru17  1  0.000000  0.000150  0.999593  1
  Ru  Ru18  1  0.000000  0.592976  0.238801  1
  Ru  Ru19  1  0.000000  0.499995  0.498083  1
  Ru  Ru20  1  0.000000  0.907646  0.738921  1
  Ru  Ru21  1  0.000000  0.091820  0.259921  1
