# generated using pymatgen
data_La12As(OsBr4)3
_symmetry_space_group_name_H-M   'P 1'
_cell_length_a   10.78664206
_cell_length_b   10.78664139
_cell_length_c   10.78711277
_cell_angle_alpha   110.13869386
_cell_angle_beta   110.13869031
_cell_angle_gamma   110.19426507
_symmetry_Int_Tables_number   1
_chemical_formula_structural   La12As(OsBr4)3
_chemical_formula_sum   'La12 As1 Os3 Br12'
_cell_volume   940.83641968
_cell_formula_units_Z   1
loop_
 _symmetry_equiv_pos_site_id
 _symmetry_equiv_pos_as_xyz
  1  'x, y, z'
loop_
 _atom_site_type_symbol
 _atom_site_label
 _atom_site_symmetry_multiplicity
 _atom_site_fract_x
 _atom_site_fract_y
 _atom_site_fract_z
 _atom_site_occupancy
  La  La0  1  0.390813  0.609187  0.000000  1
  La  La1  1  0.608549  0.391451  0.000000  1
  La  La2  1  0.645351  0.124952  0.276080  1
  La  La3  1  0.875048  0.354649  0.723920  1
  La  La4  1  0.400656  0.395509  0.250523  1
  La  La5  1  0.125451  0.140397  0.734370  1
  La  La6  1  0.124349  0.358095  0.515802  1
  La  La7  1  0.848871  0.625281  0.479926  1
  La  La8  1  0.604491  0.599344  0.749477  1
  La  La9  1  0.859603  0.874549  0.265630  1
  La  La10  1  0.641905  0.875651  0.484198  1
  La  La11  1  0.374719  0.151129  0.520074  1
  As  As12  1  0.624982  0.375018  0.500000  1
  Os  Os13  1  0.625183  0.624426  0.250978  1
  Os  Os14  1  0.375574  0.374817  0.749022  1
  Os  Os15  1  0.874260  0.125740  0.500000  1
  Br  Br16  1  0.376081  0.623919  0.500000  1
  Br  Br17  1  0.133272  0.866728  0.500000  1
  Br  Br18  1  0.127911  0.126094  0.243109  1
  Br  Br19  1  0.873906  0.872089  0.756891  1
  Br  Br20  1  0.880526  0.622991  0.995675  1
  Br  Br21  1  0.625931  0.883221  0.992900  1
  Br  Br22  1  0.624622  0.126702  0.748157  1
  Br  Br23  1  0.369193  0.878331  0.252391  1
  Br  Br24  1  0.377009  0.119474  0.004325  1
  Br  Br25  1  0.116779  0.374069  0.007100  1
  Br  Br26  1  0.873298  0.375378  0.251843  1
  Br  Br27  1  0.121669  0.630807  0.747609  1
