# generated using pymatgen
data_Tb2Pa(Zn2Co3)3
_symmetry_space_group_name_H-M   'P 1'
_cell_length_a   4.09467400
_cell_length_b   8.66586658
_cell_length_c   8.66586800
_cell_angle_alpha   59.99703007
_cell_angle_beta   90.00000000
_cell_angle_gamma   90.00000000
_symmetry_Int_Tables_number   1
_chemical_formula_structural   Tb2Pa(Zn2Co3)3
_chemical_formula_sum   'Tb2 Pa1 Zn6 Co9'
_cell_volume   266.29378621
_cell_formula_units_Z   1
loop_
 _symmetry_equiv_pos_site_id
 _symmetry_equiv_pos_as_xyz
  1  'x, y, z'
loop_
 _atom_site_type_symbol
 _atom_site_label
 _atom_site_symmetry_multiplicity
 _atom_site_fract_x
 _atom_site_fract_y
 _atom_site_fract_z
 _atom_site_occupancy
  Tb  Tb0  1  0.500000  0.333330  0.333588  1
  Tb  Tb1  1  0.500000  0.666412  0.666670  1
  Pa  Pa2  1  0.000000  0.000324  0.999676  1
  Zn  Zn3  1  0.000000  0.501642  0.498358  1
  Zn  Zn4  1  0.000000  0.498140  0.999986  1
  Zn  Zn5  1  0.000000  0.000014  0.501860  1
  Zn  Zn6  1  0.500000  0.707621  0.292379  1
  Zn  Zn7  1  0.500000  0.292020  0.999973  1
  Zn  Zn8  1  0.500000  0.000027  0.707980  1
  Co  Co9  1  0.000000  0.166479  0.174830  1
  Co  Co10  1  0.000000  0.174338  0.659455  1
  Co  Co11  1  0.000000  0.659390  0.166148  1
  Co  Co12  1  0.000000  0.825170  0.833521  1
  Co  Co13  1  0.000000  0.340545  0.825662  1
  Co  Co14  1  0.000000  0.833852  0.340610  1
  Co  Co15  1  0.500000  0.302510  0.697490  1
  Co  Co16  1  0.500000  0.698214  0.000126  1
  Co  Co17  1  0.500000  0.999874  0.301786  1
