# generated using pymatgen
data_Tb3Ho5(InRh)2
_symmetry_space_group_name_H-M   'P 1'
_cell_length_a   9.64375833
_cell_length_b   9.63963701
_cell_length_c   9.64589268
_cell_angle_alpha   119.97855114
_cell_angle_beta   90.02492999
_cell_angle_gamma   119.98586983
_symmetry_Int_Tables_number   1
_chemical_formula_structural   Tb3Ho5(InRh)2
_chemical_formula_sum   'Tb6 Ho10 In4 Rh4'
_cell_volume   634.26891654
_cell_formula_units_Z   2
loop_
 _symmetry_equiv_pos_site_id
 _symmetry_equiv_pos_as_xyz
  1  'x, y, z'
loop_
 _atom_site_type_symbol
 _atom_site_label
 _atom_site_symmetry_multiplicity
 _atom_site_fract_x
 _atom_site_fract_y
 _atom_site_fract_z
 _atom_site_occupancy
  Tb  Tb0  1  0.349548  0.699514  0.049480  1
  Tb  Tb1  1  0.937669  0.500200  0.062731  1
  Tb  Tb2  1  0.562160  0.124436  0.062163  1
  Tb  Tb3  1  0.562160  0.499888  0.062163  1
  Tb  Tb4  1  0.811740  0.000258  0.188777  1
  Tb  Tb5  1  0.562584  0.500277  0.437969  1
  Ho  Ho6  1  0.188454  0.999989  0.188553  1
  Ho  Ho7  1  0.188454  0.377018  0.188553  1
  Ho  Ho8  1  0.938310  0.500672  0.438411  1
  Ho  Ho9  1  0.938310  0.876049  0.438411  1
  Ho  Ho10  1  0.349560  0.300219  0.650080  1
  Ho  Ho11  1  0.950889  0.300645  0.650400  1
  Ho  Ho12  1  0.349560  0.699422  0.650080  1
  Ho  Ho13  1  0.811554  0.999824  0.810919  1
  Ho  Ho14  1  0.188167  0.999553  0.810941  1
  Ho  Ho15  1  0.811554  0.622647  0.810919  1
  In  In16  1  0.583235  0.166337  0.417554  1
  In  In17  1  0.250605  0.833972  0.417341  1
  In  In18  1  0.583235  0.834452  0.417554  1
  In  In19  1  0.582824  0.165585  0.748344  1
  Rh  Rh20  1  0.142940  0.285484  0.428026  1
  Rh  Rh21  1  0.141934  0.714813  0.857020  1
  Rh  Rh22  1  0.572617  0.714606  0.856596  1
  Rh  Rh23  1  0.141934  0.284143  0.857020  1
