# generated using pymatgen
data_Pr4Ga4Ru3Au
_symmetry_space_group_name_H-M   'P 1'
_cell_length_a   4.39507800
_cell_length_b   7.22108279
_cell_length_c   8.02306804
_cell_angle_alpha   89.50774942
_cell_angle_beta   90.00000000
_cell_angle_gamma   90.00000000
_symmetry_Int_Tables_number   1
_chemical_formula_structural   Pr4Ga4Ru3Au
_chemical_formula_sum   'Pr4 Ga4 Ru3 Au1'
_cell_volume   254.62049482
_cell_formula_units_Z   1
loop_
 _symmetry_equiv_pos_site_id
 _symmetry_equiv_pos_as_xyz
  1  'x, y, z'
loop_
 _atom_site_type_symbol
 _atom_site_label
 _atom_site_symmetry_multiplicity
 _atom_site_fract_x
 _atom_site_fract_y
 _atom_site_fract_z
 _atom_site_occupancy
  Pr  Pr0  1  0.250000  0.018486  0.681314  1
  Pr  Pr1  1  0.250000  0.531503  0.806302  1
  Pr  Pr2  1  0.750000  0.975142  0.307369  1
  Pr  Pr3  1  0.750000  0.484287  0.201902  1
  Ga  Ga4  1  0.250000  0.155105  0.082898  1
  Ga  Ga5  1  0.250000  0.663483  0.427333  1
  Ga  Ga6  1  0.750000  0.824307  0.927973  1
  Ga  Ga7  1  0.750000  0.341605  0.563456  1
  Ru  Ru8  1  0.250000  0.285767  0.392752  1
  Ru  Ru9  1  0.250000  0.785058  0.103608  1
  Ru  Ru10  1  0.750000  0.717896  0.608200  1
  Au  Au11  1  0.750000  0.217361  0.896893  1
