# generated using pymatgen
data_La16Cd4RuRh3
_symmetry_space_group_name_H-M   'P 1'
_cell_length_a   10.12851298
_cell_length_b   10.08368047
_cell_length_c   10.08428601
_cell_angle_alpha   60.00219871
_cell_angle_beta   60.14727615
_cell_angle_gamma   60.14482831
_symmetry_Int_Tables_number   1
_chemical_formula_structural   La16Cd4RuRh3
_chemical_formula_sum   'La16 Cd4 Ru1 Rh3'
_cell_volume   729.88995717
_cell_formula_units_Z   1
loop_
 _symmetry_equiv_pos_site_id
 _symmetry_equiv_pos_as_xyz
  1  'x, y, z'
loop_
 _atom_site_type_symbol
 _atom_site_label
 _atom_site_symmetry_multiplicity
 _atom_site_fract_x
 _atom_site_fract_y
 _atom_site_fract_z
 _atom_site_occupancy
  La  La0  1  0.901361  0.903937  0.903937  1
  La  La1  1  0.442403  0.436082  0.060758  1
  La  La2  1  0.060275  0.059152  0.440281  1
  La  La3  1  0.442394  0.060758  0.060766  1
  La  La4  1  0.310598  0.688707  0.311988  1
  La  La5  1  0.687814  0.690561  0.310814  1
  La  La6  1  0.687838  0.310805  0.310802  1
  La  La7  1  0.292649  0.902453  0.902448  1
  La  La8  1  0.901369  0.290755  0.903933  1
  La  La9  1  0.310604  0.688713  0.688704  1
  La  La10  1  0.901359  0.903929  0.290770  1
  La  La11  1  0.060274  0.440285  0.059167  1
  La  La12  1  0.310591  0.311980  0.688715  1
  La  La13  1  0.060268  0.440295  0.440276  1
  La  La14  1  0.442404  0.060763  0.436079  1
  La  La15  1  0.687843  0.310802  0.690561  1
  Cd  Cd16  1  0.670196  0.670607  0.988590  1
  Cd  Cd17  1  0.988988  0.670337  0.670336  1
  Cd  Cd18  1  0.670191  0.988586  0.670608  1
  Cd  Cd19  1  0.670194  0.670611  0.670605  1
  Ru  Ru20  1  0.670246  0.109932  0.109899  1
  Rh  Rh21  1  0.110028  0.109143  0.671697  1
  Rh  Rh22  1  0.110053  0.109146  0.109130  1
  Rh  Rh23  1  0.110060  0.671659  0.109137  1
