# generated using pymatgen
data_Dy3HoAl4(IrRh)2
_symmetry_space_group_name_H-M   'P 1'
_cell_length_a   4.20201500
_cell_length_b   6.90653287
_cell_length_c   7.95517368
_cell_angle_alpha   90.00492558
_cell_angle_beta   90.00000000
_cell_angle_gamma   90.00000000
_symmetry_Int_Tables_number   1
_chemical_formula_structural   Dy3HoAl4(IrRh)2
_chemical_formula_sum   'Dy3 Ho1 Al4 Ir2 Rh2'
_cell_volume   230.86991630
_cell_formula_units_Z   1
loop_
 _symmetry_equiv_pos_site_id
 _symmetry_equiv_pos_as_xyz
  1  'x, y, z'
loop_
 _atom_site_type_symbol
 _atom_site_label
 _atom_site_symmetry_multiplicity
 _atom_site_fract_x
 _atom_site_fract_y
 _atom_site_fract_z
 _atom_site_occupancy
  Dy  Dy0  1  0.250000  0.532361  0.179482  1
  Dy  Dy1  1  0.750000  0.467565  0.820665  1
  Dy  Dy2  1  0.750000  0.965732  0.680000  1
  Ho  Ho3  1  0.250000  0.034586  0.319577  1
  Al  Al4  1  0.250000  0.637774  0.561414  1
  Al  Al5  1  0.750000  0.362042  0.438394  1
  Al  Al6  1  0.750000  0.862286  0.060555  1
  Al  Al7  1  0.250000  0.137828  0.939987  1
  Ir  Ir8  1  0.250000  0.767572  0.878239  1
  Ir  Ir9  1  0.750000  0.231886  0.122182  1
  Rh  Rh10  1  0.750000  0.733588  0.380429  1
  Rh  Rh11  1  0.250000  0.266780  0.619077  1
