# generated using pymatgen
data_Ho2Lu4SnBiOs
_symmetry_space_group_name_H-M   'P 1'
_cell_length_a   8.07738859
_cell_length_b   8.07057084
_cell_length_c   4.27441600
_cell_angle_alpha   90.00000000
_cell_angle_beta   90.00000000
_cell_angle_gamma   120.07091480
_symmetry_Int_Tables_number   1
_chemical_formula_structural   Ho2Lu4SnBiOs
_chemical_formula_sum   'Ho2 Lu4 Sn1 Bi1 Os1'
_cell_volume   241.14144849
_cell_formula_units_Z   1
loop_
 _symmetry_equiv_pos_site_id
 _symmetry_equiv_pos_as_xyz
  1  'x, y, z'
loop_
 _atom_site_type_symbol
 _atom_site_label
 _atom_site_symmetry_multiplicity
 _atom_site_fract_x
 _atom_site_fract_y
 _atom_site_fract_z
 _atom_site_occupancy
  Ho  Ho0  1  0.608393  0.992892  0.000000  1
  Ho  Ho1  1  0.005739  0.614599  0.000000  1
  Lu  Lu2  1  0.233260  0.996990  0.500000  1
  Lu  Lu3  1  0.004019  0.236942  0.500000  1
  Lu  Lu4  1  0.764995  0.768357  0.500000  1
  Lu  Lu5  1  0.380960  0.387846  0.000000  1
  Sn  Sn6  1  0.333452  0.665045  0.500000  1
  Bi  Bi7  1  0.665466  0.333509  0.500000  1
  Os  Os8  1  0.003715  0.003821  0.000000  1
