# generated using pymatgen
data_Tb5CoOs
_symmetry_space_group_name_H-M   'P 1'
_cell_length_a   6.37160794
_cell_length_b   7.17422605
_cell_length_c   8.56567936
_cell_angle_alpha   96.36059588
_cell_angle_beta   111.83448565
_cell_angle_gamma   90.00000401
_symmetry_Int_Tables_number   1
_chemical_formula_structural   Tb5CoOs
_chemical_formula_sum   'Tb10 Co2 Os2'
_cell_volume   360.86213968
_cell_formula_units_Z   2
loop_
 _symmetry_equiv_pos_site_id
 _symmetry_equiv_pos_as_xyz
  1  'x, y, z'
loop_
 _atom_site_type_symbol
 _atom_site_label
 _atom_site_symmetry_multiplicity
 _atom_site_fract_x
 _atom_site_fract_y
 _atom_site_fract_z
 _atom_site_occupancy
  Tb  Tb0  1  0.983169  0.917511  0.181327  1
  Tb  Tb1  1  0.801842  0.582489  0.818673  1
  Tb  Tb2  1  0.024535  0.088790  0.810791  1
  Tb  Tb3  1  0.213744  0.411210  0.189209  1
  Tb  Tb4  1  0.646776  0.820136  0.436476  1
  Tb  Tb5  1  0.210302  0.679864  0.563524  1
  Tb  Tb6  1  0.348604  0.186229  0.566629  1
  Tb  Tb7  1  0.781975  0.313771  0.433371  1
  Tb  Tb8  1  0.423959  0.750000  0.000000  1
  Tb  Tb9  1  0.570486  0.250000  0.000000  1
  Co  Co10  1  0.172490  0.423726  0.777661  1
  Co  Co11  1  0.394829  0.076274  0.222339  1
  Os  Os12  1  0.823262  0.571736  0.219236  1
  Os  Os13  1  0.604026  0.928264  0.780764  1
