# generated using pymatgen
data_Nd6CdCuSb14
_symmetry_space_group_name_H-M   'P 1'
_cell_length_a   12.55529490
_cell_length_b   12.55529561
_cell_length_c   4.26161888
_cell_angle_alpha   80.25895913
_cell_angle_beta   80.25895899
_cell_angle_gamma   101.98928973
_symmetry_Int_Tables_number   1
_chemical_formula_structural   Nd6CdCuSb14
_chemical_formula_sum   'Nd6 Cd1 Cu1 Sb14'
_cell_volume   632.93903100
_cell_formula_units_Z   1
loop_
 _symmetry_equiv_pos_site_id
 _symmetry_equiv_pos_as_xyz
  1  'x, y, z'
loop_
 _atom_site_type_symbol
 _atom_site_label
 _atom_site_symmetry_multiplicity
 _atom_site_fract_x
 _atom_site_fract_y
 _atom_site_fract_z
 _atom_site_occupancy
  Nd  Nd0  1  0.324050  0.678885  0.932991  1
  Nd  Nd1  1  0.678885  0.324050  0.932991  1
  Nd  Nd2  1  0.271912  0.005611  0.794995  1
  Nd  Nd3  1  0.725735  0.996962  0.071354  1
  Nd  Nd4  1  0.996962  0.725735  0.071354  1
  Nd  Nd5  1  0.005611  0.271912  0.794995  1
  Cd  Cd6  1  0.391824  0.391824  0.041728  1
  Cu  Cu7  1  0.265642  0.265642  0.667783  1
  Sb  Sb8  1  0.581394  0.581394  0.848910  1
  Sb  Sb9  1  0.471096  0.252417  0.571150  1
  Sb  Sb10  1  0.546100  0.747665  0.285348  1
  Sb  Sb11  1  0.747665  0.546100  0.285348  1
  Sb  Sb12  1  0.252417  0.471096  0.571150  1
  Sb  Sb13  1  0.512233  0.914206  0.718795  1
  Sb  Sb14  1  0.487389  0.082149  0.148726  1
  Sb  Sb15  1  0.082149  0.487389  0.148726  1
  Sb  Sb16  1  0.914206  0.512233  0.718795  1
  Sb  Sb17  1  0.157884  0.157884  0.274512  1
  Sb  Sb18  1  0.852755  0.852755  0.579656  1
  Sb  Sb19  1  0.199425  0.802106  0.432890  1
  Sb  Sb20  1  0.802106  0.199425  0.432890  1
  Sb  Sb21  1  0.993163  0.993163  0.942213  1
