# generated using pymatgen
data_Rb2HoLu(Bi2Se5)2
_symmetry_space_group_name_H-M   'P 1'
_cell_length_a   4.15129800
_cell_length_b   12.36334603
_cell_length_c   22.39030305
_cell_angle_alpha   89.99216547
_cell_angle_beta   90.00000000
_cell_angle_gamma   90.00000000
_symmetry_Int_Tables_number   1
_chemical_formula_structural   Rb2HoLu(Bi2Se5)2
_chemical_formula_sum   'Rb4 Ho2 Lu2 Bi8 Se20'
_cell_volume   1149.15841736
_cell_formula_units_Z   2
loop_
 _symmetry_equiv_pos_site_id
 _symmetry_equiv_pos_as_xyz
  1  'x, y, z'
loop_
 _atom_site_type_symbol
 _atom_site_label
 _atom_site_symmetry_multiplicity
 _atom_site_fract_x
 _atom_site_fract_y
 _atom_site_fract_z
 _atom_site_occupancy
  Rb  Rb0  1  0.250000  0.488557  0.210091  1
  Rb  Rb1  1  0.750000  0.511443  0.789909  1
  Rb  Rb2  1  0.750000  0.988787  0.289107  1
  Rb  Rb3  1  0.250000  0.011213  0.710893  1
  Ho  Ho4  1  0.750000  0.863885  0.475985  1
  Ho  Ho5  1  0.250000  0.136115  0.524015  1
  Lu  Lu6  1  0.250000  0.365053  0.023439  1
  Lu  Lu7  1  0.750000  0.634947  0.976561  1
  Bi  Bi8  1  0.250000  0.801424  0.125506  1
  Bi  Bi9  1  0.750000  0.198576  0.874494  1
  Bi  Bi10  1  0.750000  0.301847  0.374126  1
  Bi  Bi11  1  0.250000  0.698153  0.625874  1
  Bi  Bi12  1  0.250000  0.596101  0.423544  1
  Bi  Bi13  1  0.750000  0.403899  0.576456  1
  Bi  Bi14  1  0.750000  0.097174  0.076082  1
  Bi  Bi15  1  0.250000  0.902826  0.923918  1
  Se  Se16  1  0.250000  0.813172  0.390650  1
  Se  Se17  1  0.750000  0.186828  0.609350  1
  Se  Se18  1  0.750000  0.314991  0.107104  1
  Se  Se19  1  0.250000  0.685009  0.892896  1
  Se  Se20  1  0.250000  0.246794  0.295549  1
  Se  Se21  1  0.750000  0.753206  0.704451  1
  Se  Se22  1  0.750000  0.746368  0.204094  1
  Se  Se23  1  0.250000  0.253632  0.795906  1
  Se  Se24  1  0.250000  0.354856  0.480891  1
  Se  Se25  1  0.750000  0.645144  0.519109  1
  Se  Se26  1  0.750000  0.851907  0.018492  1
  Se  Se27  1  0.250000  0.148093  0.981508  1
  Se  Se28  1  0.250000  0.026782  0.158834  1
  Se  Se29  1  0.750000  0.973218  0.841166  1
  Se  Se30  1  0.750000  0.527008  0.340763  1
  Se  Se31  1  0.250000  0.472992  0.659237  1
  Se  Se32  1  0.250000  0.582308  0.057735  1
  Se  Se33  1  0.750000  0.417692  0.942265  1
  Se  Se34  1  0.750000  0.082946  0.440476  1
  Se  Se35  1  0.250000  0.917054  0.559524  1
