# generated using pymatgen
data_Ca2Pr15Sm3Sn16
_symmetry_space_group_name_H-M   'P 1'
_cell_length_a   8.20187943
_cell_length_b   8.51717084
_cell_length_c   16.14800835
_cell_angle_alpha   90.07393200
_cell_angle_beta   89.38767269
_cell_angle_gamma   90.06689296
_symmetry_Int_Tables_number   1
_chemical_formula_structural   Ca2Pr15Sm3Sn16
_chemical_formula_sum   'Ca2 Pr15 Sm3 Sn16'
_cell_volume   1127.98221502
_cell_formula_units_Z   1
loop_
 _symmetry_equiv_pos_site_id
 _symmetry_equiv_pos_as_xyz
  1  'x, y, z'
loop_
 _atom_site_type_symbol
 _atom_site_label
 _atom_site_symmetry_multiplicity
 _atom_site_fract_x
 _atom_site_fract_y
 _atom_site_fract_z
 _atom_site_occupancy
  Ca  Ca0  1  0.829030  0.504204  0.250934  1
  Ca  Ca1  1  0.329108  0.994120  0.250734  1
  Pr  Pr2  1  0.843556  0.670158  0.624522  1
  Pr  Pr3  1  0.654271  0.168544  0.376859  1
  Pr  Pr4  1  0.160642  0.327489  0.122660  1
  Pr  Pr5  1  0.661605  0.171065  0.123382  1
  Pr  Pr6  1  0.155176  0.330283  0.377017  1
  Pr  Pr7  1  0.344757  0.831043  0.624848  1
  Pr  Pr8  1  0.839390  0.671734  0.875389  1
  Pr  Pr9  1  0.494931  0.319720  0.902413  1
  Pr  Pr10  1  0.999727  0.181951  0.597633  1
  Pr  Pr11  1  0.502692  0.681910  0.403996  1
  Pr  Pr12  1  0.004808  0.816001  0.096476  1
  Pr  Pr13  1  0.504092  0.681683  0.095807  1
  Pr  Pr14  1  0.002405  0.817489  0.403738  1
  Pr  Pr15  1  0.499052  0.318973  0.597845  1
  Pr  Pr16  1  0.995145  0.181145  0.902129  1
  Sm  Sm17  1  0.336964  0.830334  0.874507  1
  Sm  Sm18  1  0.171167  0.498854  0.749116  1
  Sm  Sm19  1  0.671111  0.002867  0.749209  1
  Sn  Sn20  1  0.324447  0.034095  0.037279  1
  Sn  Sn21  1  0.814750  0.461242  0.462503  1
  Sn  Sn22  1  0.686480  0.963772  0.540232  1
  Sn  Sn23  1  0.178184  0.537441  0.958337  1
  Sn  Sn24  1  0.671157  0.963805  0.958302  1
  Sn  Sn25  1  0.186429  0.537865  0.539887  1
  Sn  Sn26  1  0.313930  0.037733  0.462526  1
  Sn  Sn27  1  0.823745  0.463302  0.038118  1
  Sn  Sn28  1  0.536041  0.611575  0.751764  1
  Sn  Sn29  1  0.038166  0.891918  0.751167  1
  Sn  Sn30  1  0.460266  0.394580  0.249955  1
  Sn  Sn31  1  0.960696  0.104150  0.250088  1
  Sn  Sn32  1  0.301408  0.145445  0.751580  1
  Sn  Sn33  1  0.800839  0.355418  0.751044  1
  Sn  Sn34  1  0.702009  0.858555  0.249037  1
  Sn  Sn35  1  0.201826  0.639540  0.248968  1
