# generated using pymatgen
data_Eu2Pt3Rh
_symmetry_space_group_name_H-M   'P 1'
_cell_length_a   5.49043120
_cell_length_b   5.48856928
_cell_length_c   5.48857000
_cell_angle_alpha   59.99999567
_cell_angle_beta   60.01121307
_cell_angle_gamma   60.01120831
_symmetry_Int_Tables_number   1
_chemical_formula_structural   Eu2Pt3Rh
_chemical_formula_sum   'Eu2 Pt3 Rh1'
_cell_volume   116.97239179
_cell_formula_units_Z   1
loop_
 _symmetry_equiv_pos_site_id
 _symmetry_equiv_pos_as_xyz
  1  'x, y, z'
loop_
 _atom_site_type_symbol
 _atom_site_label
 _atom_site_symmetry_multiplicity
 _atom_site_fract_x
 _atom_site_fract_y
 _atom_site_fract_z
 _atom_site_occupancy
  Eu  Eu0  1  0.248823  0.250392  0.250392  1
  Eu  Eu1  1  0.001177  0.999608  0.999608  1
  Pt  Pt2  1  0.625000  0.125000  0.625000  1
  Pt  Pt3  1  0.625000  0.625000  0.125000  1
  Pt  Pt4  1  0.625000  0.625000  0.625000  1
  Rh  Rh5  1  0.125000  0.625000  0.625000  1
