# generated using pymatgen
data_DyY(Ho5Ir2)2
_symmetry_space_group_name_H-M   'P 1'
_cell_length_a   6.38823137
_cell_length_b   7.23250635
_cell_length_c   9.15859800
_cell_angle_alpha   90.00000000
_cell_angle_beta   90.00000000
_cell_angle_gamma   90.17411430
_symmetry_Int_Tables_number   1
_chemical_formula_structural   DyY(Ho5Ir2)2
_chemical_formula_sum   'Dy1 Y1 Ho10 Ir4'
_cell_volume   423.15205322
_cell_formula_units_Z   1
loop_
 _symmetry_equiv_pos_site_id
 _symmetry_equiv_pos_as_xyz
  1  'x, y, z'
loop_
 _atom_site_type_symbol
 _atom_site_label
 _atom_site_symmetry_multiplicity
 _atom_site_fract_x
 _atom_site_fract_y
 _atom_site_fract_z
 _atom_site_occupancy
  Dy  Dy0  1  0.873419  0.533667  0.250000  1
  Y  Y1  1  0.626289  0.032695  0.250000  1
  Ho  Ho2  1  0.327479  0.677243  0.061298  1
  Ho  Ho3  1  0.172089  0.177603  0.438381  1
  Ho  Ho4  1  0.672047  0.322702  0.562535  1
  Ho  Ho5  1  0.828273  0.822431  0.937500  1
  Ho  Ho6  1  0.672047  0.322702  0.937465  1
  Ho  Ho7  1  0.828273  0.822431  0.562500  1
  Ho  Ho8  1  0.327479  0.677243  0.438702  1
  Ho  Ho9  1  0.172089  0.177603  0.061619  1
  Ho  Ho10  1  0.128730  0.465792  0.750000  1
  Ho  Ho11  1  0.371297  0.965702  0.750000  1
  Ir  Ir12  1  0.046754  0.884257  0.250000  1
  Ir  Ir13  1  0.453929  0.385553  0.250000  1
  Ir  Ir14  1  0.956806  0.116217  0.750000  1
  Ir  Ir15  1  0.543000  0.616156  0.750000  1
