# generated using pymatgen
data_CaLaCe2(Zn4Ru)2
_symmetry_space_group_name_H-M   'P 1'
_cell_length_a   7.23437400
_cell_length_b   7.23437400
_cell_length_c   5.18754900
_cell_angle_alpha   90.00000000
_cell_angle_beta   90.00000000
_cell_angle_gamma   90.00000000
_symmetry_Int_Tables_number   1
_chemical_formula_structural   CaLaCe2(Zn4Ru)2
_chemical_formula_sum   'Ca1 La1 Ce2 Zn8 Ru2'
_cell_volume   271.49643168
_cell_formula_units_Z   1
loop_
 _symmetry_equiv_pos_site_id
 _symmetry_equiv_pos_as_xyz
  1  'x, y, z'
loop_
 _atom_site_type_symbol
 _atom_site_label
 _atom_site_symmetry_multiplicity
 _atom_site_fract_x
 _atom_site_fract_y
 _atom_site_fract_z
 _atom_site_occupancy
  Ca  Ca0  1  0.500000  0.000000  0.223659  1
  La  La1  1  0.000000  0.500000  0.772334  1
  Ce  Ce2  1  0.000000  0.000000  0.002366  1
  Ce  Ce3  1  0.500000  0.500000  0.002366  1
  Zn  Zn4  1  0.188273  0.688273  0.288474  1
  Zn  Zn5  1  0.811727  0.688273  0.288474  1
  Zn  Zn6  1  0.811727  0.311727  0.288474  1
  Zn  Zn7  1  0.316575  0.183425  0.708730  1
  Zn  Zn8  1  0.188273  0.311727  0.288474  1
  Zn  Zn9  1  0.683425  0.183425  0.708730  1
  Zn  Zn10  1  0.683425  0.816575  0.708730  1
  Zn  Zn11  1  0.316575  0.816575  0.708730  1
  Ru  Ru12  1  0.500000  0.500000  0.505231  1
  Ru  Ru13  1  0.000000  0.000000  0.505231  1
