# generated using pymatgen
data_Ca7Yb3(SnGe2)2
_symmetry_space_group_name_H-M   'P 1'
_cell_length_a   9.36009776
_cell_length_b   9.36009812
_cell_length_c   9.35893305
_cell_angle_alpha   130.70765264
_cell_angle_beta   130.70765431
_cell_angle_gamma   72.30789441
_symmetry_Int_Tables_number   1
_chemical_formula_structural   Ca7Yb3(SnGe2)2
_chemical_formula_sum   'Ca7 Yb3 Sn2 Ge4'
_cell_volume   460.52624725
_cell_formula_units_Z   1
loop_
 _symmetry_equiv_pos_site_id
 _symmetry_equiv_pos_as_xyz
  1  'x, y, z'
loop_
 _atom_site_type_symbol
 _atom_site_label
 _atom_site_symmetry_multiplicity
 _atom_site_fract_x
 _atom_site_fract_y
 _atom_site_fract_z
 _atom_site_occupancy
  Ca  Ca0  1  0.812854  0.959582  0.499837  1
  Ca  Ca1  1  0.459582  0.312854  0.499837  1
  Ca  Ca2  1  0.186973  0.040274  0.499871  1
  Ca  Ca3  1  0.540274  0.686973  0.499871  1
  Ca  Ca4  1  0.040235  0.540235  0.853298  1
  Ca  Ca5  1  0.686826  0.186826  0.146459  1
  Ca  Ca6  1  0.959868  0.459868  0.147039  1
  Yb  Yb7  1  0.500012  0.500332  0.999940  1
  Yb  Yb8  1  0.000332  0.000012  0.999940  1
  Yb  Yb9  1  0.312180  0.812180  0.854094  1
  Sn  Sn10  1  0.749095  0.750058  0.999715  1
  Sn  Sn11  1  0.250058  0.249095  0.999715  1
  Ge  Ge12  1  0.381375  0.881375  0.260791  1
  Ge  Ge13  1  0.882511  0.619512  0.501315  1
  Ge  Ge14  1  0.119512  0.382511  0.501315  1
  Ge  Ge15  1  0.618313  0.118313  0.736962  1
