# generated using pymatgen
data_CeZr2(Co3P2)3
_symmetry_space_group_name_H-M   'P 1'
_cell_length_a   3.67387100
_cell_length_b   10.40849200
_cell_length_c   12.04859900
_cell_angle_alpha   90.00000000
_cell_angle_beta   90.00000000
_cell_angle_gamma   90.00000000
_symmetry_Int_Tables_number   1
_chemical_formula_structural   CeZr2(Co3P2)3
_chemical_formula_sum   'Ce2 Zr4 Co18 P12'
_cell_volume   460.73188232
_cell_formula_units_Z   2
loop_
 _symmetry_equiv_pos_site_id
 _symmetry_equiv_pos_as_xyz
  1  'x, y, z'
loop_
 _atom_site_type_symbol
 _atom_site_label
 _atom_site_symmetry_multiplicity
 _atom_site_fract_x
 _atom_site_fract_y
 _atom_site_fract_z
 _atom_site_occupancy
  Ce  Ce0  1  0.000000  0.500000  0.528780  1
  Ce  Ce1  1  0.500000  0.000000  0.471220  1
  Zr  Zr2  1  0.500000  0.817522  0.204892  1
  Zr  Zr3  1  0.500000  0.182478  0.204892  1
  Zr  Zr4  1  0.000000  0.682478  0.795108  1
  Zr  Zr5  1  0.000000  0.317522  0.795108  1
  Co  Co6  1  0.500000  0.500000  0.159213  1
  Co  Co7  1  0.000000  0.000000  0.840787  1
  Co  Co8  1  0.500000  0.500000  0.704263  1
  Co  Co9  1  0.000000  0.000000  0.295737  1
  Co  Co10  1  0.000000  0.500000  0.985370  1
  Co  Co11  1  0.500000  0.000000  0.014630  1
  Co  Co12  1  0.500000  0.333061  0.993679  1
  Co  Co13  1  0.500000  0.666939  0.993679  1
  Co  Co14  1  0.000000  0.166939  0.006321  1
  Co  Co15  1  0.000000  0.833061  0.006321  1
  Co  Co16  1  0.500000  0.299210  0.429077  1
  Co  Co17  1  0.500000  0.700790  0.429077  1
  Co  Co18  1  0.000000  0.200790  0.570923  1
  Co  Co19  1  0.000000  0.799210  0.570923  1
  Co  Co20  1  0.500000  0.877624  0.713004  1
  Co  Co21  1  0.500000  0.122376  0.713004  1
  Co  Co22  1  0.000000  0.622376  0.286996  1
  Co  Co23  1  0.000000  0.377624  0.286996  1
  P  P24  1  0.500000  0.500000  0.879913  1
  P  P25  1  0.000000  0.000000  0.120087  1
  P  P26  1  0.500000  0.500000  0.343488  1
  P  P27  1  0.000000  0.000000  0.656512  1
  P  P28  1  0.500000  0.310094  0.620004  1
  P  P29  1  0.500000  0.689906  0.620004  1
  P  P30  1  0.000000  0.189906  0.379996  1
  P  P31  1  0.000000  0.810094  0.379996  1
  P  P32  1  0.500000  0.845075  0.892791  1
  P  P33  1  0.500000  0.154925  0.892791  1
  P  P34  1  0.000000  0.654925  0.107209  1
  P  P35  1  0.000000  0.345075  0.107209  1
