# generated using pymatgen
data_Pu4Mg(SiB4)2
_symmetry_space_group_name_H-M   'P 1'
_cell_length_a   7.16641000
_cell_length_b   7.16641000
_cell_length_c   7.91463200
_cell_angle_alpha   90.00000000
_cell_angle_beta   90.00000000
_cell_angle_gamma   90.00000000
_symmetry_Int_Tables_number   1
_chemical_formula_structural   Pu4Mg(SiB4)2
_chemical_formula_sum   'Pu8 Mg2 Si4 B16'
_cell_volume   406.47517703
_cell_formula_units_Z   2
loop_
 _symmetry_equiv_pos_site_id
 _symmetry_equiv_pos_as_xyz
  1  'x, y, z'
loop_
 _atom_site_type_symbol
 _atom_site_label
 _atom_site_symmetry_multiplicity
 _atom_site_fract_x
 _atom_site_fract_y
 _atom_site_fract_z
 _atom_site_occupancy
  Pu  Pu0  1  0.683382  0.183382  0.234220  1
  Pu  Pu1  1  0.316618  0.816618  0.765780  1
  Pu  Pu2  1  0.316618  0.816618  0.234220  1
  Pu  Pu3  1  0.816618  0.683382  0.234220  1
  Pu  Pu4  1  0.816618  0.683382  0.765780  1
  Pu  Pu5  1  0.683382  0.183382  0.765780  1
  Pu  Pu6  1  0.183382  0.316618  0.765780  1
  Pu  Pu7  1  0.183382  0.316618  0.234220  1
  Mg  Mg8  1  0.000000  0.000000  0.500000  1
  Mg  Mg9  1  0.500000  0.500000  0.500000  1
  Si  Si10  1  0.115698  0.615698  0.500000  1
  Si  Si11  1  0.884302  0.384302  0.500000  1
  Si  Si12  1  0.384302  0.115698  0.500000  1
  Si  Si13  1  0.615698  0.884302  0.500000  1
  B  B14  1  0.173768  0.040653  0.000000  1
  B  B15  1  0.826232  0.959347  0.000000  1
  B  B16  1  0.959347  0.173768  0.000000  1
  B  B17  1  0.326232  0.540653  0.000000  1
  B  B18  1  0.040653  0.826232  0.000000  1
  B  B19  1  0.673768  0.459347  0.000000  1
  B  B20  1  0.540653  0.673768  0.000000  1
  B  B21  1  0.459347  0.326232  0.000000  1
  B  B22  1  0.089708  0.589708  0.000000  1
  B  B23  1  0.910292  0.410292  0.000000  1
  B  B24  1  0.410292  0.089708  0.000000  1
  B  B25  1  0.589708  0.910292  0.000000  1
  B  B26  1  0.000000  0.000000  0.163240  1
  B  B27  1  0.000000  0.000000  0.836760  1
  B  B28  1  0.500000  0.500000  0.836760  1
  B  B29  1  0.500000  0.500000  0.163240  1
