# generated using pymatgen
data_Yb2BRu2
_symmetry_space_group_name_H-M   'P 1'
_cell_length_a   5.56387252
_cell_length_b   5.56387254
_cell_length_c   5.56387294
_cell_angle_alpha   146.81032021
_cell_angle_beta   114.48186640
_cell_angle_gamma   75.44743463
_symmetry_Int_Tables_number   1
_chemical_formula_structural   Yb2BRu2
_chemical_formula_sum   'Yb2 B1 Ru2'
_cell_volume   84.21639784
_cell_formula_units_Z   1
loop_
 _symmetry_equiv_pos_site_id
 _symmetry_equiv_pos_as_xyz
  1  'x, y, z'
loop_
 _atom_site_type_symbol
 _atom_site_label
 _atom_site_symmetry_multiplicity
 _atom_site_fract_x
 _atom_site_fract_y
 _atom_site_fract_z
 _atom_site_occupancy
  Yb  Yb0  1  0.714100  0.214099  0.500001  1
  Yb  Yb1  1  0.285901  0.785901  0.500000  1
  B  B2  1  0.000000  0.000000  0.000000  1
  Ru  Ru3  1  0.765351  0.500000  0.265351  1
  Ru  Ru4  1  0.234650  0.500000  0.734650  1
