# generated using pymatgen
data_Tb16Cd4NiOs3
_symmetry_space_group_name_H-M   'P 1'
_cell_length_a   9.56659139
_cell_length_b   9.76469762
_cell_length_c   9.76469700
_cell_angle_alpha   59.99999871
_cell_angle_beta   59.31258193
_cell_angle_gamma   59.31257799
_symmetry_Int_Tables_number   1
_chemical_formula_structural   Tb16Cd4NiOs3
_chemical_formula_sum   'Tb16 Cd4 Ni1 Os3'
_cell_volume   638.21689459
_cell_formula_units_Z   1
loop_
 _symmetry_equiv_pos_site_id
 _symmetry_equiv_pos_as_xyz
  1  'x, y, z'
loop_
 _atom_site_type_symbol
 _atom_site_label
 _atom_site_symmetry_multiplicity
 _atom_site_fract_x
 _atom_site_fract_y
 _atom_site_fract_z
 _atom_site_occupancy
  Tb  Tb0  1  0.601669  0.595876  0.595876  1
  Tb  Tb1  1  0.601669  0.595876  0.206579  1
  Tb  Tb2  1  0.601669  0.206579  0.595876  1
  Tb  Tb3  1  0.217804  0.594066  0.594066  1
  Tb  Tb4  1  0.060557  0.439022  0.439022  1
  Tb  Tb5  1  0.435677  0.060921  0.060921  1
  Tb  Tb6  1  0.435677  0.060921  0.442481  1
  Tb  Tb7  1  0.060557  0.439022  0.061399  1
  Tb  Tb8  1  0.435677  0.442481  0.060921  1
  Tb  Tb9  1  0.060557  0.061399  0.439022  1
  Tb  Tb10  1  0.186009  0.811843  0.811843  1
  Tb  Tb11  1  0.804910  0.188434  0.188434  1
  Tb  Tb12  1  0.804910  0.188434  0.818224  1
  Tb  Tb13  1  0.186009  0.811843  0.190305  1
  Tb  Tb14  1  0.804910  0.818224  0.188434  1
  Tb  Tb15  1  0.186009  0.190305  0.811843  1
  Cd  Cd16  1  0.828611  0.830019  0.830019  1
  Cd  Cd17  1  0.828611  0.830019  0.511351  1
  Cd  Cd18  1  0.828611  0.511351  0.830019  1
  Cd  Cd19  1  0.506423  0.831192  0.831192  1
  Ni  Ni20  1  0.828831  0.390390  0.390390  1
  Os  Os21  1  0.398212  0.386566  0.386566  1
  Os  Os22  1  0.398212  0.386566  0.828655  1
  Os  Os23  1  0.398212  0.828655  0.386566  1
