# generated using pymatgen
data_Ho13Er3Cd4Ir3Ru
_symmetry_space_group_name_H-M   'P 1'
_cell_length_a   9.60646412
_cell_length_b   9.60711850
_cell_length_c   9.60711945
_cell_angle_alpha   59.71932488
_cell_angle_beta   59.71346733
_cell_angle_gamma   59.71347243
_symmetry_Int_Tables_number   1
_chemical_formula_structural   Ho13Er3Cd4Ir3Ru
_chemical_formula_sum   'Ho13 Er3 Cd4 Ir3 Ru1'
_cell_volume   622.90053598
_cell_formula_units_Z   1
loop_
 _symmetry_equiv_pos_site_id
 _symmetry_equiv_pos_as_xyz
  1  'x, y, z'
loop_
 _atom_site_type_symbol
 _atom_site_label
 _atom_site_symmetry_multiplicity
 _atom_site_fract_x
 _atom_site_fract_y
 _atom_site_fract_z
 _atom_site_occupancy
  Ho  Ho0  1  0.205832  0.598455  0.598455  1
  Ho  Ho1  1  0.061846  0.438761  0.438761  1
  Ho  Ho2  1  0.438530  0.060044  0.060044  1
  Ho  Ho3  1  0.438909  0.061883  0.438834  1
  Ho  Ho4  1  0.060136  0.438340  0.060210  1
  Ho  Ho5  1  0.438909  0.438834  0.061883  1
  Ho  Ho6  1  0.060136  0.060210  0.438340  1
  Ho  Ho7  1  0.188416  0.811837  0.811837  1
  Ho  Ho8  1  0.809867  0.188151  0.188151  1
  Ho  Ho9  1  0.811634  0.188601  0.811755  1
  Ho  Ho10  1  0.188025  0.810033  0.187984  1
  Ho  Ho11  1  0.811634  0.811755  0.188601  1
  Ho  Ho12  1  0.188025  0.187984  0.810033  1
  Er  Er13  1  0.598898  0.598951  0.598951  1
  Er  Er14  1  0.598325  0.598367  0.206240  1
  Er  Er15  1  0.598325  0.206240  0.598367  1
  Cd  Cd16  1  0.829899  0.830048  0.830048  1
  Cd  Cd17  1  0.830575  0.830725  0.507092  1
  Cd  Cd18  1  0.830575  0.507092  0.830725  1
  Cd  Cd19  1  0.507172  0.830652  0.830652  1
  Ir  Ir20  1  0.393721  0.393022  0.825422  1
  Ir  Ir21  1  0.393721  0.825422  0.393022  1
  Ir  Ir22  1  0.825046  0.393376  0.393376  1
  Ru  Ru23  1  0.391846  0.391218  0.391218  1
