# generated using pymatgen
data_Ho3Pa(Al3Ir)6
_symmetry_space_group_name_H-M   'P 1'
_cell_length_a   7.58507024
_cell_length_b   7.58048168
_cell_length_c   9.43405000
_cell_angle_alpha   90.00000000
_cell_angle_beta   90.00000000
_cell_angle_gamma   119.62309007
_symmetry_Int_Tables_number   1
_chemical_formula_structural   Ho3Pa(Al3Ir)6
_chemical_formula_sum   'Ho3 Pa1 Al18 Ir6'
_cell_volume   471.54393640
_cell_formula_units_Z   1
loop_
 _symmetry_equiv_pos_site_id
 _symmetry_equiv_pos_as_xyz
  1  'x, y, z'
loop_
 _atom_site_type_symbol
 _atom_site_label
 _atom_site_symmetry_multiplicity
 _atom_site_fract_x
 _atom_site_fract_y
 _atom_site_fract_z
 _atom_site_occupancy
  Ho  Ho0  1  0.004812  0.329333  0.750000  1
  Ho  Ho1  1  0.672034  0.994967  0.250000  1
  Ho  Ho2  1  0.329543  0.004292  0.750000  1
  Pa  Pa3  1  0.996077  0.670964  0.250000  1
  Al  Al4  1  0.131283  0.130193  0.250000  1
  Al  Al5  1  0.872843  0.874385  0.750000  1
  Al  Al6  1  0.000808  0.331998  0.074603  1
  Al  Al7  1  0.999167  0.664822  0.920999  1
  Al  Al8  1  0.999167  0.664822  0.579001  1
  Al  Al9  1  0.338511  0.003894  0.425226  1
  Al  Al10  1  0.000808  0.331998  0.425397  1
  Al  Al11  1  0.665261  0.000074  0.575772  1
  Al  Al12  1  0.665261  0.000074  0.924228  1
  Al  Al13  1  0.338511  0.003894  0.074774  1
  Al  Al14  1  0.332535  0.332634  0.555822  1
  Al  Al15  1  0.663232  0.665929  0.448043  1
  Al  Al16  1  0.663232  0.665929  0.051957  1
  Al  Al17  1  0.332535  0.332634  0.944178  1
  Al  Al18  1  0.339232  0.546844  0.250000  1
  Al  Al19  1  0.659444  0.449933  0.750000  1
  Al  Al20  1  0.546633  0.341498  0.250000  1
  Al  Al21  1  0.450867  0.660996  0.750000  1
  Ir  Ir22  1  0.673974  0.329890  0.002087  1
  Ir  Ir23  1  0.325853  0.672071  0.002149  1
  Ir  Ir24  1  0.325853  0.672071  0.497851  1
  Ir  Ir25  1  0.673974  0.329890  0.497913  1
  Ir  Ir26  1  0.999276  0.996985  0.002934  1
  Ir  Ir27  1  0.999276  0.996985  0.497066  1
