# generated using pymatgen
data_MgSc2BeP2Ir3
_symmetry_space_group_name_H-M   'P 1'
_cell_length_a   6.44590416
_cell_length_b   6.43321025
_cell_length_c   3.70053700
_cell_angle_alpha   90.00000000
_cell_angle_beta   90.00000000
_cell_angle_gamma   119.93488140
_symmetry_Int_Tables_number   1
_chemical_formula_structural   MgSc2BeP2Ir3
_chemical_formula_sum   'Mg1 Sc2 Be1 P2 Ir3'
_cell_volume   132.98160579
_cell_formula_units_Z   1
loop_
 _symmetry_equiv_pos_site_id
 _symmetry_equiv_pos_as_xyz
  1  'x, y, z'
loop_
 _atom_site_type_symbol
 _atom_site_label
 _atom_site_symmetry_multiplicity
 _atom_site_fract_x
 _atom_site_fract_y
 _atom_site_fract_z
 _atom_site_occupancy
  Mg  Mg0  1  0.000000  0.407887  0.500000  1
  Sc  Sc1  1  0.591250  0.591118  0.500000  1
  Sc  Sc2  1  0.408750  0.999868  0.500000  1
  Be  Be3  1  0.000000  0.999907  0.500000  1
  P  P4  1  0.668938  0.333868  0.000000  1
  P  P5  1  0.331062  0.664931  0.000000  1
  Ir  Ir6  1  0.000000  0.755841  0.000000  1
  Ir  Ir7  1  0.243087  0.244833  0.000000  1
  Ir  Ir8  1  0.756913  0.001746  0.000000  1
