# generated using pymatgen
data_LiDy5Ga5P7Ir18
_symmetry_space_group_name_H-M   'P 1'
_cell_length_a   12.96020430
_cell_length_b   12.89314762
_cell_length_c   3.98935200
_cell_angle_alpha   90.00000000
_cell_angle_beta   90.00000000
_cell_angle_gamma   120.11264445
_symmetry_Int_Tables_number   1
_chemical_formula_structural   LiDy5Ga5P7Ir18
_chemical_formula_sum   'Li1 Dy5 Ga5 P7 Ir18'
_cell_volume   576.64656994
_cell_formula_units_Z   1
loop_
 _symmetry_equiv_pos_site_id
 _symmetry_equiv_pos_as_xyz
  1  'x, y, z'
loop_
 _atom_site_type_symbol
 _atom_site_label
 _atom_site_symmetry_multiplicity
 _atom_site_fract_x
 _atom_site_fract_y
 _atom_site_fract_z
 _atom_site_occupancy
  Li  Li0  1  0.997524  0.439101  0.500000  1
  Dy  Dy1  1  0.335958  0.666970  0.500000  1
  Dy  Dy2  1  0.665602  0.333408  0.500000  1
  Dy  Dy3  1  0.002981  0.812360  0.000000  1
  Dy  Dy4  1  0.181919  0.180988  0.000000  1
  Dy  Dy5  1  0.812032  0.993712  0.000000  1
  Ga  Ga6  1  0.997415  0.629967  0.500000  1
  Ga  Ga7  1  0.361780  0.363298  0.500000  1
  Ga  Ga8  1  0.636915  0.003998  0.500000  1
  Ga  Ga9  1  0.518707  0.678237  0.000000  1
  Ga  Ga10  1  0.322177  0.837554  0.000000  1
  P  P11  1  0.167285  0.479703  0.000000  1
  P  P12  1  0.481833  0.178009  0.000000  1
  P  P13  1  0.694188  0.517765  0.000000  1
  P  P14  1  0.823544  0.307759  0.000000  1
  P  P15  1  0.995183  0.179851  0.500000  1
  P  P16  1  0.825308  0.820801  0.500000  1
  P  P17  1  0.180610  0.002415  0.500000  1
  Ir  Ir18  1  0.525378  0.875129  0.000000  1
  Ir  Ir19  1  0.132945  0.635746  0.000000  1
  Ir  Ir20  1  0.345163  0.475680  0.000000  1
  Ir  Ir21  1  0.499069  0.369440  0.000000  1
  Ir  Ir22  1  0.866899  0.502519  0.000000  1
  Ir  Ir23  1  0.632477  0.133754  0.000000  1
  Ir  Ir24  1  0.551116  0.559461  0.500000  1
  Ir  Ir25  1  0.440671  0.996107  0.500000  1
  Ir  Ir26  1  0.994740  0.273235  0.000000  1
  Ir  Ir27  1  0.730878  0.721084  0.000000  1
  Ir  Ir28  1  0.281654  0.009729  0.000000  1
  Ir  Ir29  1  0.639599  0.810800  0.500000  1
  Ir  Ir30  1  0.189632  0.826299  0.500000  1
  Ir  Ir31  1  0.168057  0.377833  0.500000  1
  Ir  Ir32  1  0.383427  0.180385  0.500000  1
  Ir  Ir33  1  0.792738  0.615604  0.500000  1
  Ir  Ir34  1  0.822123  0.206434  0.500000  1
  Ir  Ir35  1  0.002475  0.004866  0.500000  1
