# generated using pymatgen
data_Er2Si6GeRh12
_symmetry_space_group_name_H-M   'P 1'
_cell_length_a   9.77889900
_cell_length_b   9.77889792
_cell_length_c   3.85030700
_cell_angle_alpha   90.00000000
_cell_angle_beta   90.00000000
_cell_angle_gamma   120.00000026
_symmetry_Int_Tables_number   1
_chemical_formula_structural   Er2Si6GeRh12
_chemical_formula_sum   'Er2 Si6 Ge1 Rh12'
_cell_volume   318.86427385
_cell_formula_units_Z   1
loop_
 _symmetry_equiv_pos_site_id
 _symmetry_equiv_pos_as_xyz
  1  'x, y, z'
loop_
 _atom_site_type_symbol
 _atom_site_label
 _atom_site_symmetry_multiplicity
 _atom_site_fract_x
 _atom_site_fract_y
 _atom_site_fract_z
 _atom_site_occupancy
  Er  Er0  1  0.666667  0.333333  0.751273  1
  Er  Er1  1  0.333333  0.666667  0.251202  1
  Si  Si2  1  0.289490  0.887950  0.751667  1
  Si  Si3  1  0.112050  0.401541  0.751667  1
  Si  Si4  1  0.598459  0.710510  0.751667  1
  Si  Si5  1  0.709365  0.111543  0.250516  1
  Si  Si6  1  0.888457  0.597822  0.250516  1
  Si  Si7  1  0.402178  0.290635  0.250516  1
  Ge  Ge8  1  0.000000  0.000000  0.580508  1
  Rh  Rh9  1  0.065888  0.619786  0.751921  1
  Rh  Rh10  1  0.380214  0.446103  0.751921  1
  Rh  Rh11  1  0.553897  0.934112  0.751921  1
  Rh  Rh12  1  0.937705  0.383141  0.249810  1
  Rh  Rh13  1  0.616859  0.554564  0.249810  1
  Rh  Rh14  1  0.445436  0.062295  0.249810  1
  Rh  Rh15  1  0.274357  0.123919  0.749745  1
  Rh  Rh16  1  0.876081  0.150438  0.749745  1
  Rh  Rh17  1  0.849562  0.725643  0.749745  1
  Rh  Rh18  1  0.737654  0.881405  0.253221  1
  Rh  Rh19  1  0.118595  0.856249  0.253221  1
  Rh  Rh20  1  0.143751  0.262346  0.253221  1
