# generated using pymatgen
data_Ba4Sr4V4O15
_symmetry_space_group_name_H-M   'P 1'
_cell_length_a   11.99711770
_cell_length_b   11.99711764
_cell_length_c   7.06257007
_cell_angle_alpha   89.81560391
_cell_angle_beta   89.81561095
_cell_angle_gamma   119.75808481
_symmetry_Int_Tables_number   1
_chemical_formula_structural   Ba4Sr4V4O15
_chemical_formula_sum   'Ba8 Sr8 V8 O30'
_cell_volume   882.45350638
_cell_formula_units_Z   2
loop_
 _symmetry_equiv_pos_site_id
 _symmetry_equiv_pos_as_xyz
  1  'x, y, z'
loop_
 _atom_site_type_symbol
 _atom_site_label
 _atom_site_symmetry_multiplicity
 _atom_site_fract_x
 _atom_site_fract_y
 _atom_site_fract_z
 _atom_site_occupancy
  Ba  Ba0  1  0.674126  0.345268  0.973308  1
  Ba  Ba1  1  0.345268  0.674126  0.473308  1
  Ba  Ba2  1  0.355335  0.177461  0.667708  1
  Ba  Ba3  1  0.819206  0.643226  0.666018  1
  Ba  Ba4  1  0.819873  0.175819  0.664953  1
  Ba  Ba5  1  0.643226  0.819206  0.166018  1
  Ba  Ba6  1  0.177461  0.355335  0.167708  1
  Ba  Ba7  1  0.175819  0.819873  0.164953  1
  Sr  Sr8  1  0.998248  0.998658  0.479517  1
  Sr  Sr9  1  0.998658  0.998248  0.979517  1
  Sr  Sr10  1  0.957558  0.481138  0.332662  1
  Sr  Sr11  1  0.481138  0.957558  0.832662  1
  Sr  Sr12  1  0.520368  0.039855  0.332779  1
  Sr  Sr13  1  0.523717  0.481001  0.328040  1
  Sr  Sr14  1  0.039855  0.520368  0.832779  1
  Sr  Sr15  1  0.481001  0.523717  0.828040  1
  V  V16  1  0.350496  0.175557  0.161071  1
  V  V17  1  0.825932  0.652969  0.165070  1
  V  V18  1  0.824821  0.175688  0.162280  1
  V  V19  1  0.652969  0.825932  0.665070  1
  V  V20  1  0.175557  0.350496  0.661071  1
  V  V21  1  0.175688  0.824821  0.662280  1
  V  V22  1  0.665420  0.333964  0.509519  1
  V  V23  1  0.333964  0.665420  0.009519  1
  O  O24  1  0.609798  0.675400  0.522602  1
  O  O25  1  0.062749  0.378674  0.526304  1
  O  O26  1  0.317697  0.937394  0.530136  1
  O  O27  1  0.317168  0.380378  0.525893  1
  O  O28  1  0.611773  0.936494  0.526087  1
  O  O29  1  0.064087  0.684583  0.528461  1
  O  O30  1  0.380378  0.317168  0.025893  1
  O  O31  1  0.936494  0.611773  0.026087  1
  O  O32  1  0.684583  0.064087  0.028461  1
  O  O33  1  0.675400  0.609798  0.022602  1
  O  O34  1  0.378674  0.062749  0.026304  1
  O  O35  1  0.937394  0.317697  0.030136  1
  O  O36  1  0.828847  0.412851  0.669773  1
  O  O37  1  0.588012  0.174056  0.662146  1
  O  O38  1  0.585064  0.410674  0.662462  1
  O  O39  1  0.174056  0.588012  0.162146  1
  O  O40  1  0.412851  0.828847  0.169773  1
  O  O41  1  0.410674  0.585064  0.162462  1
  O  O42  1  0.487862  0.243037  0.325784  1
  O  O43  1  0.749512  0.496407  0.331581  1
  O  O44  1  0.754286  0.246152  0.325479  1
  O  O45  1  0.496407  0.749512  0.831581  1
  O  O46  1  0.243037  0.487862  0.825784  1
  O  O47  1  0.246152  0.754286  0.825479  1
  O  O48  1  0.827266  0.913951  0.742590  1
  O  O49  1  0.095203  0.184135  0.740428  1
  O  O50  1  0.096740  0.912870  0.739140  1
  O  O51  1  0.184135  0.095203  0.240428  1
  O  O52  1  0.913951  0.827266  0.242590  1
  O  O53  1  0.912870  0.096740  0.239140  1
