# generated using pymatgen
data_Tb4Pd3RhPb2
_symmetry_space_group_name_H-M   'P 1'
_cell_length_a   7.88748100
_cell_length_b   7.88748100
_cell_length_c   3.66182100
_cell_angle_alpha   90.00000000
_cell_angle_beta   90.00000000
_cell_angle_gamma   90.00047943
_symmetry_Int_Tables_number   1
_chemical_formula_structural   Tb4Pd3RhPb2
_chemical_formula_sum   'Tb4 Pd3 Rh1 Pb2'
_cell_volume   227.81051358
_cell_formula_units_Z   1
loop_
 _symmetry_equiv_pos_site_id
 _symmetry_equiv_pos_as_xyz
  1  'x, y, z'
loop_
 _atom_site_type_symbol
 _atom_site_label
 _atom_site_symmetry_multiplicity
 _atom_site_fract_x
 _atom_site_fract_y
 _atom_site_fract_z
 _atom_site_occupancy
  Tb  Tb0  1  0.660446  0.173188  0.500000  1
  Tb  Tb1  1  0.180107  0.319893  0.500000  1
  Tb  Tb2  1  0.830003  0.669997  0.500000  1
  Tb  Tb3  1  0.326812  0.839554  0.500000  1
  Pd  Pd4  1  0.125826  0.624864  0.000000  1
  Pd  Pd5  1  0.627768  0.872232  0.000000  1
  Pd  Pd6  1  0.875136  0.374174  0.000000  1
  Rh  Rh7  1  0.373940  0.126060  0.000000  1
  Pb  Pb8  1  0.000487  0.000525  0.000000  1
  Pb  Pb9  1  0.499475  0.499513  0.000000  1
