# generated using pymatgen
data_Gd2Ni2Ag3
_symmetry_space_group_name_H-M   'P 1'
_cell_length_a   10.32507600
_cell_length_b   10.32507540
_cell_length_c   3.53323100
_cell_angle_alpha   90.00000000
_cell_angle_beta   90.00000000
_cell_angle_gamma   21.59995964
_symmetry_Int_Tables_number   1
_chemical_formula_structural   Gd2Ni2Ag3
_chemical_formula_sum   'Gd2 Ni2 Ag3'
_cell_volume   138.66042684
_cell_formula_units_Z   1
loop_
 _symmetry_equiv_pos_site_id
 _symmetry_equiv_pos_as_xyz
  1  'x, y, z'
loop_
 _atom_site_type_symbol
 _atom_site_label
 _atom_site_symmetry_multiplicity
 _atom_site_fract_x
 _atom_site_fract_y
 _atom_site_fract_z
 _atom_site_occupancy
  Gd  Gd0  1  0.175184  0.175184  0.000000  1
  Gd  Gd1  1  0.824816  0.824816  0.000000  1
  Ni  Ni2  1  0.287399  0.287399  0.499999  1
  Ni  Ni3  1  0.712601  0.712601  0.499999  1
  Ag  Ag4  1  0.422267  0.422267  0.499999  1
  Ag  Ag5  1  0.577733  0.577733  0.499999  1
  Ag  Ag6  1  0.000000  0.000000  0.000000  1
