# generated using pymatgen
data_Ba2BIN2
_symmetry_space_group_name_H-M   'P 1'
_cell_length_a   4.51200300
_cell_length_b   10.87876890
_cell_length_c   14.16519619
_cell_angle_alpha   87.38774107
_cell_angle_beta   90.00000000
_cell_angle_gamma   90.00000000
_symmetry_Int_Tables_number   1
_chemical_formula_structural   Ba2BIN2
_chemical_formula_sum   'Ba8 B4 I4 N8'
_cell_volume   694.57666577
_cell_formula_units_Z   4
loop_
 _symmetry_equiv_pos_site_id
 _symmetry_equiv_pos_as_xyz
  1  'x, y, z'
loop_
 _atom_site_type_symbol
 _atom_site_label
 _atom_site_symmetry_multiplicity
 _atom_site_fract_x
 _atom_site_fract_y
 _atom_site_fract_z
 _atom_site_occupancy
  Ba  Ba0  1  0.250000  0.806481  0.381558  1
  Ba  Ba1  1  0.750000  0.645759  0.628352  1
  Ba  Ba2  1  0.750000  0.607963  0.170323  1
  Ba  Ba3  1  0.250000  0.923954  0.901106  1
  Ba  Ba4  1  0.250000  0.392037  0.829677  1
  Ba  Ba5  1  0.750000  0.193519  0.618442  1
  Ba  Ba6  1  0.750000  0.076046  0.098894  1
  Ba  Ba7  1  0.250000  0.354241  0.371648  1
  B  B8  1  0.250000  0.839925  0.145435  1
  B  B9  1  0.750000  0.584731  0.394133  1
  B  B10  1  0.750000  0.160075  0.854565  1
  B  B11  1  0.250000  0.415269  0.605867  1
  I  I12  1  0.250000  0.349302  0.098666  1
  I  I13  1  0.250000  0.918577  0.639591  1
  I  I14  1  0.750000  0.650698  0.901334  1
  I  I15  1  0.750000  0.081423  0.360409  1
  N  N16  1  0.750000  0.485106  0.340798  1
  N  N17  1  0.250000  0.310578  0.558132  1
  N  N18  1  0.250000  0.514894  0.659202  1
  N  N19  1  0.750000  0.262778  0.797023  1
  N  N20  1  0.750000  0.689422  0.441868  1
  N  N21  1  0.250000  0.737222  0.202977  1
  N  N22  1  0.250000  0.942888  0.088767  1
  N  N23  1  0.750000  0.057112  0.911233  1
