# generated using pymatgen
data_Na4TbP12Rh19
_symmetry_space_group_name_H-M   'P 1'
_cell_length_a   12.60375500
_cell_length_b   12.60375560
_cell_length_c   3.91943700
_cell_angle_alpha   90.00000000
_cell_angle_beta   90.00000000
_cell_angle_gamma   119.99999579
_symmetry_Int_Tables_number   1
_chemical_formula_structural   Na4TbP12Rh19
_chemical_formula_sum   'Na4 Tb1 P12 Rh19'
_cell_volume   539.20543867
_cell_formula_units_Z   1
loop_
 _symmetry_equiv_pos_site_id
 _symmetry_equiv_pos_as_xyz
  1  'x, y, z'
loop_
 _atom_site_type_symbol
 _atom_site_label
 _atom_site_symmetry_multiplicity
 _atom_site_fract_x
 _atom_site_fract_y
 _atom_site_fract_z
 _atom_site_occupancy
  Na  Na0  1  0.999738  0.181678  0.500000  1
  Na  Na1  1  0.818322  0.818059  0.500000  1
  Na  Na2  1  0.181941  0.000262  0.500000  1
  Na  Na3  1  0.333333  0.666667  0.000000  1
  Tb  Tb4  1  0.666667  0.333333  0.000000  1
  P  P5  1  0.478094  0.311566  0.500000  1
  P  P6  1  0.820380  0.998862  0.000000  1
  P  P7  1  0.178483  0.179620  0.000000  1
  P  P8  1  0.001138  0.821517  0.000000  1
  P  P9  1  0.363752  0.997494  0.000000  1
  P  P10  1  0.688434  0.166527  0.500000  1
  P  P11  1  0.833473  0.521906  0.500000  1
  P  P12  1  0.518651  0.833058  0.500000  1
  P  P13  1  0.166942  0.685593  0.500000  1
  P  P14  1  0.314407  0.481349  0.500000  1
  P  P15  1  0.002506  0.366258  0.000000  1
  P  P16  1  0.633742  0.636248  0.000000  1
  Rh  Rh17  1  0.807185  0.182494  0.000000  1
  Rh  Rh18  1  0.375310  0.192815  0.000000  1
  Rh  Rh19  1  0.639155  0.508731  0.500000  1
  Rh  Rh20  1  0.869576  0.360845  0.500000  1
  Rh  Rh21  1  0.358570  0.871731  0.500000  1
  Rh  Rh22  1  0.513161  0.641430  0.500000  1
  Rh  Rh23  1  0.128269  0.486839  0.500000  1
  Rh  Rh24  1  0.817506  0.624690  0.000000  1
  Rh  Rh25  1  0.622982  0.819003  0.000000  1
  Rh  Rh26  1  0.180997  0.803980  0.000000  1
  Rh  Rh27  1  0.196020  0.377018  0.000000  1
  Rh  Rh28  1  0.000428  0.719242  0.500000  1
  Rh  Rh29  1  0.280758  0.281186  0.500000  1
  Rh  Rh30  1  0.718814  0.999572  0.500000  1
  Rh  Rh31  1  0.999625  0.545567  0.000000  1
  Rh  Rh32  1  0.454433  0.454059  0.000000  1
  Rh  Rh33  1  0.545941  0.000375  0.000000  1
  Rh  Rh34  1  0.000000  0.000000  0.000000  1
  Rh  Rh35  1  0.491269  0.130424  0.500000  1
