# generated using pymatgen
data_Ho10Tl7In(IrPd)2
_symmetry_space_group_name_H-M   'P 1'
_cell_length_a   3.62740700
_cell_length_b   8.21149184
_cell_length_c   18.36323171
_cell_angle_alpha   90.18679486
_cell_angle_beta   90.00000000
_cell_angle_gamma   90.00000000
_symmetry_Int_Tables_number   1
_chemical_formula_structural   Ho10Tl7In(IrPd)2
_chemical_formula_sum   'Ho10 Tl7 In1 Ir2 Pd2'
_cell_volume   546.97208036
_cell_formula_units_Z   1
loop_
 _symmetry_equiv_pos_site_id
 _symmetry_equiv_pos_as_xyz
  1  'x, y, z'
loop_
 _atom_site_type_symbol
 _atom_site_label
 _atom_site_symmetry_multiplicity
 _atom_site_fract_x
 _atom_site_fract_y
 _atom_site_fract_z
 _atom_site_occupancy
  Ho  Ho0  1  0.000000  0.499765  0.500279  1
  Ho  Ho1  1  0.000000  0.001319  0.998873  1
  Ho  Ho2  1  0.000000  0.727283  0.278483  1
  Ho  Ho3  1  0.000000  0.271973  0.721340  1
  Ho  Ho4  1  0.000000  0.742161  0.781462  1
  Ho  Ho5  1  0.000000  0.256880  0.218628  1
  Ho  Ho6  1  0.000000  0.613883  0.089422  1
  Ho  Ho7  1  0.000000  0.386483  0.911001  1
  Ho  Ho8  1  0.000000  0.886548  0.588527  1
  Ho  Ho9  1  0.000000  0.112926  0.412248  1
  Tl  Tl10  1  0.500000  0.709824  0.934928  1
  Tl  Tl11  1  0.500000  0.293417  0.063918  1
  Tl  Tl12  1  0.500000  0.793448  0.435112  1
  Tl  Tl13  1  0.500000  0.205605  0.565047  1
  Tl  Tl14  1  0.500000  0.582614  0.647142  1
  Tl  Tl15  1  0.500000  0.416895  0.353333  1
  Tl  Tl16  1  0.500000  0.922296  0.149121  1
  In  In17  1  0.500000  0.081037  0.849033  1
  Ir  Ir18  1  0.500000  0.522147  0.196601  1
  Ir  Ir19  1  0.500000  0.474018  0.803555  1
  Pd  Pd20  1  0.500000  0.978572  0.698935  1
  Pd  Pd21  1  0.500000  0.020904  0.303012  1
