# generated using pymatgen
data_Gd2BeSi4Rh
_symmetry_space_group_name_H-M   'P 1'
_cell_length_a   8.31528900
_cell_length_b   8.31528975
_cell_length_c   4.06630700
_cell_angle_alpha   90.00000000
_cell_angle_beta   90.00000000
_cell_angle_gamma   151.46847898
_symmetry_Int_Tables_number   1
_chemical_formula_structural   Gd2BeSi4Rh
_chemical_formula_sum   'Gd2 Be1 Si4 Rh1'
_cell_volume   134.29429303
_cell_formula_units_Z   1
loop_
 _symmetry_equiv_pos_site_id
 _symmetry_equiv_pos_as_xyz
  1  'x, y, z'
loop_
 _atom_site_type_symbol
 _atom_site_label
 _atom_site_symmetry_multiplicity
 _atom_site_fract_x
 _atom_site_fract_y
 _atom_site_fract_z
 _atom_site_occupancy
  Gd  Gd0  1  0.599483  0.400517  0.250000  1
  Gd  Gd1  1  0.388679  0.611321  0.750000  1
  Be  Be2  1  0.826449  0.173551  0.250000  1
  Si  Si3  1  0.961736  0.038264  0.250000  1
  Si  Si4  1  0.036335  0.963665  0.750000  1
  Si  Si5  1  0.254478  0.745522  0.250000  1
  Si  Si6  1  0.751900  0.248100  0.750000  1
  Rh  Rh7  1  0.180941  0.819059  0.750000  1
