# generated using pymatgen
data_Pr4Ga10(IrPd)3
_symmetry_space_group_name_H-M   'P 1'
_cell_length_a   8.72768178
_cell_length_b   8.74216524
_cell_length_c   8.74216566
_cell_angle_alpha   141.01446869
_cell_angle_beta   107.64769960
_cell_angle_gamma   85.40576862
_symmetry_Int_Tables_number   1
_chemical_formula_structural   Pr4Ga10(IrPd)3
_chemical_formula_sum   'Pr4 Ga10 Ir3 Pd3'
_cell_volume   386.19302081
_cell_formula_units_Z   1
loop_
 _symmetry_equiv_pos_site_id
 _symmetry_equiv_pos_as_xyz
  1  'x, y, z'
loop_
 _atom_site_type_symbol
 _atom_site_label
 _atom_site_symmetry_multiplicity
 _atom_site_fract_x
 _atom_site_fract_y
 _atom_site_fract_z
 _atom_site_occupancy
  Pr  Pr0  1  0.859276  0.635189  0.224087  1
  Pr  Pr1  1  0.136485  0.363979  0.772506  1
  Pr  Pr2  1  0.412505  0.137134  0.275370  1
  Pr  Pr3  1  0.590406  0.863108  0.727298  1
  Ga  Ga4  1  0.503448  0.747518  0.248493  1
  Ga  Ga5  1  0.503448  0.254955  0.755930  1
  Ga  Ga6  1  0.211884  0.959983  0.751803  1
  Ga  Ga7  1  0.789203  0.538861  0.751100  1
  Ga  Ga8  1  0.789203  0.038103  0.250343  1
  Ga  Ga9  1  0.211884  0.460080  0.251901  1
  Ga  Ga10  1  0.071713  0.905825  0.165887  1
  Ga  Ga11  1  0.926631  0.096271  0.830360  1
  Ga  Ga12  1  0.733945  0.404246  0.329700  1
  Ga  Ga13  1  0.264442  0.595025  0.669417  1
  Ir  Ir14  1  0.742949  0.145185  0.597764  1
  Ir  Ir15  1  0.448836  0.353910  0.094925  1
  Ir  Ir16  1  0.547693  0.645729  0.901965  1
  Pd  Pd17  1  0.999061  0.749928  0.748891  1
  Pd  Pd18  1  0.999061  0.250170  0.249134  1
  Pd  Pd19  1  0.257927  0.854799  0.403127  1
