# generated using pymatgen
data_ZrNb2(MoP)3
_symmetry_space_group_name_H-M   'P 1'
_cell_length_a   6.88966413
_cell_length_b   6.86463722
_cell_length_c   3.38594200
_cell_angle_alpha   90.00000000
_cell_angle_beta   90.00000000
_cell_angle_gamma   119.87991782
_symmetry_Int_Tables_number   1
_chemical_formula_structural   ZrNb2(MoP)3
_chemical_formula_sum   'Zr1 Nb2 Mo3 P3'
_cell_volume   138.85132411
_cell_formula_units_Z   1
loop_
 _symmetry_equiv_pos_site_id
 _symmetry_equiv_pos_as_xyz
  1  'x, y, z'
loop_
 _atom_site_type_symbol
 _atom_site_label
 _atom_site_symmetry_multiplicity
 _atom_site_fract_x
 _atom_site_fract_y
 _atom_site_fract_z
 _atom_site_occupancy
  Zr  Zr0  1  0.000000  0.595584  0.500000  1
  Nb  Nb1  1  0.402219  0.402241  0.500000  1
  Nb  Nb2  1  0.597781  0.000022  0.500000  1
  Mo  Mo3  1  0.000000  0.251434  0.000000  1
  Mo  Mo4  1  0.257028  0.004582  0.000000  1
  Mo  Mo5  1  0.742972  0.747553  0.000000  1
  P  P6  1  0.661891  0.329866  0.000000  1
  P  P7  1  0.338109  0.667975  0.000000  1
  P  P8  1  0.000000  0.000744  0.500000  1
