# generated using pymatgen
data_Zr6Zn21GaCu2
_symmetry_space_group_name_H-M   'P 1'
_cell_length_a   8.75567936
_cell_length_b   8.83713182
_cell_length_c   8.75568615
_cell_angle_alpha   59.69119814
_cell_angle_beta   60.15660996
_cell_angle_gamma   59.69116721
_symmetry_Int_Tables_number   1
_chemical_formula_structural   Zr6Zn21GaCu2
_chemical_formula_sum   'Zr6 Zn21 Ga1 Cu2'
_cell_volume   477.35320737
_cell_formula_units_Z   1
loop_
 _symmetry_equiv_pos_site_id
 _symmetry_equiv_pos_as_xyz
  1  'x, y, z'
loop_
 _atom_site_type_symbol
 _atom_site_label
 _atom_site_symmetry_multiplicity
 _atom_site_fract_x
 _atom_site_fract_y
 _atom_site_fract_z
 _atom_site_occupancy
  Zr  Zr0  1  0.716596  0.285409  0.283403  1
  Zr  Zr1  1  0.283404  0.714591  0.716597  1
  Zr  Zr2  1  0.281184  0.718816  0.281184  1
  Zr  Zr3  1  0.718816  0.281184  0.718816  1
  Zr  Zr4  1  0.283404  0.285407  0.716597  1
  Zr  Zr5  1  0.716596  0.714593  0.283403  1
  Zn  Zn6  1  0.121765  0.122668  0.121765  1
  Zn  Zn7  1  0.878235  0.877332  0.878235  1
  Zn  Zn8  1  0.130552  0.118661  0.632127  1
  Zn  Zn9  1  0.121763  0.633805  0.121764  1
  Zn  Zn10  1  0.869448  0.881339  0.367873  1
  Zn  Zn11  1  0.878237  0.366195  0.878236  1
  Zn  Zn12  1  0.632126  0.118662  0.130550  1
  Zn  Zn13  1  0.367874  0.881338  0.869450  1
  Zn  Zn14  1  0.500000  0.000000  0.000000  1
  Zn  Zn15  1  0.000000  0.500000  0.500000  1
  Zn  Zn16  1  0.000000  0.500000  0.000000  1
  Zn  Zn17  1  0.000000  0.000000  0.500000  1
  Zn  Zn18  1  0.500000  0.500000  0.000000  1
  Zn  Zn19  1  0.342674  0.335968  0.342674  1
  Zn  Zn20  1  0.657326  0.664032  0.657326  1
  Zn  Zn21  1  0.341535  0.338881  0.980702  1
  Zn  Zn22  1  0.342674  0.978686  0.342673  1
  Zn  Zn23  1  0.658465  0.661119  0.019298  1
  Zn  Zn24  1  0.657326  0.021314  0.657327  1
  Zn  Zn25  1  0.980704  0.338882  0.341532  1
  Zn  Zn26  1  0.019296  0.661118  0.658468  1
  Ga  Ga27  1  0.500000  0.500000  0.500000  1
  Cu  Cu28  1  0.500000  0.000000  0.500000  1
  Cu  Cu29  1  0.000000  0.000000  0.000000  1
