# generated using pymatgen
data_Y2Ho(CdHg)3
_symmetry_space_group_name_H-M   'P 1'
_cell_length_a   8.11196900
_cell_length_b   8.10540287
_cell_length_c   3.87691500
_cell_angle_alpha   90.00000000
_cell_angle_beta   90.00000000
_cell_angle_gamma   120.02680537
_symmetry_Int_Tables_number   1
_chemical_formula_structural   Y2Ho(CdHg)3
_chemical_formula_sum   'Y2 Ho1 Cd3 Hg3'
_cell_volume   220.69903237
_cell_formula_units_Z   1
loop_
 _symmetry_equiv_pos_site_id
 _symmetry_equiv_pos_as_xyz
  1  'x, y, z'
loop_
 _atom_site_type_symbol
 _atom_site_label
 _atom_site_symmetry_multiplicity
 _atom_site_fract_x
 _atom_site_fract_y
 _atom_site_fract_z
 _atom_site_occupancy
  Y  Y0  1  0.000005  0.396481  0.499999  1
  Y  Y1  1  0.603524  0.603519  0.499999  1
  Ho  Ho2  1  0.396586  0.000000  0.499999  1
  Cd  Cd3  1  0.726418  0.000000  0.000000  1
  Cd  Cd4  1  0.273421  0.273278  0.000000  1
  Cd  Cd5  1  0.000143  0.726723  0.000000  1
  Hg  Hg6  1  0.666107  0.332642  0.000000  1
  Hg  Hg7  1  0.333464  0.667357  0.000000  1
  Hg  Hg8  1  0.000332  0.000000  0.499999  1
