# generated using pymatgen
data_CaTm9(In2Pt)4
_symmetry_space_group_name_H-M   'P 1'
_cell_length_a   3.57641000
_cell_length_b   8.11530097
_cell_length_c   18.19570100
_cell_angle_alpha   89.85229305
_cell_angle_beta   90.00000000
_cell_angle_gamma   90.00000000
_symmetry_Int_Tables_number   1
_chemical_formula_structural   CaTm9(In2Pt)4
_chemical_formula_sum   'Ca1 Tm9 In8 Pt4'
_cell_volume   528.10378474
_cell_formula_units_Z   1
loop_
 _symmetry_equiv_pos_site_id
 _symmetry_equiv_pos_as_xyz
  1  'x, y, z'
loop_
 _atom_site_type_symbol
 _atom_site_label
 _atom_site_symmetry_multiplicity
 _atom_site_fract_x
 _atom_site_fract_y
 _atom_site_fract_z
 _atom_site_occupancy
  Ca  Ca0  1  0.000000  0.000000  0.000000  1
  Tm  Tm1  1  0.000000  0.116451  0.414635  1
  Tm  Tm2  1  0.000000  0.883549  0.585365  1
  Tm  Tm3  1  0.000000  0.382200  0.914099  1
  Tm  Tm4  1  0.000000  0.617800  0.085901  1
  Tm  Tm5  1  0.000000  0.243821  0.221547  1
  Tm  Tm6  1  0.000000  0.756179  0.778453  1
  Tm  Tm7  1  0.000000  0.256245  0.720989  1
  Tm  Tm8  1  0.000000  0.743755  0.279011  1
  Tm  Tm9  1  0.000000  0.500000  0.500000  1
  In  In10  1  0.500000  0.425418  0.352673  1
  In  In11  1  0.500000  0.574582  0.647327  1
  In  In12  1  0.500000  0.073982  0.850710  1
  In  In13  1  0.500000  0.926018  0.149290  1
  In  In14  1  0.500000  0.294905  0.067728  1
  In  In15  1  0.500000  0.705095  0.932272  1
  In  In16  1  0.500000  0.209025  0.566641  1
  In  In17  1  0.500000  0.790975  0.433359  1
  Pt  Pt18  1  0.500000  0.025013  0.304292  1
  Pt  Pt19  1  0.500000  0.974987  0.695708  1
  Pt  Pt20  1  0.500000  0.475825  0.802921  1
  Pt  Pt21  1  0.500000  0.524175  0.197079  1
