# generated using pymatgen
data_Lu4As6Ir2Rh5
_symmetry_space_group_name_H-M   'P 1'
_cell_length_a   7.22498201
_cell_length_b   7.22430746
_cell_length_c   7.22804452
_cell_angle_alpha   109.44423034
_cell_angle_beta   109.40618085
_cell_angle_gamma   109.53479007
_symmetry_Int_Tables_number   1
_chemical_formula_structural   Lu4As6Ir2Rh5
_chemical_formula_sum   'Lu4 As6 Ir2 Rh5'
_cell_volume   290.52528425
_cell_formula_units_Z   1
loop_
 _symmetry_equiv_pos_site_id
 _symmetry_equiv_pos_as_xyz
  1  'x, y, z'
loop_
 _atom_site_type_symbol
 _atom_site_label
 _atom_site_symmetry_multiplicity
 _atom_site_fract_x
 _atom_site_fract_y
 _atom_site_fract_z
 _atom_site_occupancy
  Lu  Lu0  1  0.500079  0.499921  0.499974  1
  Lu  Lu1  1  0.999540  0.499931  0.000000  1
  Lu  Lu2  1  0.500084  0.000475  0.000031  1
  Lu  Lu3  1  0.000022  0.999914  0.499976  1
  As  As4  1  0.683252  0.999191  0.682574  1
  As  As5  1  0.682685  0.684295  0.000014  1
  As  As6  1  0.315761  0.317400  0.000026  1
  As  As7  1  0.000929  0.682955  0.683950  1
  As  As8  1  0.000770  0.316841  0.317519  1
  As  As9  1  0.317069  0.999110  0.316020  1
  Ir  Ir10  1  0.750219  0.499645  0.249993  1
  Ir  Ir11  1  0.500196  0.249646  0.749881  1
  Rh  Rh12  1  0.749668  0.250332  0.499993  1
  Rh  Rh13  1  0.249783  0.750248  0.500054  1
  Rh  Rh14  1  0.249830  0.499812  0.749545  1
  Rh  Rh15  1  0.500178  0.750191  0.250446  1
  Rh  Rh16  1  0.999935  0.000090  0.000005  1
