# generated using pymatgen
data_K2YbB17C
_symmetry_space_group_name_H-M   'P 1'
_cell_length_a   4.11465100
_cell_length_b   4.19476800
_cell_length_c   12.59616900
_cell_angle_alpha   90.00000000
_cell_angle_beta   90.00000000
_cell_angle_gamma   90.00000000
_symmetry_Int_Tables_number   1
_chemical_formula_structural   K2YbB17C
_chemical_formula_sum   'K2 Yb1 B17 C1'
_cell_volume   217.40995687
_cell_formula_units_Z   1
loop_
 _symmetry_equiv_pos_site_id
 _symmetry_equiv_pos_as_xyz
  1  'x, y, z'
loop_
 _atom_site_type_symbol
 _atom_site_label
 _atom_site_symmetry_multiplicity
 _atom_site_fract_x
 _atom_site_fract_y
 _atom_site_fract_z
 _atom_site_occupancy
  K  K0  1  0.000260  0.000000  0.329749  1
  K  K1  1  0.000260  0.000000  0.670251  1
  Yb  Yb2  1  0.998014  0.000000  0.000000  1
  B  B3  1  0.196153  0.500000  0.163849  1
  B  B4  1  0.196153  0.500000  0.836151  1
  B  B5  1  0.494727  0.500000  0.263817  1
  B  B6  1  0.505158  0.500000  0.599617  1
  B  B7  1  0.496691  0.500000  0.934492  1
  B  B8  1  0.496692  0.200240  0.163409  1
  B  B9  1  0.500476  0.203773  0.500000  1
  B  B10  1  0.496692  0.200240  0.836591  1
  B  B11  1  0.496691  0.500000  0.065508  1
  B  B12  1  0.505158  0.500000  0.400383  1
  B  B13  1  0.494727  0.500000  0.736183  1
  B  B14  1  0.496692  0.799760  0.163409  1
  B  B15  1  0.500476  0.796227  0.500000  1
  B  B16  1  0.496692  0.799760  0.836591  1
  B  B17  1  0.796304  0.500000  0.163980  1
  B  B18  1  0.813595  0.500000  0.500000  1
  B  B19  1  0.796304  0.500000  0.836020  1
  C  C20  1  0.222086  0.500000  0.500000  1
