# generated using pymatgen
data_LiTb8Er8Sc3Si16
_symmetry_space_group_name_H-M   'P 1'
_cell_length_a   7.18878530
_cell_length_b   7.63124181
_cell_length_c   14.40866900
_cell_angle_alpha   90.00000000
_cell_angle_beta   90.00000000
_cell_angle_gamma   89.93441872
_symmetry_Int_Tables_number   1
_chemical_formula_structural   LiTb8Er8Sc3Si16
_chemical_formula_sum   'Li1 Tb8 Er8 Sc3 Si16'
_cell_volume   790.44982618
_cell_formula_units_Z   1
loop_
 _symmetry_equiv_pos_site_id
 _symmetry_equiv_pos_as_xyz
  1  'x, y, z'
loop_
 _atom_site_type_symbol
 _atom_site_label
 _atom_site_symmetry_multiplicity
 _atom_site_fract_x
 _atom_site_fract_y
 _atom_site_fract_z
 _atom_site_occupancy
  Li  Li0  1  0.161364  0.520642  0.750000  1
  Tb  Tb1  1  0.017557  0.182402  0.097661  1
  Tb  Tb2  1  0.982400  0.808981  0.900480  1
  Tb  Tb3  1  0.477251  0.679044  0.901613  1
  Tb  Tb4  1  0.982400  0.808981  0.599520  1
  Tb  Tb5  1  0.516135  0.318973  0.096768  1
  Tb  Tb6  1  0.017557  0.182402  0.402339  1
  Tb  Tb7  1  0.516135  0.318973  0.403232  1
  Tb  Tb8  1  0.477251  0.679044  0.598387  1
  Er  Er9  1  0.320470  0.183002  0.627419  1
  Er  Er10  1  0.677052  0.823741  0.374156  1
  Er  Er11  1  0.176867  0.680844  0.373299  1
  Er  Er12  1  0.677052  0.823741  0.125844  1
  Er  Er13  1  0.830696  0.324967  0.626839  1
  Er  Er14  1  0.320470  0.183002  0.872581  1
  Er  Er15  1  0.830696  0.324967  0.873161  1
  Er  Er16  1  0.176867  0.680844  0.126701  1
  Sc  Sc17  1  0.843855  0.486831  0.250000  1
  Sc  Sc18  1  0.344839  0.014974  0.250000  1
  Sc  Sc19  1  0.652128  0.984844  0.750000  1
  Si  Si20  1  0.017233  0.083171  0.750000  1
  Si  Si21  1  0.979774  0.906559  0.250000  1
  Si  Si22  1  0.479657  0.598145  0.250000  1
  Si  Si23  1  0.526137  0.402538  0.750000  1
  Si  Si24  1  0.279706  0.873442  0.750000  1
  Si  Si25  1  0.719114  0.135407  0.250000  1
  Si  Si26  1  0.219155  0.366521  0.250000  1
  Si  Si27  1  0.768178  0.632058  0.750000  1
  Si  Si28  1  0.157510  0.464510  0.532215  1
  Si  Si29  1  0.847108  0.531258  0.460496  1
  Si  Si30  1  0.347544  0.969445  0.462818  1
  Si  Si31  1  0.847108  0.531258  0.039504  1
  Si  Si32  1  0.653843  0.030268  0.540780  1
  Si  Si33  1  0.157510  0.464510  0.967785  1
  Si  Si34  1  0.653843  0.030268  0.959220  1
  Si  Si35  1  0.347544  0.969445  0.037182  1
