# generated using pymatgen
data_La5ErFeBr10
_symmetry_space_group_name_H-M   'P 1'
_cell_length_a   7.71282448
_cell_length_b   9.36678754
_cell_length_c   9.79974266
_cell_angle_alpha   109.14747531
_cell_angle_beta   105.88940995
_cell_angle_gamma   95.36877148
_symmetry_Int_Tables_number   1
_chemical_formula_structural   La5ErFeBr10
_chemical_formula_sum   'La5 Er1 Fe1 Br10'
_cell_volume   630.01952601
_cell_formula_units_Z   1
loop_
 _symmetry_equiv_pos_site_id
 _symmetry_equiv_pos_as_xyz
  1  'x, y, z'
loop_
 _atom_site_type_symbol
 _atom_site_label
 _atom_site_symmetry_multiplicity
 _atom_site_fract_x
 _atom_site_fract_y
 _atom_site_fract_z
 _atom_site_occupancy
  La  La0  1  0.033810  0.896111  0.694938  1
  La  La1  1  0.122906  0.777699  0.047585  1
  La  La2  1  0.630443  0.806567  0.862053  1
  La  La3  1  0.885188  0.224463  0.958435  1
  La  La4  1  0.974453  0.112596  0.308511  1
  Er  Er5  1  0.353284  0.178156  0.128197  1
  Fe  Fe6  1  0.001667  0.000588  0.001792  1
  Br  Br7  1  0.452136  0.085034  0.836102  1
  Br  Br8  1  0.759152  0.539690  0.921034  1
  Br  Br9  1  0.259515  0.447185  0.088529  1
  Br  Br10  1  0.915790  0.172185  0.637490  1
  Br  Br11  1  0.645747  0.730006  0.549827  1
  Br  Br12  1  0.544209  0.930740  0.174885  1
  Br  Br13  1  0.089130  0.835649  0.367425  1
  Br  Br14  1  0.760087  0.347682  0.245623  1
  Br  Br15  1  0.207661  0.637330  0.744592  1
  Br  Br16  1  0.364822  0.278320  0.432982  1
