# generated using pymatgen
data_TbHo19IrRh11
_symmetry_space_group_name_H-M   'P 1'
_cell_length_a   10.86733306
_cell_length_b   10.86526201
_cell_length_c   6.33630426
_cell_angle_alpha   89.97049262
_cell_angle_beta   90.00667996
_cell_angle_gamma   90.07334808
_symmetry_Int_Tables_number   1
_chemical_formula_structural   TbHo19IrRh11
_chemical_formula_sum   'Tb1 Ho19 Ir1 Rh11'
_cell_volume   748.16741196
_cell_formula_units_Z   1
loop_
 _symmetry_equiv_pos_site_id
 _symmetry_equiv_pos_as_xyz
  1  'x, y, z'
loop_
 _atom_site_type_symbol
 _atom_site_label
 _atom_site_symmetry_multiplicity
 _atom_site_fract_x
 _atom_site_fract_y
 _atom_site_fract_z
 _atom_site_occupancy
  Tb  Tb0  1  0.290046  0.088747  0.377942  1
  Ho  Ho1  1  0.291259  0.909293  0.878431  1
  Ho  Ho2  1  0.708967  0.088360  0.878358  1
  Ho  Ho3  1  0.708866  0.911250  0.378163  1
  Ho  Ho4  1  0.586874  0.790298  0.877966  1
  Ho  Ho5  1  0.589279  0.209291  0.378737  1
  Ho  Ho6  1  0.410992  0.789874  0.379593  1
  Ho  Ho7  1  0.411512  0.208988  0.878087  1
  Ho  Ho8  1  0.209694  0.413341  0.622087  1
  Ho  Ho9  1  0.209724  0.589164  0.120511  1
  Ho  Ho10  1  0.790862  0.411293  0.121134  1
  Ho  Ho11  1  0.791249  0.588792  0.621831  1
  Ho  Ho12  1  0.911492  0.709199  0.121558  1
  Ho  Ho13  1  0.911629  0.290968  0.621632  1
  Ho  Ho14  1  0.090261  0.708703  0.621476  1
  Ho  Ho15  1  0.088352  0.291413  0.121471  1
  Ho  Ho16  1  0.999187  0.999639  0.500478  1
  Ho  Ho17  1  0.000053  0.000231  0.999740  1
  Ho  Ho18  1  0.499731  0.499850  0.000255  1
  Ho  Ho19  1  0.500235  0.500319  0.499890  1
  Ir  Ir20  1  0.346137  0.653867  0.749958  1
  Rh  Rh21  1  0.845936  0.154036  0.250020  1
  Rh  Rh22  1  0.845655  0.846153  0.750262  1
  Rh  Rh23  1  0.153471  0.154694  0.750900  1
  Rh  Rh24  1  0.153087  0.846137  0.249669  1
  Rh  Rh25  1  0.654034  0.345960  0.750007  1
  Rh  Rh26  1  0.654968  0.654197  0.250047  1
  Rh  Rh27  1  0.346025  0.345678  0.249598  1
  Rh  Rh28  1  0.500758  0.000257  0.123707  1
  Rh  Rh29  1  0.500997  0.000519  0.624259  1
  Rh  Rh30  1  0.999229  0.499645  0.876512  1
  Rh  Rh31  1  0.999438  0.499842  0.375720  1
