# generated using pymatgen
data_Y5Lu(AuO7)2
_symmetry_space_group_name_H-M   'P 1'
_cell_length_a   6.48406925
_cell_length_b   6.48394419
_cell_length_c   7.43283400
_cell_angle_alpha   90.00000000
_cell_angle_beta   90.00000000
_cell_angle_gamma   108.79988398
_symmetry_Int_Tables_number   1
_chemical_formula_structural   Y5Lu(AuO7)2
_chemical_formula_sum   'Y5 Lu1 Au2 O14'
_cell_volume   295.82218823
_cell_formula_units_Z   1
loop_
 _symmetry_equiv_pos_site_id
 _symmetry_equiv_pos_as_xyz
  1  'x, y, z'
loop_
 _atom_site_type_symbol
 _atom_site_label
 _atom_site_symmetry_multiplicity
 _atom_site_fract_x
 _atom_site_fract_y
 _atom_site_fract_z
 _atom_site_occupancy
  Y  Y0  1  0.501318  0.501515  0.501002  1
  Y  Y1  1  0.501318  0.501515  0.998998  1
  Y  Y2  1  0.998708  0.528282  0.250000  1
  Y  Y3  1  0.471560  0.002756  0.250000  1
  Y  Y4  1  0.002661  0.471853  0.750000  1
  Lu  Lu5  1  0.528202  0.998775  0.750000  1
  Au  Au6  1  0.999679  0.999790  0.501205  1
  Au  Au7  1  0.999679  0.999790  0.998795  1
  O  O8  1  0.668763  0.922310  0.479829  1
  O  O9  1  0.914587  0.669292  0.524366  1
  O  O10  1  0.668763  0.922310  0.020171  1
  O  O11  1  0.914587  0.669292  0.975634  1
  O  O12  1  0.329922  0.076221  0.529119  1
  O  O13  1  0.085260  0.330136  0.476693  1
  O  O14  1  0.329922  0.076221  0.970881  1
  O  O15  1  0.085260  0.330136  0.023307  1
  O  O16  1  0.915451  0.076793  0.750000  1
  O  O17  1  0.080745  0.922520  0.250000  1
  O  O18  1  0.370614  0.639319  0.750000  1
  O  O19  1  0.632478  0.367684  0.250000  1
  O  O20  1  0.637362  0.354756  0.750000  1
  O  O21  1  0.363164  0.638735  0.250000  1
