# generated using pymatgen
data_Er13Th7(FeBi2)4
_symmetry_space_group_name_H-M   'P 1'
_cell_length_a   8.18297199
_cell_length_b   8.60771777
_cell_length_c   12.48699738
_cell_angle_alpha   90.17294711
_cell_angle_beta   89.94045010
_cell_angle_gamma   89.80867041
_symmetry_Int_Tables_number   1
_chemical_formula_structural   Er13Th7(FeBi2)4
_chemical_formula_sum   'Er13 Th7 Fe4 Bi8'
_cell_volume   879.53366054
_cell_formula_units_Z   1
loop_
 _symmetry_equiv_pos_site_id
 _symmetry_equiv_pos_as_xyz
  1  'x, y, z'
loop_
 _atom_site_type_symbol
 _atom_site_label
 _atom_site_symmetry_multiplicity
 _atom_site_fract_x
 _atom_site_fract_y
 _atom_site_fract_z
 _atom_site_occupancy
  Er  Er0  1  0.655747  0.751223  0.696828  1
  Er  Er1  1  0.343217  0.250894  0.301756  1
  Er  Er2  1  0.156571  0.250292  0.801376  1
  Er  Er3  1  0.841154  0.750746  0.199874  1
  Er  Er4  1  0.112837  0.748599  0.802607  1
  Er  Er5  1  0.884645  0.250336  0.196645  1
  Er  Er6  1  0.612704  0.248272  0.696068  1
  Er  Er7  1  0.383908  0.753563  0.305057  1
  Er  Er8  1  0.545296  0.750658  0.000156  1
  Er  Er9  1  0.454176  0.250038  0.999364  1
  Er  Er10  1  0.050869  0.248037  0.500109  1
  Er  Er11  1  0.954021  0.749642  0.500227  1
  Er  Er12  1  0.323946  0.954341  0.564294  1
  Th  Th13  1  0.819765  0.460173  0.940446  1
  Th  Th14  1  0.179485  0.540619  0.058655  1
  Th  Th15  1  0.321592  0.534372  0.559126  1
  Th  Th16  1  0.178277  0.960778  0.060785  1
  Th  Th17  1  0.682256  0.463450  0.440466  1
  Th  Th18  1  0.819874  0.038956  0.938874  1
  Th  Th19  1  0.673320  0.039164  0.441594  1
  Fe  Fe20  1  0.930524  0.750528  0.988675  1
  Fe  Fe21  1  0.067616  0.248298  0.012733  1
  Fe  Fe22  1  0.436107  0.262291  0.510705  1
  Fe  Fe23  1  0.575857  0.744306  0.484735  1
  Bi  Bi24  1  0.928615  0.012866  0.674815  1
  Bi  Bi25  1  0.073178  0.987108  0.325532  1
  Bi  Bi26  1  0.422351  0.985371  0.823074  1
  Bi  Bi27  1  0.076708  0.514404  0.324091  1
  Bi  Bi28  1  0.574171  0.014656  0.175855  1
  Bi  Bi29  1  0.922937  0.484830  0.675401  1
  Bi  Bi30  1  0.573803  0.487040  0.176130  1
  Bi  Bi31  1  0.424475  0.514149  0.823948  1
