# generated using pymatgen
data_Tm2Mn3Si7Pt9
_symmetry_space_group_name_H-M   'P 1'
_cell_length_a   9.89115100
_cell_length_b   9.89115012
_cell_length_c   3.89567700
_cell_angle_alpha   90.00000000
_cell_angle_beta   90.00000000
_cell_angle_gamma   119.99999740
_symmetry_Int_Tables_number   1
_chemical_formula_structural   Tm2Mn3Si7Pt9
_chemical_formula_sum   'Tm2 Mn3 Si7 Pt9'
_cell_volume   330.07087885
_cell_formula_units_Z   1
loop_
 _symmetry_equiv_pos_site_id
 _symmetry_equiv_pos_as_xyz
  1  'x, y, z'
loop_
 _atom_site_type_symbol
 _atom_site_label
 _atom_site_symmetry_multiplicity
 _atom_site_fract_x
 _atom_site_fract_y
 _atom_site_fract_z
 _atom_site_occupancy
  Tm  Tm0  1  0.000000  0.000000  0.000000  1
  Tm  Tm1  1  0.333333  0.666667  0.500000  1
  Mn  Mn2  1  0.881835  0.454901  0.500000  1
  Mn  Mn3  1  0.573065  0.118165  0.500000  1
  Mn  Mn4  1  0.545099  0.426935  0.500000  1
  Si  Si5  1  0.258989  0.214408  0.500000  1
  Si  Si6  1  0.785592  0.044583  0.500000  1
  Si  Si7  1  0.955417  0.741011  0.500000  1
  Si  Si8  1  0.552785  0.633689  0.000000  1
  Si  Si9  1  0.366311  0.919095  0.000000  1
  Si  Si10  1  0.080905  0.447215  0.000000  1
  Si  Si11  1  0.666667  0.333333  0.000000  1
  Pt  Pt12  1  0.222012  0.946177  0.500000  1
  Pt  Pt13  1  0.053823  0.275836  0.500000  1
  Pt  Pt14  1  0.724164  0.777988  0.500000  1
  Pt  Pt15  1  0.305298  0.410548  0.000000  1
  Pt  Pt16  1  0.589452  0.894749  0.000000  1
  Pt  Pt17  1  0.105251  0.694702  0.000000  1
  Pt  Pt18  1  0.393412  0.177166  0.000000  1
  Pt  Pt19  1  0.822834  0.216245  0.000000  1
  Pt  Pt20  1  0.783755  0.606588  0.000000  1
