# generated using pymatgen
data_Al17(SiIr2)4
_symmetry_space_group_name_H-M   'P 1'
_cell_length_a   10.38150073
_cell_length_b   10.38150101
_cell_length_c   10.38150100
_cell_angle_alpha   104.90753100
_cell_angle_beta   104.90753141
_cell_angle_gamma   119.04394660
_symmetry_Int_Tables_number   1
_chemical_formula_structural   Al17(SiIr2)4
_chemical_formula_sum   'Al34 Si8 Ir16'
_cell_volume   843.01121719
_cell_formula_units_Z   2
loop_
 _symmetry_equiv_pos_site_id
 _symmetry_equiv_pos_as_xyz
  1  'x, y, z'
loop_
 _atom_site_type_symbol
 _atom_site_label
 _atom_site_symmetry_multiplicity
 _atom_site_fract_x
 _atom_site_fract_y
 _atom_site_fract_z
 _atom_site_occupancy
  Al  Al0  1  0.750000  0.250000  0.500000  1
  Al  Al1  1  0.500000  0.500000  0.000000  1
  Al  Al2  1  0.283152  0.444792  0.343606  1
  Al  Al3  1  0.189545  0.033152  0.338359  1
  Al  Al4  1  0.694792  0.851186  0.661641  1
  Al  Al5  1  0.101186  0.939545  0.656394  1
  Al  Al6  1  0.966848  0.305208  0.156394  1
  Al  Al7  1  0.060455  0.716848  0.161641  1
  Al  Al8  1  0.555208  0.898814  0.838359  1
  Al  Al9  1  0.148814  0.810455  0.843606  1
  Al  Al10  1  0.562227  0.493583  0.512286  1
  Al  Al11  1  0.299941  0.312227  0.568644  1
  Al  Al12  1  0.743583  0.731297  0.431356  1
  Al  Al13  1  0.981297  0.049941  0.487714  1
  Al  Al14  1  0.687773  0.256417  0.987714  1
  Al  Al15  1  0.950059  0.437773  0.931356  1
  Al  Al16  1  0.506417  0.018703  0.068644  1
  Al  Al17  1  0.268703  0.700059  0.012286  1
  Al  Al18  1  0.769424  0.475719  0.725734  1
  Al  Al19  1  0.293689  0.519424  0.793704  1
  Al  Al20  1  0.725719  0.499985  0.206296  1
  Al  Al21  1  0.749985  0.043689  0.274266  1
  Al  Al22  1  0.480576  0.274281  0.774266  1
  Al  Al23  1  0.956311  0.230576  0.706296  1
  Al  Al24  1  0.524281  0.250015  0.293704  1
  Al  Al25  1  0.500015  0.706311  0.225734  1
  Al  Al26  1  0.898617  0.571814  0.516925  1
  Al  Al27  1  0.631692  0.648617  0.826805  1
  Al  Al28  1  0.821814  0.804888  0.173195  1
  Al  Al29  1  0.054888  0.381692  0.483075  1
  Al  Al30  1  0.351383  0.178186  0.983075  1
  Al  Al31  1  0.618308  0.101383  0.673195  1
  Al  Al32  1  0.428186  0.945112  0.326805  1
  Al  Al33  1  0.195112  0.368308  0.016925  1
  Si  Si34  1  0.191243  0.160521  0.141039  1
  Si  Si35  1  0.300205  0.941243  0.530723  1
  Si  Si36  1  0.410521  0.769482  0.469277  1
  Si  Si37  1  0.019482  0.050205  0.858961  1
  Si  Si38  1  0.058757  0.589479  0.358961  1
  Si  Si39  1  0.949795  0.808757  0.969277  1
  Si  Si40  1  0.839479  0.980518  0.030723  1
  Si  Si41  1  0.230518  0.699795  0.641039  1
  Ir  Ir42  1  0.842288  0.137203  0.882128  1
  Ir  Ir43  1  0.210161  0.592288  0.205086  1
  Ir  Ir44  1  0.387203  0.005076  0.794914  1
  Ir  Ir45  1  0.255076  0.960161  0.117872  1
  Ir  Ir46  1  0.407712  0.612797  0.617872  1
  Ir  Ir47  1  0.039839  0.157712  0.294914  1
  Ir  Ir48  1  0.862797  0.744924  0.705086  1
  Ir  Ir49  1  0.994924  0.789839  0.382128  1
  Ir  Ir50  1  0.036197  0.510395  0.721795  1
  Ir  Ir51  1  0.564402  0.786197  0.025802  1
  Ir  Ir52  1  0.760395  0.538599  0.974198  1
  Ir  Ir53  1  0.788599  0.314402  0.278205  1
  Ir  Ir54  1  0.213803  0.239605  0.778205  1
  Ir  Ir55  1  0.685598  0.963803  0.474198  1
  Ir  Ir56  1  0.489605  0.211401  0.525802  1
  Ir  Ir57  1  0.461401  0.435598  0.221795  1
