# generated using pymatgen
data_Pr20GaSi10Ir
_symmetry_space_group_name_H-M   'P 1'
_cell_length_a   7.78596100
_cell_length_b   7.78596100
_cell_length_c   14.52964700
_cell_angle_alpha   90.00000000
_cell_angle_beta   90.00000000
_cell_angle_gamma   90.00000000
_symmetry_Int_Tables_number   1
_chemical_formula_structural   Pr20GaSi10Ir
_chemical_formula_sum   'Pr20 Ga1 Si10 Ir1'
_cell_volume   880.80447244
_cell_formula_units_Z   1
loop_
 _symmetry_equiv_pos_site_id
 _symmetry_equiv_pos_as_xyz
  1  'x, y, z'
loop_
 _atom_site_type_symbol
 _atom_site_label
 _atom_site_symmetry_multiplicity
 _atom_site_fract_x
 _atom_site_fract_y
 _atom_site_fract_z
 _atom_site_occupancy
  Pr  Pr0  1  0.817452  0.824927  0.605152  1
  Pr  Pr1  1  0.193972  0.841922  0.106886  1
  Pr  Pr2  1  0.169817  0.812347  0.394541  1
  Pr  Pr3  1  0.000000  0.500000  0.739184  1
  Pr  Pr4  1  0.830183  0.187653  0.394541  1
  Pr  Pr5  1  0.687653  0.669817  0.394541  1
  Pr  Pr6  1  0.675073  0.317452  0.605152  1
  Pr  Pr7  1  0.324927  0.682548  0.605152  1
  Pr  Pr8  1  0.000000  0.500000  0.218033  1
  Pr  Pr9  1  0.658078  0.693972  0.106886  1
  Pr  Pr10  1  0.675501  0.325403  0.892847  1
  Pr  Pr11  1  0.825403  0.824499  0.892847  1
  Pr  Pr12  1  0.312347  0.330183  0.394541  1
  Pr  Pr13  1  0.182548  0.175073  0.605152  1
  Pr  Pr14  1  0.806028  0.158078  0.106886  1
  Pr  Pr15  1  0.324499  0.674597  0.892847  1
  Pr  Pr16  1  0.341922  0.306028  0.106886  1
  Pr  Pr17  1  0.500000  0.000000  0.271972  1
  Pr  Pr18  1  0.174597  0.175501  0.892847  1
  Pr  Pr19  1  0.500000  0.000000  0.770707  1
  Ga  Ga20  1  0.000000  0.500000  0.998907  1
  Si  Si21  1  0.614884  0.385818  0.253335  1
  Si  Si22  1  0.115261  0.886813  0.746262  1
  Si  Si23  1  0.386813  0.384739  0.746262  1
  Si  Si24  1  0.385116  0.614182  0.253335  1
  Si  Si25  1  0.885818  0.885116  0.253335  1
  Si  Si26  1  0.613187  0.615261  0.746262  1
  Si  Si27  1  0.000000  0.500000  0.512234  1
  Si  Si28  1  0.884739  0.113187  0.746262  1
  Si  Si29  1  0.500000  0.000000  0.492051  1
  Si  Si30  1  0.114182  0.114884  0.253335  1
  Ir  Ir31  1  0.500000  0.000000  0.000816  1
