# generated using pymatgen
data_Ho4Mg4Re(B8Ir)3
_symmetry_space_group_name_H-M   'P 1'
_cell_length_a   3.55592400
_cell_length_b   8.91958318
_cell_length_c   11.31881235
_cell_angle_alpha   89.94878524
_cell_angle_beta   90.00000000
_cell_angle_gamma   90.00000000
_symmetry_Int_Tables_number   1
_chemical_formula_structural   Ho4Mg4Re(B8Ir)3
_chemical_formula_sum   'Ho4 Mg4 Re1 B24 Ir3'
_cell_volume   359.00270124
_cell_formula_units_Z   1
loop_
 _symmetry_equiv_pos_site_id
 _symmetry_equiv_pos_as_xyz
  1  'x, y, z'
loop_
 _atom_site_type_symbol
 _atom_site_label
 _atom_site_symmetry_multiplicity
 _atom_site_fract_x
 _atom_site_fract_y
 _atom_site_fract_z
 _atom_site_occupancy
  Ho  Ho0  1  0.000000  0.319754  0.415219  1
  Ho  Ho1  1  0.000000  0.684064  0.590488  1
  Ho  Ho2  1  0.000000  0.819684  0.080517  1
  Ho  Ho3  1  0.000000  0.176038  0.911891  1
  Mg  Mg4  1  0.000000  0.946217  0.379930  1
  Mg  Mg5  1  0.000000  0.052056  0.623491  1
  Mg  Mg6  1  0.000000  0.446911  0.120252  1
  Mg  Mg7  1  0.000000  0.556817  0.877525  1
  Re  Re8  1  0.000000  0.861078  0.818020  1
  B  B9  1  0.500000  0.555908  0.433234  1
  B  B10  1  0.500000  0.444537  0.567296  1
  B  B11  1  0.500000  0.055133  0.067937  1
  B  B12  1  0.500000  0.945764  0.933043  1
  B  B13  1  0.500000  0.755337  0.419005  1
  B  B14  1  0.500000  0.244314  0.580952  1
  B  B15  1  0.500000  0.254562  0.080894  1
  B  B16  1  0.500000  0.745348  0.919262  1
  B  B17  1  0.500000  0.792602  0.263913  1
  B  B18  1  0.500000  0.207152  0.734961  1
  B  B19  1  0.500000  0.293325  0.235783  1
  B  B20  1  0.500000  0.705718  0.764266  1
  B  B21  1  0.500000  0.626446  0.181406  1
  B  B22  1  0.500000  0.373062  0.817953  1
  B  B23  1  0.500000  0.127653  0.318730  1
  B  B24  1  0.500000  0.871669  0.682067  1
  B  B25  1  0.500000  0.980464  0.215115  1
  B  B26  1  0.500000  0.020610  0.785646  1
  B  B27  1  0.500000  0.480829  0.285437  1
  B  B28  1  0.500000  0.519324  0.714517  1
  B  B29  1  0.500000  0.595983  0.027121  1
  B  B30  1  0.500000  0.402256  0.973325  1
  B  B31  1  0.500000  0.097090  0.473650  1
  B  B32  1  0.500000  0.902216  0.525469  1
  Ir  Ir33  1  0.000000  0.638866  0.318750  1
  Ir  Ir34  1  0.000000  0.360658  0.680585  1
  Ir  Ir35  1  0.000000  0.140555  0.182349  1
