# generated using pymatgen
data_Ag5Cl6
_symmetry_space_group_name_H-M   'P 1'
_cell_length_a   6.66518209
_cell_length_b   6.66202800
_cell_length_c   7.07700273
_cell_angle_alpha   76.92251790
_cell_angle_beta   76.93937386
_cell_angle_gamma   115.51035428
_symmetry_Int_Tables_number   1
_chemical_formula_structural   Ag5Cl6
_chemical_formula_sum   'Ag5 Cl6'
_cell_volume   256.87675272
_cell_formula_units_Z   1
loop_
 _symmetry_equiv_pos_site_id
 _symmetry_equiv_pos_as_xyz
  1  'x, y, z'
loop_
 _atom_site_type_symbol
 _atom_site_label
 _atom_site_symmetry_multiplicity
 _atom_site_fract_x
 _atom_site_fract_y
 _atom_site_fract_z
 _atom_site_occupancy
  Ag  Ag0  1  0.000000  0.000000  0.000000  1
  Ag  Ag1  1  0.662729  0.337345  0.999907  1
  Ag  Ag2  1  0.826915  0.173179  0.499940  1
  Ag  Ag3  1  0.173085  0.826821  0.500060  1
  Ag  Ag4  1  0.337271  0.662655  0.000093  1
  Cl  Cl5  1  0.411125  0.071872  0.752657  1
  Cl  Cl6  1  0.762557  0.762669  0.750669  1
  Cl  Cl7  1  0.071934  0.411199  0.752559  1
  Cl  Cl8  1  0.588875  0.928128  0.247343  1
  Cl  Cl9  1  0.237443  0.237331  0.249331  1
  Cl  Cl10  1  0.928066  0.588801  0.247441  1
