# generated using pymatgen
data_Hf6Mn6Al8Si8Rh
_symmetry_space_group_name_H-M   'P 1'
_cell_length_a   8.41485508
_cell_length_b   8.41485433
_cell_length_c   8.41485400
_cell_angle_alpha   59.99999344
_cell_angle_beta   59.99999637
_cell_angle_gamma   59.99999011
_symmetry_Int_Tables_number   1
_chemical_formula_structural   Hf6Mn6Al8Si8Rh
_chemical_formula_sum   'Hf6 Mn6 Al8 Si8 Rh1'
_cell_volume   421.33231037
_cell_formula_units_Z   1
loop_
 _symmetry_equiv_pos_site_id
 _symmetry_equiv_pos_as_xyz
  1  'x, y, z'
loop_
 _atom_site_type_symbol
 _atom_site_label
 _atom_site_symmetry_multiplicity
 _atom_site_fract_x
 _atom_site_fract_y
 _atom_site_fract_z
 _atom_site_occupancy
  Hf  Hf0  1  0.697603  0.302396  0.302396  1
  Hf  Hf1  1  0.302396  0.697603  0.697603  1
  Hf  Hf2  1  0.302396  0.697603  0.302396  1
  Hf  Hf3  1  0.302396  0.302396  0.697603  1
  Hf  Hf4  1  0.697603  0.302396  0.697603  1
  Hf  Hf5  1  0.697603  0.697603  0.302396  1
  Mn  Mn6  1  0.500000  0.000000  0.000000  1
  Mn  Mn7  1  0.000000  0.500000  0.500000  1
  Mn  Mn8  1  0.000000  0.500000  0.000000  1
  Mn  Mn9  1  0.000000  0.000000  0.500000  1
  Mn  Mn10  1  0.500000  0.000000  0.500000  1
  Mn  Mn11  1  0.500000  0.500000  0.000000  1
  Al  Al12  1  0.124464  0.124464  0.124464  1
  Al  Al13  1  0.124464  0.124464  0.626607  1
  Al  Al14  1  0.626607  0.124464  0.124464  1
  Al  Al15  1  0.124464  0.626607  0.124464  1
  Al  Al16  1  0.875535  0.875535  0.875535  1
  Al  Al17  1  0.875535  0.875535  0.373396  1
  Al  Al18  1  0.875535  0.373396  0.875535  1
  Al  Al19  1  0.373396  0.875535  0.875535  1
  Si  Si20  1  0.341317  0.341317  0.341317  1
  Si  Si21  1  0.341317  0.341317  0.976046  1
  Si  Si22  1  0.976046  0.341317  0.341317  1
  Si  Si23  1  0.341317  0.976046  0.341317  1
  Si  Si24  1  0.658683  0.658683  0.658683  1
  Si  Si25  1  0.658683  0.658683  0.023954  1
  Si  Si26  1  0.658683  0.023954  0.658683  1
  Si  Si27  1  0.023954  0.658683  0.658683  1
  Rh  Rh28  1  0.000000  0.000000  0.000000  1
