# generated using pymatgen
data_Dy12Fe(Si4Ir)3
_symmetry_space_group_name_H-M   'P 1'
_cell_length_a   4.23163000
_cell_length_b   10.62873895
_cell_length_c   12.31929011
_cell_angle_alpha   89.87171286
_cell_angle_beta   90.00000000
_cell_angle_gamma   90.00000000
_symmetry_Int_Tables_number   1
_chemical_formula_structural   Dy12Fe(Si4Ir)3
_chemical_formula_sum   'Dy12 Fe1 Si12 Ir3'
_cell_volume   554.08197478
_cell_formula_units_Z   1
loop_
 _symmetry_equiv_pos_site_id
 _symmetry_equiv_pos_as_xyz
  1  'x, y, z'
loop_
 _atom_site_type_symbol
 _atom_site_label
 _atom_site_symmetry_multiplicity
 _atom_site_fract_x
 _atom_site_fract_y
 _atom_site_fract_z
 _atom_site_occupancy
  Dy  Dy0  1  0.250000  0.880348  0.019784  1
  Dy  Dy1  1  0.250000  0.616369  0.524410  1
  Dy  Dy2  1  0.750000  0.119866  0.978141  1
  Dy  Dy3  1  0.750000  0.380086  0.477896  1
  Dy  Dy4  1  0.250000  0.919290  0.604688  1
  Dy  Dy5  1  0.250000  0.581822  0.105178  1
  Dy  Dy6  1  0.750000  0.080420  0.395575  1
  Dy  Dy7  1  0.750000  0.420131  0.899449  1
  Dy  Dy8  1  0.250000  0.655819  0.799381  1
  Dy  Dy9  1  0.250000  0.839592  0.301369  1
  Dy  Dy10  1  0.750000  0.341040  0.198227  1
  Dy  Dy11  1  0.750000  0.163831  0.698451  1
  Fe  Fe12  1  0.250000  0.389677  0.680547  1
  Si  Si13  1  0.250000  0.012076  0.820566  1
  Si  Si14  1  0.250000  0.490632  0.322005  1
  Si  Si15  1  0.750000  0.990504  0.178556  1
  Si  Si16  1  0.750000  0.500393  0.680875  1
  Si  Si17  1  0.250000  0.252374  0.837284  1
  Si  Si18  1  0.250000  0.253190  0.340601  1
  Si  Si19  1  0.750000  0.754138  0.158834  1
  Si  Si20  1  0.750000  0.746039  0.659408  1
  Si  Si21  1  0.250000  0.203946  0.544000  1
  Si  Si22  1  0.250000  0.297961  0.042810  1
  Si  Si23  1  0.750000  0.797314  0.457473  1
  Si  Si24  1  0.750000  0.701325  0.955621  1
  Ir  Ir25  1  0.250000  0.110648  0.180751  1
  Ir  Ir26  1  0.750000  0.611258  0.319734  1
  Ir  Ir27  1  0.750000  0.889911  0.818389  1
