# generated using pymatgen
data_Tm4Fe2Co7Ni11P12
_symmetry_space_group_name_H-M   'P 1'
_cell_length_a   3.66306300
_cell_length_b   10.25178193
_cell_length_c   11.80476357
_cell_angle_alpha   90.01526837
_cell_angle_beta   90.00000000
_cell_angle_gamma   90.00000000
_symmetry_Int_Tables_number   1
_chemical_formula_structural   Tm4Fe2Co7Ni11P12
_chemical_formula_sum   'Tm4 Fe2 Co7 Ni11 P12'
_cell_volume   443.30336225
_cell_formula_units_Z   1
loop_
 _symmetry_equiv_pos_site_id
 _symmetry_equiv_pos_as_xyz
  1  'x, y, z'
loop_
 _atom_site_type_symbol
 _atom_site_label
 _atom_site_symmetry_multiplicity
 _atom_site_fract_x
 _atom_site_fract_y
 _atom_site_fract_z
 _atom_site_occupancy
  Tm  Tm0  1  0.250000  0.581218  0.704418  1
  Tm  Tm1  1  0.250000  0.918874  0.203975  1
  Tm  Tm2  1  0.750000  0.419246  0.297122  1
  Tm  Tm3  1  0.750000  0.080177  0.795662  1
  Fe  Fe4  1  0.750000  0.722148  0.325406  1
  Fe  Fe5  1  0.250000  0.878149  0.698146  1
  Co  Co6  1  0.250000  0.620471  0.198543  1
  Co  Co7  1  0.750000  0.119777  0.300694  1
  Co  Co8  1  0.750000  0.378606  0.801390  1
  Co  Co9  1  0.250000  0.465735  0.933563  1
  Co  Co10  1  0.250000  0.034632  0.431720  1
  Co  Co11  1  0.750000  0.534241  0.068004  1
  Co  Co12  1  0.750000  0.967754  0.566093  1
  Ni  Ni13  1  0.250000  0.714256  0.990329  1
  Ni  Ni14  1  0.250000  0.790130  0.486236  1
  Ni  Ni15  1  0.750000  0.285951  0.010048  1
  Ni  Ni16  1  0.750000  0.216756  0.507229  1
  Ni  Ni17  1  0.250000  0.409283  0.485822  1
  Ni  Ni18  1  0.250000  0.091962  0.985689  1
  Ni  Ni19  1  0.750000  0.592310  0.516338  1
  Ni  Ni20  1  0.750000  0.907105  0.014809  1
  Ni  Ni21  1  0.250000  0.223767  0.176517  1
  Ni  Ni22  1  0.250000  0.274599  0.675674  1
  Ni  Ni23  1  0.750000  0.774954  0.825275  1
  P  P24  1  0.250000  0.424957  0.114835  1
  P  P25  1  0.250000  0.073564  0.613775  1
  P  P26  1  0.750000  0.574407  0.886297  1
  P  P27  1  0.750000  0.920602  0.385287  1
  P  P28  1  0.250000  0.269284  0.866995  1
  P  P29  1  0.250000  0.230257  0.368362  1
  P  P30  1  0.750000  0.730288  0.136493  1
  P  P31  1  0.750000  0.771224  0.632973  1
  P  P32  1  0.250000  0.606149  0.387417  1
  P  P33  1  0.250000  0.897427  0.887133  1
  P  P34  1  0.750000  0.398394  0.610714  1
  P  P35  1  0.750000  0.101344  0.111020  1
