# generated using pymatgen
data_Ho2Fe4P7(Ir3W)2
_symmetry_space_group_name_H-M   'P 1'
_cell_length_a   9.34944023
_cell_length_b   9.32077981
_cell_length_c   3.86457800
_cell_angle_alpha   90.00000000
_cell_angle_beta   90.00000000
_cell_angle_gamma   119.67299129
_symmetry_Int_Tables_number   1
_chemical_formula_structural   Ho2Fe4P7(Ir3W)2
_chemical_formula_sum   'Ho2 Fe4 P7 Ir6 W2'
_cell_volume   292.61206218
_cell_formula_units_Z   1
loop_
 _symmetry_equiv_pos_site_id
 _symmetry_equiv_pos_as_xyz
  1  'x, y, z'
loop_
 _atom_site_type_symbol
 _atom_site_label
 _atom_site_symmetry_multiplicity
 _atom_site_fract_x
 _atom_site_fract_y
 _atom_site_fract_z
 _atom_site_occupancy
  Ho  Ho0  1  0.999679  0.000853  0.000000  1
  Ho  Ho1  1  0.335398  0.666881  0.500000  1
  Fe  Fe2  1  0.777431  0.178265  0.000000  1
  Fe  Fe3  1  0.396006  0.225102  0.000000  1
  Fe  Fe4  1  0.827627  0.598784  0.000000  1
  Fe  Fe5  1  0.873947  0.414057  0.500000  1
  P  P6  1  0.558498  0.927470  0.000000  1
  P  P7  1  0.370016  0.444607  0.000000  1
  P  P8  1  0.076016  0.632726  0.000000  1
  P  P9  1  0.943480  0.217350  0.500000  1
  P  P10  1  0.266627  0.053508  0.500000  1
  P  P11  1  0.788672  0.730869  0.500000  1
  P  P12  1  0.665863  0.334990  0.000000  1
  Ir  Ir13  1  0.304478  0.903669  0.000000  1
  Ir  Ir14  1  0.600090  0.697815  0.000000  1
  Ir  Ir15  1  0.092309  0.398496  0.000000  1
  Ir  Ir16  1  0.725758  0.949568  0.500000  1
  Ir  Ir17  1  0.221400  0.277646  0.500000  1
  Ir  Ir18  1  0.052613  0.769291  0.500000  1
  W  W19  1  0.548592  0.124212  0.500000  1
  W  W20  1  0.575499  0.453842  0.500000  1
