# generated using pymatgen
data_Ce2Er2Zn2SiRh10
_symmetry_space_group_name_H-M   'P 1'
_cell_length_a   7.16892489
_cell_length_b   7.20359834
_cell_length_c   7.20359816
_cell_angle_alpha   107.66038688
_cell_angle_beta   110.48716438
_cell_angle_gamma   110.48715883
_symmetry_Int_Tables_number   1
_chemical_formula_structural   Ce2Er2Zn2SiRh10
_chemical_formula_sum   'Ce2 Er2 Zn2 Si1 Rh10'
_cell_volume   285.41617091
_cell_formula_units_Z   1
loop_
 _symmetry_equiv_pos_site_id
 _symmetry_equiv_pos_as_xyz
  1  'x, y, z'
loop_
 _atom_site_type_symbol
 _atom_site_label
 _atom_site_symmetry_multiplicity
 _atom_site_fract_x
 _atom_site_fract_y
 _atom_site_fract_z
 _atom_site_occupancy
  Ce  Ce0  1  0.477096  0.970045  0.970045  1
  Ce  Ce1  1  0.477096  0.507051  0.507051  1
  Er  Er2  1  0.020447  0.010223  0.510223  1
  Er  Er3  1  0.020447  0.510223  0.010223  1
  Zn  Zn4  1  0.752802  0.250812  0.501990  1
  Zn  Zn5  1  0.752802  0.501990  0.250812  1
  Si  Si6  1  0.002321  0.001160  0.001160  1
  Rh  Rh7  1  0.513666  0.256833  0.756833  1
  Rh  Rh8  1  0.237960  0.494163  0.743797  1
  Rh  Rh9  1  0.237960  0.743797  0.494163  1
  Rh  Rh10  1  0.513666  0.756833  0.256833  1
  Rh  Rh11  1  0.734476  0.720138  0.014338  1
  Rh  Rh12  1  0.296464  0.013402  0.283062  1
  Rh  Rh13  1  0.965928  0.258817  0.258817  1
  Rh  Rh14  1  0.296464  0.283062  0.013402  1
  Rh  Rh15  1  0.734476  0.014338  0.720138  1
  Rh  Rh16  1  0.965928  0.707112  0.707112  1
