# generated using pymatgen
data_Cs2PaMn(CuTe3)2
_symmetry_space_group_name_H-M   'P 1'
_cell_length_a   8.60777840
_cell_length_b   8.60777897
_cell_length_c   11.41718316
_cell_angle_alpha   90.19141602
_cell_angle_beta   89.80858366
_cell_angle_gamma   151.07964564
_symmetry_Int_Tables_number   1
_chemical_formula_structural   Cs2PaMn(CuTe3)2
_chemical_formula_sum   'Cs2 Pa1 Mn1 Cu2 Te6'
_cell_volume   409.09003370
_cell_formula_units_Z   1
loop_
 _symmetry_equiv_pos_site_id
 _symmetry_equiv_pos_as_xyz
  1  'x, y, z'
loop_
 _atom_site_type_symbol
 _atom_site_label
 _atom_site_symmetry_multiplicity
 _atom_site_fract_x
 _atom_site_fract_y
 _atom_site_fract_z
 _atom_site_occupancy
  Cs  Cs0  1  0.747842  0.252160  0.267323  1
  Cs  Cs1  1  0.252160  0.747842  0.732677  1
  Pa  Pa2  1  0.000000  0.000000  0.000000  1
  Mn  Mn3  1  0.000000  0.000000  0.500000  1
  Cu  Cu4  1  0.466662  0.533339  0.230909  1
  Cu  Cu5  1  0.533339  0.466662  0.769091  1
  Te  Te6  1  0.373376  0.626625  0.049197  1
  Te  Te7  1  0.058407  0.941594  0.245107  1
  Te  Te8  1  0.402234  0.597767  0.444018  1
  Te  Te9  1  0.597767  0.402234  0.555982  1
  Te  Te10  1  0.941594  0.058407  0.754893  1
  Te  Te11  1  0.626625  0.373376  0.950802  1
