# generated using pymatgen
data_Zr6InGa3CBr18
_symmetry_space_group_name_H-M   'P 1'
_cell_length_a   10.24297215
_cell_length_b   10.48224282
_cell_length_c   10.40778156
_cell_angle_alpha   118.67149504
_cell_angle_beta   99.54069823
_cell_angle_gamma   103.81240051
_symmetry_Int_Tables_number   1
_chemical_formula_structural   Zr6InGa3CBr18
_chemical_formula_sum   'Zr6 In1 Ga3 C1 Br18'
_cell_volume   899.10810593
_cell_formula_units_Z   1
loop_
 _symmetry_equiv_pos_site_id
 _symmetry_equiv_pos_as_xyz
  1  'x, y, z'
loop_
 _atom_site_type_symbol
 _atom_site_label
 _atom_site_symmetry_multiplicity
 _atom_site_fract_x
 _atom_site_fract_y
 _atom_site_fract_z
 _atom_site_occupancy
  Zr  Zr0  1  0.351064  0.444728  0.771418  1
  Zr  Zr1  1  0.365216  0.628772  0.136440  1
  Zr  Zr2  1  0.644315  0.730897  0.039800  1
  Zr  Zr3  1  0.649427  0.556865  0.228591  1
  Zr  Zr4  1  0.355108  0.268303  0.959569  1
  Zr  Zr5  1  0.634363  0.369249  0.864966  1
  In  In6  1  0.825677  0.277808  0.445112  1
  Ga  Ga7  1  0.162968  0.720598  0.546228  1
  Ga  Ga8  1  0.872150  0.964833  0.781827  1
  Ga  Ga9  1  0.129101  0.037056  0.216410  1
  C  C10  1  0.499574  0.499738  0.999722  1
  Br  Br11  1  0.824059  0.416737  0.109699  1
  Br  Br12  1  0.518082  0.710944  0.419729  1
  Br  Br13  1  0.167091  0.978189  0.906420  1
  Br  Br14  1  0.175567  0.582993  0.892290  1
  Br  Br15  1  0.835357  0.835711  0.312330  1
  Br  Br16  1  0.505287  0.298384  0.217721  1
  Br  Br17  1  0.799370  0.209019  0.703620  1
  Br  Br18  1  0.164475  0.165846  0.686857  1
  Br  Br19  1  0.510723  0.914364  0.198600  1
  Br  Br20  1  0.820578  0.618584  0.892462  1
  Br  Br21  1  0.200762  0.785980  0.305941  1
  Br  Br22  1  0.161479  0.375822  0.485432  1
  Br  Br23  1  0.495526  0.703598  0.783764  1
  Br  Br24  1  0.835778  0.020544  0.092745  1
  Br  Br25  1  0.483226  0.288613  0.581544  1
  Br  Br26  1  0.178531  0.378928  0.106516  1
  Br  Br27  1  0.848650  0.633353  0.513565  1
  Br  Br28  1  0.486494  0.083544  0.800683  1
