# generated using pymatgen
data_Zr2Mn2Co10As7
_symmetry_space_group_name_H-M   'P 1'
_cell_length_a   3.70087200
_cell_length_b   9.30395668
_cell_length_c   9.34401023
_cell_angle_alpha   119.73230336
_cell_angle_beta   90.00000000
_cell_angle_gamma   90.00000000
_symmetry_Int_Tables_number   1
_chemical_formula_structural   Zr2Mn2Co10As7
_chemical_formula_sum   'Zr2 Mn2 Co10 As7'
_cell_volume   279.38357909
_cell_formula_units_Z   1
loop_
 _symmetry_equiv_pos_site_id
 _symmetry_equiv_pos_as_xyz
  1  'x, y, z'
loop_
 _atom_site_type_symbol
 _atom_site_label
 _atom_site_symmetry_multiplicity
 _atom_site_fract_x
 _atom_site_fract_y
 _atom_site_fract_z
 _atom_site_occupancy
  Zr  Zr0  1  0.000000  0.669898  0.334877  1
  Zr  Zr1  1  0.500000  0.332621  0.667387  1
  Mn  Mn2  1  0.500000  0.779607  0.897110  1
  Mn  Mn3  1  0.500000  0.120893  0.220517  1
  Co  Co4  1  0.000000  0.564238  0.937274  1
  Co  Co5  1  0.000000  0.371539  0.434543  1
  Co  Co6  1  0.000000  0.060694  0.629194  1
  Co  Co7  1  0.500000  0.091410  0.873504  1
  Co  Co8  1  0.000000  0.882237  0.159754  1
  Co  Co9  1  0.000000  0.282891  0.122992  1
  Co  Co10  1  0.000000  0.840284  0.719899  1
  Co  Co11  1  0.500000  0.948903  0.386802  1
  Co  Co12  1  0.500000  0.436270  0.049741  1
  Co  Co13  1  0.500000  0.614631  0.563745  1
  As  As14  1  0.000000  0.003196  0.997582  1
  As  As15  1  0.500000  0.709861  0.121028  1
  As  As16  1  0.500000  0.416231  0.291515  1
  As  As17  1  0.500000  0.880192  0.590839  1
  As  As18  1  0.000000  0.582870  0.702151  1
  As  As19  1  0.000000  0.118214  0.416966  1
  As  As20  1  0.000000  0.293317  0.882580  1
