# generated using pymatgen
data_Ho6CoP12Ir13Rh4
_symmetry_space_group_name_H-M   'P 1'
_cell_length_a   3.93041400
_cell_length_b   11.13926000
_cell_length_c   12.75326300
_cell_angle_alpha   90.00000000
_cell_angle_beta   90.00000000
_cell_angle_gamma   90.00000000
_symmetry_Int_Tables_number   1
_chemical_formula_structural   Ho6CoP12Ir13Rh4
_chemical_formula_sum   'Ho6 Co1 P12 Ir13 Rh4'
_cell_volume   558.36212938
_cell_formula_units_Z   1
loop_
 _symmetry_equiv_pos_site_id
 _symmetry_equiv_pos_as_xyz
  1  'x, y, z'
loop_
 _atom_site_type_symbol
 _atom_site_label
 _atom_site_symmetry_multiplicity
 _atom_site_fract_x
 _atom_site_fract_y
 _atom_site_fract_z
 _atom_site_occupancy
  Ho  Ho0  1  0.000000  0.500000  0.521456  1
  Ho  Ho1  1  0.500000  0.000000  0.478060  1
  Ho  Ho2  1  0.500000  0.818718  0.202345  1
  Ho  Ho3  1  0.500000  0.181282  0.202345  1
  Ho  Ho4  1  0.000000  0.687387  0.797952  1
  Ho  Ho5  1  0.000000  0.312613  0.797952  1
  Co  Co6  1  0.500000  0.000000  0.022740  1
  P  P7  1  0.500000  0.500000  0.878157  1
  P  P8  1  0.000000  0.000000  0.120745  1
  P  P9  1  0.500000  0.500000  0.354869  1
  P  P10  1  0.000000  0.000000  0.643172  1
  P  P11  1  0.500000  0.315390  0.618769  1
  P  P12  1  0.500000  0.684610  0.618769  1
  P  P13  1  0.000000  0.184360  0.381081  1
  P  P14  1  0.000000  0.815640  0.381081  1
  P  P15  1  0.500000  0.853961  0.896158  1
  P  P16  1  0.500000  0.146039  0.896158  1
  P  P17  1  0.000000  0.657373  0.106042  1
  P  P18  1  0.000000  0.342627  0.106042  1
  Ir  Ir19  1  0.500000  0.500000  0.700596  1
  Ir  Ir20  1  0.000000  0.000000  0.299233  1
  Ir  Ir21  1  0.000000  0.500000  0.976567  1
  Ir  Ir22  1  0.000000  0.159421  0.004164  1
  Ir  Ir23  1  0.000000  0.840579  0.004164  1
  Ir  Ir24  1  0.500000  0.294331  0.429588  1
  Ir  Ir25  1  0.500000  0.705669  0.429588  1
  Ir  Ir26  1  0.000000  0.207072  0.569983  1
  Ir  Ir27  1  0.000000  0.792928  0.569983  1
  Ir  Ir28  1  0.500000  0.871271  0.713196  1
  Ir  Ir29  1  0.500000  0.128729  0.713196  1
  Ir  Ir30  1  0.000000  0.629659  0.285855  1
  Ir  Ir31  1  0.000000  0.370341  0.285855  1
  Rh  Rh32  1  0.500000  0.500000  0.175051  1
  Rh  Rh33  1  0.000000  0.000000  0.823682  1
  Rh  Rh34  1  0.500000  0.332408  0.997705  1
  Rh  Rh35  1  0.500000  0.667592  0.997705  1
