# generated using pymatgen
data_PuNbReB6
_symmetry_space_group_name_H-M   'P 1'
_cell_length_a   3.52827900
_cell_length_b   9.02423600
_cell_length_c   11.37933700
_cell_angle_alpha   90.00000000
_cell_angle_beta   90.00000000
_cell_angle_gamma   90.00000000
_symmetry_Int_Tables_number   1
_chemical_formula_structural   PuNbReB6
_chemical_formula_sum   'Pu4 Nb4 Re4 B24'
_cell_volume   362.31834463
_cell_formula_units_Z   4
loop_
 _symmetry_equiv_pos_site_id
 _symmetry_equiv_pos_as_xyz
  1  'x, y, z'
loop_
 _atom_site_type_symbol
 _atom_site_label
 _atom_site_symmetry_multiplicity
 _atom_site_fract_x
 _atom_site_fract_y
 _atom_site_fract_z
 _atom_site_occupancy
  Pu  Pu0  1  0.000000  0.322505  0.413261  1
  Pu  Pu1  1  0.000000  0.677495  0.586739  1
  Pu  Pu2  1  0.000000  0.822505  0.086739  1
  Pu  Pu3  1  0.000000  0.177495  0.913261  1
  Nb  Nb4  1  0.000000  0.945825  0.374883  1
  Nb  Nb5  1  0.000000  0.054175  0.625117  1
  Nb  Nb6  1  0.000000  0.445825  0.125117  1
  Nb  Nb7  1  0.000000  0.554175  0.874883  1
  Re  Re8  1  0.000000  0.643325  0.317409  1
  Re  Re9  1  0.000000  0.356675  0.682591  1
  Re  Re10  1  0.000000  0.143325  0.182591  1
  Re  Re11  1  0.000000  0.856675  0.817409  1
  B  B12  1  0.500000  0.554223  0.433964  1
  B  B13  1  0.500000  0.445777  0.566036  1
  B  B14  1  0.500000  0.054223  0.066036  1
  B  B15  1  0.500000  0.945777  0.933964  1
  B  B16  1  0.500000  0.754381  0.419534  1
  B  B17  1  0.500000  0.245619  0.580466  1
  B  B18  1  0.500000  0.254381  0.080466  1
  B  B19  1  0.500000  0.745619  0.919534  1
  B  B20  1  0.500000  0.797827  0.263486  1
  B  B21  1  0.500000  0.202173  0.736514  1
  B  B22  1  0.500000  0.297827  0.236514  1
  B  B23  1  0.500000  0.702173  0.763486  1
  B  B24  1  0.500000  0.630419  0.181033  1
  B  B25  1  0.500000  0.369581  0.818967  1
  B  B26  1  0.500000  0.130419  0.318967  1
  B  B27  1  0.500000  0.869581  0.681033  1
  B  B28  1  0.500000  0.981095  0.213743  1
  B  B29  1  0.500000  0.018905  0.786257  1
  B  B30  1  0.500000  0.481095  0.286257  1
  B  B31  1  0.500000  0.518905  0.713743  1
  B  B32  1  0.500000  0.599669  0.026610  1
  B  B33  1  0.500000  0.400331  0.973390  1
  B  B34  1  0.500000  0.099669  0.473390  1
  B  B35  1  0.500000  0.900331  0.526610  1
