# generated using pymatgen
data_MnCr20MoWC6
_symmetry_space_group_name_H-M   'P 1'
_cell_length_a   7.52164457
_cell_length_b   7.52072428
_cell_length_c   7.52314912
_cell_angle_alpha   59.99520008
_cell_angle_beta   59.97509647
_cell_angle_gamma   60.00493783
_symmetry_Int_Tables_number   1
_chemical_formula_structural   MnCr20MoWC6
_chemical_formula_sum   'Mn1 Cr20 Mo1 W1 C6'
_cell_volume   300.86785440
_cell_formula_units_Z   1
loop_
 _symmetry_equiv_pos_site_id
 _symmetry_equiv_pos_as_xyz
  1  'x, y, z'
loop_
 _atom_site_type_symbol
 _atom_site_label
 _atom_site_symmetry_multiplicity
 _atom_site_fract_x
 _atom_site_fract_y
 _atom_site_fract_z
 _atom_site_occupancy
  Mn  Mn0  1  0.999990  0.999997  0.000003  1
  Cr  Cr1  1  0.615392  0.615164  0.154465  1
  Cr  Cr2  1  0.615064  0.154465  0.615163  1
  Cr  Cr3  1  0.154435  0.615064  0.615391  1
  Cr  Cr4  1  0.615164  0.615369  0.615028  1
  Cr  Cr5  1  0.383360  0.383589  0.849315  1
  Cr  Cr6  1  0.383683  0.849320  0.383584  1
  Cr  Cr7  1  0.849358  0.383684  0.383353  1
  Cr  Cr8  1  0.383585  0.383381  0.383715  1
  Cr  Cr9  1  0.999710  0.999929  0.335337  1
  Cr  Cr10  1  0.664913  0.999558  0.335713  1
  Cr  Cr11  1  0.999491  0.664986  0.335561  1
  Cr  Cr12  1  0.665178  0.335405  0.999808  1
  Cr  Cr13  1  0.999948  0.335565  0.999722  1
  Cr  Cr14  1  0.999980  0.335539  0.664943  1
  Cr  Cr15  1  0.335327  0.665091  0.999670  1
  Cr  Cr16  1  0.335612  0.999904  0.664785  1
  Cr  Cr17  1  0.335400  0.000111  0.999659  1
  Cr  Cr18  1  0.999786  0.999559  0.665177  1
  Cr  Cr19  1  0.999540  0.664962  0.999766  1
  Cr  Cr20  1  0.665115  0.999395  0.999847  1
  Mo  Mo21  1  0.250126  0.249983  0.249954  1
  W  W22  1  0.749843  0.749978  0.750034  1
  C  C23  1  0.724247  0.724274  0.275730  1
  C  C24  1  0.275835  0.724188  0.275829  1
  C  C25  1  0.724283  0.275726  0.275735  1
  C  C26  1  0.275740  0.275714  0.724292  1
  C  C27  1  0.724158  0.275829  0.724168  1
  C  C28  1  0.275738  0.724272  0.724253  1
