# generated using pymatgen
data_CaAc2ErP7Ir8
_symmetry_space_group_name_H-M   'P 1'
_cell_length_a   4.00125100
_cell_length_b   12.98892054
_cell_length_c   13.23119754
_cell_angle_alpha   81.40756059
_cell_angle_beta   90.00000000
_cell_angle_gamma   90.00000000
_symmetry_Int_Tables_number   1
_chemical_formula_structural   CaAc2ErP7Ir8
_chemical_formula_sum   'Ca2 Ac4 Er2 P14 Ir16'
_cell_volume   679.93276790
_cell_formula_units_Z   2
loop_
 _symmetry_equiv_pos_site_id
 _symmetry_equiv_pos_as_xyz
  1  'x, y, z'
loop_
 _atom_site_type_symbol
 _atom_site_label
 _atom_site_symmetry_multiplicity
 _atom_site_fract_x
 _atom_site_fract_y
 _atom_site_fract_z
 _atom_site_occupancy
  Ca  Ca0  1  0.250000  0.212100  0.439118  1
  Ca  Ca1  1  0.750000  0.787900  0.560882  1
  Ac  Ac2  1  0.250000  0.108461  0.786537  1
  Ac  Ac3  1  0.750000  0.891539  0.213463  1
  Ac  Ac4  1  0.250000  0.283227  0.103780  1
  Ac  Ac5  1  0.750000  0.716773  0.896220  1
  Er  Er6  1  0.250000  0.518047  0.293897  1
  Er  Er7  1  0.750000  0.481953  0.706103  1
  P  P8  1  0.250000  0.055213  0.098023  1
  P  P9  1  0.750000  0.944787  0.901977  1
  P  P10  1  0.250000  0.320408  0.682564  1
  P  P11  1  0.750000  0.679592  0.317436  1
  P  P12  1  0.250000  0.608152  0.563184  1
  P  P13  1  0.750000  0.391848  0.436816  1
  P  P14  1  0.250000  0.841488  0.714900  1
  P  P15  1  0.750000  0.158512  0.285100  1
  P  P16  1  0.750000  0.256172  0.912941  1
  P  P17  1  0.250000  0.743828  0.087059  1
  P  P18  1  0.750000  0.092098  0.586341  1
  P  P19  1  0.250000  0.907902  0.413659  1
  P  P20  1  0.750000  0.474051  0.131493  1
  P  P21  1  0.250000  0.525949  0.868507  1
  Ir  Ir22  1  0.250000  0.988215  0.575433  1
  Ir  Ir23  1  0.750000  0.011785  0.424567  1
  Ir  Ir24  1  0.250000  0.657850  0.725433  1
  Ir  Ir25  1  0.750000  0.342150  0.274567  1
  Ir  Ir26  1  0.250000  0.545361  0.053595  1
  Ir  Ir27  1  0.750000  0.454639  0.946405  1
  Ir  Ir28  1  0.250000  0.065307  0.275516  1
  Ir  Ir29  1  0.750000  0.934693  0.724484  1
  Ir  Ir30  1  0.250000  0.426387  0.524041  1
  Ir  Ir31  1  0.750000  0.573613  0.475959  1
  Ir  Ir32  1  0.250000  0.916859  0.999407  1
  Ir  Ir33  1  0.750000  0.083141  0.000593  1
  Ir  Ir34  1  0.250000  0.725043  0.398925  1
  Ir  Ir35  1  0.750000  0.274957  0.601075  1
  Ir  Ir36  1  0.250000  0.345538  0.853087  1
  Ir  Ir37  1  0.750000  0.654462  0.146913  1
