# generated using pymatgen
data_Hf4NbB4Ru10W
_symmetry_space_group_name_H-M   'P 1'
_cell_length_a   9.45427200
_cell_length_b   9.45427200
_cell_length_c   3.09578200
_cell_angle_alpha   90.00000000
_cell_angle_beta   90.00000000
_cell_angle_gamma   90.00000000
_symmetry_Int_Tables_number   1
_chemical_formula_structural   Hf4NbB4Ru10W
_chemical_formula_sum   'Hf4 Nb1 B4 Ru10 W1'
_cell_volume   276.71108447
_cell_formula_units_Z   1
loop_
 _symmetry_equiv_pos_site_id
 _symmetry_equiv_pos_as_xyz
  1  'x, y, z'
loop_
 _atom_site_type_symbol
 _atom_site_label
 _atom_site_symmetry_multiplicity
 _atom_site_fract_x
 _atom_site_fract_y
 _atom_site_fract_z
 _atom_site_occupancy
  Hf  Hf0  1  0.824405  0.676206  0.000000  1
  Hf  Hf1  1  0.175595  0.323794  0.000000  1
  Hf  Hf2  1  0.323794  0.824405  0.000000  1
  Hf  Hf3  1  0.676206  0.175595  0.000000  1
  Nb  Nb4  1  0.000000  0.000000  0.000000  1
  B  B5  1  0.622088  0.879914  0.000000  1
  B  B6  1  0.377912  0.120086  0.000000  1
  B  B7  1  0.120086  0.622088  0.000000  1
  B  B8  1  0.879914  0.377912  0.000000  1
  Ru  Ru9  1  0.569055  0.715641  0.500000  1
  Ru  Ru10  1  0.430945  0.284359  0.500000  1
  Ru  Ru11  1  0.072088  0.781236  0.500000  1
  Ru  Ru12  1  0.927912  0.218764  0.500000  1
  Ru  Ru13  1  0.284359  0.569055  0.500000  1
  Ru  Ru14  1  0.715641  0.430945  0.500000  1
  Ru  Ru15  1  0.218764  0.072088  0.500000  1
  Ru  Ru16  1  0.781236  0.927912  0.500000  1
  Ru  Ru17  1  0.500000  0.000000  0.500000  1
  Ru  Ru18  1  0.000000  0.500000  0.500000  1
  W  W19  1  0.500000  0.500000  0.000000  1
