# generated using pymatgen
data_TaNb3Se4(OF7)4
_symmetry_space_group_name_H-M   'P 1'
_cell_length_a   7.33409740
_cell_length_b   8.12764300
_cell_length_c   11.58694859
_cell_angle_alpha   90.00000000
_cell_angle_beta   90.03715028
_cell_angle_gamma   90.00000000
_symmetry_Int_Tables_number   1
_chemical_formula_structural   TaNb3Se4(OF7)4
_chemical_formula_sum   'Ta1 Nb3 Se4 O4 F28'
_cell_volume   690.68540863
_cell_formula_units_Z   1
loop_
 _symmetry_equiv_pos_site_id
 _symmetry_equiv_pos_as_xyz
  1  'x, y, z'
loop_
 _atom_site_type_symbol
 _atom_site_label
 _atom_site_symmetry_multiplicity
 _atom_site_fract_x
 _atom_site_fract_y
 _atom_site_fract_z
 _atom_site_occupancy
  Ta  Ta0  1  0.698470  0.750000  0.148072  1
  Nb  Nb1  1  0.201007  0.250000  0.350213  1
  Nb  Nb2  1  0.299142  0.250000  0.850383  1
  Nb  Nb3  1  0.799362  0.750000  0.649855  1
  Se  Se4  1  0.266298  0.750000  0.998216  1
  Se  Se5  1  0.766260  0.250000  0.501839  1
  Se  Se6  1  0.733706  0.250000  0.002430  1
  Se  Se7  1  0.233649  0.750000  0.497799  1
  O  O8  1  0.489496  0.750000  0.017635  1
  O  O9  1  0.010998  0.750000  0.516907  1
  O  O10  1  0.511076  0.250000  0.983252  1
  O  O11  1  0.989003  0.250000  0.483018  1
  F  F12  1  0.700981  0.093329  0.405419  1
  F  F13  1  0.799226  0.406526  0.905962  1
  F  F14  1  0.299180  0.593390  0.594304  1
  F  F15  1  0.201674  0.906489  0.094491  1
  F  F16  1  0.299180  0.906610  0.594304  1
  F  F17  1  0.799226  0.093474  0.905962  1
  F  F18  1  0.700981  0.406671  0.405419  1
  F  F19  1  0.201674  0.593511  0.094491  1
  F  F20  1  0.862196  0.750000  0.019259  1
  F  F21  1  0.361284  0.250000  0.481812  1
  F  F22  1  0.138884  0.250000  0.981842  1
  F  F23  1  0.638715  0.750000  0.518545  1
  F  F24  1  0.881473  0.750000  0.259829  1
  F  F25  1  0.384332  0.250000  0.237868  1
  F  F26  1  0.115694  0.250000  0.738036  1
  F  F27  1  0.616242  0.750000  0.762422  1
  F  F28  1  0.503108  0.750000  0.255782  1
  F  F29  1  0.001693  0.250000  0.244197  1
  F  F30  1  0.498373  0.250000  0.744548  1
  F  F31  1  0.998993  0.750000  0.755713  1
  F  F32  1  0.688042  0.513758  0.135713  1
  F  F33  1  0.189206  0.487457  0.363608  1
  F  F34  1  0.310907  0.012435  0.864230  1
  F  F35  1  0.811058  0.987488  0.636536  1
  F  F36  1  0.310907  0.487565  0.864230  1
  F  F37  1  0.811058  0.512512  0.636536  1
  F  F38  1  0.688042  0.986242  0.135713  1
  F  F39  1  0.189206  0.012543  0.363608  1
