# generated using pymatgen
data_PrTh3(Si5Os3)2
_symmetry_space_group_name_H-M   'P 1'
_cell_length_a   8.24734648
_cell_length_b   8.23752434
_cell_length_c   5.90207159
_cell_angle_alpha   70.44284182
_cell_angle_beta   70.53453752
_cell_angle_gamma   93.59615268
_symmetry_Int_Tables_number   1
_chemical_formula_structural   PrTh3(Si5Os3)2
_chemical_formula_sum   'Pr1 Th3 Si10 Os6'
_cell_volume   349.32309873
_cell_formula_units_Z   1
loop_
 _symmetry_equiv_pos_site_id
 _symmetry_equiv_pos_as_xyz
  1  'x, y, z'
loop_
 _atom_site_type_symbol
 _atom_site_label
 _atom_site_symmetry_multiplicity
 _atom_site_fract_x
 _atom_site_fract_y
 _atom_site_fract_z
 _atom_site_occupancy
  Pr  Pr0  1  0.865881  0.601418  0.758191  1
  Th  Th1  1  0.398832  0.132517  0.741729  1
  Th  Th2  1  0.132754  0.400200  0.241366  1
  Th  Th3  1  0.601237  0.866151  0.259079  1
  Si  Si4  1  0.059342  0.261213  0.837054  1
  Si  Si5  1  0.741727  0.940371  0.662346  1
  Si  Si6  1  0.941006  0.739139  0.161993  1
  Si  Si7  1  0.259439  0.058364  0.338194  1
  Si  Si8  1  0.206462  0.789592  0.750287  1
  Si  Si9  1  0.791105  0.208580  0.250100  1
  Si  Si10  1  0.514227  0.488291  0.749538  1
  Si  Si11  1  0.488302  0.511665  0.248764  1
  Si  Si12  1  0.772313  0.228324  0.749725  1
  Si  Si13  1  0.225540  0.772816  0.252366  1
  Os  Os14  1  0.257552  0.540370  0.634024  1
  Os  Os15  1  0.457690  0.746475  0.866708  1
  Os  Os16  1  0.743808  0.457109  0.367560  1
  Os  Os17  1  0.540688  0.252931  0.135549  1
  Os  Os18  1  0.005302  0.999066  0.747676  1
  Os  Os19  1  0.996791  0.005408  0.247752  1
