# generated using pymatgen
data_La2TbNd4Rh3
_symmetry_space_group_name_H-M   'P 1'
_cell_length_a   6.43021296
_cell_length_b   10.15545881
_cell_length_c   10.15545847
_cell_angle_alpha   120.21662856
_cell_angle_beta   90.05411117
_cell_angle_gamma   89.94588741
_symmetry_Int_Tables_number   1
_chemical_formula_structural   La2TbNd4Rh3
_chemical_formula_sum   'La4 Tb2 Nd8 Rh6'
_cell_volume   573.06337161
_cell_formula_units_Z   2
loop_
 _symmetry_equiv_pos_site_id
 _symmetry_equiv_pos_as_xyz
  1  'x, y, z'
loop_
 _atom_site_type_symbol
 _atom_site_label
 _atom_site_symmetry_multiplicity
 _atom_site_fract_x
 _atom_site_fract_y
 _atom_site_fract_z
 _atom_site_occupancy
  La  La0  1  0.261296  0.125854  0.874146  1
  La  La1  1  0.260622  0.747495  0.872749  1
  La  La2  1  0.260622  0.127251  0.252505  1
  La  La3  1  0.759880  0.874575  0.125425  1
  Tb  Tb4  1  0.463280  0.333426  0.666574  1
  Tb  Tb5  1  0.963936  0.666033  0.333967  1
  Nd  Nd6  1  0.759337  0.252010  0.125274  1
  Nd  Nd7  1  0.759337  0.874726  0.747990  1
  Nd  Nd8  1  0.441648  0.541761  0.458239  1
  Nd  Nd9  1  0.440879  0.917196  0.459280  1
  Nd  Nd10  1  0.440879  0.540720  0.082804  1
  Nd  Nd11  1  0.939130  0.458820  0.541180  1
  Nd  Nd12  1  0.939503  0.082130  0.541846  1
  Nd  Nd13  1  0.939503  0.458154  0.917870  1
  Rh  Rh14  1  0.175460  0.810343  0.189657  1
  Rh  Rh15  1  0.177772  0.379973  0.190094  1
  Rh  Rh16  1  0.177772  0.809906  0.620027  1
  Rh  Rh17  1  0.674817  0.191159  0.808841  1
  Rh  Rh18  1  0.675165  0.619191  0.810723  1
  Rh  Rh19  1  0.675165  0.189277  0.380809  1
