# generated using pymatgen
data_La3Tb(ZnSi3)2
_symmetry_space_group_name_H-M   'P 1'
_cell_length_a   4.25418300
_cell_length_b   4.26766200
_cell_length_c   14.09325800
_cell_angle_alpha   90.00000000
_cell_angle_beta   90.00000000
_cell_angle_gamma   90.00000000
_symmetry_Int_Tables_number   1
_chemical_formula_structural   La3Tb(ZnSi3)2
_chemical_formula_sum   'La3 Tb1 Zn2 Si6'
_cell_volume   255.86894953
_cell_formula_units_Z   1
loop_
 _symmetry_equiv_pos_site_id
 _symmetry_equiv_pos_as_xyz
  1  'x, y, z'
loop_
 _atom_site_type_symbol
 _atom_site_label
 _atom_site_symmetry_multiplicity
 _atom_site_fract_x
 _atom_site_fract_y
 _atom_site_fract_z
 _atom_site_occupancy
  La  La0  1  0.000000  0.000000  0.504788  1
  La  La1  1  0.500000  0.000000  0.749025  1
  La  La2  1  0.000000  0.500000  0.243249  1
  Tb  Tb3  1  0.500000  0.500000  0.004542  1
  Zn  Zn4  1  0.000000  0.000000  0.917035  1
  Zn  Zn5  1  0.500000  0.500000  0.414841  1
  Si  Si6  1  0.000000  0.500000  0.836743  1
  Si  Si7  1  0.500000  0.000000  0.330939  1
  Si  Si8  1  0.000000  0.000000  0.081526  1
  Si  Si9  1  0.500000  0.500000  0.584780  1
  Si  Si10  1  0.500000  0.000000  0.163496  1
  Si  Si11  1  0.000000  0.500000  0.669036  1
