# generated using pymatgen
data_Li2Pr8AlZn(GaRh2)4
_symmetry_space_group_name_H-M   'P 1'
_cell_length_a   4.10241700
_cell_length_b   7.29087100
_cell_length_c   16.60963000
_cell_angle_alpha   89.92059704
_cell_angle_beta   90.00000000
_cell_angle_gamma   90.00000000
_symmetry_Int_Tables_number   1
_chemical_formula_structural   Li2Pr8AlZn(GaRh2)4
_chemical_formula_sum   'Li2 Pr8 Al1 Zn1 Ga4 Rh8'
_cell_volume   496.79676423
_cell_formula_units_Z   1
loop_
 _symmetry_equiv_pos_site_id
 _symmetry_equiv_pos_as_xyz
  1  'x, y, z'
loop_
 _atom_site_type_symbol
 _atom_site_label
 _atom_site_symmetry_multiplicity
 _atom_site_fract_x
 _atom_site_fract_y
 _atom_site_fract_z
 _atom_site_occupancy
  Li  Li0  1  0.750000  0.509546  0.937988  1
  Li  Li1  1  0.750000  0.007317  0.562565  1
  Pr  Pr2  1  0.750000  0.452707  0.215988  1
  Pr  Pr3  1  0.750000  0.955652  0.281828  1
  Pr  Pr4  1  0.750000  0.832045  0.060621  1
  Pr  Pr5  1  0.250000  0.040856  0.717839  1
  Pr  Pr6  1  0.250000  0.167987  0.939671  1
  Pr  Pr7  1  0.250000  0.540569  0.782708  1
  Pr  Pr8  1  0.750000  0.334047  0.440641  1
  Pr  Pr9  1  0.250000  0.666810  0.561737  1
  Al  Al10  1  0.250000  0.000500  0.440336  1
  Zn  Zn11  1  0.250000  0.122465  0.150300  1
  Ga  Ga12  1  0.250000  0.626172  0.348513  1
  Ga  Ga13  1  0.750000  0.368899  0.649353  1
  Ga  Ga14  1  0.750000  0.869786  0.850904  1
  Ga  Ga15  1  0.250000  0.501288  0.058083  1
  Rh  Rh16  1  0.250000  0.249258  0.567037  1
  Rh  Rh17  1  0.750000  0.266928  0.064687  1
  Rh  Rh18  1  0.250000  0.251374  0.319556  1
  Rh  Rh19  1  0.750000  0.235742  0.810034  1
  Rh  Rh20  1  0.250000  0.752848  0.932227  1
  Rh  Rh21  1  0.750000  0.733986  0.689889  1
  Rh  Rh22  1  0.750000  0.769538  0.432143  1
  Rh  Rh23  1  0.250000  0.743678  0.185356  1
