# generated using pymatgen
data_Th8Mn3CoSi12
_symmetry_space_group_name_H-M   'P 1'
_cell_length_a   8.23878800
_cell_length_b   8.23878549
_cell_length_c   8.33725500
_cell_angle_alpha   90.00000000
_cell_angle_beta   90.00000000
_cell_angle_gamma   119.99993781
_symmetry_Int_Tables_number   1
_chemical_formula_structural   Th8Mn3CoSi12
_chemical_formula_sum   'Th8 Mn3 Co1 Si12'
_cell_volume   490.09527083
_cell_formula_units_Z   1
loop_
 _symmetry_equiv_pos_site_id
 _symmetry_equiv_pos_as_xyz
  1  'x, y, z'
loop_
 _atom_site_type_symbol
 _atom_site_label
 _atom_site_symmetry_multiplicity
 _atom_site_fract_x
 _atom_site_fract_y
 _atom_site_fract_z
 _atom_site_occupancy
  Th  Th0  1  0.501667  0.498295  0.751323  1
  Th  Th1  1  0.501809  0.498157  0.248647  1
  Th  Th2  1  0.996647  0.498298  0.751323  1
  Th  Th3  1  0.996369  0.498160  0.248646  1
  Th  Th4  1  0.501670  0.003324  0.751308  1
  Th  Th5  1  0.501805  0.003596  0.248662  1
  Th  Th6  1  0.999992  0.999968  0.748942  1
  Th  Th7  1  0.999992  0.999966  0.251031  1
  Mn  Mn8  1  0.666653  0.333307  0.999839  1
  Mn  Mn9  1  0.333388  0.667149  0.000408  1
  Mn  Mn10  1  0.333401  0.666754  0.499717  1
  Co  Co11  1  0.666657  0.333300  0.500253  1
  Si  Si12  1  0.831146  0.168846  0.999911  1
  Si  Si13  1  0.169192  0.830774  0.000054  1
  Si  Si14  1  0.337720  0.168849  0.999910  1
  Si  Si15  1  0.168606  0.831353  0.499920  1
  Si  Si16  1  0.661579  0.830768  0.000054  1
  Si  Si17  1  0.829207  0.170763  0.500082  1
  Si  Si18  1  0.831123  0.662231  0.999908  1
  Si  Si19  1  0.662771  0.831358  0.499920  1
  Si  Si20  1  0.169236  0.338459  0.000057  1
  Si  Si21  1  0.341571  0.170761  0.500083  1
  Si  Si22  1  0.168598  0.337180  0.499920  1
  Si  Si23  1  0.829202  0.658385  0.500084  1
