# generated using pymatgen
data_Tb4Mn2VFeB16
_symmetry_space_group_name_H-M   'P 1'
_cell_length_a   3.43585400
_cell_length_b   5.93949561
_cell_length_c   11.49044733
_cell_angle_alpha   90.08376318
_cell_angle_beta   90.00000000
_cell_angle_gamma   90.00000000
_symmetry_Int_Tables_number   1
_chemical_formula_structural   Tb4Mn2VFeB16
_chemical_formula_sum   'Tb4 Mn2 V1 Fe1 B16'
_cell_volume   234.48806303
_cell_formula_units_Z   1
loop_
 _symmetry_equiv_pos_site_id
 _symmetry_equiv_pos_as_xyz
  1  'x, y, z'
loop_
 _atom_site_type_symbol
 _atom_site_label
 _atom_site_symmetry_multiplicity
 _atom_site_fract_x
 _atom_site_fract_y
 _atom_site_fract_z
 _atom_site_occupancy
  Tb  Tb0  1  0.500000  0.374602  0.149573  1
  Tb  Tb1  1  0.500000  0.626782  0.849512  1
  Tb  Tb2  1  0.500000  0.123429  0.651185  1
  Tb  Tb3  1  0.500000  0.874820  0.348690  1
  Mn  Mn4  1  0.500000  0.622306  0.581567  1
  Mn  Mn5  1  0.500000  0.129120  0.914953  1
  V  V6  1  0.500000  0.376433  0.418874  1
  Fe  Fe7  1  0.500000  0.871409  0.083763  1
  B  B8  1  0.000000  0.111024  0.046641  1
  B  B9  1  0.000000  0.886748  0.954367  1
  B  B10  1  0.000000  0.389712  0.548469  1
  B  B11  1  0.000000  0.615791  0.455799  1
  B  B12  1  0.000000  0.135315  0.468565  1
  B  B13  1  0.000000  0.861189  0.534026  1
  B  B14  1  0.000000  0.362248  0.967963  1
  B  B15  1  0.000000  0.639336  0.032568  1
  B  B16  1  0.000000  0.023880  0.189830  1
  B  B17  1  0.000000  0.973910  0.809339  1
  B  B18  1  0.000000  0.476695  0.691080  1
  B  B19  1  0.000000  0.527358  0.307927  1
  B  B20  1  0.000000  0.215930  0.313817  1
  B  B21  1  0.000000  0.778914  0.683213  1
  B  B22  1  0.000000  0.281740  0.815844  1
  B  B23  1  0.000000  0.721311  0.182434  1
