# generated using pymatgen
data_Hf3Zr6CrCuRe3
_symmetry_space_group_name_H-M   'P 1'
_cell_length_a   8.70464900
_cell_length_b   8.70464911
_cell_length_c   8.41360500
_cell_angle_alpha   90.00000000
_cell_angle_beta   90.00000000
_cell_angle_gamma   120.00000339
_symmetry_Int_Tables_number   1
_chemical_formula_structural   Hf3Zr6CrCuRe3
_chemical_formula_sum   'Hf6 Zr12 Cr2 Cu2 Re6'
_cell_volume   552.09684895
_cell_formula_units_Z   2
loop_
 _symmetry_equiv_pos_site_id
 _symmetry_equiv_pos_as_xyz
  1  'x, y, z'
loop_
 _atom_site_type_symbol
 _atom_site_label
 _atom_site_symmetry_multiplicity
 _atom_site_fract_x
 _atom_site_fract_y
 _atom_site_fract_z
 _atom_site_occupancy
  Hf  Hf0  1  0.807517  0.192483  0.946166  1
  Hf  Hf1  1  0.807517  0.615035  0.946166  1
  Hf  Hf2  1  0.384965  0.192483  0.946166  1
  Hf  Hf3  1  0.192483  0.807517  0.053834  1
  Hf  Hf4  1  0.192483  0.384965  0.053834  1
  Hf  Hf5  1  0.615035  0.807517  0.053834  1
  Zr  Zr6  1  0.194304  0.805696  0.446157  1
  Zr  Zr7  1  0.194304  0.388608  0.446157  1
  Zr  Zr8  1  0.611392  0.805696  0.446157  1
  Zr  Zr9  1  0.805696  0.194304  0.553843  1
  Zr  Zr10  1  0.805696  0.611392  0.553843  1
  Zr  Zr11  1  0.388608  0.194304  0.553843  1
  Zr  Zr12  1  0.541534  0.458466  0.246680  1
  Zr  Zr13  1  0.541534  0.083069  0.246680  1
  Zr  Zr14  1  0.916931  0.458466  0.246680  1
  Zr  Zr15  1  0.458466  0.541534  0.753320  1
  Zr  Zr16  1  0.458466  0.916931  0.753320  1
  Zr  Zr17  1  0.083069  0.541534  0.753320  1
  Cr  Cr18  1  0.000000  0.000000  0.500000  1
  Cr  Cr19  1  0.000000  0.000000  0.000000  1
  Cu  Cu20  1  0.333333  0.666667  0.243983  1
  Cu  Cu21  1  0.666667  0.333333  0.756017  1
  Re  Re22  1  0.893415  0.106585  0.248413  1
  Re  Re23  1  0.893415  0.786827  0.248413  1
  Re  Re24  1  0.213173  0.106585  0.248413  1
  Re  Re25  1  0.106585  0.893415  0.751587  1
  Re  Re26  1  0.106585  0.213173  0.751587  1
  Re  Re27  1  0.786827  0.893415  0.751587  1
