# generated using pymatgen
data_NdYPa(Ga2Co3)3
_symmetry_space_group_name_H-M   'P 1'
_cell_length_a   4.18531900
_cell_length_b   8.64500273
_cell_length_c   8.64488200
_cell_angle_alpha   59.99518899
_cell_angle_beta   90.00000000
_cell_angle_gamma   90.00000000
_symmetry_Int_Tables_number   1
_chemical_formula_structural   NdYPa(Ga2Co3)3
_chemical_formula_sum   'Nd1 Y1 Pa1 Ga6 Co9'
_cell_volume   270.87089631
_cell_formula_units_Z   1
loop_
 _symmetry_equiv_pos_site_id
 _symmetry_equiv_pos_as_xyz
  1  'x, y, z'
loop_
 _atom_site_type_symbol
 _atom_site_label
 _atom_site_symmetry_multiplicity
 _atom_site_fract_x
 _atom_site_fract_y
 _atom_site_fract_z
 _atom_site_occupancy
  Nd  Nd0  1  0.500000  0.333305  0.333525  1
  Y  Y1  1  0.500000  0.666618  0.666489  1
  Pa  Pa2  1  0.000000  0.999956  0.000055  1
  Ga  Ga3  1  0.000000  0.495049  0.507019  1
  Ga  Ga4  1  0.000000  0.506964  0.997897  1
  Ga  Ga5  1  0.000000  0.997896  0.495027  1
  Ga  Ga6  1  0.500000  0.725099  0.276203  1
  Ga  Ga7  1  0.500000  0.276203  0.998726  1
  Ga  Ga8  1  0.500000  0.999135  0.724822  1
  Co  Co9  1  0.000000  0.171273  0.172184  1
  Co  Co10  1  0.000000  0.172019  0.656372  1
  Co  Co11  1  0.000000  0.656457  0.171642  1
  Co  Co12  1  0.000000  0.826935  0.826381  1
  Co  Co13  1  0.000000  0.346733  0.826962  1
  Co  Co14  1  0.000000  0.826262  0.346777  1
  Co  Co15  1  0.500000  0.298830  0.702237  1
  Co  Co16  1  0.500000  0.702284  0.998964  1
  Co  Co17  1  0.500000  0.998883  0.298817  1
