# generated using pymatgen
data_Re3Se4F
_symmetry_space_group_name_H-M   'P 1'
_cell_length_a   6.69383096
_cell_length_b   6.72575504
_cell_length_c   8.90589490
_cell_angle_alpha   104.05272115
_cell_angle_beta   110.65033476
_cell_angle_gamma   86.21597432
_symmetry_Int_Tables_number   1
_chemical_formula_structural   Re3Se4F
_chemical_formula_sum   'Re6 Se8 F2'
_cell_volume   363.87806530
_cell_formula_units_Z   2
loop_
 _symmetry_equiv_pos_site_id
 _symmetry_equiv_pos_as_xyz
  1  'x, y, z'
loop_
 _atom_site_type_symbol
 _atom_site_label
 _atom_site_symmetry_multiplicity
 _atom_site_fract_x
 _atom_site_fract_y
 _atom_site_fract_z
 _atom_site_occupancy
  Re  Re0  1  0.106550  0.246175  0.536364  1
  Re  Re1  1  0.158856  0.630893  0.720507  1
  Re  Re2  1  0.841144  0.369107  0.279493  1
  Re  Re3  1  0.227590  0.537922  0.433285  1
  Re  Re4  1  0.893450  0.753825  0.463636  1
  Re  Re5  1  0.772410  0.462078  0.566715  1
  Se  Se6  1  0.170225  0.170315  0.263379  1
  Se  Se7  1  0.829775  0.829685  0.736621  1
  Se  Se8  1  0.478573  0.408693  0.694801  1
  Se  Se9  1  0.286303  0.901922  0.613346  1
  Se  Se10  1  0.713697  0.098078  0.386654  1
  Se  Se11  1  0.521427  0.591307  0.305199  1
  Se  Se12  1  0.960509  0.658198  0.191354  1
  Se  Se13  1  0.039491  0.341802  0.808646  1
  F  F14  1  0.675635  0.234262  0.050984  1
  F  F15  1  0.324365  0.765738  0.949016  1
