# generated using pymatgen
data_Y8Si12Ni3Au
_symmetry_space_group_name_H-M   'P 1'
_cell_length_a   8.01074700
_cell_length_b   8.01074503
_cell_length_c   8.17651500
_cell_angle_alpha   90.00000000
_cell_angle_beta   90.00000000
_cell_angle_gamma   119.99999573
_symmetry_Int_Tables_number   1
_chemical_formula_structural   Y8Si12Ni3Au
_chemical_formula_sum   'Y8 Si12 Ni3 Au1'
_cell_volume   454.40679098
_cell_formula_units_Z   1
loop_
 _symmetry_equiv_pos_site_id
 _symmetry_equiv_pos_as_xyz
  1  'x, y, z'
loop_
 _atom_site_type_symbol
 _atom_site_label
 _atom_site_symmetry_multiplicity
 _atom_site_fract_x
 _atom_site_fract_y
 _atom_site_fract_z
 _atom_site_occupancy
  Y  Y0  1  0.502627  0.005254  0.253802  1
  Y  Y1  1  0.502486  0.004970  0.746282  1
  Y  Y2  1  0.994746  0.497373  0.253802  1
  Y  Y3  1  0.995030  0.497514  0.746282  1
  Y  Y4  1  0.502627  0.497373  0.253802  1
  Y  Y5  1  0.502486  0.497514  0.746282  1
  Y  Y6  1  0.000000  0.000000  0.253431  1
  Y  Y7  1  0.000000  0.000000  0.746585  1
  Si  Si8  1  0.160741  0.321482  0.999788  1
  Si  Si9  1  0.826356  0.652711  0.000094  1
  Si  Si10  1  0.678518  0.839259  0.999788  1
  Si  Si11  1  0.829282  0.658563  0.500331  1
  Si  Si12  1  0.347289  0.173644  0.000094  1
  Si  Si13  1  0.171729  0.343459  0.499836  1
  Si  Si14  1  0.160741  0.839259  0.999788  1
  Si  Si15  1  0.341437  0.170718  0.500331  1
  Si  Si16  1  0.826356  0.173644  0.000094  1
  Si  Si17  1  0.656541  0.828271  0.499836  1
  Si  Si18  1  0.829282  0.170718  0.500331  1
  Si  Si19  1  0.171729  0.828271  0.499836  1
  Ni  Ni20  1  0.666667  0.333333  0.001106  1
  Ni  Ni21  1  0.666667  0.333333  0.499468  1
  Ni  Ni22  1  0.333333  0.666667  0.498522  1
  Au  Au23  1  0.333333  0.666667  0.000488  1
