# generated using pymatgen
data_Tb2Al9Tc4Ru
_symmetry_space_group_name_H-M   'P 1'
_cell_length_a   7.91084796
_cell_length_b   7.91084708
_cell_length_c   7.91084736
_cell_angle_alpha   132.88607961
_cell_angle_beta   132.88607088
_cell_angle_gamma   68.83311475
_symmetry_Int_Tables_number   1
_chemical_formula_structural   Tb2Al9Tc4Ru
_chemical_formula_sum   'Tb2 Al9 Tc4 Ru1'
_cell_volume   260.93925454
_cell_formula_units_Z   1
loop_
 _symmetry_equiv_pos_site_id
 _symmetry_equiv_pos_as_xyz
  1  'x, y, z'
loop_
 _atom_site_type_symbol
 _atom_site_label
 _atom_site_symmetry_multiplicity
 _atom_site_fract_x
 _atom_site_fract_y
 _atom_site_fract_z
 _atom_site_occupancy
  Tb  Tb0  1  0.000000  0.500000  0.500000  1
  Tb  Tb1  1  0.500000  0.000000  0.500000  1
  Al  Al2  1  0.440423  0.861755  0.000000  1
  Al  Al3  1  0.138245  0.138245  0.578668  1
  Al  Al4  1  0.861755  0.440423  0.000000  1
  Al  Al5  1  0.861755  0.861755  0.421332  1
  Al  Al6  1  0.559577  0.138245  0.000000  1
  Al  Al7  1  0.138245  0.559577  0.000000  1
  Al  Al8  1  0.559577  0.559577  0.421332  1
  Al  Al9  1  0.000000  0.000000  0.000000  1
  Al  Al10  1  0.440423  0.440423  0.578668  1
  Tc  Tc11  1  0.188572  0.188572  0.000000  1
  Tc  Tc12  1  0.811428  0.811428  0.000000  1
  Tc  Tc13  1  0.250000  0.750000  0.500000  1
  Tc  Tc14  1  0.750000  0.250000  0.500000  1
  Ru  Ru15  1  0.500000  0.500000  0.000000  1
