# generated using pymatgen
data_Ba2LaTb3S8
_symmetry_space_group_name_H-M   'P 1'
_cell_length_a   4.09809500
_cell_length_b   12.51258100
_cell_length_c   14.75140200
_cell_angle_alpha   90.00000000
_cell_angle_beta   90.00000000
_cell_angle_gamma   90.00000000
_symmetry_Int_Tables_number   1
_chemical_formula_structural   Ba2LaTb3S8
_chemical_formula_sum   'Ba4 La2 Tb6 S16'
_cell_volume   756.41863949
_cell_formula_units_Z   2
loop_
 _symmetry_equiv_pos_site_id
 _symmetry_equiv_pos_as_xyz
  1  'x, y, z'
loop_
 _atom_site_type_symbol
 _atom_site_label
 _atom_site_symmetry_multiplicity
 _atom_site_fract_x
 _atom_site_fract_y
 _atom_site_fract_z
 _atom_site_occupancy
  Ba  Ba0  1  0.750000  0.743962  0.155808  1
  Ba  Ba1  1  0.750000  0.243962  0.344192  1
  Ba  Ba2  1  0.250000  0.256964  0.838101  1
  Ba  Ba3  1  0.250000  0.756964  0.661899  1
  La  La4  1  0.750000  0.075923  0.105879  1
  La  La5  1  0.750000  0.575923  0.394121  1
  Tb  Tb6  1  0.250000  0.929915  0.887045  1
  Tb  Tb7  1  0.250000  0.429915  0.612955  1
  Tb  Tb8  1  0.750000  0.075387  0.601676  1
  Tb  Tb9  1  0.750000  0.575387  0.898324  1
  Tb  Tb10  1  0.250000  0.923221  0.396923  1
  Tb  Tb11  1  0.250000  0.423221  0.103077  1
  S  S12  1  0.750000  0.289159  0.664880  1
  S  S13  1  0.750000  0.789159  0.835120  1
  S  S14  1  0.250000  0.717097  0.326175  1
  S  S15  1  0.250000  0.217097  0.173825  1
  S  S16  1  0.750000  0.372834  0.978352  1
  S  S17  1  0.750000  0.872834  0.521648  1
  S  S18  1  0.250000  0.622113  0.021547  1
  S  S19  1  0.250000  0.122113  0.478453  1
  S  S20  1  0.750000  0.480622  0.214559  1
  S  S21  1  0.750000  0.980622  0.285441  1
  S  S22  1  0.250000  0.517573  0.786032  1
  S  S23  1  0.250000  0.017573  0.713968  1
  S  S24  1  0.750000  0.077518  0.913254  1
  S  S25  1  0.750000  0.577518  0.586746  1
  S  S26  1  0.250000  0.917711  0.071428  1
  S  S27  1  0.250000  0.417711  0.428572  1
