# generated using pymatgen
data_YTm19Cd3Hg3Ru2
_symmetry_space_group_name_H-M   'P 1'
_cell_length_a   9.47492438
_cell_length_b   9.46605653
_cell_length_c   9.67367700
_cell_angle_alpha   90.00000000
_cell_angle_beta   90.00000000
_cell_angle_gamma   119.96905006
_symmetry_Int_Tables_number   1
_chemical_formula_structural   YTm19Cd3Hg3Ru2
_chemical_formula_sum   'Y1 Tm19 Cd3 Hg3 Ru2'
_cell_volume   751.62708246
_cell_formula_units_Z   1
loop_
 _symmetry_equiv_pos_site_id
 _symmetry_equiv_pos_as_xyz
  1  'x, y, z'
loop_
 _atom_site_type_symbol
 _atom_site_label
 _atom_site_symmetry_multiplicity
 _atom_site_fract_x
 _atom_site_fract_y
 _atom_site_fract_z
 _atom_site_occupancy
  Y  Y0  1  0.082349  0.541175  0.750000  1
  Tm  Tm1  1  0.999901  0.999951  0.491449  1
  Tm  Tm2  1  0.999901  0.999951  0.008551  1
  Tm  Tm3  1  0.209952  0.790944  0.439343  1
  Tm  Tm4  1  0.209952  0.419009  0.439343  1
  Tm  Tm5  1  0.580673  0.790337  0.439926  1
  Tm  Tm6  1  0.789581  0.209033  0.558984  1
  Tm  Tm7  1  0.789581  0.580548  0.558984  1
  Tm  Tm8  1  0.419532  0.209766  0.559193  1
  Tm  Tm9  1  0.789581  0.209033  0.941016  1
  Tm  Tm10  1  0.789581  0.580548  0.941016  1
  Tm  Tm11  1  0.419532  0.209766  0.940807  1
  Tm  Tm12  1  0.209952  0.790944  0.060657  1
  Tm  Tm13  1  0.209952  0.419009  0.060657  1
  Tm  Tm14  1  0.580673  0.790337  0.060074  1
  Tm  Tm15  1  0.540914  0.459134  0.250000  1
  Tm  Tm16  1  0.540914  0.081781  0.250000  1
  Tm  Tm17  1  0.918259  0.459130  0.250000  1
  Tm  Tm18  1  0.459928  0.540836  0.750000  1
  Tm  Tm19  1  0.459928  0.919092  0.750000  1
  Cd  Cd20  1  0.113229  0.887633  0.750000  1
  Cd  Cd21  1  0.113229  0.225596  0.750000  1
  Cd  Cd22  1  0.773597  0.886799  0.750000  1
  Hg  Hg23  1  0.879602  0.120309  0.250000  1
  Hg  Hg24  1  0.879602  0.759294  0.250000  1
  Hg  Hg25  1  0.240711  0.120356  0.250000  1
  Ru  Ru26  1  0.333169  0.666585  0.250000  1
  Ru  Ru27  1  0.666218  0.333109  0.750000  1
