# generated using pymatgen
data_MnCrCuS4
_symmetry_space_group_name_H-M   'P 1'
_cell_length_a   6.95142231
_cell_length_b   6.95142225
_cell_length_c   6.95142214
_cell_angle_alpha   119.75892665
_cell_angle_beta   120.05006340
_cell_angle_gamma   90.16568295
_symmetry_Int_Tables_number   1
_chemical_formula_structural   MnCrCuS4
_chemical_formula_sum   'Mn2 Cr2 Cu2 S8'
_cell_volume   237.86307489
_cell_formula_units_Z   2
loop_
 _symmetry_equiv_pos_site_id
 _symmetry_equiv_pos_as_xyz
  1  'x, y, z'
loop_
 _atom_site_type_symbol
 _atom_site_label
 _atom_site_symmetry_multiplicity
 _atom_site_fract_x
 _atom_site_fract_y
 _atom_site_fract_z
 _atom_site_occupancy
  Mn  Mn0  1  0.000000  0.000000  0.000000  1
  Mn  Mn1  1  0.500000  0.000000  0.500000  1
  Cr  Cr2  1  0.000000  0.000000  0.500000  1
  Cr  Cr3  1  0.000000  0.500000  0.000000  1
  Cu  Cu4  1  0.377196  0.627196  0.750000  1
  Cu  Cu5  1  0.622804  0.372804  0.250000  1
  S  S6  1  0.243259  0.761801  0.018542  1
  S  S7  1  0.243259  0.224717  0.481458  1
  S  S8  1  0.243548  0.760175  0.483372  1
  S  S9  1  0.776802  0.760175  0.016628  1
  S  S10  1  0.756741  0.238199  0.981458  1
  S  S11  1  0.756741  0.775283  0.518542  1
  S  S12  1  0.756452  0.239825  0.516628  1
  S  S13  1  0.223198  0.239825  0.983372  1
