# generated using pymatgen
data_Hf9ZrZnSn6As
_symmetry_space_group_name_H-M   'P 1'
_cell_length_a   8.63618291
_cell_length_b   8.64281915
_cell_length_c   5.85156616
_cell_angle_alpha   89.97280630
_cell_angle_beta   90.01361058
_cell_angle_gamma   120.02541355
_symmetry_Int_Tables_number   1
_chemical_formula_structural   Hf9ZrZnSn6As
_chemical_formula_sum   'Hf9 Zr1 Zn1 Sn6 As1'
_cell_volume   378.15399056
_cell_formula_units_Z   1
loop_
 _symmetry_equiv_pos_site_id
 _symmetry_equiv_pos_as_xyz
  1  'x, y, z'
loop_
 _atom_site_type_symbol
 _atom_site_label
 _atom_site_symmetry_multiplicity
 _atom_site_fract_x
 _atom_site_fract_y
 _atom_site_fract_z
 _atom_site_occupancy
  Hf  Hf0  1  0.666507  0.333099  0.999933  1
  Hf  Hf1  1  0.333493  0.666594  0.999933  1
  Hf  Hf2  1  0.333721  0.666594  0.500186  1
  Hf  Hf3  1  0.666279  0.332871  0.500186  1
  Hf  Hf4  1  0.733849  0.734241  0.748047  1
  Hf  Hf5  1  0.266151  0.000392  0.748047  1
  Hf  Hf6  1  0.000000  0.265949  0.748374  1
  Hf  Hf7  1  0.265656  0.265384  0.251780  1
  Hf  Hf8  1  0.734344  0.999727  0.251780  1
  Zr  Zr9  1  0.000000  0.734498  0.251438  1
  Zn  Zn10  1  0.000000  0.000633  0.999202  1
  Sn  Sn11  1  0.390245  0.390249  0.753304  1
  Sn  Sn12  1  0.609755  0.000004  0.753304  1
  Sn  Sn13  1  0.000000  0.609744  0.753252  1
  Sn  Sn14  1  0.609089  0.609427  0.246712  1
  Sn  Sn15  1  0.390911  0.000338  0.246712  1
  Sn  Sn16  1  0.000000  0.389431  0.246798  1
  As  As17  1  0.000000  0.000824  0.501012  1
