# generated using pymatgen
data_Li7MgSi5Pd3
_symmetry_space_group_name_H-M   'P 1'
_cell_length_a   5.99520058
_cell_length_b   5.99520058
_cell_length_c   5.99520058
_cell_angle_alpha   90.27152731
_cell_angle_beta   89.72847269
_cell_angle_gamma   90.27152731
_symmetry_Int_Tables_number   1
_chemical_formula_structural   Li7MgSi5Pd3
_chemical_formula_sum   'Li7 Mg1 Si5 Pd3'
_cell_volume   215.47484106
_cell_formula_units_Z   1
loop_
 _symmetry_equiv_pos_site_id
 _symmetry_equiv_pos_as_xyz
  1  'x, y, z'
loop_
 _atom_site_type_symbol
 _atom_site_label
 _atom_site_symmetry_multiplicity
 _atom_site_fract_x
 _atom_site_fract_y
 _atom_site_fract_z
 _atom_site_occupancy
  Li  Li0  1  0.751738  0.248262  0.248876  1
  Li  Li1  1  0.248876  0.248262  0.751738  1
  Li  Li2  1  0.991890  0.008110  0.991890  1
  Li  Li3  1  0.990973  0.492709  0.507291  1
  Li  Li4  1  0.751738  0.751124  0.751738  1
  Li  Li5  1  0.507291  0.009027  0.507291  1
  Li  Li6  1  0.507291  0.492709  0.990973  1
  Mg  Mg7  1  0.247068  0.752932  0.247068  1
  Si  Si8  1  0.249542  0.251903  0.249542  1
  Si  Si9  1  0.506808  0.493192  0.506808  1
  Si  Si10  1  0.753097  0.246903  0.753097  1
  Si  Si11  1  0.748097  0.750458  0.249542  1
  Si  Si12  1  0.249542  0.750458  0.748097  1
  Pd  Pd13  1  0.997104  0.002896  0.501841  1
  Pd  Pd14  1  0.997104  0.498159  0.997104  1
  Pd  Pd15  1  0.501841  0.002896  0.997104  1
