# generated using pymatgen
data_Pr2HoSi4(PPd10)2
_symmetry_space_group_name_H-M   'P 1'
_cell_length_a   8.75206255
_cell_length_b   8.75206372
_cell_length_c   8.75714400
_cell_angle_alpha   59.98079647
_cell_angle_beta   59.98079205
_cell_angle_gamma   60.03841345
_symmetry_Int_Tables_number   1
_chemical_formula_structural   Pr2HoSi4(PPd10)2
_chemical_formula_sum   'Pr2 Ho1 Si4 P2 Pd20'
_cell_volume   474.31634520
_cell_formula_units_Z   1
loop_
 _symmetry_equiv_pos_site_id
 _symmetry_equiv_pos_as_xyz
  1  'x, y, z'
loop_
 _atom_site_type_symbol
 _atom_site_label
 _atom_site_symmetry_multiplicity
 _atom_site_fract_x
 _atom_site_fract_y
 _atom_site_fract_z
 _atom_site_occupancy
  Pr  Pr0  1  0.250000  0.250000  0.250000  1
  Pr  Pr1  1  0.750000  0.750000  0.750000  1
  Ho  Ho2  1  0.000000  0.000000  0.000000  1
  Si  Si3  1  0.735002  0.264998  0.264998  1
  Si  Si4  1  0.264998  0.735002  0.735002  1
  Si  Si5  1  0.264998  0.735002  0.264998  1
  Si  Si6  1  0.735002  0.264998  0.735002  1
  P  P7  1  0.264486  0.264486  0.735514  1
  P  P8  1  0.735514  0.735514  0.264486  1
  Pd  Pd9  1  0.385451  0.385451  0.387342  1
  Pd  Pd10  1  0.614549  0.614549  0.612658  1
  Pd  Pd11  1  0.385451  0.385451  0.841757  1
  Pd  Pd12  1  0.387342  0.841757  0.385451  1
  Pd  Pd13  1  0.614549  0.614549  0.158243  1
  Pd  Pd14  1  0.612658  0.158243  0.614549  1
  Pd  Pd15  1  0.841757  0.387342  0.385451  1
  Pd  Pd16  1  0.158243  0.612658  0.614549  1
  Pd  Pd17  1  0.344958  0.001441  0.998559  1
  Pd  Pd18  1  0.655042  0.998559  0.001441  1
  Pd  Pd19  1  0.001441  0.344958  0.655042  1
  Pd  Pd20  1  0.998559  0.655042  0.344958  1
  Pd  Pd21  1  0.001441  0.344958  0.998559  1
  Pd  Pd22  1  0.655042  0.998559  0.344958  1
  Pd  Pd23  1  0.998559  0.655042  0.001441  1
  Pd  Pd24  1  0.344958  0.001441  0.655042  1
  Pd  Pd25  1  0.000000  0.000000  0.346289  1
  Pd  Pd26  1  0.000000  0.000000  0.653711  1
  Pd  Pd27  1  0.653711  0.346289  0.000000  1
  Pd  Pd28  1  0.346289  0.653711  0.000000  1
