# generated using pymatgen
data_NaNb8CrSe16
_symmetry_space_group_name_H-M   'P 1'
_cell_length_a   6.99627200
_cell_length_b   6.99627212
_cell_length_c   13.96276200
_cell_angle_alpha   90.00000000
_cell_angle_beta   90.00000000
_cell_angle_gamma   119.99998998
_symmetry_Int_Tables_number   1
_chemical_formula_structural   NaNb8CrSe16
_chemical_formula_sum   'Na1 Nb8 Cr1 Se16'
_cell_volume   591.88235014
_cell_formula_units_Z   1
loop_
 _symmetry_equiv_pos_site_id
 _symmetry_equiv_pos_as_xyz
  1  'x, y, z'
loop_
 _atom_site_type_symbol
 _atom_site_label
 _atom_site_symmetry_multiplicity
 _atom_site_fract_x
 _atom_site_fract_y
 _atom_site_fract_z
 _atom_site_occupancy
  Na  Na0  1  0.000000  0.000000  0.500000  1
  Nb  Nb1  1  0.000000  0.000000  0.229429  1
  Nb  Nb2  1  0.000000  0.000000  0.770571  1
  Nb  Nb3  1  0.507002  0.492998  0.228462  1
  Nb  Nb4  1  0.507002  0.014003  0.228462  1
  Nb  Nb5  1  0.985997  0.492998  0.228462  1
  Nb  Nb6  1  0.492998  0.507002  0.771538  1
  Nb  Nb7  1  0.492998  0.985997  0.771538  1
  Nb  Nb8  1  0.014003  0.507002  0.771538  1
  Cr  Cr9  1  0.000000  0.000000  0.000000  1
  Se  Se10  1  0.333333  0.666667  0.894532  1
  Se  Se11  1  0.666667  0.333333  0.105468  1
  Se  Se12  1  0.666667  0.333333  0.353242  1
  Se  Se13  1  0.333333  0.666667  0.646758  1
  Se  Se14  1  0.168530  0.831470  0.347413  1
  Se  Se15  1  0.168530  0.337062  0.347413  1
  Se  Se16  1  0.662938  0.831470  0.347413  1
  Se  Se17  1  0.831470  0.168530  0.652587  1
  Se  Se18  1  0.831470  0.662938  0.652587  1
  Se  Se19  1  0.337062  0.168530  0.652587  1
  Se  Se20  1  0.833096  0.166904  0.889996  1
  Se  Se21  1  0.833096  0.666191  0.889996  1
  Se  Se22  1  0.333809  0.166904  0.889996  1
  Se  Se23  1  0.166904  0.833096  0.110004  1
  Se  Se24  1  0.166904  0.333809  0.110004  1
  Se  Se25  1  0.666191  0.833096  0.110004  1
