# generated using pymatgen
data_Nd3MgAg2Au3
_symmetry_space_group_name_H-M   'P 1'
_cell_length_a   7.87180852
_cell_length_b   7.87180846
_cell_length_c   4.05400100
_cell_angle_alpha   90.00000000
_cell_angle_beta   90.00000000
_cell_angle_gamma   121.21093431
_symmetry_Int_Tables_number   1
_chemical_formula_structural   Nd3MgAg2Au3
_chemical_formula_sum   'Nd3 Mg1 Ag2 Au3'
_cell_volume   214.84922219
_cell_formula_units_Z   1
loop_
 _symmetry_equiv_pos_site_id
 _symmetry_equiv_pos_as_xyz
  1  'x, y, z'
loop_
 _atom_site_type_symbol
 _atom_site_label
 _atom_site_symmetry_multiplicity
 _atom_site_fract_x
 _atom_site_fract_y
 _atom_site_fract_z
 _atom_site_occupancy
  Nd  Nd0  1  0.595713  0.016739  0.000000  1
  Nd  Nd1  1  0.016739  0.595713  0.000000  1
  Nd  Nd2  1  0.381333  0.381333  0.000000  1
  Mg  Mg3  1  0.753069  0.753069  0.500000  1
  Ag  Ag4  1  0.255355  0.992058  0.500000  1
  Ag  Ag5  1  0.992058  0.255355  0.500000  1
  Au  Au6  1  0.354024  0.669878  0.500000  1
  Au  Au7  1  0.669878  0.354024  0.500000  1
  Au  Au8  1  0.981831  0.981831  0.000000  1
