# generated using pymatgen
data_PrNd7(ZnSi3)4
_symmetry_space_group_name_H-M   'P 1'
_cell_length_a   8.20949726
_cell_length_b   8.20949813
_cell_length_c   8.54064600
_cell_angle_alpha   90.00000000
_cell_angle_beta   90.00000000
_cell_angle_gamma   119.98753714
_symmetry_Int_Tables_number   1
_chemical_formula_structural   PrNd7(ZnSi3)4
_chemical_formula_sum   'Pr1 Nd7 Zn4 Si12'
_cell_volume   498.55037824
_cell_formula_units_Z   1
loop_
 _symmetry_equiv_pos_site_id
 _symmetry_equiv_pos_as_xyz
  1  'x, y, z'
loop_
 _atom_site_type_symbol
 _atom_site_label
 _atom_site_symmetry_multiplicity
 _atom_site_fract_x
 _atom_site_fract_y
 _atom_site_fract_z
 _atom_site_occupancy
  Pr  Pr0  1  0.499112  0.500888  0.750000  1
  Nd  Nd1  1  0.500876  0.499124  0.250000  1
  Nd  Nd2  1  0.001678  0.500860  0.750000  1
  Nd  Nd3  1  0.998262  0.499148  0.250000  1
  Nd  Nd4  1  0.499140  0.998322  0.750000  1
  Nd  Nd5  1  0.500852  0.001738  0.250000  1
  Nd  Nd6  1  0.000003  0.999997  0.750000  1
  Nd  Nd7  1  0.999999  0.000001  0.250000  1
  Zn  Zn8  1  0.666810  0.333190  0.997938  1
  Zn  Zn9  1  0.333208  0.666792  0.003805  1
  Zn  Zn10  1  0.333208  0.666792  0.496195  1
  Zn  Zn11  1  0.666810  0.333190  0.502062  1
  Si  Si12  1  0.834218  0.165782  0.999150  1
  Si  Si13  1  0.165799  0.834201  0.000808  1
  Si  Si14  1  0.331531  0.165577  0.999681  1
  Si  Si15  1  0.165799  0.834201  0.499192  1
  Si  Si16  1  0.668474  0.834423  0.001411  1
  Si  Si17  1  0.834218  0.165782  0.500850  1
  Si  Si18  1  0.834423  0.668469  0.999681  1
  Si  Si19  1  0.668474  0.834423  0.498589  1
  Si  Si20  1  0.165577  0.331526  0.001411  1
  Si  Si21  1  0.331531  0.165577  0.500319  1
  Si  Si22  1  0.165577  0.331526  0.498589  1
  Si  Si23  1  0.834423  0.668469  0.500319  1
