# generated using pymatgen
data_DyEr5Lu10(InIr)4
_symmetry_space_group_name_H-M   'P 1'
_cell_length_a   9.52310330
_cell_length_b   9.52311548
_cell_length_c   9.52593200
_cell_angle_alpha   59.99090265
_cell_angle_beta   59.99098568
_cell_angle_gamma   59.97636863
_symmetry_Int_Tables_number   1
_chemical_formula_structural   DyEr5Lu10(InIr)4
_chemical_formula_sum   'Dy1 Er5 Lu10 In4 Ir4'
_cell_volume   610.67897056
_cell_formula_units_Z   1
loop_
 _symmetry_equiv_pos_site_id
 _symmetry_equiv_pos_as_xyz
  1  'x, y, z'
loop_
 _atom_site_type_symbol
 _atom_site_label
 _atom_site_symmetry_multiplicity
 _atom_site_fract_x
 _atom_site_fract_y
 _atom_site_fract_z
 _atom_site_occupancy
  Dy  Dy0  1  0.190310  0.190301  0.809680  1
  Er  Er1  1  0.190334  0.809666  0.809306  1
  Er  Er2  1  0.809690  0.190328  0.190676  1
  Er  Er3  1  0.809673  0.190331  0.809306  1
  Er  Er4  1  0.190346  0.809684  0.190659  1
  Er  Er5  1  0.809904  0.809908  0.190096  1
  Lu  Lu6  1  0.598624  0.598623  0.597522  1
  Lu  Lu7  1  0.598618  0.598625  0.205232  1
  Lu  Lu8  1  0.599313  0.204325  0.598184  1
  Lu  Lu9  1  0.204322  0.599311  0.598183  1
  Lu  Lu10  1  0.059607  0.439769  0.440038  1
  Lu  Lu11  1  0.439747  0.059601  0.060603  1
  Lu  Lu12  1  0.439755  0.059603  0.440040  1
  Lu  Lu13  1  0.059626  0.439746  0.060598  1
  Lu  Lu14  1  0.439849  0.439859  0.060144  1
  Lu  Lu15  1  0.059977  0.059982  0.440021  1
  In  In16  1  0.833081  0.833096  0.833160  1
  In  In17  1  0.833113  0.833108  0.500653  1
  In  In18  1  0.832771  0.501163  0.833027  1
  In  In19  1  0.501158  0.832781  0.833046  1
  Ir  Ir20  1  0.391038  0.391042  0.390610  1
  Ir  Ir21  1  0.391043  0.391046  0.827310  1
  Ir  Ir22  1  0.391021  0.827082  0.390954  1
  Ir  Ir23  1  0.827080  0.391018  0.390954  1
