# generated using pymatgen
data_La2Dy3(Ni2Sn5)2
_symmetry_space_group_name_H-M   'P 1'
_cell_length_a   13.86831500
_cell_length_b   13.86831500
_cell_length_c   4.50995900
_cell_angle_alpha   90.00000000
_cell_angle_beta   90.00000000
_cell_angle_gamma   90.00000000
_symmetry_Int_Tables_number   1
_chemical_formula_structural   La2Dy3(Ni2Sn5)2
_chemical_formula_sum   'La4 Dy6 Ni8 Sn20'
_cell_volume   867.40114030
_cell_formula_units_Z   2
loop_
 _symmetry_equiv_pos_site_id
 _symmetry_equiv_pos_as_xyz
  1  'x, y, z'
loop_
 _atom_site_type_symbol
 _atom_site_label
 _atom_site_symmetry_multiplicity
 _atom_site_fract_x
 _atom_site_fract_y
 _atom_site_fract_z
 _atom_site_occupancy
  La  La0  1  0.890571  0.390571  0.500000  1
  La  La1  1  0.109429  0.609429  0.500000  1
  La  La2  1  0.390571  0.109429  0.500000  1
  La  La3  1  0.609429  0.890571  0.500000  1
  Dy  Dy4  1  0.500000  0.500000  0.000000  1
  Dy  Dy5  1  0.000000  0.000000  0.000000  1
  Dy  Dy6  1  0.679989  0.179989  0.500000  1
  Dy  Dy7  1  0.320011  0.820011  0.500000  1
  Dy  Dy8  1  0.179989  0.320011  0.500000  1
  Dy  Dy9  1  0.820011  0.679989  0.500000  1
  Ni  Ni10  1  0.742944  0.534633  0.000000  1
  Ni  Ni11  1  0.257056  0.465367  0.000000  1
  Ni  Ni12  1  0.242944  0.965367  0.000000  1
  Ni  Ni13  1  0.757056  0.034633  0.000000  1
  Ni  Ni14  1  0.465367  0.742944  0.000000  1
  Ni  Ni15  1  0.534633  0.257056  0.000000  1
  Ni  Ni16  1  0.034633  0.242944  0.000000  1
  Ni  Ni17  1  0.965367  0.757056  0.000000  1
  Sn  Sn18  1  0.572933  0.072933  0.000000  1
  Sn  Sn19  1  0.427067  0.927067  0.000000  1
  Sn  Sn20  1  0.072933  0.427067  0.000000  1
  Sn  Sn21  1  0.927067  0.572933  0.000000  1
  Sn  Sn22  1  0.649580  0.699270  0.000000  1
  Sn  Sn23  1  0.350420  0.300730  0.000000  1
  Sn  Sn24  1  0.149580  0.800730  0.000000  1
  Sn  Sn25  1  0.850420  0.199270  0.000000  1
  Sn  Sn26  1  0.300730  0.649580  0.000000  1
  Sn  Sn27  1  0.699270  0.350420  0.000000  1
  Sn  Sn28  1  0.199270  0.149580  0.000000  1
  Sn  Sn29  1  0.800730  0.850420  0.000000  1
  Sn  Sn30  1  0.664211  0.510456  0.500000  1
  Sn  Sn31  1  0.335789  0.489544  0.500000  1
  Sn  Sn32  1  0.164211  0.989544  0.500000  1
  Sn  Sn33  1  0.835789  0.010456  0.500000  1
  Sn  Sn34  1  0.489544  0.664211  0.500000  1
  Sn  Sn35  1  0.510456  0.335789  0.500000  1
  Sn  Sn36  1  0.010456  0.164211  0.500000  1
  Sn  Sn37  1  0.989544  0.835789  0.500000  1
