# generated using pymatgen
data_Tm5Cd2(HgPt)2
_symmetry_space_group_name_H-M   'P 1'
_cell_length_a   3.58754200
_cell_length_b   7.90125800
_cell_length_c   18.22982700
_cell_angle_alpha   90.00000000
_cell_angle_beta   90.00000000
_cell_angle_gamma   90.00000000
_symmetry_Int_Tables_number   1
_chemical_formula_structural   Tm5Cd2(HgPt)2
_chemical_formula_sum   'Tm10 Cd4 Hg4 Pt4'
_cell_volume   516.74440666
_cell_formula_units_Z   2
loop_
 _symmetry_equiv_pos_site_id
 _symmetry_equiv_pos_as_xyz
  1  'x, y, z'
loop_
 _atom_site_type_symbol
 _atom_site_label
 _atom_site_symmetry_multiplicity
 _atom_site_fract_x
 _atom_site_fract_y
 _atom_site_fract_z
 _atom_site_occupancy
  Tm  Tm0  1  0.000000  0.109777  0.414963  1
  Tm  Tm1  1  0.000000  0.890223  0.585037  1
  Tm  Tm2  1  0.000000  0.390223  0.914963  1
  Tm  Tm3  1  0.000000  0.609777  0.085037  1
  Tm  Tm4  1  0.000000  0.242668  0.216617  1
  Tm  Tm5  1  0.000000  0.757332  0.783383  1
  Tm  Tm6  1  0.000000  0.257332  0.716617  1
  Tm  Tm7  1  0.000000  0.742668  0.283383  1
  Tm  Tm8  1  0.000000  0.000000  0.000000  1
  Tm  Tm9  1  0.000000  0.500000  0.500000  1
  Cd  Cd10  1  0.500000  0.422643  0.352615  1
  Cd  Cd11  1  0.500000  0.577357  0.647385  1
  Cd  Cd12  1  0.500000  0.077357  0.852615  1
  Cd  Cd13  1  0.500000  0.922643  0.147385  1
  Hg  Hg14  1  0.500000  0.283545  0.062272  1
  Hg  Hg15  1  0.500000  0.716455  0.937728  1
  Hg  Hg16  1  0.500000  0.216455  0.562272  1
  Hg  Hg17  1  0.500000  0.783545  0.437728  1
  Pt  Pt18  1  0.500000  0.030495  0.302868  1
  Pt  Pt19  1  0.500000  0.969505  0.697132  1
  Pt  Pt20  1  0.500000  0.469505  0.802868  1
  Pt  Pt21  1  0.500000  0.530495  0.197132  1
