# generated using pymatgen
data_Tb3HoAl14(Ga2Ir3)2
_symmetry_space_group_name_H-M   'P 1'
_cell_length_a   7.53988531
_cell_length_b   7.53987728
_cell_length_c   9.56845900
_cell_angle_alpha   90.00000000
_cell_angle_beta   90.00000000
_cell_angle_gamma   119.50561678
_symmetry_Int_Tables_number   1
_chemical_formula_structural   Tb3HoAl14(Ga2Ir3)2
_chemical_formula_sum   'Tb3 Ho1 Al14 Ga4 Ir6'
_cell_volume   473.41684051
_cell_formula_units_Z   1
loop_
 _symmetry_equiv_pos_site_id
 _symmetry_equiv_pos_as_xyz
  1  'x, y, z'
loop_
 _atom_site_type_symbol
 _atom_site_label
 _atom_site_symmetry_multiplicity
 _atom_site_fract_x
 _atom_site_fract_y
 _atom_site_fract_z
 _atom_site_occupancy
  Tb  Tb0  1  0.002286  0.326420  0.750000  1
  Tb  Tb1  1  0.669982  0.993275  0.250000  1
  Tb  Tb2  1  0.330100  0.006634  0.750000  1
  Ho  Ho3  1  0.997825  0.673764  0.250000  1
  Al  Al4  1  0.001630  0.335492  0.073418  1
  Al  Al5  1  0.998405  0.664933  0.927381  1
  Al  Al6  1  0.998405  0.664933  0.572619  1
  Al  Al7  1  0.335292  0.002008  0.426386  1
  Al  Al8  1  0.001630  0.335492  0.426582  1
  Al  Al9  1  0.664303  0.997614  0.573213  1
  Al  Al10  1  0.664303  0.997614  0.926787  1
  Al  Al11  1  0.335292  0.002008  0.073614  1
  Al  Al12  1  0.333707  0.334169  0.553905  1
  Al  Al13  1  0.666575  0.665762  0.445527  1
  Al  Al14  1  0.666575  0.665762  0.054473  1
  Al  Al15  1  0.333707  0.334169  0.946095  1
  Al  Al16  1  0.549369  0.339193  0.250000  1
  Al  Al17  1  0.451102  0.661187  0.750000  1
  Ga  Ga18  1  0.130428  0.130845  0.250000  1
  Ga  Ga19  1  0.869525  0.868599  0.750000  1
  Ga  Ga20  1  0.337654  0.545674  0.250000  1
  Ga  Ga21  1  0.662149  0.454605  0.750000  1
  Ir  Ir22  1  0.671185  0.328291  0.002587  1
  Ir  Ir23  1  0.328879  0.671850  0.997756  1
  Ir  Ir24  1  0.328879  0.671850  0.502244  1
  Ir  Ir25  1  0.671185  0.328291  0.497413  1
  Ir  Ir26  1  0.999813  0.999782  0.000259  1
  Ir  Ir27  1  0.999813  0.999782  0.499741  1
