# generated using pymatgen
data_Tm3Np(NiP)4
_symmetry_space_group_name_H-M   'P 1'
_cell_length_a   3.89801900
_cell_length_b   3.89801884
_cell_length_c   15.12689800
_cell_angle_alpha   90.00000000
_cell_angle_beta   90.00000000
_cell_angle_gamma   120.00000988
_symmetry_Int_Tables_number   1
_chemical_formula_structural   Tm3Np(NiP)4
_chemical_formula_sum   'Tm3 Np1 Ni4 P4'
_cell_volume   199.05282792
_cell_formula_units_Z   1
loop_
 _symmetry_equiv_pos_site_id
 _symmetry_equiv_pos_as_xyz
  1  'x, y, z'
loop_
 _atom_site_type_symbol
 _atom_site_label
 _atom_site_symmetry_multiplicity
 _atom_site_fract_x
 _atom_site_fract_y
 _atom_site_fract_z
 _atom_site_occupancy
  Tm  Tm0  1  0.000000  0.000000  0.000000  1
  Tm  Tm1  1  0.000000  0.000000  0.247657  1
  Tm  Tm2  1  0.000000  0.000000  0.752343  1
  Np  Np3  1  0.000000  0.000000  0.500000  1
  Ni  Ni4  1  0.333333  0.666667  0.369673  1
  Ni  Ni5  1  0.666667  0.333333  0.630327  1
  Ni  Ni6  1  0.666667  0.333333  0.869434  1
  Ni  Ni7  1  0.333333  0.666667  0.130566  1
  P  P8  1  0.333333  0.666667  0.878438  1
  P  P9  1  0.666667  0.333333  0.121562  1
  P  P10  1  0.666667  0.333333  0.377358  1
  P  P11  1  0.333333  0.666667  0.622642  1
