# generated using pymatgen
data_ZrMn5(GaRh2)6
_symmetry_space_group_name_H-M   'P 1'
_cell_length_a   4.33175900
_cell_length_b   6.12008400
_cell_length_c   12.98498200
_cell_angle_alpha   90.00001377
_cell_angle_beta   90.00042784
_cell_angle_gamma   89.99976861
_symmetry_Int_Tables_number   1
_chemical_formula_structural   ZrMn5(GaRh2)6
_chemical_formula_sum   'Zr1 Mn5 Ga6 Rh12'
_cell_volume   344.24133819
_cell_formula_units_Z   1
loop_
 _symmetry_equiv_pos_site_id
 _symmetry_equiv_pos_as_xyz
  1  'x, y, z'
loop_
 _atom_site_type_symbol
 _atom_site_label
 _atom_site_symmetry_multiplicity
 _atom_site_fract_x
 _atom_site_fract_y
 _atom_site_fract_z
 _atom_site_occupancy
  Zr  Zr0  1  0.000000  0.500000  0.000000  1
  Mn  Mn1  1  0.499786  0.000000  0.169839  1
  Mn  Mn2  1  0.999790  0.500000  0.334581  1
  Mn  Mn3  1  0.499999  0.000000  0.500000  1
  Mn  Mn4  1  0.000210  0.500000  0.665419  1
  Mn  Mn5  1  0.500214  0.000000  0.830160  1
  Ga  Ga6  1  0.000000  0.000000  0.000000  1
  Ga  Ga7  1  0.499817  0.500000  0.171054  1
  Ga  Ga8  1  0.999786  0.000000  0.337348  1
  Ga  Ga9  1  0.499999  0.500000  0.500000  1
  Ga  Ga10  1  0.000214  0.000000  0.662651  1
  Ga  Ga11  1  0.500183  0.500000  0.828945  1
  Rh  Rh12  1  0.500000  0.239374  0.999999  1
  Rh  Rh13  1  0.499998  0.760626  0.000001  1
  Rh  Rh14  1  0.999798  0.245384  0.169705  1
  Rh  Rh15  1  0.999797  0.754615  0.169706  1
  Rh  Rh16  1  0.499801  0.248965  0.334094  1
  Rh  Rh17  1  0.499799  0.751035  0.334093  1
  Rh  Rh18  1  0.999998  0.250862  0.500000  1
  Rh  Rh19  1  0.000002  0.749138  0.500000  1
  Rh  Rh20  1  0.500201  0.248965  0.665907  1
  Rh  Rh21  1  0.500199  0.751035  0.665906  1
  Rh  Rh22  1  0.000203  0.245385  0.830294  1
  Rh  Rh23  1  0.000202  0.754616  0.830295  1
