# generated using pymatgen
data_GdLu(WF7)2
_symmetry_space_group_name_H-M   'P 1'
_cell_length_a   5.69994553
_cell_length_b   9.05587647
_cell_length_c   12.25083900
_cell_angle_alpha   62.75967561
_cell_angle_beta   89.92776640
_cell_angle_gamma   90.02087390
_symmetry_Int_Tables_number   1
_chemical_formula_structural   GdLu(WF7)2
_chemical_formula_sum   'Gd2 Lu2 W4 F28'
_cell_volume   562.23041829
_cell_formula_units_Z   2
loop_
 _symmetry_equiv_pos_site_id
 _symmetry_equiv_pos_as_xyz
  1  'x, y, z'
loop_
 _atom_site_type_symbol
 _atom_site_label
 _atom_site_symmetry_multiplicity
 _atom_site_fract_x
 _atom_site_fract_y
 _atom_site_fract_z
 _atom_site_occupancy
  Gd  Gd0  1  0.250469  0.815879  0.267456  1
  Gd  Gd1  1  0.749531  0.184121  0.732544  1
  Lu  Lu2  1  0.750526  0.187556  0.232491  1
  Lu  Lu3  1  0.249474  0.812444  0.767509  1
  W  W4  1  0.755307  0.722644  0.042036  1
  W  W5  1  0.244693  0.277356  0.957964  1
  W  W6  1  0.256113  0.269027  0.453683  1
  W  W7  1  0.743887  0.730973  0.546317  1
  F  F8  1  0.962972  0.709514  0.420405  1
  F  F9  1  0.037028  0.290486  0.579595  1
  F  F10  1  0.470116  0.291363  0.085012  1
  F  F11  1  0.529884  0.708637  0.914988  1
  F  F12  1  0.479311  0.731514  0.139252  1
  F  F13  1  0.520689  0.268486  0.860748  1
  F  F14  1  0.980396  0.263213  0.354306  1
  F  F15  1  0.019604  0.736787  0.645694  1
  F  F16  1  0.967056  0.742514  0.171169  1
  F  F17  1  0.032944  0.257486  0.828831  1
  F  F18  1  0.474422  0.248986  0.325537  1
  F  F19  1  0.525578  0.751014  0.674463  1
  F  F20  1  0.777064  0.475474  0.141185  1
  F  F21  1  0.222936  0.524526  0.858815  1
  F  F22  1  0.276304  0.516284  0.358853  1
  F  F23  1  0.723696  0.483716  0.641147  1
  F  F24  1  0.956181  0.279912  0.052716  1
  F  F25  1  0.043819  0.720088  0.947284  1
  F  F26  1  0.458544  0.721548  0.453434  1
  F  F27  1  0.541456  0.278452  0.546566  1
  F  F28  1  0.740242  0.976582  0.445183  1
  F  F29  1  0.259758  0.023418  0.554817  1
  F  F30  1  0.243592  0.030753  0.055081  1
  F  F31  1  0.756408  0.969247  0.944919  1
  F  F32  1  0.574878  0.978856  0.236139  1
  F  F33  1  0.425122  0.021144  0.763861  1
  F  F34  1  0.058513  0.033200  0.264181  1
  F  F35  1  0.941487  0.966800  0.735819  1
