# generated using pymatgen
data_K2LiTaO4
_symmetry_space_group_name_H-M   'P 1'
_cell_length_a   5.84858193
_cell_length_b   5.84858172
_cell_length_c   8.26541050
_cell_angle_alpha   90.59976858
_cell_angle_beta   90.59976915
_cell_angle_gamma   85.72457874
_symmetry_Int_Tables_number   1
_chemical_formula_structural   K2LiTaO4
_chemical_formula_sum   'K4 Li2 Ta2 O8'
_cell_volume   281.91036297
_cell_formula_units_Z   2
loop_
 _symmetry_equiv_pos_site_id
 _symmetry_equiv_pos_as_xyz
  1  'x, y, z'
loop_
 _atom_site_type_symbol
 _atom_site_label
 _atom_site_symmetry_multiplicity
 _atom_site_fract_x
 _atom_site_fract_y
 _atom_site_fract_z
 _atom_site_occupancy
  K  K0  1  0.265654  0.265654  0.219013  1
  K  K1  1  0.220758  0.779242  0.500000  1
  K  K2  1  0.734346  0.734346  0.780987  1
  K  K3  1  0.779242  0.220758  0.500000  1
  Li  Li4  1  0.175429  0.824571  0.000000  1
  Li  Li5  1  0.824571  0.175429  0.000000  1
  Ta  Ta6  1  0.310738  0.310738  0.774447  1
  Ta  Ta7  1  0.689262  0.689262  0.225553  1
  O  O8  1  0.754781  0.373724  0.194125  1
  O  O9  1  0.852958  0.852958  0.079057  1
  O  O10  1  0.373724  0.754781  0.194125  1
  O  O11  1  0.147042  0.147042  0.920943  1
  O  O12  1  0.756570  0.756570  0.443799  1
  O  O13  1  0.626276  0.245219  0.805875  1
  O  O14  1  0.245219  0.626276  0.805875  1
  O  O15  1  0.243430  0.243430  0.556201  1
