# generated using pymatgen
data_Tm4B12IrW
_symmetry_space_group_name_H-M   'P 1'
_cell_length_a   3.61080700
_cell_length_b   9.14696108
_cell_length_c   11.54211913
_cell_angle_alpha   89.68951686
_cell_angle_beta   90.00000000
_cell_angle_gamma   90.00000000
_symmetry_Int_Tables_number   1
_chemical_formula_structural   Tm4B12IrW
_chemical_formula_sum   'Tm8 B24 Ir2 W2'
_cell_volume   381.20648724
_cell_formula_units_Z   2
loop_
 _symmetry_equiv_pos_site_id
 _symmetry_equiv_pos_as_xyz
  1  'x, y, z'
loop_
 _atom_site_type_symbol
 _atom_site_label
 _atom_site_symmetry_multiplicity
 _atom_site_fract_x
 _atom_site_fract_y
 _atom_site_fract_z
 _atom_site_occupancy
  Tm  Tm0  1  0.000000  0.324594  0.416782  1
  Tm  Tm1  1  0.000000  0.675406  0.583218  1
  Tm  Tm2  1  0.000000  0.816816  0.088603  1
  Tm  Tm3  1  0.000000  0.183184  0.911397  1
  Tm  Tm4  1  0.000000  0.943210  0.373941  1
  Tm  Tm5  1  0.000000  0.056790  0.626059  1
  Tm  Tm6  1  0.000000  0.444935  0.127253  1
  Tm  Tm7  1  0.000000  0.555065  0.872747  1
  B  B8  1  0.500000  0.551146  0.434605  1
  B  B9  1  0.500000  0.448854  0.565395  1
  B  B10  1  0.500000  0.053787  0.065181  1
  B  B11  1  0.500000  0.946213  0.934819  1
  B  B12  1  0.500000  0.750973  0.421255  1
  B  B13  1  0.500000  0.249027  0.578745  1
  B  B14  1  0.500000  0.249510  0.078855  1
  B  B15  1  0.500000  0.750490  0.921145  1
  B  B16  1  0.500000  0.796131  0.263072  1
  B  B17  1  0.500000  0.203869  0.736928  1
  B  B18  1  0.500000  0.290838  0.234051  1
  B  B19  1  0.500000  0.709162  0.765949  1
  B  B20  1  0.500000  0.632163  0.182028  1
  B  B21  1  0.500000  0.367837  0.817972  1
  B  B22  1  0.500000  0.131269  0.315623  1
  B  B23  1  0.500000  0.868731  0.684377  1
  B  B24  1  0.500000  0.982263  0.211753  1
  B  B25  1  0.500000  0.017737  0.788247  1
  B  B26  1  0.500000  0.478121  0.286075  1
  B  B27  1  0.500000  0.521879  0.713925  1
  B  B28  1  0.500000  0.606673  0.028170  1
  B  B29  1  0.500000  0.393327  0.971830  1
  B  B30  1  0.500000  0.104232  0.470115  1
  B  B31  1  0.500000  0.895768  0.529885  1
  Ir  Ir32  1  0.000000  0.137129  0.177811  1
  Ir  Ir33  1  0.000000  0.862871  0.822189  1
  W  W34  1  0.000000  0.638641  0.319517  1
  W  W35  1  0.000000  0.361359  0.680483  1
