# generated using pymatgen
data_Yb4GaSbPd10
_symmetry_space_group_name_H-M   'P 1'
_cell_length_a   4.25568100
_cell_length_b   5.77466055
_cell_length_c   11.32877479
_cell_angle_alpha   89.76066607
_cell_angle_beta   90.00000000
_cell_angle_gamma   90.00000000
_symmetry_Int_Tables_number   1
_chemical_formula_structural   Yb4GaSbPd10
_chemical_formula_sum   'Yb4 Ga1 Sb1 Pd10'
_cell_volume   278.40349398
_cell_formula_units_Z   1
loop_
 _symmetry_equiv_pos_site_id
 _symmetry_equiv_pos_as_xyz
  1  'x, y, z'
loop_
 _atom_site_type_symbol
 _atom_site_label
 _atom_site_symmetry_multiplicity
 _atom_site_fract_x
 _atom_site_fract_y
 _atom_site_fract_z
 _atom_site_occupancy
  Yb  Yb0  1  0.000000  0.813735  0.644661  1
  Yb  Yb1  1  0.000000  0.310409  0.864164  1
  Yb  Yb2  1  0.000000  0.186265  0.355339  1
  Yb  Yb3  1  0.000000  0.689591  0.135836  1
  Ga  Ga4  1  0.500000  0.000000  0.000000  1
  Sb  Sb5  1  0.500000  0.500000  0.500000  1
  Pd  Pd6  1  0.000000  0.809577  0.894719  1
  Pd  Pd7  1  0.000000  0.699558  0.387496  1
  Pd  Pd8  1  0.000000  0.300442  0.612504  1
  Pd  Pd9  1  0.500000  0.943242  0.239765  1
  Pd  Pd10  1  0.500000  0.443535  0.250367  1
  Pd  Pd11  1  0.500000  0.556465  0.749633  1
  Pd  Pd12  1  0.500000  0.056758  0.760235  1
  Pd  Pd13  1  0.500000  0.500000  0.000000  1
  Pd  Pd14  1  0.500000  0.000000  0.500000  1
  Pd  Pd15  1  0.000000  0.190423  0.105281  1
