# generated using pymatgen
data_Tb19Y(IrPt2)4
_symmetry_space_group_name_H-M   'P 1'
_cell_length_a   11.10617930
_cell_length_b   11.10600898
_cell_length_c   6.36015543
_cell_angle_alpha   89.95889123
_cell_angle_beta   89.99162134
_cell_angle_gamma   90.02519480
_symmetry_Int_Tables_number   1
_chemical_formula_structural   Tb19Y(IrPt2)4
_chemical_formula_sum   'Tb19 Y1 Ir4 Pt8'
_cell_volume   784.49516498
_cell_formula_units_Z   1
loop_
 _symmetry_equiv_pos_site_id
 _symmetry_equiv_pos_as_xyz
  1  'x, y, z'
loop_
 _atom_site_type_symbol
 _atom_site_label
 _atom_site_symmetry_multiplicity
 _atom_site_fract_x
 _atom_site_fract_y
 _atom_site_fract_z
 _atom_site_occupancy
  Tb  Tb0  1  0.294995  0.088066  0.374246  1
  Tb  Tb1  1  0.294906  0.912025  0.874337  1
  Tb  Tb2  1  0.705150  0.088093  0.874301  1
  Tb  Tb3  1  0.705122  0.911990  0.374428  1
  Tb  Tb4  1  0.587943  0.795030  0.874423  1
  Tb  Tb5  1  0.587987  0.204952  0.374382  1
  Tb  Tb6  1  0.412011  0.795000  0.374380  1
  Tb  Tb7  1  0.411990  0.205000  0.874311  1
  Tb  Tb8  1  0.204894  0.411886  0.625495  1
  Tb  Tb9  1  0.204945  0.587815  0.125752  1
  Tb  Tb10  1  0.795262  0.411929  0.125679  1
  Tb  Tb11  1  0.794887  0.588104  0.625641  1
  Tb  Tb12  1  0.911993  0.705018  0.125800  1
  Tb  Tb13  1  0.912083  0.295010  0.625445  1
  Tb  Tb14  1  0.088029  0.705256  0.625810  1
  Tb  Tb15  1  0.999975  0.000090  0.499803  1
  Tb  Tb16  1  0.000008  0.999998  0.000024  1
  Tb  Tb17  1  0.499991  0.499972  0.000086  1
  Tb  Tb18  1  0.499981  0.500027  0.500082  1
  Y  Y19  1  0.088097  0.294595  0.125759  1
  Ir  Ir20  1  0.499976  0.000032  0.120166  1
  Ir  Ir21  1  0.499952  0.999970  0.620309  1
  Ir  Ir22  1  0.999894  0.500286  0.879267  1
  Ir  Ir23  1  0.999871  0.500246  0.380126  1
  Pt  Pt24  1  0.846245  0.153648  0.249988  1
  Pt  Pt25  1  0.846272  0.846211  0.750017  1
  Pt  Pt26  1  0.153644  0.153578  0.749726  1
  Pt  Pt27  1  0.153708  0.846178  0.249948  1
  Pt  Pt28  1  0.653651  0.346410  0.750018  1
  Pt  Pt29  1  0.653666  0.653653  0.250029  1
  Pt  Pt30  1  0.346579  0.346291  0.250160  1
  Pt  Pt31  1  0.346291  0.653640  0.750061  1
