# generated using pymatgen
data_Cs14LiV2(InP2)5
_symmetry_space_group_name_H-M   'P 1'
_cell_length_a   8.81348580
_cell_length_b   9.60150473
_cell_length_c   14.72637782
_cell_angle_alpha   85.70280816
_cell_angle_beta   84.42088796
_cell_angle_gamma   84.23463917
_symmetry_Int_Tables_number   1
_chemical_formula_structural   Cs14LiV2(InP2)5
_chemical_formula_sum   'Cs14 Li1 V2 In5 P10'
_cell_volume   1231.33426552
_cell_formula_units_Z   1
loop_
 _symmetry_equiv_pos_site_id
 _symmetry_equiv_pos_as_xyz
  1  'x, y, z'
loop_
 _atom_site_type_symbol
 _atom_site_label
 _atom_site_symmetry_multiplicity
 _atom_site_fract_x
 _atom_site_fract_y
 _atom_site_fract_z
 _atom_site_occupancy
  Cs  Cs0  1  0.846433  0.364401  0.651799  1
  Cs  Cs1  1  0.815188  0.803936  0.136455  1
  Cs  Cs2  1  0.236756  0.009651  0.471997  1
  Cs  Cs3  1  0.272727  0.257475  0.251578  1
  Cs  Cs4  1  0.737827  0.493411  0.976046  1
  Cs  Cs5  1  0.265438  0.497326  0.024356  1
  Cs  Cs6  1  0.665911  0.088127  0.882140  1
  Cs  Cs7  1  0.759422  0.992658  0.533919  1
  Cs  Cs8  1  0.726825  0.738721  0.751829  1
  Cs  Cs9  1  0.333528  0.347938  0.603727  1
  Cs  Cs10  1  0.156650  0.635178  0.352733  1
  Cs  Cs11  1  0.177008  0.195945  0.866779  1
  Cs  Cs12  1  0.328623  0.916240  0.113518  1
  Cs  Cs13  1  0.662053  0.652101  0.404461  1
  Li  Li14  1  0.105450  0.808507  0.824832  1
  V  V15  1  0.349491  0.609156  0.777657  1
  V  V16  1  0.647629  0.392291  0.226164  1
  In  In17  1  0.935787  0.186428  0.134081  1
  In  In18  1  0.354503  0.943094  0.710686  1
  In  In19  1  0.100723  0.722801  0.631289  1
  In  In20  1  0.896223  0.277512  0.371046  1
  In  In21  1  0.642024  0.058649  0.293525  1
  P  P22  1  0.900768  0.443639  0.211609  1
  P  P23  1  0.627265  0.211931  0.129297  1
  P  P24  1  0.096341  0.556011  0.787384  1
  P  P25  1  0.587388  0.303955  0.376692  1
  P  P26  1  0.410844  0.697593  0.627133  1
  P  P27  1  0.033035  0.990735  0.705236  1
  P  P28  1  0.502379  0.416906  0.809696  1
  P  P29  1  0.496639  0.584545  0.193797  1
  P  P30  1  0.369144  0.791822  0.873544  1
  P  P31  1  0.959979  0.011315  0.294993  1
