# generated using pymatgen
data_CsHgPdF6
_symmetry_space_group_name_H-M   'P 1'
_cell_length_a   8.45315800
_cell_length_b   7.68427900
_cell_length_c   10.59863500
_cell_angle_alpha   90.00000000
_cell_angle_beta   90.00000000
_cell_angle_gamma   90.00000000
_symmetry_Int_Tables_number   1
_chemical_formula_structural   CsHgPdF6
_chemical_formula_sum   'Cs4 Hg4 Pd4 F24'
_cell_volume   688.44943421
_cell_formula_units_Z   4
loop_
 _symmetry_equiv_pos_site_id
 _symmetry_equiv_pos_as_xyz
  1  'x, y, z'
loop_
 _atom_site_type_symbol
 _atom_site_label
 _atom_site_symmetry_multiplicity
 _atom_site_fract_x
 _atom_site_fract_y
 _atom_site_fract_z
 _atom_site_occupancy
  Cs  Cs0  1  0.488556  0.249998  0.101294  1
  Cs  Cs1  1  0.011445  0.750001  0.601295  1
  Cs  Cs2  1  0.988556  0.249998  0.398705  1
  Cs  Cs3  1  0.511444  0.750001  0.898705  1
  Hg  Hg4  1  0.000000  0.000000  0.000000  1
  Hg  Hg5  1  0.500000  0.000000  0.499999  1
  Hg  Hg6  1  0.500000  0.499999  0.499999  1
  Hg  Hg7  1  0.000000  0.499999  0.000000  1
  Pd  Pd8  1  0.260007  0.249998  0.754313  1
  Pd  Pd9  1  0.239992  0.750001  0.254312  1
  Pd  Pd10  1  0.760007  0.249998  0.745688  1
  Pd  Pd11  1  0.739992  0.750001  0.245688  1
  F  F12  1  0.009792  0.249998  0.757177  1
  F  F13  1  0.490208  0.750001  0.257178  1
  F  F14  1  0.509792  0.249998  0.742823  1
  F  F15  1  0.990210  0.750001  0.242822  1
  F  F16  1  0.997721  0.249998  0.105410  1
  F  F17  1  0.502279  0.750001  0.605409  1
  F  F18  1  0.497721  0.249998  0.394590  1
  F  F19  1  0.002278  0.750001  0.894590  1
  F  F20  1  0.262883  0.066046  0.621618  1
  F  F21  1  0.237116  0.933952  0.121617  1
  F  F22  1  0.762883  0.433953  0.878383  1
  F  F23  1  0.737116  0.566046  0.378384  1
  F  F24  1  0.737116  0.933952  0.378384  1
  F  F25  1  0.762883  0.066046  0.878383  1
  F  F26  1  0.237116  0.566046  0.121617  1
  F  F27  1  0.262883  0.433953  0.621618  1
  F  F28  1  0.255040  0.067688  0.887766  1
  F  F29  1  0.244960  0.932313  0.387766  1
  F  F30  1  0.755039  0.432315  0.612234  1
  F  F31  1  0.744960  0.567687  0.112233  1
  F  F32  1  0.744960  0.932313  0.112233  1
  F  F33  1  0.755039  0.067688  0.612234  1
  F  F34  1  0.244960  0.567687  0.387766  1
  F  F35  1  0.255040  0.432315  0.887766  1
