# generated using pymatgen
data_Lu3MgZn2Pd3
_symmetry_space_group_name_H-M   'P 1'
_cell_length_a   7.33086547
_cell_length_b   7.33086439
_cell_length_c   3.79351500
_cell_angle_alpha   90.00000000
_cell_angle_beta   90.00000000
_cell_angle_gamma   119.70389585
_symmetry_Int_Tables_number   1
_chemical_formula_structural   Lu3MgZn2Pd3
_chemical_formula_sum   'Lu3 Mg1 Zn2 Pd3'
_cell_volume   177.08059721
_cell_formula_units_Z   1
loop_
 _symmetry_equiv_pos_site_id
 _symmetry_equiv_pos_as_xyz
  1  'x, y, z'
loop_
 _atom_site_type_symbol
 _atom_site_label
 _atom_site_symmetry_multiplicity
 _atom_site_fract_x
 _atom_site_fract_y
 _atom_site_fract_z
 _atom_site_occupancy
  Lu  Lu0  1  0.614325  0.614325  0.000000  1
  Lu  Lu1  1  0.412595  0.985079  0.000000  1
  Lu  Lu2  1  0.985079  0.412595  0.000000  1
  Mg  Mg3  1  0.245983  0.245983  0.500000  1
  Zn  Zn4  1  0.746877  0.006690  0.500000  1
  Zn  Zn5  1  0.006690  0.746877  0.500000  1
  Pd  Pd6  1  0.993945  0.993945  0.000000  1
  Pd  Pd7  1  0.660063  0.334443  0.500000  1
  Pd  Pd8  1  0.334443  0.660063  0.500000  1
