# generated using pymatgen
data_Ta4Si2Os9Ru
_symmetry_space_group_name_H-M   'P 1'
_cell_length_a   4.12251900
_cell_length_b   5.43879469
_cell_length_c   10.66770527
_cell_angle_alpha   89.94312182
_cell_angle_beta   90.00000000
_cell_angle_gamma   90.00000000
_symmetry_Int_Tables_number   1
_chemical_formula_structural   Ta4Si2Os9Ru
_chemical_formula_sum   'Ta4 Si2 Os9 Ru1'
_cell_volume   239.18620345
_cell_formula_units_Z   1
loop_
 _symmetry_equiv_pos_site_id
 _symmetry_equiv_pos_as_xyz
  1  'x, y, z'
loop_
 _atom_site_type_symbol
 _atom_site_label
 _atom_site_symmetry_multiplicity
 _atom_site_fract_x
 _atom_site_fract_y
 _atom_site_fract_z
 _atom_site_occupancy
  Ta  Ta0  1  0.500000  0.826725  0.361539  1
  Ta  Ta1  1  0.500000  0.165636  0.642032  1
  Ta  Ta2  1  0.500000  0.327161  0.138975  1
  Ta  Ta3  1  0.500000  0.666726  0.857344  1
  Si  Si4  1  0.000000  0.508647  0.498176  1
  Si  Si5  1  0.000000  0.007162  0.002531  1
  Os  Os6  1  0.000000  0.520191  0.992936  1
  Os  Os7  1  0.000000  0.020320  0.507557  1
  Os  Os8  1  0.000000  0.574129  0.244230  1
  Os  Os9  1  0.000000  0.407747  0.741284  1
  Os  Os10  1  0.000000  0.073725  0.255825  1
  Os  Os11  1  0.000000  0.906799  0.758545  1
  Os  Os12  1  0.500000  0.820488  0.107095  1
  Os  Os13  1  0.500000  0.177774  0.894667  1
  Os  Os14  1  0.500000  0.320257  0.392912  1
  Ru  Ru15  1  0.500000  0.676517  0.604353  1
