# generated using pymatgen
data_Tb8SbPd23Pt
_symmetry_space_group_name_H-M   'P 1'
_cell_length_a   8.44201700
_cell_length_b   8.42176400
_cell_length_c   8.42176400
_cell_angle_alpha   90.00000000
_cell_angle_beta   90.00000000
_cell_angle_gamma   90.00000000
_symmetry_Int_Tables_number   1
_chemical_formula_structural   Tb8SbPd23Pt
_chemical_formula_sum   'Tb8 Sb1 Pd23 Pt1'
_cell_volume   598.75941684
_cell_formula_units_Z   1
loop_
 _symmetry_equiv_pos_site_id
 _symmetry_equiv_pos_as_xyz
  1  'x, y, z'
loop_
 _atom_site_type_symbol
 _atom_site_label
 _atom_site_symmetry_multiplicity
 _atom_site_fract_x
 _atom_site_fract_y
 _atom_site_fract_z
 _atom_site_occupancy
  Tb  Tb0  1  0.746799  0.746965  0.253035  1
  Tb  Tb1  1  0.746799  0.253035  0.746965  1
  Tb  Tb2  1  0.253229  0.746307  0.746307  1
  Tb  Tb3  1  0.746799  0.746965  0.746965  1
  Tb  Tb4  1  0.746799  0.253035  0.253035  1
  Tb  Tb5  1  0.253229  0.253693  0.746307  1
  Tb  Tb6  1  0.253229  0.746307  0.253693  1
  Tb  Tb7  1  0.253229  0.253693  0.253693  1
  Sb  Sb8  1  0.000367  0.000000  0.000000  1
  Pd  Pd9  1  0.999868  0.000000  0.306901  1
  Pd  Pd10  1  0.735072  0.000000  0.500000  1
  Pd  Pd11  1  0.735072  0.500000  0.000000  1
  Pd  Pd12  1  0.500096  0.000000  0.735601  1
  Pd  Pd13  1  0.999912  0.735334  0.500000  1
  Pd  Pd14  1  0.500096  0.000000  0.264399  1
  Pd  Pd15  1  0.999912  0.264666  0.500000  1
  Pd  Pd16  1  0.500096  0.735601  0.000000  1
  Pd  Pd17  1  0.500073  0.500000  0.745616  1
  Pd  Pd18  1  0.500073  0.500000  0.254384  1
  Pd  Pd19  1  0.500073  0.254384  0.500000  1
  Pd  Pd20  1  0.500073  0.745616  0.500000  1
  Pd  Pd21  1  0.745744  0.500000  0.500000  1
  Pd  Pd22  1  0.306658  0.000000  0.000000  1
  Pd  Pd23  1  0.999868  0.000000  0.693099  1
  Pd  Pd24  1  0.999912  0.500000  0.264666  1
  Pd  Pd25  1  0.999868  0.306901  0.000000  1
  Pd  Pd26  1  0.999868  0.693099  0.000000  1
  Pd  Pd27  1  0.693723  0.000000  0.000000  1
  Pd  Pd28  1  0.264748  0.500000  0.000000  1
  Pd  Pd29  1  0.264748  0.000000  0.500000  1
  Pd  Pd30  1  0.999912  0.500000  0.735334  1
  Pd  Pd31  1  0.500096  0.264399  0.000000  1
  Pt  Pt32  1  0.253961  0.500000  0.500000  1
