# generated using pymatgen
data_Li2YPaRh2
_symmetry_space_group_name_H-M   'P 1'
_cell_length_a   3.75776800
_cell_length_b   7.16465106
_cell_length_c   8.61015047
_cell_angle_alpha   93.25937126
_cell_angle_beta   90.00000000
_cell_angle_gamma   90.00000000
_symmetry_Int_Tables_number   1
_chemical_formula_structural   Li2YPaRh2
_chemical_formula_sum   'Li4 Y2 Pa2 Rh4'
_cell_volume   231.43692927
_cell_formula_units_Z   2
loop_
 _symmetry_equiv_pos_site_id
 _symmetry_equiv_pos_as_xyz
  1  'x, y, z'
loop_
 _atom_site_type_symbol
 _atom_site_label
 _atom_site_symmetry_multiplicity
 _atom_site_fract_x
 _atom_site_fract_y
 _atom_site_fract_z
 _atom_site_occupancy
  Li  Li0  1  0.250000  0.622427  0.553625  1
  Li  Li1  1  0.750000  0.377573  0.446375  1
  Li  Li2  1  0.750000  0.879053  0.058225  1
  Li  Li3  1  0.250000  0.120947  0.941775  1
  Y  Y4  1  0.750000  0.943742  0.681106  1
  Y  Y5  1  0.250000  0.056258  0.318894  1
  Pa  Pa6  1  0.250000  0.546479  0.190911  1
  Pa  Pa7  1  0.750000  0.453521  0.809089  1
  Rh  Rh8  1  0.250000  0.709345  0.882427  1
  Rh  Rh9  1  0.750000  0.290655  0.117573  1
  Rh  Rh10  1  0.750000  0.745304  0.354046  1
  Rh  Rh11  1  0.250000  0.254696  0.645954  1
