# generated using pymatgen
data_La5Nd3Cd2OsPd
_symmetry_space_group_name_H-M   'P 1'
_cell_length_a   10.09610677
_cell_length_b   10.09610734
_cell_length_c   10.18382600
_cell_angle_alpha   59.71217259
_cell_angle_beta   59.71217072
_cell_angle_gamma   59.75553279
_symmetry_Int_Tables_number   1
_chemical_formula_structural   La5Nd3Cd2OsPd
_chemical_formula_sum   'La10 Nd6 Cd4 Os2 Pd2'
_cell_volume   729.45567674
_cell_formula_units_Z   2
loop_
 _symmetry_equiv_pos_site_id
 _symmetry_equiv_pos_as_xyz
  1  'x, y, z'
loop_
 _atom_site_type_symbol
 _atom_site_label
 _atom_site_symmetry_multiplicity
 _atom_site_fract_x
 _atom_site_fract_y
 _atom_site_fract_z
 _atom_site_occupancy
  La  La0  1  0.346401  0.346401  0.356635  1
  La  La1  1  0.346401  0.346401  0.950563  1
  La  La2  1  0.343079  0.960388  0.348266  1
  La  La3  1  0.960388  0.343079  0.348266  1
  La  La4  1  0.815158  0.189787  0.193941  1
  La  La5  1  0.189787  0.815158  0.801114  1
  La  La6  1  0.189787  0.815158  0.193941  1
  La  La7  1  0.815158  0.189787  0.801114  1
  La  La8  1  0.189276  0.189276  0.810724  1
  La  La9  1  0.802025  0.802025  0.197975  1
  Nd  Nd10  1  0.934871  0.560396  0.568697  1
  Nd  Nd11  1  0.560396  0.934871  0.936036  1
  Nd  Nd12  1  0.560396  0.934871  0.568697  1
  Nd  Nd13  1  0.934871  0.560396  0.936036  1
  Nd  Nd14  1  0.565152  0.565152  0.934848  1
  Nd  Nd15  1  0.935964  0.935964  0.564036  1
  Cd  Cd16  1  0.580093  0.580093  0.580944  1
  Cd  Cd17  1  0.580093  0.580093  0.258872  1
  Cd  Cd18  1  0.581873  0.256830  0.580649  1
  Cd  Cd19  1  0.256830  0.581873  0.580649  1
  Os  Os20  1  0.143603  0.143603  0.135603  1
  Os  Os21  1  0.143603  0.143603  0.577190  1
  Pd  Pd22  1  0.147275  0.577519  0.137602  1
  Pd  Pd23  1  0.577519  0.147275  0.137602  1
