# generated using pymatgen
data_Te8Ir2Os
_symmetry_space_group_name_H-M   'P 1'
_cell_length_a   6.50283099
_cell_length_b   6.49671456
_cell_length_c   6.52829927
_cell_angle_alpha   90.23501227
_cell_angle_beta   90.04941849
_cell_angle_gamma   90.24699969
_symmetry_Int_Tables_number   1
_chemical_formula_structural   Te8Ir2Os
_chemical_formula_sum   'Te8 Ir2 Os1'
_cell_volume   275.79630976
_cell_formula_units_Z   1
loop_
 _symmetry_equiv_pos_site_id
 _symmetry_equiv_pos_as_xyz
  1  'x, y, z'
loop_
 _atom_site_type_symbol
 _atom_site_label
 _atom_site_symmetry_multiplicity
 _atom_site_fract_x
 _atom_site_fract_y
 _atom_site_fract_z
 _atom_site_occupancy
  Te  Te0  1  0.372295  0.870548  0.122992  1
  Te  Te1  1  0.871991  0.624714  0.127960  1
  Te  Te2  1  0.372632  0.371836  0.367087  1
  Te  Te3  1  0.872092  0.124689  0.371823  1
  Te  Te4  1  0.127909  0.875312  0.628177  1
  Te  Te5  1  0.627368  0.628164  0.632913  1
  Te  Te6  1  0.128010  0.375286  0.872040  1
  Te  Te7  1  0.627706  0.129453  0.877009  1
  Ir  Ir8  1  0.500000  0.000000  0.500000  1
  Ir  Ir9  1  0.000000  0.500000  0.500000  1
  Os  Os10  1  0.500000  0.500000  0.000000  1
