# generated using pymatgen
data_Ac4P3Se
_symmetry_space_group_name_H-M   'P 1'
_cell_length_a   4.45858755
_cell_length_b   9.95912117
_cell_length_c   11.77912000
_cell_angle_alpha   40.43687483
_cell_angle_beta   124.59957622
_cell_angle_gamma   132.04847392
_symmetry_Int_Tables_number   1
_chemical_formula_structural   Ac4P3Se
_chemical_formula_sum   'Ac4 P3 Se1'
_cell_volume   250.07910529
_cell_formula_units_Z   1
loop_
 _symmetry_equiv_pos_site_id
 _symmetry_equiv_pos_as_xyz
  1  'x, y, z'
loop_
 _atom_site_type_symbol
 _atom_site_label
 _atom_site_symmetry_multiplicity
 _atom_site_fract_x
 _atom_site_fract_y
 _atom_site_fract_z
 _atom_site_occupancy
  Ac  Ac0  1  0.501766  0.397823  0.283791  1
  Ac  Ac1  1  0.743050  0.658882  0.517185  1
  Ac  Ac2  1  0.230453  0.134979  0.032218  1
  Ac  Ac3  1  0.015194  0.921776  0.768781  1
  P  P4  1  0.879311  0.280642  0.652639  1
  P  P5  1  0.366029  0.776161  0.148280  1
  P  P6  1  0.622324  0.028321  0.400544  1
  Se  Se7  1  0.122943  0.528306  0.900522  1
