# generated using pymatgen
data_Cs2Na2Hf6FeBr18
_symmetry_space_group_name_H-M   'P 1'
_cell_length_a   10.55975472
_cell_length_b   10.59831834
_cell_length_c   10.69840427
_cell_angle_alpha   119.27764766
_cell_angle_beta   101.75538211
_cell_angle_gamma   101.09003146
_symmetry_Int_Tables_number   1
_chemical_formula_structural   Cs2Na2Hf6FeBr18
_chemical_formula_sum   'Cs2 Na2 Hf6 Fe1 Br18'
_cell_volume   960.84493389
_cell_formula_units_Z   1
loop_
 _symmetry_equiv_pos_site_id
 _symmetry_equiv_pos_as_xyz
  1  'x, y, z'
loop_
 _atom_site_type_symbol
 _atom_site_label
 _atom_site_symmetry_multiplicity
 _atom_site_fract_x
 _atom_site_fract_y
 _atom_site_fract_z
 _atom_site_occupancy
  Cs  Cs0  1  0.684261  0.225096  0.543731  1
  Cs  Cs1  1  0.315739  0.774904  0.456269  1
  Na  Na2  1  0.620954  0.527314  0.200294  1
  Na  Na3  1  0.379046  0.472686  0.799706  1
  Hf  Hf4  1  0.148319  0.072491  0.246575  1
  Hf  Hf5  1  0.851681  0.927509  0.753425  1
  Hf  Hf6  1  0.861725  0.145905  0.123194  1
  Hf  Hf7  1  0.138275  0.854095  0.876806  1
  Hf  Hf8  1  0.146333  0.226030  0.029197  1
  Hf  Hf9  1  0.853667  0.773970  0.970803  1
  Fe  Fe10  1  0.000000  0.000000  0.000000  1
  Br  Br11  1  0.009090  0.413904  0.166684  1
  Br  Br12  1  0.990910  0.586096  0.833316  1
  Br  Br13  1  0.326958  0.334716  0.308174  1
  Br  Br14  1  0.673042  0.665284  0.691826  1
  Br  Br15  1  0.327274  0.490093  0.067981  1
  Br  Br16  1  0.672726  0.509907  0.932019  1
  Br  Br17  1  0.002118  0.828088  0.241757  1
  Br  Br18  1  0.997882  0.171912  0.758243  1
  Br  Br19  1  0.705667  0.316240  0.262934  1
  Br  Br20  1  0.294333  0.683760  0.737066  1
  Br  Br21  1  0.314301  0.089380  0.894415  1
  Br  Br22  1  0.685699  0.910620  0.105585  1
  Br  Br23  1  0.011878  0.241844  0.410943  1
  Br  Br24  1  0.988122  0.758156  0.589057  1
  Br  Br25  1  0.319197  0.920754  0.139589  1
  Br  Br26  1  0.680803  0.079246  0.860411  1
  Br  Br27  1  0.324839  0.161847  0.534661  1
  Br  Br28  1  0.675161  0.838153  0.465339  1
