# generated using pymatgen
data_Tb5In2BiSe
_symmetry_space_group_name_H-M   'P 1'
_cell_length_a   9.20302960
_cell_length_b   9.20303056
_cell_length_c   6.85189100
_cell_angle_alpha   90.00000000
_cell_angle_beta   90.00000000
_cell_angle_gamma   119.93235556
_symmetry_Int_Tables_number   1
_chemical_formula_structural   Tb5In2BiSe
_chemical_formula_sum   'Tb10 In4 Bi2 Se2'
_cell_volume   502.91939604
_cell_formula_units_Z   2
loop_
 _symmetry_equiv_pos_site_id
 _symmetry_equiv_pos_as_xyz
  1  'x, y, z'
loop_
 _atom_site_type_symbol
 _atom_site_label
 _atom_site_symmetry_multiplicity
 _atom_site_fract_x
 _atom_site_fract_y
 _atom_site_fract_z
 _atom_site_occupancy
  Tb  Tb0  1  0.666725  0.336131  0.494450  1
  Tb  Tb1  1  0.336131  0.666725  0.494450  1
  Tb  Tb2  1  0.336131  0.666725  0.005550  1
  Tb  Tb3  1  0.666725  0.336131  0.005550  1
  Tb  Tb4  1  0.748151  0.748151  0.250000  1
  Tb  Tb5  1  0.249311  0.998283  0.250000  1
  Tb  Tb6  1  0.998283  0.249311  0.250000  1
  Tb  Tb7  1  0.251845  0.251845  0.750000  1
  Tb  Tb8  1  0.748294  0.995175  0.750000  1
  Tb  Tb9  1  0.995175  0.748294  0.750000  1
  In  In10  1  0.397507  0.397507  0.250000  1
  In  In11  1  0.605005  0.000873  0.250000  1
  In  In12  1  0.000873  0.605005  0.250000  1
  In  In13  1  0.601002  0.601002  0.750000  1
  Bi  Bi14  1  0.396462  0.000372  0.750000  1
  Bi  Bi15  1  0.000372  0.396462  0.750000  1
  Se  Se16  1  0.001004  0.001004  0.501062  1
  Se  Se17  1  0.001004  0.001004  0.998938  1
