# generated using pymatgen
data_Ho3Sn2IrRh2Pb
_symmetry_space_group_name_H-M   'P 1'
_cell_length_a   7.73220756
_cell_length_b   7.71633183
_cell_length_c   3.72442000
_cell_angle_alpha   90.00000000
_cell_angle_beta   90.00000000
_cell_angle_gamma   119.81669040
_symmetry_Int_Tables_number   1
_chemical_formula_structural   Ho3Sn2IrRh2Pb
_chemical_formula_sum   'Ho3 Sn2 Ir1 Rh2 Pb1'
_cell_volume   192.79817898
_cell_formula_units_Z   1
loop_
 _symmetry_equiv_pos_site_id
 _symmetry_equiv_pos_as_xyz
  1  'x, y, z'
loop_
 _atom_site_type_symbol
 _atom_site_label
 _atom_site_symmetry_multiplicity
 _atom_site_fract_x
 _atom_site_fract_y
 _atom_site_fract_z
 _atom_site_occupancy
  Ho  Ho0  1  0.995042  0.402307  0.000000  1
  Ho  Ho1  1  0.600777  0.598663  0.000000  1
  Ho  Ho2  1  0.404041  0.998560  0.000000  1
  Sn  Sn3  1  0.001093  0.734133  0.500000  1
  Sn  Sn4  1  0.732928  0.998973  0.500000  1
  Ir  Ir5  1  0.675232  0.335594  0.500000  1
  Rh  Rh6  1  0.335407  0.674895  0.500000  1
  Rh  Rh7  1  0.989260  0.989402  0.000000  1
  Pb  Pb8  1  0.266219  0.267471  0.500000  1
