# generated using pymatgen
data_ErZr8(In2Ir)7
_symmetry_space_group_name_H-M   'P 1'
_cell_length_a   9.70524859
_cell_length_b   9.70524822
_cell_length_c   9.70524800
_cell_angle_alpha   60.00000076
_cell_angle_beta   60.00000201
_cell_angle_gamma   60.00000008
_symmetry_Int_Tables_number   1
_chemical_formula_structural   ErZr8(In2Ir)7
_chemical_formula_sum   'Er1 Zr8 In14 Ir7'
_cell_volume   646.40537687
_cell_formula_units_Z   1
loop_
 _symmetry_equiv_pos_site_id
 _symmetry_equiv_pos_as_xyz
  1  'x, y, z'
loop_
 _atom_site_type_symbol
 _atom_site_label
 _atom_site_symmetry_multiplicity
 _atom_site_fract_x
 _atom_site_fract_y
 _atom_site_fract_z
 _atom_site_occupancy
  Er  Er0  1  0.500000  0.500000  0.500000  1
  Zr  Zr1  1  0.124339  0.626985  0.124339  1
  Zr  Zr2  1  0.373015  0.875661  0.875661  1
  Zr  Zr3  1  0.875661  0.875661  0.875661  1
  Zr  Zr4  1  0.626985  0.124339  0.124339  1
  Zr  Zr5  1  0.875661  0.875661  0.373015  1
  Zr  Zr6  1  0.124339  0.124339  0.124339  1
  Zr  Zr7  1  0.875661  0.373015  0.875661  1
  Zr  Zr8  1  0.124339  0.124339  0.626985  1
  In  In9  1  0.500000  0.846702  0.153298  1
  In  In10  1  0.500000  0.846702  0.500000  1
  In  In11  1  0.500000  0.153298  0.500000  1
  In  In12  1  0.500000  0.500000  0.846702  1
  In  In13  1  0.153298  0.500000  0.500000  1
  In  In14  1  0.846702  0.153298  0.500000  1
  In  In15  1  0.153298  0.846702  0.500000  1
  In  In16  1  0.500000  0.153298  0.846702  1
  In  In17  1  0.153298  0.500000  0.846702  1
  In  In18  1  0.500000  0.500000  0.153298  1
  In  In19  1  0.846702  0.500000  0.500000  1
  In  In20  1  0.846702  0.500000  0.153298  1
  In  In21  1  0.250000  0.250000  0.250000  1
  In  In22  1  0.750000  0.750000  0.750000  1
  Ir  Ir23  1  0.780071  0.780071  0.219929  1
  Ir  Ir24  1  0.000000  0.000000  0.000000  1
  Ir  Ir25  1  0.219929  0.780071  0.219929  1
  Ir  Ir26  1  0.219929  0.780071  0.780071  1
  Ir  Ir27  1  0.219929  0.219929  0.780071  1
  Ir  Ir28  1  0.780071  0.219929  0.780071  1
  Ir  Ir29  1  0.780071  0.219929  0.219929  1
