# generated using pymatgen
data_Ce3Dy(SiTc)4
_symmetry_space_group_name_H-M   'P 1'
_cell_length_a   4.51353400
_cell_length_b   7.20957638
_cell_length_c   6.85116413
_cell_angle_alpha   88.65933061
_cell_angle_beta   90.00000000
_cell_angle_gamma   90.00000000
_symmetry_Int_Tables_number   1
_chemical_formula_structural   Ce3Dy(SiTc)4
_chemical_formula_sum   'Ce3 Dy1 Si4 Tc4'
_cell_volume   222.88042854
_cell_formula_units_Z   1
loop_
 _symmetry_equiv_pos_site_id
 _symmetry_equiv_pos_as_xyz
  1  'x, y, z'
loop_
 _atom_site_type_symbol
 _atom_site_label
 _atom_site_symmetry_multiplicity
 _atom_site_fract_x
 _atom_site_fract_y
 _atom_site_fract_z
 _atom_site_occupancy
  Ce  Ce0  1  0.250000  0.973614  0.822076  1
  Ce  Ce1  1  0.750000  0.029565  0.177850  1
  Ce  Ce2  1  0.250000  0.471923  0.688191  1
  Dy  Dy3  1  0.750000  0.523895  0.319294  1
  Si  Si4  1  0.250000  0.312431  0.117384  1
  Si  Si5  1  0.750000  0.692354  0.888675  1
  Si  Si6  1  0.250000  0.804862  0.388358  1
  Si  Si7  1  0.750000  0.192299  0.608471  1
  Tc  Tc8  1  0.750000  0.855117  0.554820  1
  Tc  Tc9  1  0.250000  0.149170  0.443688  1
  Tc  Tc10  1  0.750000  0.344888  0.938513  1
  Tc  Tc11  1  0.250000  0.649883  0.052680  1
