# generated using pymatgen
data_Nb6AlGa(CuN)2
_symmetry_space_group_name_H-M   'P 1'
_cell_length_a   7.00604937
_cell_length_b   7.00573700
_cell_length_c   7.00571437
_cell_angle_alpha   90.00000000
_cell_angle_beta   89.92824412
_cell_angle_gamma   90.00000000
_symmetry_Int_Tables_number   1
_chemical_formula_structural   Nb6AlGa(CuN)2
_chemical_formula_sum   'Nb12 Al2 Ga2 Cu4 N4'
_cell_volume   343.85798154
_cell_formula_units_Z   2
loop_
 _symmetry_equiv_pos_site_id
 _symmetry_equiv_pos_as_xyz
  1  'x, y, z'
loop_
 _atom_site_type_symbol
 _atom_site_label
 _atom_site_symmetry_multiplicity
 _atom_site_fract_x
 _atom_site_fract_y
 _atom_site_fract_z
 _atom_site_occupancy
  Nb  Nb0  1  0.790275  0.957826  0.373814  1
  Nb  Nb1  1  0.708486  0.042298  0.875502  1
  Nb  Nb2  1  0.209725  0.457826  0.126186  1
  Nb  Nb3  1  0.291514  0.542298  0.624498  1
  Nb  Nb4  1  0.957555  0.374980  0.790757  1
  Nb  Nb5  1  0.042445  0.874980  0.709243  1
  Nb  Nb6  1  0.457983  0.125699  0.208849  1
  Nb  Nb7  1  0.542017  0.625699  0.291151  1
  Nb  Nb8  1  0.374279  0.790988  0.957686  1
  Nb  Nb9  1  0.874908  0.709079  0.042141  1
  Nb  Nb10  1  0.125092  0.209079  0.457859  1
  Nb  Nb11  1  0.625721  0.290988  0.542314  1
  Al  Al12  1  0.926157  0.573800  0.426042  1
  Al  Al13  1  0.073843  0.073800  0.073958  1
  Ga  Ga14  1  0.573285  0.426662  0.926830  1
  Ga  Ga15  1  0.426715  0.926662  0.573170  1
  Cu  Cu16  1  0.176922  0.821223  0.320463  1
  Cu  Cu17  1  0.319703  0.178787  0.822631  1
  Cu  Cu18  1  0.823078  0.321223  0.179537  1
  Cu  Cu19  1  0.680297  0.678787  0.677369  1
  N  N20  1  0.876151  0.122374  0.623144  1
  N  N21  1  0.622173  0.876284  0.122930  1
  N  N22  1  0.123849  0.622374  0.876856  1
  N  N23  1  0.377827  0.376284  0.377070  1
