# generated using pymatgen
data_Er8TaTi2Si16W9
_symmetry_space_group_name_H-M   'P 1'
_cell_length_a   6.89125783
_cell_length_b   6.89125844
_cell_length_c   12.78043626
_cell_angle_alpha   90.05925477
_cell_angle_beta   89.94074756
_cell_angle_gamma   89.72885764
_symmetry_Int_Tables_number   1
_chemical_formula_structural   Er8TaTi2Si16W9
_chemical_formula_sum   'Er8 Ta1 Ti2 Si16 W9'
_cell_volume   606.92829624
_cell_formula_units_Z   1
loop_
 _symmetry_equiv_pos_site_id
 _symmetry_equiv_pos_as_xyz
  1  'x, y, z'
loop_
 _atom_site_type_symbol
 _atom_site_label
 _atom_site_symmetry_multiplicity
 _atom_site_fract_x
 _atom_site_fract_y
 _atom_site_fract_z
 _atom_site_occupancy
  Er  Er0  1  0.339573  0.001098  0.469179  1
  Er  Er1  1  0.498834  0.837701  0.719621  1
  Er  Er2  1  0.498803  0.162743  0.218123  1
  Er  Er3  1  0.837701  0.498834  0.280379  1
  Er  Er4  1  0.162743  0.498803  0.781877  1
  Er  Er5  1  0.659797  0.000375  0.968922  1
  Er  Er6  1  0.001098  0.339573  0.530821  1
  Er  Er7  1  0.000375  0.659797  0.031078  1
  Ta  Ta8  1  0.668247  0.668247  0.500000  1
  Ti  Ti9  1  0.168688  0.832418  0.248831  1
  Ti  Ti10  1  0.832418  0.168688  0.751169  1
  Si  Si11  1  0.202368  0.128834  0.682587  1
  Si  Si12  1  0.372641  0.699181  0.933212  1
  Si  Si13  1  0.628994  0.296166  0.431840  1
  Si  Si14  1  0.699181  0.372641  0.066788  1
  Si  Si15  1  0.296166  0.628994  0.568160  1
  Si  Si16  1  0.796831  0.871640  0.182801  1
  Si  Si17  1  0.128834  0.202368  0.317413  1
  Si  Si18  1  0.871640  0.796831  0.817199  1
  Si  Si19  1  0.289601  0.962553  0.062206  1
  Si  Si20  1  0.537998  0.792267  0.312664  1
  Si  Si21  1  0.459363  0.209455  0.814590  1
  Si  Si22  1  0.792267  0.537998  0.687336  1
  Si  Si23  1  0.209455  0.459363  0.185410  1
  Si  Si24  1  0.708832  0.042148  0.564772  1
  Si  Si25  1  0.962553  0.289601  0.937794  1
  Si  Si26  1  0.042148  0.708832  0.435228  1
  W  W27  1  0.332021  0.332021  0.000000  1
  W  W28  1  0.157880  0.002824  0.873762  1
  W  W29  1  0.497019  0.665964  0.123569  1
  W  W30  1  0.502572  0.339198  0.623954  1
  W  W31  1  0.665964  0.497019  0.876431  1
  W  W32  1  0.339198  0.502572  0.376046  1
  W  W33  1  0.840871  0.994502  0.374327  1
  W  W34  1  0.002824  0.157880  0.126238  1
  W  W35  1  0.994502  0.840871  0.625673  1
