# generated using pymatgen
data_LiEu2TcH6
_symmetry_space_group_name_H-M   'P 1'
_cell_length_a   5.35006867
_cell_length_b   5.35006872
_cell_length_c   5.35006800
_cell_angle_alpha   120.00000794
_cell_angle_beta   120.00000820
_cell_angle_gamma   59.99998052
_symmetry_Int_Tables_number   1
_chemical_formula_structural   LiEu2TcH6
_chemical_formula_sum   'Li1 Eu2 Tc1 H6'
_cell_volume   108.28365439
_cell_formula_units_Z   1
loop_
 _symmetry_equiv_pos_site_id
 _symmetry_equiv_pos_as_xyz
  1  'x, y, z'
loop_
 _atom_site_type_symbol
 _atom_site_label
 _atom_site_symmetry_multiplicity
 _atom_site_fract_x
 _atom_site_fract_y
 _atom_site_fract_z
 _atom_site_occupancy
  Li  Li0  1  0.500001  0.500001  0.500002  1
  Eu  Eu1  1  0.750000  0.750000  0.249999  1
  Eu  Eu2  1  0.249999  0.249999  0.749998  1
  Tc  Tc3  1  0.000000  0.000000  0.000000  1
  H  H4  1  0.240159  0.240159  0.240158  1
  H  H5  1  0.759841  0.240159  0.240160  1
  H  H6  1  0.240159  0.759841  0.240160  1
  H  H7  1  0.759840  0.759840  0.759839  1
  H  H8  1  0.759842  0.240159  0.759842  1
  H  H9  1  0.240159  0.759842  0.759842  1
