# generated using pymatgen
data_Ba3Sn3Hg4Bi
_symmetry_space_group_name_H-M   'P 1'
_cell_length_a   9.89032219
_cell_length_b   9.89032270
_cell_length_c   9.89032291
_cell_angle_alpha   148.96401879
_cell_angle_beta   132.99025373
_cell_angle_gamma   57.40361229
_symmetry_Int_Tables_number   1
_chemical_formula_structural   Ba3Sn3Hg4Bi
_chemical_formula_sum   'Ba3 Sn3 Hg4 Bi1'
_cell_volume   362.18520522
_cell_formula_units_Z   1
loop_
 _symmetry_equiv_pos_site_id
 _symmetry_equiv_pos_as_xyz
  1  'x, y, z'
loop_
 _atom_site_type_symbol
 _atom_site_label
 _atom_site_symmetry_multiplicity
 _atom_site_fract_x
 _atom_site_fract_y
 _atom_site_fract_z
 _atom_site_occupancy
  Ba  Ba0  1  0.634834  0.133567  0.501267  1
  Ba  Ba1  1  0.367700  0.866433  0.501267  1
  Ba  Ba2  1  0.998248  0.000000  0.998248  1
  Sn  Sn3  1  0.792140  0.792207  0.999933  1
  Sn  Sn4  1  0.207726  0.207793  0.999933  1
  Sn  Sn5  1  0.689731  0.500000  0.189731  1
  Hg  Hg6  1  0.967371  0.668497  0.298874  1
  Hg  Hg7  1  0.023954  0.324585  0.699369  1
  Hg  Hg8  1  0.630377  0.331503  0.298874  1
  Hg  Hg9  1  0.374784  0.675415  0.699369  1
  Bi  Bi10  1  0.313134  0.500000  0.813134  1
