# generated using pymatgen
data_DyEr15Cd4Ni3Ru
_symmetry_space_group_name_H-M   'P 1'
_cell_length_a   9.51585219
_cell_length_b   9.51585198
_cell_length_c   9.51585301
_cell_angle_alpha   59.56894623
_cell_angle_beta   59.56895073
_cell_angle_gamma   59.56894509
_symmetry_Int_Tables_number   1
_chemical_formula_structural   DyEr15Cd4Ni3Ru
_chemical_formula_sum   'Dy1 Er15 Cd4 Ni3 Ru1'
_cell_volume   603.32507107
_cell_formula_units_Z   1
loop_
 _symmetry_equiv_pos_site_id
 _symmetry_equiv_pos_as_xyz
  1  'x, y, z'
loop_
 _atom_site_type_symbol
 _atom_site_label
 _atom_site_symmetry_multiplicity
 _atom_site_fract_x
 _atom_site_fract_y
 _atom_site_fract_z
 _atom_site_occupancy
  Dy  Dy0  1  0.347501  0.347501  0.347501  1
  Er  Er1  1  0.351355  0.351355  0.953051  1
  Er  Er2  1  0.351355  0.953051  0.351355  1
  Er  Er3  1  0.953051  0.351355  0.351355  1
  Er  Er4  1  0.810137  0.187931  0.187931  1
  Er  Er5  1  0.186711  0.811346  0.811346  1
  Er  Er6  1  0.187931  0.810137  0.187931  1
  Er  Er7  1  0.811346  0.186711  0.811346  1
  Er  Er8  1  0.187931  0.187931  0.810137  1
  Er  Er9  1  0.811346  0.811346  0.186711  1
  Er  Er10  1  0.935610  0.566174  0.566174  1
  Er  Er11  1  0.559834  0.937716  0.937716  1
  Er  Er12  1  0.566174  0.935610  0.566174  1
  Er  Er13  1  0.937716  0.559834  0.937716  1
  Er  Er14  1  0.566174  0.566174  0.935610  1
  Er  Er15  1  0.937716  0.937716  0.559834  1
  Cd  Cd16  1  0.580233  0.580233  0.580233  1
  Cd  Cd17  1  0.580420  0.580420  0.255261  1
  Cd  Cd18  1  0.580420  0.255261  0.580420  1
  Cd  Cd19  1  0.255261  0.580420  0.580420  1
  Ni  Ni20  1  0.141482  0.141482  0.575187  1
  Ni  Ni21  1  0.141482  0.575187  0.141482  1
  Ni  Ni22  1  0.575187  0.141482  0.141482  1
  Ru  Ru23  1  0.143627  0.143627  0.143627  1
