# generated using pymatgen
data_Er12Tc3Rh
_symmetry_space_group_name_H-M   'P 1'
_cell_length_a   6.25045296
_cell_length_b   7.35130370
_cell_length_c   9.06163400
_cell_angle_alpha   90.00000000
_cell_angle_beta   90.00000000
_cell_angle_gamma   89.88676926
_symmetry_Int_Tables_number   1
_chemical_formula_structural   Er12Tc3Rh
_chemical_formula_sum   'Er12 Tc3 Rh1'
_cell_volume   416.37200786
_cell_formula_units_Z   1
loop_
 _symmetry_equiv_pos_site_id
 _symmetry_equiv_pos_as_xyz
  1  'x, y, z'
loop_
 _atom_site_type_symbol
 _atom_site_label
 _atom_site_symmetry_multiplicity
 _atom_site_fract_x
 _atom_site_fract_y
 _atom_site_fract_z
 _atom_site_occupancy
  Er  Er0  1  0.663484  0.173897  0.060679  1
  Er  Er1  1  0.168658  0.323280  0.935202  1
  Er  Er2  1  0.836023  0.678490  0.438988  1
  Er  Er3  1  0.336443  0.824329  0.562381  1
  Er  Er4  1  0.336443  0.824329  0.937619  1
  Er  Er5  1  0.836023  0.678490  0.061012  1
  Er  Er6  1  0.168658  0.323280  0.564798  1
  Er  Er7  1  0.663484  0.173897  0.439321  1
  Er  Er8  1  0.875318  0.960358  0.750000  1
  Er  Er9  1  0.368596  0.543010  0.250000  1
  Er  Er10  1  0.626651  0.459136  0.750000  1
  Er  Er11  1  0.127976  0.041257  0.250000  1
  Tc  Tc12  1  0.038726  0.612901  0.750000  1
  Tc  Tc13  1  0.540246  0.883834  0.250000  1
  Tc  Tc14  1  0.458734  0.115337  0.750000  1
  Rh  Rh15  1  0.954537  0.384174  0.250000  1
