# generated using pymatgen
data_Ac3ZnAg3Sn4
_symmetry_space_group_name_H-M   'P 1'
_cell_length_a   9.16060016
_cell_length_b   9.21408775
_cell_length_c   9.21408807
_cell_angle_alpha   148.68543516
_cell_angle_beta   131.88538925
_cell_angle_gamma   58.59266369
_symmetry_Int_Tables_number   1
_chemical_formula_structural   Ac3ZnAg3Sn4
_chemical_formula_sum   'Ac3 Zn1 Ag3 Sn4'
_cell_volume   298.48097791
_cell_formula_units_Z   1
loop_
 _symmetry_equiv_pos_site_id
 _symmetry_equiv_pos_as_xyz
  1  'x, y, z'
loop_
 _atom_site_type_symbol
 _atom_site_label
 _atom_site_symmetry_multiplicity
 _atom_site_fract_x
 _atom_site_fract_y
 _atom_site_fract_z
 _atom_site_occupancy
  Ac  Ac0  1  0.501941  0.999315  0.502625  1
  Ac  Ac1  1  0.862712  0.869097  0.993615  1
  Ac  Ac2  1  0.137509  0.132594  0.004916  1
  Zn  Zn3  1  0.480061  0.664557  0.815505  1
  Ag  Ag4  1  0.855461  0.670833  0.184628  1
  Ag  Ag5  1  0.134807  0.328062  0.806744  1
  Ag  Ag6  1  0.524180  0.336054  0.188126  1
  Sn  Sn7  1  0.293786  0.781622  0.512163  1
  Sn  Sn8  1  0.701589  0.215280  0.486310  1
  Sn  Sn9  1  0.813055  0.503416  0.309639  1
  Sn  Sn10  1  0.194899  0.499169  0.695730  1
