# generated using pymatgen
data_ErTh2CoSn3Ir2
_symmetry_space_group_name_H-M   'P 1'
_cell_length_a   7.52216524
_cell_length_b   7.51036178
_cell_length_c   4.00180700
_cell_angle_alpha   90.00000000
_cell_angle_beta   90.00000000
_cell_angle_gamma   119.94811168
_symmetry_Int_Tables_number   1
_chemical_formula_structural   ErTh2CoSn3Ir2
_chemical_formula_sum   'Er1 Th2 Co1 Sn3 Ir2'
_cell_volume   195.89228705
_cell_formula_units_Z   1
loop_
 _symmetry_equiv_pos_site_id
 _symmetry_equiv_pos_as_xyz
  1  'x, y, z'
loop_
 _atom_site_type_symbol
 _atom_site_label
 _atom_site_symmetry_multiplicity
 _atom_site_fract_x
 _atom_site_fract_y
 _atom_site_fract_z
 _atom_site_occupancy
  Er  Er0  1  0.000000  0.595373  0.500000  1
  Th  Th1  1  0.409830  0.409950  0.500000  1
  Th  Th2  1  0.590170  0.000120  0.500000  1
  Co  Co3  1  0.000000  0.003438  0.500000  1
  Sn  Sn4  1  0.762828  0.752892  0.000000  1
  Sn  Sn5  1  0.237172  0.990064  0.000000  1
  Sn  Sn6  1  0.000000  0.254098  0.000000  1
  Ir  Ir7  1  0.659044  0.326553  0.000000  1
  Ir  Ir8  1  0.340956  0.667510  0.000000  1
