# generated using pymatgen
data_Ti5Tc3
_symmetry_space_group_name_H-M   'P 1'
_cell_length_a   4.37157936
_cell_length_b   5.45886926
_cell_length_c   6.87470769
_cell_angle_alpha   97.65325438
_cell_angle_beta   129.50387907
_cell_angle_gamma   89.95009855
_symmetry_Int_Tables_number   1
_chemical_formula_structural   Ti5Tc3
_chemical_formula_sum   'Ti5 Tc3'
_cell_volume   124.69950676
_cell_formula_units_Z   1
loop_
 _symmetry_equiv_pos_site_id
 _symmetry_equiv_pos_as_xyz
  1  'x, y, z'
loop_
 _atom_site_type_symbol
 _atom_site_label
 _atom_site_symmetry_multiplicity
 _atom_site_fract_x
 _atom_site_fract_y
 _atom_site_fract_z
 _atom_site_occupancy
  Ti  Ti0  1  0.354776  0.833000  0.983628  1
  Ti  Ti1  1  0.619082  0.452350  0.748500  1
  Ti  Ti2  1  0.815825  0.575495  0.445891  1
  Ti  Ti3  1  0.892256  0.089659  0.521452  1
  Ti  Ti4  1  0.089652  0.213808  0.219643  1
  Tc  Tc5  1  0.354283  0.332950  0.983778  1
  Tc  Tc6  1  0.113874  0.716808  0.243312  1
  Tc  Tc7  1  0.595274  0.949240  0.724313  1
