# generated using pymatgen
data_Sc3Si2Tc2AsRu
_symmetry_space_group_name_H-M   'P 1'
_cell_length_a   6.97317670
_cell_length_b   6.95379097
_cell_length_c   3.43781200
_cell_angle_alpha   90.00000000
_cell_angle_beta   90.00000000
_cell_angle_gamma   119.96697418
_symmetry_Int_Tables_number   1
_chemical_formula_structural   Sc3Si2Tc2AsRu
_chemical_formula_sum   'Sc3 Si2 Tc2 As1 Ru1'
_cell_volume   144.41406393
_cell_formula_units_Z   1
loop_
 _symmetry_equiv_pos_site_id
 _symmetry_equiv_pos_as_xyz
  1  'x, y, z'
loop_
 _atom_site_type_symbol
 _atom_site_label
 _atom_site_symmetry_multiplicity
 _atom_site_fract_x
 _atom_site_fract_y
 _atom_site_fract_z
 _atom_site_occupancy
  Sc  Sc0  1  0.398246  0.397796  0.500000  1
  Sc  Sc1  1  0.601709  0.999702  0.500000  1
  Sc  Sc2  1  0.999565  0.600996  0.500000  1
  Si  Si3  1  0.335676  0.669608  0.000000  1
  Si  Si4  1  0.999441  0.999148  0.500000  1
  Tc  Tc5  1  0.744828  0.748905  0.000000  1
  Tc  Tc6  1  0.250365  0.994950  0.000000  1
  As  As7  1  0.664421  0.333565  0.000000  1
  Ru  Ru8  1  0.005749  0.255330  0.000000  1
