# generated using pymatgen
data_Tb3Ho9CoTcNi3Sn
_symmetry_space_group_name_H-M   'P 1'
_cell_length_a   8.30332848
_cell_length_b   8.28847156
_cell_length_c   8.28847000
_cell_angle_alpha   106.79065041
_cell_angle_beta   109.82671075
_cell_angle_gamma   111.75728262
_symmetry_Int_Tables_number   1
_chemical_formula_structural   Tb3Ho9CoTcNi3Sn
_chemical_formula_sum   'Tb3 Ho9 Co1 Tc1 Ni3 Sn1'
_cell_volume   438.70067096
_cell_formula_units_Z   1
loop_
 _symmetry_equiv_pos_site_id
 _symmetry_equiv_pos_as_xyz
  1  'x, y, z'
loop_
 _atom_site_type_symbol
 _atom_site_label
 _atom_site_symmetry_multiplicity
 _atom_site_fract_x
 _atom_site_fract_y
 _atom_site_fract_z
 _atom_site_occupancy
  Tb  Tb0  1  0.964941  0.783240  0.181699  1
  Tb  Tb1  1  0.034099  0.214643  0.819458  1
  Tb  Tb2  1  0.399499  0.216778  0.182721  1
  Ho  Ho3  1  0.691751  0.281241  0.973565  1
  Ho  Ho4  1  0.309821  0.719318  0.028620  1
  Ho  Ho5  1  0.691751  0.718186  0.410510  1
  Ho  Ho6  1  0.309821  0.281201  0.590501  1
  Ho  Ho7  1  0.805148  0.128513  0.320137  1
  Ho  Ho8  1  0.805148  0.485011  0.676635  1
  Ho  Ho9  1  0.191749  0.871066  0.676565  1
  Ho  Ho10  1  0.191749  0.515185  0.320683  1
  Ho  Ho11  1  0.603377  0.784173  0.819205  1
  Co  Co12  1  0.860505  0.500077  0.360429  1
  Tc  Tc13  1  0.501152  0.501271  0.999880  1
  Ni  Ni14  1  0.141826  0.501059  0.640766  1
  Ni  Ni15  1  0.998162  0.119818  0.119111  1
  Ni  Ni16  1  0.998162  0.879050  0.878343  1
  Sn  Sn17  1  0.501341  0.000169  0.501172  1
