# generated using pymatgen
data_Nd2Ho3Er3(WO6)4
_symmetry_space_group_name_H-M   'P 1'
_cell_length_a   5.43028802
_cell_length_b   7.74907132
_cell_length_c   11.51063226
_cell_angle_alpha   75.48932099
_cell_angle_beta   89.99852313
_cell_angle_gamma   89.98919076
_symmetry_Int_Tables_number   1
_chemical_formula_structural   Nd2Ho3Er3(WO6)4
_chemical_formula_sum   'Nd2 Ho3 Er3 W4 O24'
_cell_volume   468.91307701
_cell_formula_units_Z   1
loop_
 _symmetry_equiv_pos_site_id
 _symmetry_equiv_pos_as_xyz
  1  'x, y, z'
loop_
 _atom_site_type_symbol
 _atom_site_label
 _atom_site_symmetry_multiplicity
 _atom_site_fract_x
 _atom_site_fract_y
 _atom_site_fract_z
 _atom_site_occupancy
  Nd  Nd0  1  0.685562  0.500166  0.249884  1
  Nd  Nd1  1  0.314486  0.500024  0.750010  1
  Ho  Ho2  1  0.185205  0.203001  0.423003  1
  Ho  Ho3  1  0.742758  0.999907  0.249871  1
  Ho  Ho4  1  0.257251  0.999922  0.750124  1
  Er  Er5  1  0.185070  0.796808  0.077204  1
  Er  Er6  1  0.814851  0.796679  0.577233  1
  Er  Er7  1  0.814902  0.203181  0.922826  1
  W  W8  1  0.254702  0.272017  0.115634  1
  W  W9  1  0.254618  0.728120  0.384230  1
  W  W10  1  0.745383  0.728021  0.884274  1
  W  W11  1  0.745476  0.272075  0.615885  1
  O  O12  1  0.456100  0.204341  0.273416  1
  O  O13  1  0.455381  0.795836  0.226098  1
  O  O14  1  0.544593  0.795764  0.726130  1
  O  O15  1  0.544604  0.204279  0.773968  1
  O  O16  1  0.043789  0.058090  0.103736  1
  O  O17  1  0.043083  0.941161  0.396199  1
  O  O18  1  0.956260  0.941868  0.896270  1
  O  O19  1  0.955988  0.057936  0.603980  1
  O  O20  1  0.985664  0.280284  0.230485  1
  O  O21  1  0.985982  0.719738  0.269073  1
  O  O22  1  0.014027  0.719846  0.769149  1
  O  O23  1  0.014172  0.280156  0.730882  1
  O  O24  1  0.853560  0.359256  0.454070  1
  O  O25  1  0.854600  0.641218  0.045978  1
  O  O26  1  0.145437  0.641153  0.546026  1
  O  O27  1  0.145399  0.358834  0.953955  1
  O  O28  1  0.651364  0.507542  0.612861  1
  O  O29  1  0.651487  0.492583  0.887220  1
  O  O30  1  0.349039  0.493007  0.387160  1
  O  O31  1  0.348496  0.507453  0.112788  1
  O  O32  1  0.464206  0.154761  0.569888  1
  O  O33  1  0.463438  0.844888  0.930612  1
  O  O34  1  0.536475  0.845043  0.430622  1
  O  O35  1  0.536591  0.155047  0.069254  1
