# generated using pymatgen
data_Lu2(ThRu)3
_symmetry_space_group_name_H-M   'P 1'
_cell_length_a   6.39271501
_cell_length_b   8.25762017
_cell_length_c   8.25708802
_cell_angle_alpha   119.99768708
_cell_angle_beta   89.99396803
_cell_angle_gamma   90.00168919
_symmetry_Int_Tables_number   1
_chemical_formula_structural   Lu2(ThRu)3
_chemical_formula_sum   'Lu4 Th6 Ru6'
_cell_volume   377.49213780
_cell_formula_units_Z   2
loop_
 _symmetry_equiv_pos_site_id
 _symmetry_equiv_pos_as_xyz
  1  'x, y, z'
loop_
 _atom_site_type_symbol
 _atom_site_label
 _atom_site_symmetry_multiplicity
 _atom_site_fract_x
 _atom_site_fract_y
 _atom_site_fract_z
 _atom_site_occupancy
  Lu  Lu0  1  0.500018  0.333362  0.666678  1
  Lu  Lu1  1  0.499989  0.666667  0.333334  1
  Lu  Lu2  1  0.999972  0.666643  0.333323  1
  Lu  Lu3  1  0.000019  0.333337  0.666676  1
  Th  Th4  1  0.749993  0.255083  0.999941  1
  Th  Th5  1  0.749990  0.744942  0.744915  1
  Th  Th6  1  0.750004  0.999968  0.255151  1
  Th  Th7  1  0.250015  0.744916  0.000050  1
  Th  Th8  1  0.250027  0.255055  0.255083  1
  Th  Th9  1  0.250005  0.000023  0.744840  1
  Ru  Ru10  1  0.749990  0.620208  0.999990  1
  Ru  Ru11  1  0.749994  0.379765  0.379763  1
  Ru  Ru12  1  0.749993  0.999990  0.620189  1
  Ru  Ru13  1  0.250002  0.379788  0.000009  1
  Ru  Ru14  1  0.249995  0.620245  0.620244  1
  Ru  Ru15  1  0.249997  0.000010  0.379815  1
