# generated using pymatgen
data_MgZr(PaI6)2
_symmetry_space_group_name_H-M   'P 1'
_cell_length_a   7.12212101
_cell_length_b   7.99001429
_cell_length_c   13.96191900
_cell_angle_alpha   90.00000000
_cell_angle_beta   90.00000000
_cell_angle_gamma   90.08514473
_symmetry_Int_Tables_number   1
_chemical_formula_structural   MgZr(PaI6)2
_chemical_formula_sum   'Mg1 Zr1 Pa2 I12'
_cell_volume   794.51397172
_cell_formula_units_Z   1
loop_
 _symmetry_equiv_pos_site_id
 _symmetry_equiv_pos_as_xyz
  1  'x, y, z'
loop_
 _atom_site_type_symbol
 _atom_site_label
 _atom_site_symmetry_multiplicity
 _atom_site_fract_x
 _atom_site_fract_y
 _atom_site_fract_z
 _atom_site_occupancy
  Mg  Mg0  1  0.250050  0.752073  0.500000  1
  Zr  Zr1  1  0.749934  0.247927  0.000000  1
  Pa  Pa2  1  0.750816  0.752054  0.500000  1
  Pa  Pa3  1  0.249958  0.248006  0.000000  1
  I  I4  1  0.008815  0.601177  0.650045  1
  I  I5  1  0.009161  0.053846  0.500000  1
  I  I6  1  0.983712  0.096916  0.848946  1
  I  I7  1  0.983712  0.096916  0.151054  1
  I  I8  1  0.490999  0.902572  0.350251  1
  I  I9  1  0.516286  0.399028  0.151073  1
  I  I10  1  0.490667  0.450869  0.500000  1
  I  I11  1  0.490999  0.902572  0.649749  1
  I  I12  1  0.516286  0.399028  0.848927  1
  I  I13  1  0.515598  0.943621  0.000000  1
  I  I14  1  0.984193  0.552219  0.000000  1
  I  I15  1  0.008815  0.601177  0.349955  1
