# generated using pymatgen
data_Dy2HoEr(WO6)2
_symmetry_space_group_name_H-M   'P 1'
_cell_length_a   5.38847400
_cell_length_b   7.69363366
_cell_length_c   11.43554841
_cell_angle_alpha   75.48881542
_cell_angle_beta   90.00000000
_cell_angle_gamma   90.00000000
_symmetry_Int_Tables_number   1
_chemical_formula_structural   Dy2HoEr(WO6)2
_chemical_formula_sum   'Dy4 Ho2 Er2 W4 O24'
_cell_volume   458.95906159
_cell_formula_units_Z   2
loop_
 _symmetry_equiv_pos_site_id
 _symmetry_equiv_pos_as_xyz
  1  'x, y, z'
loop_
 _atom_site_type_symbol
 _atom_site_label
 _atom_site_symmetry_multiplicity
 _atom_site_fract_x
 _atom_site_fract_y
 _atom_site_fract_z
 _atom_site_occupancy
  Dy  Dy0  1  0.684109  0.500000  0.250000  1
  Dy  Dy1  1  0.316225  0.500000  0.750000  1
  Dy  Dy2  1  0.740753  0.000000  0.250000  1
  Dy  Dy3  1  0.259310  0.000000  0.750000  1
  Ho  Ho4  1  0.183499  0.205885  0.421982  1
  Ho  Ho5  1  0.183499  0.794115  0.078018  1
  Er  Er6  1  0.816508  0.793635  0.578286  1
  Er  Er7  1  0.816508  0.206365  0.921714  1
  W  W8  1  0.256043  0.276452  0.114410  1
  W  W9  1  0.256043  0.723548  0.385590  1
  W  W10  1  0.744194  0.723526  0.885062  1
  W  W11  1  0.744194  0.276474  0.614938  1
  O  O12  1  0.457594  0.209000  0.273042  1
  O  O13  1  0.457594  0.791000  0.226958  1
  O  O14  1  0.543037  0.790822  0.726268  1
  O  O15  1  0.543037  0.209178  0.773732  1
  O  O16  1  0.044874  0.060516  0.103655  1
  O  O17  1  0.044874  0.939484  0.396345  1
  O  O18  1  0.953867  0.940431  0.895968  1
  O  O19  1  0.953867  0.059569  0.604032  1
  O  O20  1  0.981077  0.289494  0.228518  1
  O  O21  1  0.981077  0.710506  0.271482  1
  O  O22  1  0.019163  0.710975  0.771053  1
  O  O23  1  0.019163  0.289025  0.728947  1
  O  O24  1  0.849054  0.365519  0.451581  1
  O  O25  1  0.849054  0.634481  0.048419  1
  O  O26  1  0.149944  0.634577  0.548798  1
  O  O27  1  0.149944  0.365423  0.951202  1
  O  O28  1  0.640042  0.510741  0.614442  1
  O  O29  1  0.640042  0.489259  0.885558  1
  O  O30  1  0.360791  0.489689  0.385836  1
  O  O31  1  0.360791  0.510311  0.114164  1
  O  O32  1  0.464554  0.154325  0.569265  1
  O  O33  1  0.464554  0.845675  0.930735  1
  O  O34  1  0.535559  0.845765  0.431721  1
  O  O35  1  0.535559  0.154235  0.068279  1
