# generated using pymatgen
data_Rb2ZnGe3O8
_symmetry_space_group_name_H-M   'P 1'
_cell_length_a   5.51461702
_cell_length_b   7.10441198
_cell_length_c   7.16262943
_cell_angle_alpha   79.91851065
_cell_angle_beta   68.30625614
_cell_angle_gamma   68.02926209
_symmetry_Int_Tables_number   1
_chemical_formula_structural   Rb2ZnGe3O8
_chemical_formula_sum   'Rb2 Zn1 Ge3 O8'
_cell_volume   241.58644475
_cell_formula_units_Z   1
loop_
 _symmetry_equiv_pos_site_id
 _symmetry_equiv_pos_as_xyz
  1  'x, y, z'
loop_
 _atom_site_type_symbol
 _atom_site_label
 _atom_site_symmetry_multiplicity
 _atom_site_fract_x
 _atom_site_fract_y
 _atom_site_fract_z
 _atom_site_occupancy
  Rb  Rb0  1  0.971849  0.295926  0.815109  1
  Rb  Rb1  1  0.038084  0.697513  0.203805  1
  Zn  Zn2  1  0.691651  0.883152  0.774645  1
  Ge  Ge3  1  0.322280  0.082439  0.244647  1
  Ge  Ge4  1  0.658515  0.277362  0.408422  1
  Ge  Ge5  1  0.349144  0.711610  0.606295  1
  O  O6  1  0.000608  0.294223  0.272177  1
  O  O7  1  0.653778  0.671710  0.651096  1
  O  O8  1  0.595731  0.176442  0.220138  1
  O  O9  1  0.052215  0.713858  0.810249  1
  O  O10  1  0.235431  0.957882  0.484072  1
  O  O11  1  0.599056  0.162109  0.646037  1
  O  O12  1  0.401603  0.942931  0.043735  1
  O  O13  1  0.430054  0.534844  0.417575  1
