# generated using pymatgen
data_HoHg4Se2Cl5
_symmetry_space_group_name_H-M   'P 1'
_cell_length_a   8.48083676
_cell_length_b   10.31485900
_cell_length_c   9.15218900
_cell_angle_alpha   90.00000000
_cell_angle_beta   113.41867390
_cell_angle_gamma   90.00000000
_symmetry_Int_Tables_number   1
_chemical_formula_structural   HoHg4Se2Cl5
_chemical_formula_sum   'Ho2 Hg8 Se4 Cl10'
_cell_volume   734.66995950
_cell_formula_units_Z   2
loop_
 _symmetry_equiv_pos_site_id
 _symmetry_equiv_pos_as_xyz
  1  'x, y, z'
loop_
 _atom_site_type_symbol
 _atom_site_label
 _atom_site_symmetry_multiplicity
 _atom_site_fract_x
 _atom_site_fract_y
 _atom_site_fract_z
 _atom_site_occupancy
  Ho  Ho0  1  0.498106  0.429410  0.499097  1
  Ho  Ho1  1  0.501894  0.929410  0.500903  1
  Hg  Hg2  1  0.928042  0.179783  0.330621  1
  Hg  Hg3  1  0.071958  0.679783  0.669379  1
  Hg  Hg4  1  0.955656  0.669630  0.358152  1
  Hg  Hg5  1  0.044344  0.169630  0.641848  1
  Hg  Hg6  1  0.495283  0.183162  0.988071  1
  Hg  Hg7  1  0.504717  0.683162  0.011929  1
  Hg  Hg8  1  0.807230  0.432837  0.005100  1
  Hg  Hg9  1  0.192770  0.932837  0.994900  1
  Se  Se10  1  0.804928  0.186008  0.019539  1
  Se  Se11  1  0.195072  0.686008  0.980461  1
  Se  Se12  1  0.184767  0.177349  0.952465  1
  Se  Se13  1  0.815233  0.677349  0.047535  1
  Cl  Cl14  1  0.829966  0.925631  0.682559  1
  Cl  Cl15  1  0.170034  0.425631  0.317441  1
  Cl  Cl16  1  0.829121  0.436499  0.695129  1
  Cl  Cl17  1  0.170879  0.936499  0.304871  1
  Cl  Cl18  1  0.421733  0.456121  0.752827  1
  Cl  Cl19  1  0.578267  0.956121  0.247173  1
  Cl  Cl20  1  0.591087  0.397839  0.260756  1
  Cl  Cl21  1  0.408913  0.897839  0.739244  1
  Cl  Cl22  1  0.496682  0.179332  0.547205  1
  Cl  Cl23  1  0.503318  0.679332  0.452795  1
