# generated using pymatgen
data_Dy2Ga2PdRu
_symmetry_space_group_name_H-M   'P 1'
_cell_length_a   4.35895400
_cell_length_b   6.90269400
_cell_length_c   7.78830800
_cell_angle_alpha   90.00000000
_cell_angle_beta   90.00000000
_cell_angle_gamma   90.00000000
_symmetry_Int_Tables_number   1
_chemical_formula_structural   Dy2Ga2PdRu
_chemical_formula_sum   'Dy4 Ga4 Pd2 Ru2'
_cell_volume   234.33870481
_cell_formula_units_Z   2
loop_
 _symmetry_equiv_pos_site_id
 _symmetry_equiv_pos_as_xyz
  1  'x, y, z'
loop_
 _atom_site_type_symbol
 _atom_site_label
 _atom_site_symmetry_multiplicity
 _atom_site_fract_x
 _atom_site_fract_y
 _atom_site_fract_z
 _atom_site_occupancy
  Dy  Dy0  1  0.750000  0.016825  0.691440  1
  Dy  Dy1  1  0.750000  0.527365  0.806953  1
  Dy  Dy2  1  0.250000  0.972635  0.306953  1
  Dy  Dy3  1  0.250000  0.483175  0.191440  1
  Ga  Ga4  1  0.250000  0.827713  0.928593  1
  Ga  Ga5  1  0.250000  0.343512  0.572786  1
  Ga  Ga6  1  0.750000  0.156488  0.072786  1
  Ga  Ga7  1  0.750000  0.672287  0.428593  1
  Pd  Pd8  1  0.250000  0.220053  0.894605  1
  Pd  Pd9  1  0.750000  0.279947  0.394605  1
  Ru  Ru10  1  0.750000  0.767607  0.105624  1
  Ru  Ru11  1  0.250000  0.732393  0.605624  1
