# generated using pymatgen
data_ScTa3Ti2(B2Ru5)2
_symmetry_space_group_name_H-M   'P 1'
_cell_length_a   9.34027806
_cell_length_b   9.34027818
_cell_length_c   3.04651500
_cell_angle_alpha   90.00000000
_cell_angle_beta   90.00000000
_cell_angle_gamma   89.95134904
_symmetry_Int_Tables_number   1
_chemical_formula_structural   ScTa3Ti2(B2Ru5)2
_chemical_formula_sum   'Sc1 Ta3 Ti2 B4 Ru10'
_cell_volume   265.78029600
_cell_formula_units_Z   1
loop_
 _symmetry_equiv_pos_site_id
 _symmetry_equiv_pos_as_xyz
  1  'x, y, z'
loop_
 _atom_site_type_symbol
 _atom_site_label
 _atom_site_symmetry_multiplicity
 _atom_site_fract_x
 _atom_site_fract_y
 _atom_site_fract_z
 _atom_site_occupancy
  Sc  Sc0  1  0.824063  0.675937  0.000000  1
  Ta  Ta1  1  0.176384  0.323616  0.000000  1
  Ta  Ta2  1  0.324202  0.821413  0.000000  1
  Ta  Ta3  1  0.678587  0.175798  0.000000  1
  Ti  Ti4  1  0.501878  0.500963  0.000000  1
  Ti  Ti5  1  0.999037  0.998122  0.000000  1
  B  B6  1  0.624696  0.875304  0.000000  1
  B  B7  1  0.375977  0.124023  0.000000  1
  B  B8  1  0.122775  0.623218  0.000000  1
  B  B9  1  0.876782  0.377225  0.000000  1
  Ru  Ru10  1  0.562228  0.719192  0.500000  1
  Ru  Ru11  1  0.426625  0.285196  0.500000  1
  Ru  Ru12  1  0.078971  0.785768  0.500000  1
  Ru  Ru13  1  0.930541  0.214890  0.500000  1
  Ru  Ru14  1  0.285110  0.569459  0.500000  1
  Ru  Ru15  1  0.714232  0.421029  0.500000  1
  Ru  Ru16  1  0.214804  0.073375  0.500000  1
  Ru  Ru17  1  0.780808  0.937772  0.500000  1
  Ru  Ru18  1  0.497680  0.002320  0.500000  1
  Ru  Ru19  1  0.004619  0.495381  0.500000  1
