# generated using pymatgen
data_Sm3Dy13(ErSn4)4
_symmetry_space_group_name_H-M   'P 1'
_cell_length_a   8.03511463
_cell_length_b   8.18927867
_cell_length_c   15.48431301
_cell_angle_alpha   89.99858560
_cell_angle_beta   90.21515621
_cell_angle_gamma   89.76899722
_symmetry_Int_Tables_number   1
_chemical_formula_structural   Sm3Dy13(ErSn4)4
_chemical_formula_sum   'Sm3 Dy13 Er4 Sn16'
_cell_volume   1018.88009200
_cell_formula_units_Z   1
loop_
 _symmetry_equiv_pos_site_id
 _symmetry_equiv_pos_as_xyz
  1  'x, y, z'
loop_
 _atom_site_type_symbol
 _atom_site_label
 _atom_site_symmetry_multiplicity
 _atom_site_fract_x
 _atom_site_fract_y
 _atom_site_fract_z
 _atom_site_occupancy
  Sm  Sm0  1  0.983468  0.821124  0.403319  1
  Sm  Sm1  1  0.515818  0.321447  0.595839  1
  Sm  Sm2  1  0.016970  0.178805  0.904245  1
  Dy  Dy3  1  0.365551  0.837034  0.877835  1
  Dy  Dy4  1  0.863667  0.663590  0.622516  1
  Dy  Dy5  1  0.636056  0.162900  0.376599  1
  Dy  Dy6  1  0.134510  0.337128  0.121961  1
  Dy  Dy7  1  0.633769  0.162618  0.122541  1
  Dy  Dy8  1  0.135224  0.337010  0.376920  1
  Dy  Dy9  1  0.365340  0.837161  0.622929  1
  Dy  Dy10  1  0.867218  0.662355  0.877957  1
  Dy  Dy11  1  0.520696  0.321519  0.902289  1
  Dy  Dy12  1  0.019133  0.179650  0.597422  1
  Dy  Dy13  1  0.481853  0.679209  0.402664  1
  Dy  Dy14  1  0.980055  0.819762  0.098043  1
  Dy  Dy15  1  0.480448  0.678290  0.096828  1
  Er  Er16  1  0.197336  0.503029  0.750231  1
  Er  Er17  1  0.697178  0.997186  0.750373  1
  Er  Er18  1  0.802746  0.497157  0.249341  1
  Er  Er19  1  0.302950  0.002715  0.249591  1
  Sn  Sn20  1  0.295183  0.034292  0.043121  1
  Sn  Sn21  1  0.796140  0.462569  0.457371  1
  Sn  Sn22  1  0.704448  0.964043  0.542419  1
  Sn  Sn23  1  0.208220  0.537419  0.958277  1
  Sn  Sn24  1  0.703182  0.959156  0.959404  1
  Sn  Sn25  1  0.201680  0.541001  0.540681  1
  Sn  Sn26  1  0.298253  0.040120  0.458903  1
  Sn  Sn27  1  0.793197  0.462755  0.041900  1
  Sn  Sn28  1  0.563103  0.619324  0.750703  1
  Sn  Sn29  1  0.062727  0.880556  0.749974  1
  Sn  Sn30  1  0.437329  0.381492  0.249800  1
  Sn  Sn31  1  0.937367  0.118962  0.249411  1
  Sn  Sn32  1  0.327811  0.147537  0.750683  1
  Sn  Sn33  1  0.828035  0.352750  0.749261  1
  Sn  Sn34  1  0.670182  0.850882  0.249502  1
  Sn  Sn35  1  0.173157  0.647449  0.249151  1
