# generated using pymatgen
data_YbLuPa2(ReB6)2
_symmetry_space_group_name_H-M   'P 1'
_cell_length_a   3.69916700
_cell_length_b   9.13677794
_cell_length_c   11.44773220
_cell_angle_alpha   90.21465653
_cell_angle_beta   90.00000000
_cell_angle_gamma   90.00000000
_symmetry_Int_Tables_number   1
_chemical_formula_structural   YbLuPa2(ReB6)2
_chemical_formula_sum   'Yb2 Lu2 Pa4 Re4 B24'
_cell_volume   386.91308863
_cell_formula_units_Z   2
loop_
 _symmetry_equiv_pos_site_id
 _symmetry_equiv_pos_as_xyz
  1  'x, y, z'
loop_
 _atom_site_type_symbol
 _atom_site_label
 _atom_site_symmetry_multiplicity
 _atom_site_fract_x
 _atom_site_fract_y
 _atom_site_fract_z
 _atom_site_occupancy
  Yb  Yb0  1  0.000000  0.947985  0.379713  1
  Yb  Yb1  1  0.000000  0.052015  0.620287  1
  Lu  Lu2  1  0.000000  0.445307  0.125409  1
  Lu  Lu3  1  0.000000  0.554693  0.874591  1
  Pa  Pa4  1  0.000000  0.322658  0.413107  1
  Pa  Pa5  1  0.000000  0.677342  0.586893  1
  Pa  Pa6  1  0.000000  0.822614  0.088363  1
  Pa  Pa7  1  0.000000  0.177386  0.911637  1
  Re  Re8  1  0.000000  0.638644  0.320633  1
  Re  Re9  1  0.000000  0.361356  0.679367  1
  Re  Re10  1  0.000000  0.139997  0.177667  1
  Re  Re11  1  0.000000  0.860003  0.822333  1
  B  B12  1  0.500000  0.552475  0.432273  1
  B  B13  1  0.500000  0.447525  0.567727  1
  B  B14  1  0.500000  0.053884  0.067075  1
  B  B15  1  0.500000  0.946116  0.932925  1
  B  B16  1  0.500000  0.747021  0.420555  1
  B  B17  1  0.500000  0.252979  0.579445  1
  B  B18  1  0.500000  0.250196  0.079173  1
  B  B19  1  0.500000  0.749804  0.920827  1
  B  B20  1  0.500000  0.793372  0.266319  1
  B  B21  1  0.500000  0.206628  0.733681  1
  B  B22  1  0.500000  0.294268  0.232648  1
  B  B23  1  0.500000  0.705732  0.767352  1
  B  B24  1  0.500000  0.632271  0.184738  1
  B  B25  1  0.500000  0.367729  0.815262  1
  B  B26  1  0.500000  0.134861  0.314302  1
  B  B27  1  0.500000  0.865139  0.685698  1
  B  B28  1  0.500000  0.983665  0.214327  1
  B  B29  1  0.500000  0.016335  0.785673  1
  B  B30  1  0.500000  0.482612  0.285795  1
  B  B31  1  0.500000  0.517388  0.714205  1
  B  B32  1  0.500000  0.607049  0.029953  1
  B  B33  1  0.500000  0.392951  0.970047  1
  B  B34  1  0.500000  0.122873  0.466127  1
  B  B35  1  0.500000  0.877127  0.533873  1
