# generated using pymatgen
data_Cs12Li8Hf(ZrP4)3
_symmetry_space_group_name_H-M   'P 1'
_cell_length_a   10.38977211
_cell_length_b   10.38977212
_cell_length_c   16.71594309
_cell_angle_alpha   89.99218432
_cell_angle_beta   89.99218630
_cell_angle_gamma   143.10550295
_symmetry_Int_Tables_number   1
_chemical_formula_structural   Cs12Li8Hf(ZrP4)3
_chemical_formula_sum   'Cs12 Li8 Hf1 Zr3 P12'
_cell_volume   1083.28477719
_cell_formula_units_Z   1
loop_
 _symmetry_equiv_pos_site_id
 _symmetry_equiv_pos_as_xyz
  1  'x, y, z'
loop_
 _atom_site_type_symbol
 _atom_site_label
 _atom_site_symmetry_multiplicity
 _atom_site_fract_x
 _atom_site_fract_y
 _atom_site_fract_z
 _atom_site_occupancy
  Cs  Cs0  1  0.606427  0.951243  0.828932  1
  Cs  Cs1  1  0.293279  0.292823  0.320551  1
  Cs  Cs2  1  0.207208  0.207166  0.820524  1
  Cs  Cs3  1  0.707177  0.706721  0.679449  1
  Cs  Cs4  1  0.451800  0.107185  0.670537  1
  Cs  Cs5  1  0.892815  0.548200  0.329463  1
  Cs  Cs6  1  0.048757  0.393573  0.171068  1
  Cs  Cs7  1  0.393403  0.048628  0.171080  1
  Cs  Cs8  1  0.548447  0.893607  0.329646  1
  Cs  Cs9  1  0.106393  0.451553  0.670354  1
  Cs  Cs10  1  0.951372  0.606597  0.828920  1
  Cs  Cs11  1  0.792834  0.792792  0.179476  1
  Li  Li12  1  0.082962  0.917038  0.000000  1
  Li  Li13  1  0.583464  0.416536  0.500000  1
  Li  Li14  1  0.917064  0.082936  0.000000  1
  Li  Li15  1  0.750731  0.249269  0.000000  1
  Li  Li16  1  0.749119  0.250881  0.500000  1
  Li  Li17  1  0.249248  0.750752  0.000000  1
  Li  Li18  1  0.249527  0.750473  0.500000  1
  Li  Li19  1  0.417449  0.582551  0.500000  1
  Hf  Hf20  1  0.087087  0.912913  0.500000  1
  Zr  Zr21  1  0.412355  0.587645  0.000000  1
  Zr  Zr22  1  0.912789  0.087211  0.500000  1
  Zr  Zr23  1  0.587645  0.412355  0.000000  1
  P  P24  1  0.073025  0.396460  0.420670  1
  P  P25  1  0.896750  0.572837  0.079557  1
  P  P26  1  0.427163  0.103250  0.920443  1
  P  P27  1  0.603540  0.926975  0.579330  1
  P  P28  1  0.928605  0.606524  0.579069  1
  P  P29  1  0.103346  0.427229  0.920369  1
  P  P30  1  0.572771  0.896654  0.079631  1
  P  P31  1  0.393476  0.071395  0.420931  1
  P  P32  1  0.222042  0.220077  0.577142  1
  P  P33  1  0.722331  0.722325  0.922639  1
  P  P34  1  0.277675  0.277669  0.077361  1
  P  P35  1  0.779923  0.777958  0.422858  1
