# generated using pymatgen
data_Tm11LuInCo5
_symmetry_space_group_name_H-M   'P 1'
_cell_length_a   8.15774262
_cell_length_b   8.15774297
_cell_length_c   8.15960620
_cell_angle_alpha   111.02836471
_cell_angle_beta   110.88203361
_cell_angle_gamma   106.53264010
_symmetry_Int_Tables_number   1
_chemical_formula_structural   Tm11LuInCo5
_chemical_formula_sum   'Tm11 Lu1 In1 Co5'
_cell_volume   417.24365621
_cell_formula_units_Z   1
loop_
 _symmetry_equiv_pos_site_id
 _symmetry_equiv_pos_as_xyz
  1  'x, y, z'
loop_
 _atom_site_type_symbol
 _atom_site_label
 _atom_site_symmetry_multiplicity
 _atom_site_fract_x
 _atom_site_fract_y
 _atom_site_fract_z
 _atom_site_occupancy
  Tm  Tm0  1  0.711941  0.814709  0.526651  1
  Tm  Tm1  1  0.288079  0.814965  0.103042  1
  Tm  Tm2  1  0.711816  0.185260  0.897077  1
  Tm  Tm3  1  0.619089  0.314192  0.305068  1
  Tm  Tm4  1  0.380799  0.685581  0.694945  1
  Tm  Tm5  1  0.009363  0.314146  0.694945  1
  Tm  Tm6  1  0.990876  0.685978  0.305068  1
  Tm  Tm7  1  0.213231  0.405408  0.192555  1
  Tm  Tm8  1  0.786602  0.594275  0.807442  1
  Tm  Tm9  1  0.213168  0.020841  0.807442  1
  Tm  Tm10  1  0.787146  0.979322  0.192555  1
  Lu  Lu11  1  0.288037  0.185116  0.473152  1
  In  In12  1  0.499988  0.499981  0.999968  1
  Co  Co13  1  0.000127  0.376624  0.376751  1
  Co  Co14  1  0.000002  0.623305  0.623307  1
  Co  Co15  1  0.386981  0.887309  0.499935  1
  Co  Co16  1  0.612626  0.112954  0.499935  1
  Co  Co17  1  0.000128  0.000034  0.000162  1
