# generated using pymatgen
data_Sc3Ta(AgS4)2
_symmetry_space_group_name_H-M   'P 1'
_cell_length_a   7.52566500
_cell_length_b   7.60081500
_cell_length_c   10.71028400
_cell_angle_alpha   90.00000000
_cell_angle_beta   90.00000000
_cell_angle_gamma   90.00000000
_symmetry_Int_Tables_number   1
_chemical_formula_structural   Sc3Ta(AgS4)2
_chemical_formula_sum   'Sc6 Ta2 Ag4 S16'
_cell_volume   612.64096237
_cell_formula_units_Z   2
loop_
 _symmetry_equiv_pos_site_id
 _symmetry_equiv_pos_as_xyz
  1  'x, y, z'
loop_
 _atom_site_type_symbol
 _atom_site_label
 _atom_site_symmetry_multiplicity
 _atom_site_fract_x
 _atom_site_fract_y
 _atom_site_fract_z
 _atom_site_occupancy
  Sc  Sc0  1  0.742591  0.000000  0.500000  1
  Sc  Sc1  1  0.742809  0.500000  0.500000  1
  Sc  Sc2  1  0.257191  0.500000  0.000000  1
  Sc  Sc3  1  0.000000  0.753908  0.250000  1
  Sc  Sc4  1  0.257409  0.000000  0.000000  1
  Sc  Sc5  1  0.000000  0.246092  0.750000  1
  Ta  Ta6  1  0.500000  0.761203  0.250000  1
  Ta  Ta7  1  0.500000  0.238797  0.750000  1
  Ag  Ag8  1  0.760926  0.737320  0.877460  1
  Ag  Ag9  1  0.239074  0.262680  0.377460  1
  Ag  Ag10  1  0.239074  0.737320  0.622540  1
  Ag  Ag11  1  0.760926  0.262680  0.122540  1
  S  S12  1  0.737474  0.983684  0.256141  1
  S  S13  1  0.504964  0.751152  0.479548  1
  S  S14  1  0.736533  0.531236  0.256836  1
  S  S15  1  0.495036  0.248848  0.979548  1
  S  S16  1  0.263467  0.531236  0.243164  1
  S  S17  1  0.031726  0.750661  0.010046  1
  S  S18  1  0.262526  0.983684  0.243859  1
  S  S19  1  0.495036  0.751152  0.020452  1
  S  S20  1  0.263467  0.468764  0.756836  1
  S  S21  1  0.031726  0.249339  0.989954  1
  S  S22  1  0.262526  0.016316  0.756141  1
  S  S23  1  0.968274  0.750661  0.489954  1
  S  S24  1  0.737474  0.016316  0.743859  1
  S  S25  1  0.504964  0.248848  0.520452  1
  S  S26  1  0.736533  0.468764  0.743164  1
  S  S27  1  0.968274  0.249339  0.510046  1
