# generated using pymatgen
data_CsTiIrS4
_symmetry_space_group_name_H-M   'P 1'
_cell_length_a   5.88306700
_cell_length_b   7.14638900
_cell_length_c   16.70217500
_cell_angle_alpha   90.00000000
_cell_angle_beta   90.00000000
_cell_angle_gamma   90.00000000
_symmetry_Int_Tables_number   1
_chemical_formula_structural   CsTiIrS4
_chemical_formula_sum   'Cs4 Ti4 Ir4 S16'
_cell_volume   702.20428727
_cell_formula_units_Z   4
loop_
 _symmetry_equiv_pos_site_id
 _symmetry_equiv_pos_as_xyz
  1  'x, y, z'
loop_
 _atom_site_type_symbol
 _atom_site_label
 _atom_site_symmetry_multiplicity
 _atom_site_fract_x
 _atom_site_fract_y
 _atom_site_fract_z
 _atom_site_occupancy
  Cs  Cs0  1  0.388008  0.000000  0.000000  1
  Cs  Cs1  1  0.611992  0.500000  0.500000  1
  Cs  Cs2  1  0.030669  0.000000  0.500000  1
  Cs  Cs3  1  0.969331  0.500000  0.000000  1
  Ti  Ti4  1  0.073631  0.000000  0.244991  1
  Ti  Ti5  1  0.073631  0.000000  0.755009  1
  Ti  Ti6  1  0.926369  0.500000  0.255009  1
  Ti  Ti7  1  0.926369  0.500000  0.744991  1
  Ir  Ir8  1  0.500000  0.250000  0.250000  1
  Ir  Ir9  1  0.500000  0.750000  0.750000  1
  Ir  Ir10  1  0.500000  0.750000  0.250000  1
  Ir  Ir11  1  0.500000  0.250000  0.750000  1
  S  S12  1  0.834874  0.241655  0.333321  1
  S  S13  1  0.834874  0.758345  0.666679  1
  S  S14  1  0.165126  0.741655  0.166679  1
  S  S15  1  0.165126  0.258345  0.833321  1
  S  S16  1  0.165126  0.258345  0.166679  1
  S  S17  1  0.165126  0.741655  0.833321  1
  S  S18  1  0.834874  0.758345  0.333321  1
  S  S19  1  0.834874  0.241655  0.666679  1
  S  S20  1  0.686964  0.000000  0.178044  1
  S  S21  1  0.686964  0.000000  0.821956  1
  S  S22  1  0.313036  0.500000  0.321956  1
  S  S23  1  0.313036  0.500000  0.678044  1
  S  S24  1  0.376217  0.000000  0.336184  1
  S  S25  1  0.376217  0.000000  0.663816  1
  S  S26  1  0.623783  0.500000  0.163816  1
  S  S27  1  0.623783  0.500000  0.836184  1
