# generated using pymatgen
data_Li2TiCrRh4
_symmetry_space_group_name_H-M   'P 1'
_cell_length_a   4.22488600
_cell_length_b   5.97413700
_cell_length_c   12.67522600
_cell_angle_alpha   89.99992548
_cell_angle_beta   90.00056505
_cell_angle_gamma   90.00000000
_symmetry_Int_Tables_number   1
_chemical_formula_structural   Li2TiCrRh4
_chemical_formula_sum   'Li6 Ti3 Cr3 Rh12'
_cell_volume   319.92330977
_cell_formula_units_Z   3
loop_
 _symmetry_equiv_pos_site_id
 _symmetry_equiv_pos_as_xyz
  1  'x, y, z'
loop_
 _atom_site_type_symbol
 _atom_site_label
 _atom_site_symmetry_multiplicity
 _atom_site_fract_x
 _atom_site_fract_y
 _atom_site_fract_z
 _atom_site_occupancy
  Li  Li0  1  0.000021  0.499996  0.002572  1
  Li  Li1  1  0.499866  0.000006  0.166612  1
  Li  Li2  1  0.999882  0.499998  0.330783  1
  Li  Li3  1  0.500021  0.999997  0.497252  1
  Li  Li4  1  0.000105  0.500002  0.666673  1
  Li  Li5  1  0.500127  0.000000  0.836117  1
  Ti  Ti6  1  0.500003  0.500001  0.497188  1
  Ti  Ti7  1  0.000086  0.999999  0.666699  1
  Ti  Ti8  1  0.500095  0.500002  0.836138  1
  Cr  Cr9  1  0.000010  0.000000  0.002284  1
  Cr  Cr10  1  0.499903  0.500000  0.166609  1
  Cr  Cr11  1  0.999902  0.999991  0.331054  1
  Rh  Rh12  1  0.500008  0.247654  0.004198  1
  Rh  Rh13  1  0.500008  0.752347  0.004200  1
  Rh  Rh14  1  0.999906  0.252462  0.166664  1
  Rh  Rh15  1  0.999906  0.747539  0.166664  1
  Rh  Rh16  1  0.499903  0.247580  0.329114  1
  Rh  Rh17  1  0.499904  0.752423  0.329112  1
  Rh  Rh18  1  0.000005  0.248470  0.496236  1
  Rh  Rh19  1  0.000005  0.751531  0.496236  1
  Rh  Rh20  1  0.500079  0.250216  0.666676  1
  Rh  Rh21  1  0.500078  0.749783  0.666677  1
  Rh  Rh22  1  0.000091  0.248400  0.837120  1
  Rh  Rh23  1  0.000091  0.751598  0.837121  1
