# generated using pymatgen
data_Mn13Cr7Co(WC3)2
_symmetry_space_group_name_H-M   'P 1'
_cell_length_a   7.43893549
_cell_length_b   7.44040634
_cell_length_c   7.44303413
_cell_angle_alpha   60.09379444
_cell_angle_beta   60.01880012
_cell_angle_gamma   60.00730128
_symmetry_Int_Tables_number   1
_chemical_formula_structural   Mn13Cr7Co(WC3)2
_chemical_formula_sum   'Mn13 Cr7 Co1 W2 C6'
_cell_volume   291.56481803
_cell_formula_units_Z   1
loop_
 _symmetry_equiv_pos_site_id
 _symmetry_equiv_pos_as_xyz
  1  'x, y, z'
loop_
 _atom_site_type_symbol
 _atom_site_label
 _atom_site_symmetry_multiplicity
 _atom_site_fract_x
 _atom_site_fract_y
 _atom_site_fract_z
 _atom_site_occupancy
  Mn  Mn0  1  0.616137  0.615731  0.151990  1
  Mn  Mn1  1  0.616819  0.151985  0.614375  1
  Mn  Mn2  1  0.152158  0.616220  0.616322  1
  Mn  Mn3  1  0.615297  0.616220  0.616323  1
  Mn  Mn4  1  0.383760  0.383668  0.848812  1
  Mn  Mn5  1  0.384170  0.848902  0.382754  1
  Mn  Mn6  1  0.848605  0.383510  0.383381  1
  Mn  Mn7  1  0.384501  0.383510  0.383385  1
  Mn  Mn8  1  0.000525  0.999001  0.335935  1
  Mn  Mn9  1  0.664532  0.998999  0.335948  1
  Mn  Mn10  1  0.998647  0.665252  0.337453  1
  Mn  Mn11  1  0.663802  0.335976  0.999229  1
  Mn  Mn12  1  0.000999  0.335974  0.999228  1
  Cr  Cr13  1  0.999183  0.335151  0.666498  1
  Cr  Cr14  1  0.335514  0.664060  0.000217  1
  Cr  Cr15  1  0.336414  0.000834  0.662863  1
  Cr  Cr16  1  0.333768  0.000214  0.000983  1
  Cr  Cr17  1  0.999908  0.000832  0.662848  1
  Cr  Cr18  1  0.000211  0.664039  0.000229  1
  Cr  Cr19  1  0.665020  0.000205  0.000995  1
  Co  Co20  1  0.999527  0.000380  0.000580  1
  W  W21  1  0.750061  0.750642  0.749229  1
  W  W22  1  0.250259  0.249594  0.249886  1
  C  C23  1  0.722300  0.721764  0.280450  1
  C  C24  1  0.275485  0.721765  0.280449  1
  C  C25  1  0.724985  0.275219  0.274816  1
  C  C26  1  0.278591  0.279693  0.722092  1
  C  C27  1  0.719618  0.279701  0.722089  1
  C  C28  1  0.279205  0.720958  0.720641  1
