# generated using pymatgen
data_CaYbLu2(Pt2O7)2
_symmetry_space_group_name_H-M   'P 1'
_cell_length_a   7.22675811
_cell_length_b   7.24611636
_cell_length_c   7.22675856
_cell_angle_alpha   59.99564481
_cell_angle_beta   59.69896828
_cell_angle_gamma   59.99564490
_symmetry_Int_Tables_number   1
_chemical_formula_structural   CaYbLu2(Pt2O7)2
_chemical_formula_sum   'Ca1 Yb1 Lu2 Pt4 O14'
_cell_volume   266.96302640
_cell_formula_units_Z   1
loop_
 _symmetry_equiv_pos_site_id
 _symmetry_equiv_pos_as_xyz
  1  'x, y, z'
loop_
 _atom_site_type_symbol
 _atom_site_label
 _atom_site_symmetry_multiplicity
 _atom_site_fract_x
 _atom_site_fract_y
 _atom_site_fract_z
 _atom_site_occupancy
  Ca  Ca0  1  0.625000  0.625000  0.625000  1
  Yb  Yb1  1  0.625000  0.125000  0.625000  1
  Lu  Lu2  1  0.625000  0.625000  0.125000  1
  Lu  Lu3  1  0.125000  0.625000  0.625000  1
  Pt  Pt4  1  0.625000  0.125000  0.125000  1
  Pt  Pt5  1  0.125000  0.125000  0.125000  1
  Pt  Pt6  1  0.125000  0.625000  0.125000  1
  Pt  Pt7  1  0.125000  0.125000  0.625000  1
  O  O8  1  0.052105  0.461209  0.460253  1
  O  O9  1  0.789747  0.788791  0.197895  1
  O  O10  1  0.789220  0.220976  0.202319  1
  O  O11  1  0.035728  0.463720  0.035728  1
  O  O12  1  0.459414  0.043515  0.459414  1
  O  O13  1  0.759184  0.741449  0.759184  1
  O  O14  1  0.047681  0.029024  0.460780  1
  O  O15  1  0.790586  0.206485  0.790586  1
  O  O16  1  0.490816  0.508551  0.490816  1
  O  O17  1  0.202319  0.220976  0.789220  1
  O  O18  1  0.214272  0.786280  0.214272  1
  O  O19  1  0.460780  0.029024  0.047681  1
  O  O20  1  0.460253  0.461209  0.052105  1
  O  O21  1  0.197895  0.788791  0.789747  1
