# generated using pymatgen
data_CaNd(OsO3)6
_symmetry_space_group_name_H-M   'P 1'
_cell_length_a   7.45423500
_cell_length_b   5.33515032
_cell_length_c   8.19028676
_cell_angle_alpha   85.79380100
_cell_angle_beta   90.00000000
_cell_angle_gamma   90.00000000
_symmetry_Int_Tables_number   1
_chemical_formula_structural   CaNd(OsO3)6
_chemical_formula_sum   'Ca1 Nd1 Os6 O18'
_cell_volume   324.84599636
_cell_formula_units_Z   1
loop_
 _symmetry_equiv_pos_site_id
 _symmetry_equiv_pos_as_xyz
  1  'x, y, z'
loop_
 _atom_site_type_symbol
 _atom_site_label
 _atom_site_symmetry_multiplicity
 _atom_site_fract_x
 _atom_site_fract_y
 _atom_site_fract_z
 _atom_site_occupancy
  Ca  Ca0  1  0.750000  0.029963  0.573772  1
  Nd  Nd1  1  0.250000  0.969166  0.431470  1
  Os  Os2  1  0.499089  0.535903  0.693995  1
  Os  Os3  1  0.994760  0.462722  0.307407  1
  Os  Os4  1  0.499737  0.997748  0.998458  1
  Os  Os5  1  0.000263  0.997748  0.998458  1
  Os  Os6  1  0.000911  0.535903  0.693995  1
  Os  Os7  1  0.505240  0.462722  0.307407  1
  O  O8  1  0.750000  0.432654  0.691540  1
  O  O9  1  0.250000  0.565354  0.312204  1
  O  O10  1  0.750000  0.069485  0.017546  1
  O  O11  1  0.250000  0.930054  0.983852  1
  O  O12  1  0.250000  0.636416  0.676413  1
  O  O13  1  0.750000  0.388450  0.317853  1
  O  O14  1  0.034646  0.270534  0.526624  1
  O  O15  1  0.534739  0.731389  0.474124  1
  O  O16  1  0.559582  0.843318  0.790011  1
  O  O17  1  0.058641  0.152073  0.210514  1
  O  O18  1  0.441359  0.152073  0.210514  1
  O  O19  1  0.940418  0.843318  0.790011  1
  O  O20  1  0.034263  0.305557  0.875411  1
  O  O21  1  0.532784  0.689983  0.121129  1
  O  O22  1  0.967216  0.689983  0.121129  1
  O  O23  1  0.465737  0.305557  0.875411  1
  O  O24  1  0.465354  0.270534  0.526624  1
  O  O25  1  0.965261  0.731389  0.474124  1
