# generated using pymatgen
data_ErPa3(Pd2Pb)2
_symmetry_space_group_name_H-M   'P 1'
_cell_length_a   7.89473939
_cell_length_b   7.89473939
_cell_length_c   3.65989300
_cell_angle_alpha   90.00000000
_cell_angle_beta   90.00000000
_cell_angle_gamma   89.89386684
_symmetry_Int_Tables_number   1
_chemical_formula_structural   ErPa3(Pd2Pb)2
_chemical_formula_sum   'Er1 Pa3 Pd4 Pb2'
_cell_volume   228.10943017
_cell_formula_units_Z   1
loop_
 _symmetry_equiv_pos_site_id
 _symmetry_equiv_pos_as_xyz
  1  'x, y, z'
loop_
 _atom_site_type_symbol
 _atom_site_label
 _atom_site_symmetry_multiplicity
 _atom_site_fract_x
 _atom_site_fract_y
 _atom_site_fract_z
 _atom_site_occupancy
  Er  Er0  1  0.326844  0.826844  0.500000  1
  Pa  Pa1  1  0.670516  0.170516  0.500000  1
  Pa  Pa2  1  0.174205  0.326781  0.500000  1
  Pa  Pa3  1  0.826781  0.674205  0.500000  1
  Pd  Pd4  1  0.376777  0.132184  0.000000  1
  Pd  Pd5  1  0.118854  0.618854  0.000000  1
  Pd  Pd6  1  0.632184  0.876777  0.000000  1
  Pd  Pd7  1  0.869630  0.369630  0.000000  1
  Pb  Pb8  1  0.007129  0.997078  0.000000  1
  Pb  Pb9  1  0.497078  0.507129  0.000000  1
