# generated using pymatgen
data_Ba4TlIn(PPt2)2
_symmetry_space_group_name_H-M   'P 1'
_cell_length_a   6.85770699
_cell_length_b   6.92958971
_cell_length_c   7.09714364
_cell_angle_alpha   93.04401622
_cell_angle_beta   90.27958230
_cell_angle_gamma   89.74164144
_symmetry_Int_Tables_number   1
_chemical_formula_structural   Ba4TlIn(PPt2)2
_chemical_formula_sum   'Ba4 Tl1 In1 P2 Pt4'
_cell_volume   336.78111489
_cell_formula_units_Z   1
loop_
 _symmetry_equiv_pos_site_id
 _symmetry_equiv_pos_as_xyz
  1  'x, y, z'
loop_
 _atom_site_type_symbol
 _atom_site_label
 _atom_site_symmetry_multiplicity
 _atom_site_fract_x
 _atom_site_fract_y
 _atom_site_fract_z
 _atom_site_occupancy
  Ba  Ba0  1  0.608812  0.386764  0.865822  1
  Ba  Ba1  1  0.379531  0.883340  0.602723  1
  Ba  Ba2  1  0.108518  0.112881  0.134091  1
  Ba  Ba3  1  0.880068  0.615917  0.397145  1
  Tl  Tl4  1  0.587891  0.910108  0.086634  1
  In  In5  1  0.090520  0.590839  0.909174  1
  P  P6  1  0.915622  0.096782  0.577025  1
  P  P7  1  0.410253  0.404163  0.424443  1
  Pt  Pt8  1  0.162906  0.320797  0.626300  1
  Pt  Pt9  1  0.663016  0.184001  0.380834  1
  Pt  Pt10  1  0.851706  0.874310  0.795357  1
  Pt  Pt11  1  0.341155  0.620098  0.200451  1
