# generated using pymatgen
data_ThNp7H24
_symmetry_space_group_name_H-M   'P 1'
_cell_length_a   6.68472900
_cell_length_b   6.68472900
_cell_length_c   6.68472900
_cell_angle_alpha   90.00000000
_cell_angle_beta   90.00000000
_cell_angle_gamma   90.00000000
_symmetry_Int_Tables_number   1
_chemical_formula_structural   ThNp7H24
_chemical_formula_sum   'Th1 Np7 H24'
_cell_volume   298.71113826
_cell_formula_units_Z   1
loop_
 _symmetry_equiv_pos_site_id
 _symmetry_equiv_pos_as_xyz
  1  'x, y, z'
loop_
 _atom_site_type_symbol
 _atom_site_label
 _atom_site_symmetry_multiplicity
 _atom_site_fract_x
 _atom_site_fract_y
 _atom_site_fract_z
 _atom_site_occupancy
  Th  Th0  1  0.500000  0.500000  0.500000  1
  Np  Np1  1  0.000000  0.000000  0.000000  1
  Np  Np2  1  0.247262  0.000000  0.500000  1
  Np  Np3  1  0.752738  0.000000  0.500000  1
  Np  Np4  1  0.000000  0.500000  0.247262  1
  Np  Np5  1  0.000000  0.500000  0.752738  1
  Np  Np6  1  0.500000  0.752738  0.000000  1
  Np  Np7  1  0.500000  0.247262  0.000000  1
  H  H8  1  0.000000  0.154649  0.302928  1
  H  H9  1  0.500000  0.190144  0.657394  1
  H  H10  1  0.500000  0.809856  0.342606  1
  H  H11  1  0.809856  0.657394  0.500000  1
  H  H12  1  0.190144  0.657394  0.500000  1
  H  H13  1  0.342606  0.500000  0.809856  1
  H  H14  1  0.657394  0.500000  0.809856  1
  H  H15  1  0.302928  0.000000  0.154649  1
  H  H16  1  0.154649  0.302928  0.000000  1
  H  H17  1  0.845351  0.697072  0.000000  1
  H  H18  1  0.302928  0.000000  0.845351  1
  H  H19  1  0.845351  0.302928  0.000000  1
  H  H20  1  0.697072  0.000000  0.154649  1
  H  H21  1  0.697072  0.000000  0.845351  1
  H  H22  1  0.154649  0.697072  0.000000  1
  H  H23  1  0.000000  0.845351  0.697072  1
  H  H24  1  0.000000  0.154649  0.697072  1
  H  H25  1  0.000000  0.845351  0.302928  1
  H  H26  1  0.657394  0.500000  0.190144  1
  H  H27  1  0.342606  0.500000  0.190144  1
  H  H28  1  0.809856  0.342606  0.500000  1
  H  H29  1  0.190144  0.342606  0.500000  1
  H  H30  1  0.500000  0.809856  0.657394  1
  H  H31  1  0.500000  0.190144  0.342606  1
