# generated using pymatgen
data_Ca7ZrMn2N9
_symmetry_space_group_name_H-M   'P 1'
_cell_length_a   10.05153300
_cell_length_b   6.12750959
_cell_length_c   9.07498316
_cell_angle_alpha   87.84536841
_cell_angle_beta   90.00000000
_cell_angle_gamma   90.00000000
_symmetry_Int_Tables_number   1
_chemical_formula_structural   Ca7ZrMn2N9
_chemical_formula_sum   'Ca14 Zr2 Mn4 N18'
_cell_volume   558.54089364
_cell_formula_units_Z   2
loop_
 _symmetry_equiv_pos_site_id
 _symmetry_equiv_pos_as_xyz
  1  'x, y, z'
loop_
 _atom_site_type_symbol
 _atom_site_label
 _atom_site_symmetry_multiplicity
 _atom_site_fract_x
 _atom_site_fract_y
 _atom_site_fract_z
 _atom_site_occupancy
  Ca  Ca0  1  0.932133  0.430113  0.166342  1
  Ca  Ca1  1  0.080849  0.247117  0.496735  1
  Ca  Ca2  1  0.250000  0.088246  0.799028  1
  Ca  Ca3  1  0.432133  0.569887  0.833658  1
  Ca  Ca4  1  0.580849  0.752883  0.503265  1
  Ca  Ca5  1  0.579010  0.064507  0.826396  1
  Ca  Ca6  1  0.920990  0.064507  0.826396  1
  Ca  Ca7  1  0.420990  0.935493  0.173604  1
  Ca  Ca8  1  0.419151  0.247117  0.496735  1
  Ca  Ca9  1  0.079010  0.935493  0.173604  1
  Ca  Ca10  1  0.919151  0.752883  0.503265  1
  Ca  Ca11  1  0.067867  0.569887  0.833658  1
  Ca  Ca12  1  0.750000  0.911754  0.200972  1
  Ca  Ca13  1  0.567867  0.430113  0.166342  1
  Zr  Zr14  1  0.750000  0.274132  0.444349  1
  Zr  Zr15  1  0.250000  0.725868  0.555651  1
  Mn  Mn16  1  0.250000  0.322388  0.067488  1
  Mn  Mn17  1  0.750000  0.464244  0.730919  1
  Mn  Mn18  1  0.750000  0.677612  0.932512  1
  Mn  Mn19  1  0.250000  0.535756  0.269081  1
  N  N20  1  0.400104  0.230931  0.984070  1
  N  N21  1  0.250000  0.230565  0.267005  1
  N  N22  1  0.909691  0.107836  0.338062  1
  N  N23  1  0.607262  0.373725  0.639239  1
  N  N24  1  0.750000  0.564405  0.330834  1
  N  N25  1  0.250000  0.630437  0.073022  1
  N  N26  1  0.892738  0.373725  0.639239  1
  N  N27  1  0.392738  0.626275  0.360761  1
  N  N28  1  0.750000  0.369563  0.926978  1
  N  N29  1  0.090309  0.892164  0.661938  1
  N  N30  1  0.750000  0.769435  0.732995  1
  N  N31  1  0.107262  0.626275  0.360761  1
  N  N32  1  0.599896  0.769069  0.015930  1
  N  N33  1  0.250000  0.435595  0.669166  1
  N  N34  1  0.409691  0.892164  0.661938  1
  N  N35  1  0.590309  0.107836  0.338062  1
  N  N36  1  0.099896  0.230931  0.984070  1
  N  N37  1  0.900104  0.769069  0.015930  1
