# generated using pymatgen
data_Hf2InPdRh
_symmetry_space_group_name_H-M   'P 1'
_cell_length_a   7.65513241
_cell_length_b   7.65513241
_cell_length_c   3.24252000
_cell_angle_alpha   90.00000000
_cell_angle_beta   90.00000000
_cell_angle_gamma   89.93055766
_symmetry_Int_Tables_number   1
_chemical_formula_structural   Hf2InPdRh
_chemical_formula_sum   'Hf4 In2 Pd2 Rh2'
_cell_volume   190.01494405
_cell_formula_units_Z   2
loop_
 _symmetry_equiv_pos_site_id
 _symmetry_equiv_pos_as_xyz
  1  'x, y, z'
loop_
 _atom_site_type_symbol
 _atom_site_label
 _atom_site_symmetry_multiplicity
 _atom_site_fract_x
 _atom_site_fract_y
 _atom_site_fract_z
 _atom_site_occupancy
  Hf  Hf0  1  0.171896  0.328104  0.000000  1
  Hf  Hf1  1  0.828104  0.671896  0.000000  1
  Hf  Hf2  1  0.661198  0.161198  0.000000  1
  Hf  Hf3  1  0.338802  0.838802  0.000000  1
  In  In4  1  0.000000  0.000000  0.500000  1
  In  In5  1  0.500000  0.500000  0.500000  1
  Pd  Pd6  1  0.871364  0.371364  0.500000  1
  Pd  Pd7  1  0.128636  0.628636  0.500000  1
  Rh  Rh8  1  0.369333  0.130667  0.500000  1
  Rh  Rh9  1  0.630667  0.869333  0.500000  1
