# generated using pymatgen
data_CeNdU(GaIr)3
_symmetry_space_group_name_H-M   'P 1'
_cell_length_a   7.06891300
_cell_length_b   7.19757853
_cell_length_c   4.06227600
_cell_angle_alpha   90.00000000
_cell_angle_beta   90.00000000
_cell_angle_gamma   119.85505497
_symmetry_Int_Tables_number   1
_chemical_formula_structural   CeNdU(GaIr)3
_chemical_formula_sum   'Ce1 Nd1 U1 Ga3 Ir3'
_cell_volume   179.25512053
_cell_formula_units_Z   1
loop_
 _symmetry_equiv_pos_site_id
 _symmetry_equiv_pos_as_xyz
  1  'x, y, z'
loop_
 _atom_site_type_symbol
 _atom_site_label
 _atom_site_symmetry_multiplicity
 _atom_site_fract_x
 _atom_site_fract_y
 _atom_site_fract_z
 _atom_site_occupancy
  Ce  Ce0  1  0.416785  0.417199  0.500000  1
  Nd  Nd1  1  0.584904  0.000909  0.500000  1
  U  U2  1  0.998482  0.582859  0.500000  1
  Ga  Ga3  1  0.755619  0.765518  0.000000  1
  Ga  Ga4  1  0.248307  0.999936  0.000000  1
  Ga  Ga5  1  0.997000  0.229158  0.000000  1
  Ir  Ir6  1  0.697022  0.375365  0.000000  1
  Ir  Ir7  1  0.290119  0.643743  0.000000  1
  Ir  Ir8  1  0.011762  0.985312  0.500000  1
