# generated using pymatgen
data_HoTm4(RuO6)2
_symmetry_space_group_name_H-M   'P 1'
_cell_length_a   6.76449916
_cell_length_b   6.76449849
_cell_length_c   7.30783284
_cell_angle_alpha   74.19702636
_cell_angle_beta   74.19702647
_cell_angle_gamma   50.44788514
_symmetry_Int_Tables_number   1
_chemical_formula_structural   HoTm4(RuO6)2
_chemical_formula_sum   'Ho1 Tm4 Ru2 O12'
_cell_volume   245.87383561
_cell_formula_units_Z   1
loop_
 _symmetry_equiv_pos_site_id
 _symmetry_equiv_pos_as_xyz
  1  'x, y, z'
loop_
 _atom_site_type_symbol
 _atom_site_label
 _atom_site_symmetry_multiplicity
 _atom_site_fract_x
 _atom_site_fract_y
 _atom_site_fract_z
 _atom_site_occupancy
  Ho  Ho0  1  0.000000  0.000000  0.500000  1
  Tm  Tm1  1  0.302202  0.302202  0.360999  1
  Tm  Tm2  1  0.697798  0.697798  0.639001  1
  Tm  Tm3  1  0.310409  0.310409  0.826444  1
  Tm  Tm4  1  0.689591  0.689591  0.173556  1
  Ru  Ru5  1  0.763049  0.236951  0.000000  1
  Ru  Ru6  1  0.236951  0.763049  0.000000  1
  O  O7  1  0.906352  0.427017  0.914653  1
  O  O8  1  0.427017  0.906352  0.914653  1
  O  O9  1  0.093648  0.572983  0.085347  1
  O  O10  1  0.572983  0.093648  0.085347  1
  O  O11  1  0.097544  0.592921  0.574710  1
  O  O12  1  0.592921  0.097544  0.574710  1
  O  O13  1  0.902456  0.407079  0.425290  1
  O  O14  1  0.407079  0.902456  0.425290  1
  O  O15  1  0.998956  0.998956  0.804035  1
  O  O16  1  0.001044  0.001044  0.195965  1
  O  O17  1  0.500263  0.500263  0.811001  1
  O  O18  1  0.499737  0.499737  0.188999  1
