# generated using pymatgen
data_Pr3Dy(Sn5Rh3)2
_symmetry_space_group_name_H-M   'P 1'
_cell_length_a   13.61377904
_cell_length_b   13.61378020
_cell_length_c   7.26533429
_cell_angle_alpha   89.86389511
_cell_angle_beta   90.13610457
_cell_angle_gamma   160.79967676
_symmetry_Int_Tables_number   1
_chemical_formula_structural   Pr3Dy(Sn5Rh3)2
_chemical_formula_sum   'Pr3 Dy1 Sn10 Rh6'
_cell_volume   442.83163544
_cell_formula_units_Z   1
loop_
 _symmetry_equiv_pos_site_id
 _symmetry_equiv_pos_as_xyz
  1  'x, y, z'
loop_
 _atom_site_type_symbol
 _atom_site_label
 _atom_site_symmetry_multiplicity
 _atom_site_fract_x
 _atom_site_fract_y
 _atom_site_fract_z
 _atom_site_occupancy
  Pr  Pr0  1  0.171937  0.828063  0.753152  1
  Pr  Pr1  1  0.827957  0.172043  0.253868  1
  Pr  Pr2  1  0.476584  0.523416  0.738908  1
  Dy  Dy3  1  0.524512  0.475488  0.238724  1
  Sn  Sn4  1  0.878457  0.121543  0.733167  1
  Sn  Sn5  1  0.120813  0.879187  0.233631  1
  Sn  Sn6  1  0.703690  0.296310  0.048889  1
  Sn  Sn7  1  0.295693  0.704307  0.549334  1
  Sn  Sn8  1  0.596255  0.403745  0.609089  1
  Sn  Sn9  1  0.404466  0.595534  0.111849  1
  Sn  Sn10  1  0.953130  0.046870  0.398947  1
  Sn  Sn11  1  0.048070  0.951930  0.903455  1
  Sn  Sn12  1  0.289887  0.710113  0.974921  1
  Sn  Sn13  1  0.709826  0.290174  0.474321  1
  Rh  Rh14  1  0.051170  0.948830  0.513942  1
  Rh  Rh15  1  0.949173  0.050827  0.020670  1
  Rh  Rh16  1  0.776875  0.223125  0.764399  1
  Rh  Rh17  1  0.222699  0.777301  0.264204  1
  Rh  Rh18  1  0.395020  0.604980  0.483722  1
  Rh  Rh19  1  0.603786  0.396214  0.986808  1
