# generated using pymatgen
data_Ca6Yb2YPt6
_symmetry_space_group_name_H-M   'P 1'
_cell_length_a   7.65299451
_cell_length_b   7.65299540
_cell_length_c   7.65299500
_cell_angle_alpha   71.23871534
_cell_angle_beta   71.23870518
_cell_angle_gamma   71.23872705
_symmetry_Int_Tables_number   1
_chemical_formula_structural   Ca6Yb2YPt6
_chemical_formula_sum   'Ca6 Yb2 Y1 Pt6'
_cell_volume   389.77643597
_cell_formula_units_Z   1
loop_
 _symmetry_equiv_pos_site_id
 _symmetry_equiv_pos_as_xyz
  1  'x, y, z'
loop_
 _atom_site_type_symbol
 _atom_site_label
 _atom_site_symmetry_multiplicity
 _atom_site_fract_x
 _atom_site_fract_y
 _atom_site_fract_z
 _atom_site_occupancy
  Ca  Ca0  1  0.331622  0.603338  0.844463  1
  Ca  Ca1  1  0.844463  0.331622  0.603338  1
  Ca  Ca2  1  0.603338  0.844463  0.331622  1
  Ca  Ca3  1  0.668378  0.396662  0.155537  1
  Ca  Ca4  1  0.155537  0.668378  0.396662  1
  Ca  Ca5  1  0.396662  0.155537  0.668378  1
  Yb  Yb6  1  0.798223  0.798223  0.798223  1
  Yb  Yb7  1  0.201777  0.201777  0.201777  1
  Y  Y8  1  0.000000  0.000000  0.000000  1
  Pt  Pt9  1  0.145848  0.958060  0.599171  1
  Pt  Pt10  1  0.599171  0.145848  0.958060  1
  Pt  Pt11  1  0.958060  0.599171  0.145848  1
  Pt  Pt12  1  0.854152  0.041940  0.400829  1
  Pt  Pt13  1  0.400829  0.854152  0.041940  1
  Pt  Pt14  1  0.041940  0.400829  0.854152  1
