# generated using pymatgen
data_Ce2Pa(AlNi)3
_symmetry_space_group_name_H-M   'P 1'
_cell_length_a   6.83118985
_cell_length_b   6.84200463
_cell_length_c   4.04939600
_cell_angle_alpha   90.00000000
_cell_angle_beta   90.00000000
_cell_angle_gamma   120.05237616
_symmetry_Int_Tables_number   1
_chemical_formula_structural   Ce2Pa(AlNi)3
_chemical_formula_sum   'Ce2 Pa1 Al3 Ni3'
_cell_volume   163.82159411
_cell_formula_units_Z   1
loop_
 _symmetry_equiv_pos_site_id
 _symmetry_equiv_pos_as_xyz
  1  'x, y, z'
loop_
 _atom_site_type_symbol
 _atom_site_label
 _atom_site_symmetry_multiplicity
 _atom_site_fract_x
 _atom_site_fract_y
 _atom_site_fract_z
 _atom_site_occupancy
  Ce  Ce0  1  0.575413  0.000312  0.500000  1
  Ce  Ce1  1  0.424587  0.424899  0.500000  1
  Pa  Pa2  1  0.000000  0.575612  0.500000  1
  Al  Al3  1  0.233605  0.999456  0.000000  1
  Al  Al4  1  0.766395  0.765851  0.000000  1
  Al  Al5  1  0.000000  0.232583  0.000000  1
  Ni  Ni6  1  0.316766  0.664055  0.000000  1
  Ni  Ni7  1  0.683234  0.347288  0.000000  1
  Ni  Ni8  1  0.000000  0.989943  0.500000  1
