# generated using pymatgen
data_HoErSiPd14
_symmetry_space_group_name_H-M   'P 1'
_cell_length_a   8.91938100
_cell_length_b   8.91938100
_cell_length_c   7.07393400
_cell_angle_alpha   90.00000000
_cell_angle_beta   90.00000000
_cell_angle_gamma   90.00000000
_symmetry_Int_Tables_number   1
_chemical_formula_structural   HoErSiPd14
_chemical_formula_sum   'Ho2 Er2 Si2 Pd28'
_cell_volume   562.76934776
_cell_formula_units_Z   2
loop_
 _symmetry_equiv_pos_site_id
 _symmetry_equiv_pos_as_xyz
  1  'x, y, z'
loop_
 _atom_site_type_symbol
 _atom_site_label
 _atom_site_symmetry_multiplicity
 _atom_site_fract_x
 _atom_site_fract_y
 _atom_site_fract_z
 _atom_site_occupancy
  Ho  Ho0  1  0.500000  0.000000  0.934494  1
  Ho  Ho1  1  0.000000  0.500000  0.065506  1
  Er  Er2  1  0.000000  0.000000  0.500000  1
  Er  Er3  1  0.500000  0.500000  0.500000  1
  Si  Si4  1  0.500000  0.000000  0.447938  1
  Si  Si5  1  0.000000  0.500000  0.552062  1
  Pd  Pd6  1  0.334381  0.834381  0.616077  1
  Pd  Pd7  1  0.334381  0.165619  0.616077  1
  Pd  Pd8  1  0.665619  0.834381  0.616077  1
  Pd  Pd9  1  0.665619  0.165619  0.616077  1
  Pd  Pd10  1  0.165619  0.665619  0.383923  1
  Pd  Pd11  1  0.165619  0.334381  0.383923  1
  Pd  Pd12  1  0.834381  0.665619  0.383923  1
  Pd  Pd13  1  0.834381  0.334381  0.383923  1
  Pd  Pd14  1  0.500000  0.769845  0.256494  1
  Pd  Pd15  1  0.500000  0.230155  0.256494  1
  Pd  Pd16  1  0.269845  0.000000  0.256494  1
  Pd  Pd17  1  0.730155  0.000000  0.256494  1
  Pd  Pd18  1  0.000000  0.730155  0.743506  1
  Pd  Pd19  1  0.000000  0.269845  0.743506  1
  Pd  Pd20  1  0.230155  0.500000  0.743506  1
  Pd  Pd21  1  0.769845  0.500000  0.743506  1
  Pd  Pd22  1  0.500000  0.349138  0.852000  1
  Pd  Pd23  1  0.500000  0.650862  0.852000  1
  Pd  Pd24  1  0.849138  0.000000  0.852000  1
  Pd  Pd25  1  0.150862  0.000000  0.852000  1
  Pd  Pd26  1  0.000000  0.150862  0.148000  1
  Pd  Pd27  1  0.000000  0.849138  0.148000  1
  Pd  Pd28  1  0.650862  0.500000  0.148000  1
  Pd  Pd29  1  0.349138  0.500000  0.148000  1
  Pd  Pd30  1  0.250000  0.750000  0.000000  1
  Pd  Pd31  1  0.250000  0.250000  0.000000  1
  Pd  Pd32  1  0.750000  0.750000  0.000000  1
  Pd  Pd33  1  0.750000  0.250000  0.000000  1
