# generated using pymatgen
data_Ho6Sc4CdBi5
_symmetry_space_group_name_H-M   'P 1'
_cell_length_a   8.90173800
_cell_length_b   8.93081650
_cell_length_c   6.21545500
_cell_angle_alpha   90.00000000
_cell_angle_beta   90.00000000
_cell_angle_gamma   119.89235161
_symmetry_Int_Tables_number   1
_chemical_formula_structural   Ho6Sc4CdBi5
_chemical_formula_sum   'Ho6 Sc4 Cd1 Bi5'
_cell_volume   428.39027744
_cell_formula_units_Z   1
loop_
 _symmetry_equiv_pos_site_id
 _symmetry_equiv_pos_as_xyz
  1  'x, y, z'
loop_
 _atom_site_type_symbol
 _atom_site_label
 _atom_site_symmetry_multiplicity
 _atom_site_fract_x
 _atom_site_fract_y
 _atom_site_fract_z
 _atom_site_occupancy
  Ho  Ho0  1  0.001965  0.760211  0.750000  1
  Ho  Ho1  1  0.990399  0.234161  0.250000  1
  Ho  Ho2  1  0.756238  0.765839  0.250000  1
  Ho  Ho3  1  0.759303  0.000000  0.750000  1
  Ho  Ho4  1  0.241755  0.239789  0.750000  1
  Ho  Ho5  1  0.244989  0.000000  0.250000  1
  Sc  Sc6  1  0.337983  0.672696  0.499422  1
  Sc  Sc7  1  0.665289  0.327304  0.000578  1
  Sc  Sc8  1  0.665289  0.327304  0.499422  1
  Sc  Sc9  1  0.337983  0.672696  0.000578  1
  Cd  Cd10  1  0.599789  0.000000  0.250000  1
  Bi  Bi11  1  0.399425  0.000000  0.750000  1
  Bi  Bi12  1  0.393679  0.394817  0.250000  1
  Bi  Bi13  1  0.998862  0.605183  0.250000  1
  Bi  Bi14  1  0.001934  0.396814  0.750000  1
  Bi  Bi15  1  0.605120  0.603186  0.750000  1
