# generated using pymatgen
data_H5SeN
_symmetry_space_group_name_H-M   'P 1'
_cell_length_a   4.27305443
_cell_length_b   4.76471180
_cell_length_c   4.70458543
_cell_angle_alpha   82.75992769
_cell_angle_beta   74.06751222
_cell_angle_gamma   69.50283996
_symmetry_Int_Tables_number   1
_chemical_formula_structural   H5SeN
_chemical_formula_sum   'H5 Se1 N1'
_cell_volume   86.22647208
_cell_formula_units_Z   1
loop_
 _symmetry_equiv_pos_site_id
 _symmetry_equiv_pos_as_xyz
  1  'x, y, z'
loop_
 _atom_site_type_symbol
 _atom_site_label
 _atom_site_symmetry_multiplicity
 _atom_site_fract_x
 _atom_site_fract_y
 _atom_site_fract_z
 _atom_site_occupancy
  H  H0  1  0.973255  0.913722  0.469526  1
  H  H1  1  0.965468  0.203271  0.200558  1
  H  H2  1  0.440038  0.577282  0.880038  1
  H  H3  1  0.814327  0.928344  0.176153  1
  H  H4  1  0.595820  0.190891  0.453034  1
  Se  Se5  1  0.155299  0.515109  0.804583  1
  N  N6  1  0.835435  0.060113  0.325274  1
