# generated using pymatgen
data_LaPrZnCoO6
_symmetry_space_group_name_H-M   'P 1'
_cell_length_a   5.50877866
_cell_length_b   5.56258700
_cell_length_c   7.78716738
_cell_angle_alpha   90.00000000
_cell_angle_beta   90.16704615
_cell_angle_gamma   90.00000000
_symmetry_Int_Tables_number   1
_chemical_formula_structural   LaPrZnCoO6
_chemical_formula_sum   'La2 Pr2 Zn2 Co2 O12'
_cell_volume   238.62162740
_cell_formula_units_Z   2
loop_
 _symmetry_equiv_pos_site_id
 _symmetry_equiv_pos_as_xyz
  1  'x, y, z'
loop_
 _atom_site_type_symbol
 _atom_site_label
 _atom_site_symmetry_multiplicity
 _atom_site_fract_x
 _atom_site_fract_y
 _atom_site_fract_z
 _atom_site_occupancy
  La  La0  1  0.008582  0.960715  0.749980  1
  La  La1  1  0.491418  0.460715  0.750020  1
  Pr  Pr2  1  0.511040  0.545897  0.250028  1
  Pr  Pr3  1  0.988960  0.045897  0.249972  1
  Zn  Zn4  1  0.499825  0.000678  0.499225  1
  Zn  Zn5  1  0.000175  0.500678  0.000775  1
  Co  Co6  1  0.000855  0.500007  0.498192  1
  Co  Co7  1  0.499145  0.000007  0.001808  1
  O  O8  1  0.727078  0.293584  0.455243  1
  O  O9  1  0.772922  0.793584  0.044757  1
  O  O10  1  0.200026  0.226739  0.540176  1
  O  O11  1  0.299974  0.726739  0.959824  1
  O  O12  1  0.275527  0.704330  0.539583  1
  O  O13  1  0.224473  0.204330  0.960417  1
  O  O14  1  0.797632  0.771373  0.454954  1
  O  O15  1  0.702368  0.271373  0.045046  1
  O  O16  1  0.080563  0.482878  0.260222  1
  O  O17  1  0.419437  0.982878  0.239778  1
  O  O18  1  0.576242  0.013800  0.760686  1
  O  O19  1  0.923758  0.513800  0.739314  1
