# generated using pymatgen
data_Li8Sm8SnBi2Pb5
_symmetry_space_group_name_H-M   'P 1'
_cell_length_a   9.60659474
_cell_length_b   9.60506809
_cell_length_c   7.51927679
_cell_angle_alpha   89.99999773
_cell_angle_beta   90.06830606
_cell_angle_gamma   119.99473937
_symmetry_Int_Tables_number   1
_chemical_formula_structural   Li8Sm8SnBi2Pb5
_chemical_formula_sum   'Li8 Sm8 Sn1 Bi2 Pb5'
_cell_volume   600.89588441
_cell_formula_units_Z   1
loop_
 _symmetry_equiv_pos_site_id
 _symmetry_equiv_pos_as_xyz
  1  'x, y, z'
loop_
 _atom_site_type_symbol
 _atom_site_label
 _atom_site_symmetry_multiplicity
 _atom_site_fract_x
 _atom_site_fract_y
 _atom_site_fract_z
 _atom_site_occupancy
  Li  Li0  1  0.832836  0.167150  0.711818  1
  Li  Li1  1  0.832836  0.665687  0.711818  1
  Li  Li2  1  0.334316  0.167159  0.710838  1
  Li  Li3  1  0.169565  0.833322  0.211052  1
  Li  Li4  1  0.169565  0.336241  0.211052  1
  Li  Li5  1  0.662839  0.831419  0.210257  1
  Li  Li6  1  0.664733  0.332366  0.331289  1
  Li  Li7  1  0.333233  0.666617  0.831773  1
  Sm  Sm8  1  0.482932  0.512184  0.507206  1
  Sm  Sm9  1  0.482932  0.970749  0.507206  1
  Sm  Sm10  1  0.030632  0.515316  0.508815  1
  Sm  Sm11  1  0.509217  0.486823  0.004596  1
  Sm  Sm12  1  0.509217  0.022394  0.004596  1
  Sm  Sm13  1  0.979371  0.489686  0.002960  1
  Sm  Sm14  1  0.003335  0.001668  0.503813  1
  Sm  Sm15  1  0.002469  0.001234  0.996979  1
  Sn  Sn16  1  0.332773  0.666387  0.235909  1
  Bi  Bi17  1  0.833744  0.167104  0.268953  1
  Bi  Bi18  1  0.833744  0.666638  0.268953  1
  Pb  Pb19  1  0.333312  0.166655  0.270174  1
  Pb  Pb20  1  0.166257  0.832960  0.769917  1
  Pb  Pb21  1  0.166257  0.333298  0.769917  1
  Pb  Pb22  1  0.666728  0.833365  0.770130  1
  Pb  Pb23  1  0.667157  0.333578  0.737998  1
