# generated using pymatgen
data_SnPt3(SeO3)8
_symmetry_space_group_name_H-M   'P 1'
_cell_length_a   8.14104031
_cell_length_b   8.14104045
_cell_length_c   8.14103981
_cell_angle_alpha   90.34183540
_cell_angle_beta   89.65816209
_cell_angle_gamma   90.34183959
_symmetry_Int_Tables_number   1
_chemical_formula_structural   SnPt3(SeO3)8
_chemical_formula_sum   'Sn1 Pt3 Se8 O24'
_cell_volume   539.53124355
_cell_formula_units_Z   1
loop_
 _symmetry_equiv_pos_site_id
 _symmetry_equiv_pos_as_xyz
  1  'x, y, z'
loop_
 _atom_site_type_symbol
 _atom_site_label
 _atom_site_symmetry_multiplicity
 _atom_site_fract_x
 _atom_site_fract_y
 _atom_site_fract_z
 _atom_site_occupancy
  Sn  Sn0  1  0.000000  0.500000  0.500000  1
  Pt  Pt1  1  0.500000  0.500000  0.000000  1
  Pt  Pt2  1  0.500000  0.000000  0.500000  1
  Pt  Pt3  1  0.000000  0.000000  0.000000  1
  Se  Se4  1  0.827747  0.152087  0.675057  1
  Se  Se5  1  0.172253  0.847913  0.324943  1
  Se  Se6  1  0.652087  0.675057  0.672253  1
  Se  Se7  1  0.175057  0.672253  0.847913  1
  Se  Se8  1  0.330928  0.169072  0.830928  1
  Se  Se9  1  0.824943  0.327747  0.152087  1
  Se  Se10  1  0.669072  0.830928  0.169072  1
  Se  Se11  1  0.347913  0.324943  0.327747  1
  O  O12  1  0.249247  0.458909  0.460943  1
  O  O13  1  0.968109  0.246461  0.010853  1
  O  O14  1  0.039057  0.749247  0.458909  1
  O  O15  1  0.469602  0.253935  0.972916  1
  O  O16  1  0.253539  0.989147  0.468109  1
  O  O17  1  0.510853  0.531891  0.753539  1
  O  O18  1  0.971852  0.013724  0.753575  1
  O  O19  1  0.530398  0.746065  0.027084  1
  O  O20  1  0.527084  0.969602  0.253935  1
  O  O21  1  0.472916  0.030398  0.746065  1
  O  O22  1  0.753935  0.972916  0.030398  1
  O  O23  1  0.253575  0.528148  0.986276  1
  O  O24  1  0.041091  0.539057  0.749247  1
  O  O25  1  0.028148  0.986276  0.246425  1
  O  O26  1  0.246065  0.027084  0.969602  1
  O  O27  1  0.489147  0.468109  0.246461  1
  O  O28  1  0.750753  0.541091  0.539057  1
  O  O29  1  0.958909  0.460943  0.250753  1
  O  O30  1  0.031891  0.753539  0.989147  1
  O  O31  1  0.486276  0.246425  0.471852  1
  O  O32  1  0.513724  0.753575  0.528148  1
  O  O33  1  0.960943  0.250753  0.541091  1
  O  O34  1  0.746461  0.010853  0.531891  1
  O  O35  1  0.746425  0.471852  0.013724  1
