# generated using pymatgen
data_Pu(ZrS2)3
_symmetry_space_group_name_H-M   'P 1'
_cell_length_a   6.31860827
_cell_length_b   6.31864508
_cell_length_c   6.79442552
_cell_angle_alpha   98.87632045
_cell_angle_beta   98.87625226
_cell_angle_gamma   120.01225868
_symmetry_Int_Tables_number   1
_chemical_formula_structural   Pu(ZrS2)3
_chemical_formula_sum   'Pu1 Zr3 S6'
_cell_volume   223.42632504
_cell_formula_units_Z   1
loop_
 _symmetry_equiv_pos_site_id
 _symmetry_equiv_pos_as_xyz
  1  'x, y, z'
loop_
 _atom_site_type_symbol
 _atom_site_label
 _atom_site_symmetry_multiplicity
 _atom_site_fract_x
 _atom_site_fract_y
 _atom_site_fract_z
 _atom_site_occupancy
  Pu  Pu0  1  0.000000  0.000000  0.500000  1
  Zr  Zr1  1  0.830306  0.169695  0.000001  1
  Zr  Zr2  1  0.500000  0.500000  0.000000  1
  Zr  Zr3  1  0.169694  0.830305  0.999999  1
  S  S4  1  0.249649  0.249649  0.235383  1
  S  S5  1  0.912413  0.573623  0.240564  1
  S  S6  1  0.573621  0.912414  0.240564  1
  S  S7  1  0.426379  0.087586  0.759437  1
  S  S8  1  0.087587  0.426377  0.759437  1
  S  S9  1  0.750353  0.750353  0.764618  1
