# generated using pymatgen
data_Y6Er6Th4MgCo4Hg3
_symmetry_space_group_name_H-M   'P 1'
_cell_length_a   9.54885146
_cell_length_b   9.56782062
_cell_length_c   9.56715276
_cell_angle_alpha   59.78993322
_cell_angle_beta   59.83710375
_cell_angle_gamma   59.84086817
_symmetry_Int_Tables_number   1
_chemical_formula_structural   Y6Er6Th4MgCo4Hg3
_chemical_formula_sum   'Y6 Er6 Th4 Mg1 Co4 Hg3'
_cell_volume   615.57327942
_cell_formula_units_Z   1
loop_
 _symmetry_equiv_pos_site_id
 _symmetry_equiv_pos_as_xyz
  1  'x, y, z'
loop_
 _atom_site_type_symbol
 _atom_site_label
 _atom_site_symmetry_multiplicity
 _atom_site_fract_x
 _atom_site_fract_y
 _atom_site_fract_z
 _atom_site_occupancy
  Y  Y0  1  0.939616  0.563411  0.563344  1
  Y  Y1  1  0.561594  0.938335  0.938341  1
  Y  Y2  1  0.562271  0.938886  0.563426  1
  Y  Y3  1  0.938041  0.562393  0.937592  1
  Y  Y4  1  0.562186  0.563443  0.938917  1
  Y  Y5  1  0.937988  0.937556  0.562405  1
  Er  Er6  1  0.811283  0.187900  0.187878  1
  Er  Er7  1  0.182923  0.815795  0.815797  1
  Er  Er8  1  0.184784  0.814053  0.186975  1
  Er  Er9  1  0.812934  0.187140  0.814498  1
  Er  Er10  1  0.184770  0.186971  0.813987  1
  Er  Er11  1  0.812919  0.814540  0.187116  1
  Th  Th12  1  0.343856  0.345596  0.345650  1
  Th  Th13  1  0.346239  0.346275  0.961742  1
  Th  Th14  1  0.346244  0.961752  0.346292  1
  Th  Th15  1  0.954701  0.348976  0.348961  1
  Mg  Mg16  1  0.280335  0.572207  0.572153  1
  Co  Co17  1  0.142967  0.144708  0.144757  1
  Co  Co18  1  0.141753  0.144265  0.566592  1
  Co  Co19  1  0.141738  0.566525  0.144309  1
  Co  Co20  1  0.563611  0.144459  0.144497  1
  Hg  Hg21  1  0.583194  0.586430  0.586392  1
  Hg  Hg22  1  0.582011  0.586127  0.242285  1
  Hg  Hg23  1  0.582041  0.242259  0.586097  1
