# generated using pymatgen
data_Tm8In3Tc
_symmetry_space_group_name_H-M   'P 1'
_cell_length_a   10.29241700
_cell_length_b   10.29241761
_cell_length_c   6.91439700
_cell_angle_alpha   90.00000000
_cell_angle_beta   90.00000000
_cell_angle_gamma   120.00000126
_symmetry_Int_Tables_number   1
_chemical_formula_structural   Tm8In3Tc
_chemical_formula_sum   'Tm16 In6 Tc2'
_cell_volume   634.33651257
_cell_formula_units_Z   2
loop_
 _symmetry_equiv_pos_site_id
 _symmetry_equiv_pos_as_xyz
  1  'x, y, z'
loop_
 _atom_site_type_symbol
 _atom_site_label
 _atom_site_symmetry_multiplicity
 _atom_site_fract_x
 _atom_site_fract_y
 _atom_site_fract_z
 _atom_site_occupancy
  Tm  Tm0  1  0.528870  0.057740  0.517711  1
  Tm  Tm1  1  0.942260  0.471130  0.517711  1
  Tm  Tm2  1  0.528870  0.471130  0.517711  1
  Tm  Tm3  1  0.471130  0.942260  0.017711  1
  Tm  Tm4  1  0.057740  0.528870  0.017711  1
  Tm  Tm5  1  0.471130  0.528870  0.017711  1
  Tm  Tm6  1  0.177438  0.354876  0.724637  1
  Tm  Tm7  1  0.645124  0.822562  0.724637  1
  Tm  Tm8  1  0.177438  0.822562  0.724637  1
  Tm  Tm9  1  0.822562  0.645124  0.224637  1
  Tm  Tm10  1  0.354876  0.177438  0.224637  1
  Tm  Tm11  1  0.822562  0.177438  0.224637  1
  Tm  Tm12  1  0.666667  0.333333  0.887202  1
  Tm  Tm13  1  0.333333  0.666667  0.387202  1
  Tm  Tm14  1  0.000000  0.000000  0.496788  1
  Tm  Tm15  1  0.000000  0.000000  0.996788  1
  In  In16  1  0.836922  0.673843  0.757793  1
  In  In17  1  0.326157  0.163078  0.757793  1
  In  In18  1  0.836922  0.163078  0.757793  1
  In  In19  1  0.163078  0.326157  0.257793  1
  In  In20  1  0.673843  0.836922  0.257793  1
  In  In21  1  0.163078  0.836922  0.257793  1
  Tc  Tc22  1  0.666667  0.333333  0.294589  1
  Tc  Tc23  1  0.333333  0.666667  0.794589  1
