# generated using pymatgen
data_LiPr4Ga3Pd4
_symmetry_space_group_name_H-M   'P 1'
_cell_length_a   4.56363300
_cell_length_b   7.17608131
_cell_length_c   7.93822551
_cell_angle_alpha   90.70726539
_cell_angle_beta   90.00000000
_cell_angle_gamma   90.00000000
_symmetry_Int_Tables_number   1
_chemical_formula_structural   LiPr4Ga3Pd4
_chemical_formula_sum   'Li1 Pr4 Ga3 Pd4'
_cell_volume   259.94915250
_cell_formula_units_Z   1
loop_
 _symmetry_equiv_pos_site_id
 _symmetry_equiv_pos_as_xyz
  1  'x, y, z'
loop_
 _atom_site_type_symbol
 _atom_site_label
 _atom_site_symmetry_multiplicity
 _atom_site_fract_x
 _atom_site_fract_y
 _atom_site_fract_z
 _atom_site_occupancy
  Li  Li0  1  0.250000  0.140470  0.071088  1
  Pr  Pr1  1  0.250000  0.022854  0.689731  1
  Pr  Pr2  1  0.250000  0.533837  0.806397  1
  Pr  Pr3  1  0.750000  0.972633  0.310156  1
  Pr  Pr4  1  0.750000  0.477651  0.194139  1
  Ga  Ga5  1  0.250000  0.668373  0.428364  1
  Ga  Ga6  1  0.750000  0.848681  0.932079  1
  Ga  Ga7  1  0.750000  0.338769  0.570268  1
  Pd  Pd8  1  0.250000  0.289531  0.403315  1
  Pd  Pd9  1  0.250000  0.769103  0.106233  1
  Pd  Pd10  1  0.750000  0.716338  0.601790  1
  Pd  Pd11  1  0.750000  0.221758  0.886441  1
