# generated using pymatgen
data_In2Sn2B3Ir7
_symmetry_space_group_name_H-M   'P 1'
_cell_length_a   9.37422823
_cell_length_b   9.36899630
_cell_length_c   5.72062100
_cell_angle_alpha   90.00000000
_cell_angle_beta   90.00000000
_cell_angle_gamma   119.95992530
_symmetry_Int_Tables_number   1
_chemical_formula_structural   In2Sn2B3Ir7
_chemical_formula_sum   'In4 Sn4 B6 Ir14'
_cell_volume   435.28894005
_cell_formula_units_Z   2
loop_
 _symmetry_equiv_pos_site_id
 _symmetry_equiv_pos_as_xyz
  1  'x, y, z'
loop_
 _atom_site_type_symbol
 _atom_site_label
 _atom_site_symmetry_multiplicity
 _atom_site_fract_x
 _atom_site_fract_y
 _atom_site_fract_z
 _atom_site_occupancy
  In  In0  1  0.666932  0.333391  0.250000  1
  In  In1  1  0.413177  0.506979  0.250000  1
  In  In2  1  0.093849  0.586904  0.250000  1
  In  In3  1  0.492886  0.906123  0.250000  1
  Sn  Sn4  1  0.503595  0.090863  0.750000  1
  Sn  Sn5  1  0.909061  0.412569  0.750000  1
  Sn  Sn6  1  0.587307  0.496486  0.750000  1
  Sn  Sn7  1  0.333190  0.666628  0.750000  1
  B  B8  1  0.210746  0.037202  0.250000  1
  B  B9  1  0.962923  0.173612  0.250000  1
  B  B10  1  0.826373  0.789249  0.250000  1
  B  B11  1  0.173443  0.209499  0.750000  1
  B  B12  1  0.036008  0.826645  0.750000  1
  B  B13  1  0.790547  0.963880  0.750000  1
  Ir  Ir14  1  0.999999  0.999982  0.999427  1
  Ir  Ir15  1  0.773815  0.124342  0.998732  1
  Ir  Ir16  1  0.350583  0.226211  0.998651  1
  Ir  Ir17  1  0.875660  0.649443  0.998612  1
  Ir  Ir18  1  0.773815  0.124342  0.501268  1
  Ir  Ir19  1  0.350583  0.226211  0.501349  1
  Ir  Ir20  1  0.875660  0.649443  0.501388  1
  Ir  Ir21  1  0.999999  0.999982  0.500573  1
  Ir  Ir22  1  0.121576  0.348681  0.503128  1
  Ir  Ir23  1  0.651337  0.772958  0.503139  1
  Ir  Ir24  1  0.227013  0.878368  0.503221  1
  Ir  Ir25  1  0.121576  0.348681  0.996872  1
  Ir  Ir26  1  0.651337  0.772958  0.996861  1
  Ir  Ir27  1  0.227013  0.878368  0.996779  1
