# generated using pymatgen
data_Sc7Si16Ru12W
_symmetry_space_group_name_H-M   'P 1'
_cell_length_a   9.87527778
_cell_length_b   9.88905088
_cell_length_c   13.33437437
_cell_angle_alpha   53.93021484
_cell_angle_beta   53.94121176
_cell_angle_gamma   31.19507449
_symmetry_Int_Tables_number   1
_chemical_formula_structural   Sc7Si16Ru12W
_chemical_formula_sum   'Sc7 Si16 Ru12 W1'
_cell_volume   533.83236017
_cell_formula_units_Z   1
loop_
 _symmetry_equiv_pos_site_id
 _symmetry_equiv_pos_as_xyz
  1  'x, y, z'
loop_
 _atom_site_type_symbol
 _atom_site_label
 _atom_site_symmetry_multiplicity
 _atom_site_fract_x
 _atom_site_fract_y
 _atom_site_fract_z
 _atom_site_occupancy
  Sc  Sc0  1  0.294227  0.559573  0.644780  1
  Sc  Sc1  1  0.438735  0.708386  0.854240  1
  Sc  Sc2  1  0.707423  0.440826  0.352712  1
  Sc  Sc3  1  0.560697  0.292576  0.147047  1
  Sc  Sc4  1  0.037642  0.293795  0.637490  1
  Sc  Sc5  1  0.709340  0.963822  0.857788  1
  Sc  Sc6  1  0.963400  0.706542  0.361646  1
  Si  Si7  1  0.877227  0.124174  0.251309  1
  Si  Si8  1  0.128431  0.872125  0.750011  1
  Si  Si9  1  0.381248  0.622502  0.249898  1
  Si  Si10  1  0.616747  0.382441  0.750687  1
  Si  Si11  1  0.974183  0.254391  0.890199  1
  Si  Si12  1  0.747340  0.025965  0.606717  1
  Si  Si13  1  0.025587  0.745134  0.109747  1
  Si  Si14  1  0.251784  0.977139  0.390566  1
  Si  Si15  1  0.572314  0.081741  0.067427  1
  Si  Si16  1  0.919903  0.425836  0.433332  1
  Si  Si17  1  0.427860  0.916487  0.936599  1
  Si  Si18  1  0.079862  0.574795  0.567632  1
  Si  Si19  1  0.386170  0.142265  0.398524  1
  Si  Si20  1  0.854861  0.607762  0.103355  1
  Si  Si21  1  0.611220  0.859875  0.602689  1
  Si  Si22  1  0.141703  0.386623  0.897958  1
  Ru  Ru23  1  0.645845  0.832057  0.280672  1
  Ru  Ru24  1  0.166216  0.351125  0.215739  1
  Ru  Ru25  1  0.753657  0.482540  0.073290  1
  Ru  Ru26  1  0.828204  0.649761  0.784403  1
  Ru  Ru27  1  0.898299  0.141804  0.585966  1
  Ru  Ru28  1  0.855540  0.100950  0.916096  1
  Ru  Ru29  1  0.104618  0.857992  0.413979  1
  Ru  Ru30  1  0.142874  0.900039  0.086075  1
  Ru  Ru31  1  0.238295  0.509281  0.936073  1
  Ru  Ru32  1  0.491542  0.750413  0.569295  1
  Ru  Ru33  1  0.507692  0.249582  0.431340  1
  Ru  Ru34  1  0.351397  0.170960  0.721460  1
  W  W35  1  0.307917  0.038721  0.123258  1
