# generated using pymatgen
data_Cs2Cu(SO4)2
_symmetry_space_group_name_H-M   'P 1'
_cell_length_a   7.57616362
_cell_length_b   7.57616381
_cell_length_c   7.72829956
_cell_angle_alpha   73.48005466
_cell_angle_beta   73.48005519
_cell_angle_gamma   39.50796824
_symmetry_Int_Tables_number   1
_chemical_formula_structural   Cs2Cu(SO4)2
_chemical_formula_sum   'Cs2 Cu1 S2 O8'
_cell_volume   269.01783394
_cell_formula_units_Z   1
loop_
 _symmetry_equiv_pos_site_id
 _symmetry_equiv_pos_as_xyz
  1  'x, y, z'
loop_
 _atom_site_type_symbol
 _atom_site_label
 _atom_site_symmetry_multiplicity
 _atom_site_fract_x
 _atom_site_fract_y
 _atom_site_fract_z
 _atom_site_occupancy
  Cs  Cs0  1  0.166297  0.166297  0.784578  1
  Cs  Cs1  1  0.833703  0.833703  0.215422  1
  Cu  Cu2  1  0.500000  0.500000  0.500000  1
  S  S3  1  0.120239  0.120239  0.307637  1
  S  S4  1  0.879761  0.879761  0.692363  1
  O  O5  1  0.132702  0.654060  0.569640  1
  O  O6  1  0.345940  0.867298  0.430360  1
  O  O7  1  0.867298  0.345940  0.430360  1
  O  O8  1  0.654060  0.132702  0.569640  1
  O  O9  1  0.223724  0.223724  0.192730  1
  O  O10  1  0.949698  0.949698  0.797614  1
  O  O11  1  0.050302  0.050302  0.202386  1
  O  O12  1  0.776276  0.776276  0.807270  1
