# generated using pymatgen
data_K2Lu4Cu4Se9
_symmetry_space_group_name_H-M   'P 1'
_cell_length_a   4.07206271
_cell_length_b   7.43050535
_cell_length_c   15.65113950
_cell_angle_alpha   93.67716376
_cell_angle_beta   97.47469884
_cell_angle_gamma   105.90302353
_symmetry_Int_Tables_number   1
_chemical_formula_structural   K2Lu4Cu4Se9
_chemical_formula_sum   'K2 Lu4 Cu4 Se9'
_cell_volume   449.09012448
_cell_formula_units_Z   1
loop_
 _symmetry_equiv_pos_site_id
 _symmetry_equiv_pos_as_xyz
  1  'x, y, z'
loop_
 _atom_site_type_symbol
 _atom_site_label
 _atom_site_symmetry_multiplicity
 _atom_site_fract_x
 _atom_site_fract_y
 _atom_site_fract_z
 _atom_site_occupancy
  K  K0  1  0.259567  0.289814  0.229318  1
  K  K1  1  0.740433  0.710185  0.770682  1
  Lu  Lu2  1  0.401197  0.746562  0.055833  1
  Lu  Lu3  1  0.628595  0.861110  0.396081  1
  Lu  Lu4  1  0.371405  0.138889  0.603920  1
  Lu  Lu5  1  0.598803  0.253438  0.944168  1
  Cu  Cu6  1  0.983238  0.736956  0.229522  1
  Cu  Cu7  1  0.891784  0.321892  0.461675  1
  Cu  Cu8  1  0.108217  0.678109  0.538325  1
  Cu  Cu9  1  0.016761  0.263043  0.770478  1
  Se  Se10  1  0.000000  0.000000  0.000000  1
  Se  Se11  1  0.802263  0.504008  0.100517  1
  Se  Se12  1  0.573928  0.925897  0.221959  1
  Se  Se13  1  0.983245  0.593102  0.373389  1
  Se  Se14  1  0.283183  0.143178  0.423187  1
  Se  Se15  1  0.716818  0.856823  0.576813  1
  Se  Se16  1  0.016756  0.406898  0.626611  1
  Se  Se17  1  0.426073  0.074104  0.778041  1
  Se  Se18  1  0.197737  0.495991  0.899484  1
