# generated using pymatgen
data_Er3Tm2P12Ru19
_symmetry_space_group_name_H-M   'P 1'
_cell_length_a   12.51047000
_cell_length_b   12.51047064
_cell_length_c   3.96814600
_cell_angle_alpha   90.00000000
_cell_angle_beta   90.00000000
_cell_angle_gamma   120.00000358
_symmetry_Int_Tables_number   1
_chemical_formula_structural   Er3Tm2P12Ru19
_chemical_formula_sum   'Er3 Tm2 P12 Ru19'
_cell_volume   537.85539941
_cell_formula_units_Z   1
loop_
 _symmetry_equiv_pos_site_id
 _symmetry_equiv_pos_as_xyz
  1  'x, y, z'
loop_
 _atom_site_type_symbol
 _atom_site_label
 _atom_site_symmetry_multiplicity
 _atom_site_fract_x
 _atom_site_fract_y
 _atom_site_fract_z
 _atom_site_occupancy
  Er  Er0  1  0.183520  0.183520  0.500000  1
  Er  Er1  1  0.816480  0.000000  0.500000  1
  Er  Er2  1  0.000000  0.816480  0.500000  1
  Tm  Tm3  1  0.333333  0.666667  0.000000  1
  Tm  Tm4  1  0.666667  0.333333  0.000000  1
  P  P5  1  0.816077  0.816077  0.000000  1
  P  P6  1  0.183923  0.000000  0.000000  1
  P  P7  1  0.000000  0.183923  0.000000  1
  P  P8  1  0.171266  0.478293  0.500000  1
  P  P9  1  0.521707  0.692973  0.500000  1
  P  P10  1  0.307027  0.828734  0.500000  1
  P  P11  1  0.692973  0.521707  0.500000  1
  P  P12  1  0.828734  0.307027  0.500000  1
  P  P13  1  0.478293  0.171266  0.500000  1
  P  P14  1  0.372098  0.372098  0.000000  1
  P  P15  1  0.627902  0.000000  0.000000  1
  P  P16  1  0.000000  0.627902  0.000000  1
  Ru  Ru17  1  0.554308  0.554308  0.000000  1
  Ru  Ru18  1  0.445692  0.000000  0.000000  1
  Ru  Ru19  1  0.000000  0.445692  0.000000  1
  Ru  Ru20  1  0.717133  0.717133  0.500000  1
  Ru  Ru21  1  0.282867  0.000000  0.500000  1
  Ru  Ru22  1  0.000000  0.282867  0.500000  1
  Ru  Ru23  1  0.184845  0.377130  0.000000  1
  Ru  Ru24  1  0.622870  0.807715  0.000000  1
  Ru  Ru25  1  0.192285  0.815155  0.000000  1
  Ru  Ru26  1  0.807715  0.622870  0.000000  1
  Ru  Ru27  1  0.815155  0.192285  0.000000  1
  Ru  Ru28  1  0.377130  0.184845  0.000000  1
  Ru  Ru29  1  0.365421  0.491981  0.500000  1
  Ru  Ru30  1  0.508019  0.873439  0.500000  1
  Ru  Ru31  1  0.126561  0.634579  0.500000  1
  Ru  Ru32  1  0.873439  0.508019  0.500000  1
  Ru  Ru33  1  0.634579  0.126561  0.500000  1
  Ru  Ru34  1  0.491981  0.365421  0.500000  1
  Ru  Ru35  1  0.000000  0.000000  0.000000  1
