# generated using pymatgen
data_Pr8Ho12Ga15Pb
_symmetry_space_group_name_H-M   'P 1'
_cell_length_a   7.75226000
_cell_length_b   8.05601908
_cell_length_c   15.24396200
_cell_angle_alpha   90.00000000
_cell_angle_beta   90.00000000
_cell_angle_gamma   89.88553666
_symmetry_Int_Tables_number   1
_chemical_formula_structural   Pr8Ho12Ga15Pb
_chemical_formula_sum   'Pr8 Ho12 Ga15 Pb1'
_cell_volume   952.01941814
_cell_formula_units_Z   1
loop_
 _symmetry_equiv_pos_site_id
 _symmetry_equiv_pos_as_xyz
  1  'x, y, z'
loop_
 _atom_site_type_symbol
 _atom_site_label
 _atom_site_symmetry_multiplicity
 _atom_site_fract_x
 _atom_site_fract_y
 _atom_site_fract_z
 _atom_site_occupancy
  Pr  Pr0  1  0.982497  0.828846  0.089100  1
  Pr  Pr1  1  0.471831  0.680287  0.408275  1
  Pr  Pr2  1  0.525195  0.319344  0.903781  1
  Pr  Pr3  1  0.025361  0.182171  0.597232  1
  Pr  Pr4  1  0.025361  0.182171  0.902768  1
  Pr  Pr5  1  0.525195  0.319344  0.596219  1
  Pr  Pr6  1  0.471831  0.680287  0.091725  1
  Pr  Pr7  1  0.982497  0.828846  0.410900  1
  Ho  Ho8  1  0.644338  0.003383  0.250000  1
  Ho  Ho9  1  0.165752  0.506707  0.250000  1
  Ho  Ho10  1  0.846448  0.489262  0.750000  1
  Ho  Ho11  1  0.347807  0.010737  0.750000  1
  Ho  Ho12  1  0.680681  0.823960  0.877398  1
  Ho  Ho13  1  0.180152  0.675157  0.622966  1
  Ho  Ho14  1  0.822635  0.317261  0.118572  1
  Ho  Ho15  1  0.314083  0.174456  0.380409  1
  Ho  Ho16  1  0.314083  0.174456  0.119591  1
  Ho  Ho17  1  0.822635  0.317261  0.381428  1
  Ho  Ho18  1  0.180152  0.675157  0.877034  1
  Ho  Ho19  1  0.680681  0.823960  0.622602  1
  Ga  Ga20  1  0.266815  0.877906  0.250000  1
  Ga  Ga21  1  0.732105  0.120353  0.750000  1
  Ga  Ga22  1  0.233070  0.379519  0.750000  1
  Ga  Ga23  1  0.022804  0.110560  0.250000  1
  Ga  Ga24  1  0.522648  0.374378  0.250000  1
  Ga  Ga25  1  0.476397  0.611574  0.750000  1
  Ga  Ga26  1  0.976254  0.889628  0.750000  1
  Ga  Ga27  1  0.850088  0.531530  0.958250  1
  Ga  Ga28  1  0.349823  0.968356  0.543011  1
  Ga  Ga29  1  0.645616  0.027466  0.041165  1
  Ga  Ga30  1  0.147572  0.469440  0.458871  1
  Ga  Ga31  1  0.147572  0.469440  0.041129  1
  Ga  Ga32  1  0.645616  0.027466  0.458835  1
  Ga  Ga33  1  0.349823  0.968356  0.956989  1
  Ga  Ga34  1  0.850088  0.531530  0.541750  1
  Pb  Pb35  1  0.774492  0.629448  0.250000  1
