# generated using pymatgen
data_Dy5Tm3TlIn3Au8
_symmetry_space_group_name_H-M   'P 1'
_cell_length_a   8.02580128
_cell_length_b   8.02549603
_cell_length_c   7.29183900
_cell_angle_alpha   89.99790754
_cell_angle_beta   90.00169001
_cell_angle_gamma   89.84457250
_symmetry_Int_Tables_number   1
_chemical_formula_structural   Dy5Tm3TlIn3Au8
_chemical_formula_sum   'Dy5 Tm3 Tl1 In3 Au8'
_cell_volume   469.67317834
_cell_formula_units_Z   1
loop_
 _symmetry_equiv_pos_site_id
 _symmetry_equiv_pos_as_xyz
  1  'x, y, z'
loop_
 _atom_site_type_symbol
 _atom_site_label
 _atom_site_symmetry_multiplicity
 _atom_site_fract_x
 _atom_site_fract_y
 _atom_site_fract_z
 _atom_site_occupancy
  Dy  Dy0  1  0.842177  0.159559  0.500389  1
  Dy  Dy1  1  0.158530  0.841184  0.500374  1
  Dy  Dy2  1  0.340456  0.341419  0.999622  1
  Dy  Dy3  1  0.658967  0.657974  0.999594  1
  Dy  Dy4  1  0.680700  0.679906  0.500241  1
  Tm  Tm5  1  0.319651  0.320466  0.500292  1
  Tm  Tm6  1  0.179745  0.820345  0.999682  1
  Tm  Tm7  1  0.821122  0.180574  0.999684  1
  Tl  Tl8  1  0.499855  0.000127  0.249699  1
  In  In9  1  0.000407  0.499742  0.750576  1
  In  In10  1  0.499730  0.000415  0.750577  1
  In  In11  1  0.000382  0.499745  0.249399  1
  Au  Au12  1  0.629708  0.372430  0.271170  1
  Au  Au13  1  0.368030  0.625426  0.271141  1
  Au  Au14  1  0.129558  0.129057  0.771965  1
  Au  Au15  1  0.871849  0.872386  0.774661  1
  Au  Au16  1  0.369884  0.628358  0.728979  1
  Au  Au17  1  0.627835  0.369393  0.728958  1
  Au  Au18  1  0.874876  0.870535  0.225127  1
  Au  Au19  1  0.126539  0.130961  0.227871  1
