# generated using pymatgen
data_Pr8Ho12Si15Ru
_symmetry_space_group_name_H-M   'P 1'
_cell_length_a   7.50218038
_cell_length_b   7.81110139
_cell_length_c   14.89111400
_cell_angle_alpha   90.00000000
_cell_angle_beta   90.00000000
_cell_angle_gamma   90.42679854
_symmetry_Int_Tables_number   1
_chemical_formula_structural   Pr8Ho12Si15Ru
_chemical_formula_sum   'Pr8 Ho12 Si15 Ru1'
_cell_volume   872.59941261
_cell_formula_units_Z   1
loop_
 _symmetry_equiv_pos_site_id
 _symmetry_equiv_pos_as_xyz
  1  'x, y, z'
loop_
 _atom_site_type_symbol
 _atom_site_label
 _atom_site_symmetry_multiplicity
 _atom_site_fract_x
 _atom_site_fract_y
 _atom_site_fract_z
 _atom_site_occupancy
  Pr  Pr0  1  0.019908  0.177839  0.401680  1
  Pr  Pr1  1  0.518898  0.324953  0.402698  1
  Pr  Pr2  1  0.476383  0.680575  0.903031  1
  Pr  Pr3  1  0.476383  0.680575  0.596969  1
  Pr  Pr4  1  0.982883  0.822366  0.598288  1
  Pr  Pr5  1  0.982883  0.822366  0.901712  1
  Pr  Pr6  1  0.518898  0.324953  0.097302  1
  Pr  Pr7  1  0.019908  0.177839  0.098320  1
  Ho  Ho8  1  0.319551  0.172197  0.625172  1
  Ho  Ho9  1  0.676910  0.819680  0.377505  1
  Ho  Ho10  1  0.642292  0.982348  0.750000  1
  Ho  Ho11  1  0.176094  0.679597  0.376683  1
  Ho  Ho12  1  0.825265  0.322029  0.876588  1
  Ho  Ho13  1  0.825265  0.322029  0.623412  1
  Ho  Ho14  1  0.844607  0.491037  0.250000  1
  Ho  Ho15  1  0.345559  0.012501  0.250000  1
  Ho  Ho16  1  0.319551  0.172197  0.874828  1
  Ho  Ho17  1  0.176094  0.679597  0.123317  1
  Ho  Ho18  1  0.676910  0.819680  0.122495  1
  Ho  Ho19  1  0.163126  0.519447  0.750000  1
  Si  Si20  1  0.468683  0.615623  0.250000  1
  Si  Si21  1  0.025869  0.108189  0.750000  1
  Si  Si22  1  0.534208  0.385661  0.750000  1
  Si  Si23  1  0.148550  0.466115  0.538153  1
  Si  Si24  1  0.969331  0.886414  0.250000  1
  Si  Si25  1  0.725633  0.119514  0.250000  1
  Si  Si26  1  0.854637  0.529214  0.040242  1
  Si  Si27  1  0.355009  0.970310  0.040314  1
  Si  Si28  1  0.148550  0.466115  0.961847  1
  Si  Si29  1  0.649554  0.036192  0.537573  1
  Si  Si30  1  0.355009  0.970310  0.459686  1
  Si  Si31  1  0.854637  0.529214  0.459758  1
  Si  Si32  1  0.771968  0.614017  0.750000  1
  Si  Si33  1  0.226645  0.381399  0.250000  1
  Si  Si34  1  0.649554  0.036192  0.962427  1
  Ru  Ru35  1  0.274797  0.881712  0.750000  1
