# generated using pymatgen
data_Y4Tc3B8Ru
_symmetry_space_group_name_H-M   'P 1'
_cell_length_a   5.30282800
_cell_length_b   5.96400056
_cell_length_c   6.43886972
_cell_angle_alpha   90.10572747
_cell_angle_beta   90.00000000
_cell_angle_gamma   90.00000000
_symmetry_Int_Tables_number   1
_chemical_formula_structural   Y4Tc3B8Ru
_chemical_formula_sum   'Y4 Tc3 B8 Ru1'
_cell_volume   203.63579231
_cell_formula_units_Z   1
loop_
 _symmetry_equiv_pos_site_id
 _symmetry_equiv_pos_as_xyz
  1  'x, y, z'
loop_
 _atom_site_type_symbol
 _atom_site_label
 _atom_site_symmetry_multiplicity
 _atom_site_fract_x
 _atom_site_fract_y
 _atom_site_fract_z
 _atom_site_occupancy
  Y  Y0  1  0.750000  0.484571  0.161010  1
  Y  Y1  1  0.750000  0.985805  0.338212  1
  Y  Y2  1  0.250000  0.514804  0.838413  1
  Y  Y3  1  0.250000  0.015741  0.662231  1
  Tc  Tc4  1  0.750000  0.318480  0.685005  1
  Tc  Tc5  1  0.750000  0.820440  0.815567  1
  Tc  Tc6  1  0.250000  0.679640  0.314580  1
  B  B7  1  0.919960  0.128460  0.962406  1
  B  B8  1  0.578962  0.628585  0.536659  1
  B  B9  1  0.419060  0.870619  0.036554  1
  B  B10  1  0.080684  0.371165  0.464340  1
  B  B11  1  0.080940  0.870619  0.036554  1
  B  B12  1  0.419316  0.371165  0.464340  1
  B  B13  1  0.580040  0.128460  0.962406  1
  B  B14  1  0.921038  0.628585  0.536659  1
  Ru  Ru15  1  0.250000  0.182861  0.185062  1
