# generated using pymatgen
data_LaYTmTaO7
_symmetry_space_group_name_H-M   'P 1'
_cell_length_a   6.50785805
_cell_length_b   6.50785744
_cell_length_c   7.62208500
_cell_angle_alpha   90.00000000
_cell_angle_beta   90.00000000
_cell_angle_gamma   109.01602524
_symmetry_Int_Tables_number   1
_chemical_formula_structural   LaYTmTaO7
_chemical_formula_sum   'La2 Y2 Tm2 Ta2 O14'
_cell_volume   305.19548966
_cell_formula_units_Z   2
loop_
 _symmetry_equiv_pos_site_id
 _symmetry_equiv_pos_as_xyz
  1  'x, y, z'
loop_
 _atom_site_type_symbol
 _atom_site_label
 _atom_site_symmetry_multiplicity
 _atom_site_fract_x
 _atom_site_fract_y
 _atom_site_fract_z
 _atom_site_occupancy
  La  La0  1  0.501440  0.501440  0.500000  1
  La  La1  1  0.501440  0.501440  0.000000  1
  Y  Y2  1  0.467117  0.999344  0.250000  1
  Y  Y3  1  0.999344  0.467117  0.750000  1
  Tm  Tm4  1  0.531686  0.001546  0.750000  1
  Tm  Tm5  1  0.001546  0.531686  0.250000  1
  Ta  Ta6  1  0.999935  0.999935  0.500000  1
  Ta  Ta7  1  0.999935  0.999935  0.000000  1
  O  O8  1  0.679606  0.933267  0.470294  1
  O  O9  1  0.933267  0.679606  0.529706  1
  O  O10  1  0.679606  0.933267  0.029706  1
  O  O11  1  0.933267  0.679606  0.970294  1
  O  O12  1  0.318891  0.065629  0.535839  1
  O  O13  1  0.065629  0.318891  0.464161  1
  O  O14  1  0.318891  0.065629  0.964161  1
  O  O15  1  0.065629  0.318891  0.035839  1
  O  O16  1  0.936433  0.063468  0.750000  1
  O  O17  1  0.063468  0.936433  0.250000  1
  O  O18  1  0.364697  0.642255  0.750000  1
  O  O19  1  0.642255  0.364697  0.250000  1
  O  O20  1  0.643309  0.352608  0.750000  1
  O  O21  1  0.352608  0.643309  0.250000  1
