# generated using pymatgen
data_Yb(AlS2)2
_symmetry_space_group_name_H-M   'P 1'
_cell_length_a   5.85643790
_cell_length_b   5.85643833
_cell_length_c   10.12107100
_cell_angle_alpha   90.00000000
_cell_angle_beta   90.00000000
_cell_angle_gamma   118.89611377
_symmetry_Int_Tables_number   1
_chemical_formula_structural   Yb(AlS2)2
_chemical_formula_sum   'Yb2 Al4 S8'
_cell_volume   303.91238729
_cell_formula_units_Z   2
loop_
 _symmetry_equiv_pos_site_id
 _symmetry_equiv_pos_as_xyz
  1  'x, y, z'
loop_
 _atom_site_type_symbol
 _atom_site_label
 _atom_site_symmetry_multiplicity
 _atom_site_fract_x
 _atom_site_fract_y
 _atom_site_fract_z
 _atom_site_occupancy
  Yb  Yb0  1  0.500000  0.500000  0.750000  1
  Yb  Yb1  1  0.500000  0.500000  0.250000  1
  Al  Al2  1  0.764416  0.238351  0.500000  1
  Al  Al3  1  0.235584  0.761649  0.500000  1
  Al  Al4  1  0.761649  0.235584  0.000000  1
  Al  Al5  1  0.238351  0.764416  0.000000  1
  S  S6  1  0.351429  0.189288  0.500000  1
  S  S7  1  0.648571  0.810712  0.500000  1
  S  S8  1  0.810712  0.648571  0.000000  1
  S  S9  1  0.189288  0.351429  0.000000  1
  S  S10  1  0.500000  0.000000  0.830181  1
  S  S11  1  0.000000  0.500000  0.669819  1
  S  S12  1  0.500000  0.000000  0.169819  1
  S  S13  1  0.000000  0.500000  0.330181  1
