# generated using pymatgen
data_SrSbTe3
_symmetry_space_group_name_H-M   'P 1'
_cell_length_a   4.50164500
_cell_length_b   16.92372500
_cell_length_c   17.89953900
_cell_angle_alpha   90.00000000
_cell_angle_beta   90.00000000
_cell_angle_gamma   90.00000000
_symmetry_Int_Tables_number   1
_chemical_formula_structural   SrSbTe3
_chemical_formula_sum   'Sr8 Sb8 Te24'
_cell_volume   1363.66925519
_cell_formula_units_Z   8
loop_
 _symmetry_equiv_pos_site_id
 _symmetry_equiv_pos_as_xyz
  1  'x, y, z'
loop_
 _atom_site_type_symbol
 _atom_site_label
 _atom_site_symmetry_multiplicity
 _atom_site_fract_x
 _atom_site_fract_y
 _atom_site_fract_z
 _atom_site_occupancy
  Sr  Sr0  1  0.249305  0.536469  0.663267  1
  Sr  Sr1  1  0.749305  0.963531  0.336733  1
  Sr  Sr2  1  0.750695  0.036469  0.836733  1
  Sr  Sr3  1  0.250695  0.463531  0.163267  1
  Sr  Sr4  1  0.254455  0.394747  0.903505  1
  Sr  Sr5  1  0.754455  0.105253  0.096495  1
  Sr  Sr6  1  0.745545  0.894747  0.596495  1
  Sr  Sr7  1  0.245545  0.605253  0.403505  1
  Sb  Sb8  1  0.754722  0.278641  0.701238  1
  Sb  Sb9  1  0.254722  0.221359  0.298762  1
  Sb  Sb10  1  0.245278  0.778641  0.798762  1
  Sb  Sb11  1  0.745278  0.721359  0.201238  1
  Sb  Sb12  1  0.752222  0.631726  0.969912  1
  Sb  Sb13  1  0.252222  0.868274  0.030088  1
  Sb  Sb14  1  0.247778  0.131726  0.530088  1
  Sb  Sb15  1  0.747778  0.368274  0.469912  1
  Te  Te16  1  0.752820  0.468771  0.025079  1
  Te  Te17  1  0.252820  0.031229  0.974921  1
  Te  Te18  1  0.247180  0.968771  0.474921  1
  Te  Te19  1  0.747180  0.531229  0.525079  1
  Te  Te20  1  0.733898  0.291035  0.190951  1
  Te  Te21  1  0.233898  0.208965  0.809049  1
  Te  Te22  1  0.266102  0.791035  0.309049  1
  Te  Te23  1  0.766102  0.708965  0.690951  1
  Te  Te24  1  0.261484  0.680503  0.091913  1
  Te  Te25  1  0.761484  0.819497  0.908087  1
  Te  Te26  1  0.738516  0.180503  0.408087  1
  Te  Te27  1  0.238516  0.319497  0.591913  1
  Te  Te28  1  0.236858  0.736220  0.557149  1
  Te  Te29  1  0.736858  0.763780  0.442851  1
  Te  Te30  1  0.763142  0.236220  0.942851  1
  Te  Te31  1  0.263142  0.263780  0.057149  1
  Te  Te32  1  0.241212  0.401757  0.364292  1
  Te  Te33  1  0.741212  0.098243  0.635708  1
  Te  Te34  1  0.758788  0.901757  0.135708  1
  Te  Te35  1  0.258788  0.598243  0.864292  1
  Te  Te36  1  0.747124  0.563945  0.268927  1
  Te  Te37  1  0.247124  0.936055  0.731073  1
  Te  Te38  1  0.252876  0.063945  0.231073  1
  Te  Te39  1  0.752876  0.436055  0.768927  1
