# generated using pymatgen
data_Tm6Pa2Re(B8Mo)3
_symmetry_space_group_name_H-M   'P 1'
_cell_length_a   3.67993100
_cell_length_b   9.16768024
_cell_length_c   11.53885963
_cell_angle_alpha   90.20983281
_cell_angle_beta   90.00000000
_cell_angle_gamma   90.00000000
_symmetry_Int_Tables_number   1
_chemical_formula_structural   Tm6Pa2Re(B8Mo)3
_chemical_formula_sum   'Tm6 Pa2 Re1 B24 Mo3'
_cell_volume   389.27732787
_cell_formula_units_Z   1
loop_
 _symmetry_equiv_pos_site_id
 _symmetry_equiv_pos_as_xyz
  1  'x, y, z'
loop_
 _atom_site_type_symbol
 _atom_site_label
 _atom_site_symmetry_multiplicity
 _atom_site_fract_x
 _atom_site_fract_y
 _atom_site_fract_z
 _atom_site_occupancy
  Tm  Tm0  1  0.000000  0.823107  0.085070  1
  Tm  Tm1  1  0.000000  0.175626  0.914131  1
  Tm  Tm2  1  0.000000  0.944180  0.371926  1
  Tm  Tm3  1  0.000000  0.055511  0.628735  1
  Tm  Tm4  1  0.000000  0.443956  0.126961  1
  Tm  Tm5  1  0.000000  0.557478  0.872627  1
  Pa  Pa6  1  0.000000  0.320604  0.413610  1
  Pa  Pa7  1  0.000000  0.679983  0.586719  1
  Re  Re8  1  0.000000  0.858948  0.818295  1
  B  B9  1  0.500000  0.552379  0.433800  1
  B  B10  1  0.500000  0.447932  0.566810  1
  B  B11  1  0.500000  0.051625  0.064431  1
  B  B12  1  0.500000  0.945979  0.932762  1
  B  B13  1  0.500000  0.750771  0.420130  1
  B  B14  1  0.500000  0.249179  0.580617  1
  B  B15  1  0.500000  0.250843  0.078062  1
  B  B16  1  0.500000  0.751118  0.919526  1
  B  B17  1  0.500000  0.793876  0.264243  1
  B  B18  1  0.500000  0.205527  0.736427  1
  B  B19  1  0.500000  0.293812  0.234861  1
  B  B20  1  0.500000  0.708147  0.766211  1
  B  B21  1  0.500000  0.631371  0.183164  1
  B  B22  1  0.500000  0.368756  0.817265  1
  B  B23  1  0.500000  0.131256  0.315395  1
  B  B24  1  0.500000  0.868996  0.686182  1
  B  B25  1  0.500000  0.979422  0.211642  1
  B  B26  1  0.500000  0.017620  0.788440  1
  B  B27  1  0.500000  0.480303  0.286638  1
  B  B28  1  0.500000  0.520200  0.713598  1
  B  B29  1  0.500000  0.601878  0.027994  1
  B  B30  1  0.500000  0.399326  0.971402  1
  B  B31  1  0.500000  0.106428  0.470720  1
  B  B32  1  0.500000  0.893772  0.530252  1
  Mo  Mo33  1  0.000000  0.636749  0.323123  1
  Mo  Mo34  1  0.000000  0.363176  0.677868  1
  Mo  Mo35  1  0.000000  0.140164  0.180362  1
