# generated using pymatgen
data_Rb2Er4Cu4Se9
_symmetry_space_group_name_H-M   'P 1'
_cell_length_a   7.50413137
_cell_length_b   7.50413073
_cell_length_c   16.52703392
_cell_angle_alpha   71.79797727
_cell_angle_beta   71.79797918
_cell_angle_gamma   31.84844905
_symmetry_Int_Tables_number   1
_chemical_formula_structural   Rb2Er4Cu4Se9
_chemical_formula_sum   'Rb2 Er4 Cu4 Se9'
_cell_volume   464.45934162
_cell_formula_units_Z   1
loop_
 _symmetry_equiv_pos_site_id
 _symmetry_equiv_pos_as_xyz
  1  'x, y, z'
loop_
 _atom_site_type_symbol
 _atom_site_label
 _atom_site_symmetry_multiplicity
 _atom_site_fract_x
 _atom_site_fract_y
 _atom_site_fract_z
 _atom_site_occupancy
  Rb  Rb0  1  0.032253  0.032253  0.728853  1
  Rb  Rb1  1  0.967747  0.967747  0.271147  1
  Er  Er2  1  0.230425  0.230425  0.897301  1
  Er  Er3  1  0.346128  0.346128  0.556213  1
  Er  Er4  1  0.653872  0.653872  0.443787  1
  Er  Er5  1  0.769575  0.769575  0.102699  1
  Cu  Cu6  1  0.424955  0.424955  0.970566  1
  Cu  Cu7  1  0.756181  0.756181  0.730860  1
  Cu  Cu8  1  0.243819  0.243819  0.269140  1
  Cu  Cu9  1  0.575045  0.575045  0.029434  1
  Se  Se10  1  0.860557  0.860557  0.923528  1
  Se  Se11  1  0.606657  0.606657  0.872664  1
  Se  Se12  1  0.349248  0.349248  0.724035  1
  Se  Se13  1  0.704733  0.704733  0.600137  1
  Se  Se14  1  0.000000  0.000000  0.500000  1
  Se  Se15  1  0.295267  0.295267  0.399863  1
  Se  Se16  1  0.650752  0.650752  0.275965  1
  Se  Se17  1  0.393343  0.393343  0.127336  1
  Se  Se18  1  0.139443  0.139443  0.076472  1
