# generated using pymatgen
data_Sm2DyCo8P6W
_symmetry_space_group_name_H-M   'P 1'
_cell_length_a   3.75070500
_cell_length_b   10.61469400
_cell_length_c   12.32844000
_cell_angle_alpha   90.00000000
_cell_angle_beta   90.00000000
_cell_angle_gamma   90.00000000
_symmetry_Int_Tables_number   1
_chemical_formula_structural   Sm2DyCo8P6W
_chemical_formula_sum   'Sm4 Dy2 Co16 P12 W2'
_cell_volume   490.82707601
_cell_formula_units_Z   2
loop_
 _symmetry_equiv_pos_site_id
 _symmetry_equiv_pos_as_xyz
  1  'x, y, z'
loop_
 _atom_site_type_symbol
 _atom_site_label
 _atom_site_symmetry_multiplicity
 _atom_site_fract_x
 _atom_site_fract_y
 _atom_site_fract_z
 _atom_site_occupancy
  Sm  Sm0  1  0.000000  0.500000  0.523671  1
  Sm  Sm1  1  0.500000  0.000000  0.475534  1
  Sm  Sm2  1  0.000000  0.680901  0.795205  1
  Sm  Sm3  1  0.000000  0.319099  0.795205  1
  Dy  Dy4  1  0.500000  0.819362  0.204454  1
  Dy  Dy5  1  0.500000  0.180638  0.204454  1
  Co  Co6  1  0.500000  0.500000  0.701845  1
  Co  Co7  1  0.000000  0.000000  0.296793  1
  Co  Co8  1  0.000000  0.500000  0.988807  1
  Co  Co9  1  0.500000  0.000000  0.014004  1
  Co  Co10  1  0.500000  0.332030  0.992282  1
  Co  Co11  1  0.500000  0.667970  0.992282  1
  Co  Co12  1  0.000000  0.166672  0.010649  1
  Co  Co13  1  0.000000  0.833328  0.010649  1
  Co  Co14  1  0.500000  0.295125  0.429501  1
  Co  Co15  1  0.500000  0.704875  0.429501  1
  Co  Co16  1  0.000000  0.204264  0.568093  1
  Co  Co17  1  0.000000  0.795736  0.568093  1
  Co  Co18  1  0.500000  0.879770  0.708403  1
  Co  Co19  1  0.500000  0.120230  0.708403  1
  Co  Co20  1  0.000000  0.621374  0.290465  1
  Co  Co21  1  0.000000  0.378626  0.290465  1
  P  P22  1  0.500000  0.500000  0.883913  1
  P  P23  1  0.000000  0.000000  0.119038  1
  P  P24  1  0.500000  0.500000  0.347101  1
  P  P25  1  0.000000  0.000000  0.652784  1
  P  P26  1  0.500000  0.308364  0.614292  1
  P  P27  1  0.500000  0.691636  0.614292  1
  P  P28  1  0.000000  0.190548  0.382823  1
  P  P29  1  0.000000  0.809452  0.382823  1
  P  P30  1  0.500000  0.845871  0.894845  1
  P  P31  1  0.500000  0.154129  0.894845  1
  P  P32  1  0.000000  0.655884  0.106886  1
  P  P33  1  0.000000  0.344116  0.106886  1
  W  W34  1  0.500000  0.500000  0.155189  1
  W  W35  1  0.000000  0.000000  0.845529  1
