# generated using pymatgen
data_NdTa3(NbCl6)3
_symmetry_space_group_name_H-M   'P 1'
_cell_length_a   10.26705601
_cell_length_b   10.26706038
_cell_length_c   10.26894964
_cell_angle_alpha   55.90736630
_cell_angle_beta   55.90072750
_cell_angle_gamma   55.89535873
_symmetry_Int_Tables_number   1
_chemical_formula_structural   NdTa3(NbCl6)3
_chemical_formula_sum   'Nd1 Ta3 Nb3 Cl18'
_cell_volume   692.70990574
_cell_formula_units_Z   1
loop_
 _symmetry_equiv_pos_site_id
 _symmetry_equiv_pos_as_xyz
  1  'x, y, z'
loop_
 _atom_site_type_symbol
 _atom_site_label
 _atom_site_symmetry_multiplicity
 _atom_site_fract_x
 _atom_site_fract_y
 _atom_site_fract_z
 _atom_site_occupancy
  Nd  Nd0  1  0.999887  0.999562  0.001104  1
  Ta  Ta1  1  0.410771  0.302183  0.647247  1
  Ta  Ta2  1  0.352311  0.589602  0.697508  1
  Ta  Ta3  1  0.698188  0.352430  0.588799  1
  Nb  Nb4  1  0.301270  0.648705  0.409647  1
  Nb  Nb5  1  0.648470  0.410666  0.300503  1
  Nb  Nb6  1  0.589786  0.699144  0.350979  1
  Cl  Cl7  1  0.567042  0.163957  0.443875  1
  Cl  Cl8  1  0.226835  0.371281  0.903407  1
  Cl  Cl9  1  0.904948  0.225365  0.373271  1
  Cl  Cl10  1  0.370279  0.906098  0.225473  1
  Cl  Cl11  1  0.774835  0.629483  0.094025  1
  Cl  Cl12  1  0.095789  0.773260  0.631336  1
  Cl  Cl13  1  0.696708  0.956857  0.164407  1
  Cl  Cl14  1  0.951906  0.165862  0.696568  1
  Cl  Cl15  1  0.167337  0.694411  0.952999  1
  Cl  Cl16  1  0.304916  0.047163  0.834162  1
  Cl  Cl17  1  0.042311  0.835563  0.304566  1
  Cl  Cl18  1  0.836972  0.302725  0.043246  1
  Cl  Cl19  1  0.558729  0.431286  0.834204  1
  Cl  Cl20  1  0.165670  0.438601  0.570651  1
  Cl  Cl21  1  0.440987  0.568822  0.163796  1
  Cl  Cl22  1  0.429601  0.834186  0.561477  1
  Cl  Cl23  1  0.835920  0.556159  0.433256  1
  Cl  Cl24  1  0.628532  0.096631  0.773496  1
