# generated using pymatgen
data_Y8Ga(Pd11Au)2
_symmetry_space_group_name_H-M   'P 1'
_cell_length_a   8.40945000
_cell_length_b   8.39657514
_cell_length_c   8.39563414
_cell_angle_alpha   89.97923429
_cell_angle_beta   90.00000000
_cell_angle_gamma   90.00000000
_symmetry_Int_Tables_number   1
_chemical_formula_structural   Y8Ga(Pd11Au)2
_chemical_formula_sum   'Y8 Ga1 Pd22 Au2'
_cell_volume   592.82054687
_cell_formula_units_Z   1
loop_
 _symmetry_equiv_pos_site_id
 _symmetry_equiv_pos_as_xyz
  1  'x, y, z'
loop_
 _atom_site_type_symbol
 _atom_site_label
 _atom_site_symmetry_multiplicity
 _atom_site_fract_x
 _atom_site_fract_y
 _atom_site_fract_z
 _atom_site_occupancy
  Y  Y0  1  0.252582  0.247943  0.743618  1
  Y  Y1  1  0.252477  0.747640  0.252393  1
  Y  Y2  1  0.751505  0.252116  0.256440  1
  Y  Y3  1  0.743423  0.751490  0.747966  1
  Y  Y4  1  0.747523  0.747640  0.252393  1
  Y  Y5  1  0.747418  0.247943  0.743618  1
  Y  Y6  1  0.256577  0.751490  0.747966  1
  Y  Y7  1  0.248495  0.252116  0.256440  1
  Ga  Ga8  1  0.000000  0.999587  0.000093  1
  Pd  Pd9  1  0.500000  0.499481  0.745958  1
  Pd  Pd10  1  0.500000  0.252672  0.499328  1
  Pd  Pd11  1  0.255197  0.500537  0.500514  1
  Pd  Pd12  1  0.500000  0.499572  0.254106  1
  Pd  Pd13  1  0.500000  0.747225  0.499321  1
  Pd  Pd14  1  0.744803  0.500537  0.500514  1
  Pd  Pd15  1  0.000000  0.999085  0.708624  1
  Pd  Pd16  1  0.000000  0.290770  0.999175  1
  Pd  Pd17  1  0.290186  0.000880  0.000896  1
  Pd  Pd18  1  0.000000  0.999132  0.291442  1
  Pd  Pd19  1  0.000000  0.708982  0.999235  1
  Pd  Pd20  1  0.709814  0.000880  0.000896  1
  Pd  Pd21  1  0.260754  0.999349  0.499314  1
  Pd  Pd22  1  0.000000  0.258903  0.500663  1
  Pd  Pd23  1  0.500000  0.000560  0.739680  1
  Pd  Pd24  1  0.260063  0.499630  0.999570  1
  Pd  Pd25  1  0.000000  0.500527  0.259918  1
  Pd  Pd26  1  0.500000  0.740271  0.000634  1
  Pd  Pd27  1  0.000000  0.740950  0.500474  1
  Pd  Pd28  1  0.500000  0.000498  0.260481  1
  Pd  Pd29  1  0.739246  0.999349  0.499314  1
  Pd  Pd30  1  0.739937  0.499630  0.999570  1
  Au  Au31  1  0.000000  0.500934  0.738362  1
  Au  Au32  1  0.500000  0.261680  0.001083  1
