# generated using pymatgen
data_Si(NF7)2
_symmetry_space_group_name_H-M   'P 1'
_cell_length_a   6.73076763
_cell_length_b   6.73076737
_cell_length_c   6.73076804
_cell_angle_alpha   119.03468600
_cell_angle_beta   119.03469186
_cell_angle_gamma   91.68026945
_symmetry_Int_Tables_number   1
_chemical_formula_structural   Si(NF7)2
_chemical_formula_sum   'Si1 N2 F14'
_cell_volume   218.65912063
_cell_formula_units_Z   1
loop_
 _symmetry_equiv_pos_site_id
 _symmetry_equiv_pos_as_xyz
  1  'x, y, z'
loop_
 _atom_site_type_symbol
 _atom_site_label
 _atom_site_symmetry_multiplicity
 _atom_site_fract_x
 _atom_site_fract_y
 _atom_site_fract_z
 _atom_site_occupancy
  Si  Si0  1  0.000000  0.000000  0.000000  1
  N  N1  1  0.750000  0.250000  0.500000  1
  N  N2  1  0.250000  0.750000  0.500000  1
  F  F3  1  0.403700  0.975184  0.714961  1
  F  F4  1  0.220741  0.124313  0.345053  1
  F  F5  1  0.124313  0.779259  0.903572  1
  F  F6  1  0.875687  0.220741  0.096428  1
  F  F7  1  0.779259  0.875687  0.654947  1
  F  F8  1  0.182606  0.182606  0.000000  1
  F  F9  1  0.817394  0.817394  0.000000  1
  F  F10  1  0.739776  0.311261  0.714961  1
  F  F11  1  0.311261  0.596300  0.571484  1
  F  F12  1  0.024816  0.739776  0.428516  1
  F  F13  1  0.596300  0.024816  0.285039  1
  F  F14  1  0.260224  0.688739  0.285039  1
  F  F15  1  0.688739  0.403700  0.428516  1
  F  F16  1  0.975184  0.260224  0.571484  1
