# generated using pymatgen
data_ErCuPdO4
_symmetry_space_group_name_H-M   'P 1'
_cell_length_a   6.35381440
_cell_length_b   6.35381466
_cell_length_c   6.36740682
_cell_angle_alpha   125.37526477
_cell_angle_beta   127.36654090
_cell_angle_gamma   79.14187585
_symmetry_Int_Tables_number   1
_chemical_formula_structural   ErCuPdO4
_chemical_formula_sum   'Er2 Cu2 Pd2 O8'
_cell_volume   161.22890487
_cell_formula_units_Z   2
loop_
 _symmetry_equiv_pos_site_id
 _symmetry_equiv_pos_as_xyz
  1  'x, y, z'
loop_
 _atom_site_type_symbol
 _atom_site_label
 _atom_site_symmetry_multiplicity
 _atom_site_fract_x
 _atom_site_fract_y
 _atom_site_fract_z
 _atom_site_occupancy
  Er  Er0  1  0.749619  0.249619  0.500000  1
  Er  Er1  1  0.000381  0.000381  0.000000  1
  Cu  Cu2  1  0.375000  0.625000  0.250000  1
  Cu  Cu3  1  0.375000  0.125000  0.750000  1
  Pd  Pd4  1  0.875000  0.625000  0.250000  1
  Pd  Pd5  1  0.375000  0.625000  0.750000  1
  O  O6  1  0.010813  0.968481  0.366143  1
  O  O7  1  0.696740  0.856936  0.457177  1
  O  O8  1  0.399761  0.239565  0.542823  1
  O  O9  1  0.602339  0.644670  0.633857  1
  O  O10  1  0.739187  0.281519  0.133857  1
  O  O11  1  0.053260  0.393064  0.042823  1
  O  O12  1  0.147661  0.605330  0.866143  1
  O  O13  1  0.350239  0.010435  0.957177  1
