# generated using pymatgen
data_TbYTcB6
_symmetry_space_group_name_H-M   'P 1'
_cell_length_a   3.69258400
_cell_length_b   9.17781700
_cell_length_c   11.56870200
_cell_angle_alpha   90.00000000
_cell_angle_beta   90.00000000
_cell_angle_gamma   90.00000000
_symmetry_Int_Tables_number   1
_chemical_formula_structural   TbYTcB6
_chemical_formula_sum   'Tb4 Y4 Tc4 B24'
_cell_volume   392.06169358
_cell_formula_units_Z   4
loop_
 _symmetry_equiv_pos_site_id
 _symmetry_equiv_pos_as_xyz
  1  'x, y, z'
loop_
 _atom_site_type_symbol
 _atom_site_label
 _atom_site_symmetry_multiplicity
 _atom_site_fract_x
 _atom_site_fract_y
 _atom_site_fract_z
 _atom_site_occupancy
  Tb  Tb0  1  0.000000  0.324304  0.414218  1
  Tb  Tb1  1  0.000000  0.675696  0.585782  1
  Tb  Tb2  1  0.000000  0.824304  0.085782  1
  Tb  Tb3  1  0.000000  0.175696  0.914218  1
  Y  Y4  1  0.000000  0.943052  0.369746  1
  Y  Y5  1  0.000000  0.056948  0.630254  1
  Y  Y6  1  0.000000  0.443052  0.130254  1
  Y  Y7  1  0.000000  0.556948  0.869746  1
  Tc  Tc8  1  0.000000  0.638782  0.320639  1
  Tc  Tc9  1  0.000000  0.361218  0.679361  1
  Tc  Tc10  1  0.000000  0.138782  0.179361  1
  Tc  Tc11  1  0.000000  0.861218  0.820639  1
  B  B12  1  0.500000  0.553532  0.432566  1
  B  B13  1  0.500000  0.446468  0.567434  1
  B  B14  1  0.500000  0.053532  0.067434  1
  B  B15  1  0.500000  0.946468  0.932566  1
  B  B16  1  0.500000  0.748485  0.418360  1
  B  B17  1  0.500000  0.251515  0.581640  1
  B  B18  1  0.500000  0.248485  0.081640  1
  B  B19  1  0.500000  0.751515  0.918360  1
  B  B20  1  0.500000  0.791861  0.265649  1
  B  B21  1  0.500000  0.208139  0.734351  1
  B  B22  1  0.500000  0.291861  0.234351  1
  B  B23  1  0.500000  0.708139  0.765649  1
  B  B24  1  0.500000  0.631172  0.185997  1
  B  B25  1  0.500000  0.368828  0.814003  1
  B  B26  1  0.500000  0.131172  0.314003  1
  B  B27  1  0.500000  0.868828  0.685997  1
  B  B28  1  0.500000  0.982680  0.211786  1
  B  B29  1  0.500000  0.017320  0.788214  1
  B  B30  1  0.500000  0.482680  0.288214  1
  B  B31  1  0.500000  0.517320  0.711786  1
  B  B32  1  0.500000  0.600521  0.028144  1
  B  B33  1  0.500000  0.399479  0.971856  1
  B  B34  1  0.500000  0.100521  0.471856  1
  B  B35  1  0.500000  0.899479  0.528144  1
