# generated using pymatgen
data_Y3Sc2Sn3O
_symmetry_space_group_name_H-M   'P 1'
_cell_length_a   8.74996300
_cell_length_b   8.74996391
_cell_length_c   6.16635800
_cell_angle_alpha   90.00000000
_cell_angle_beta   90.00000000
_cell_angle_gamma   120.00000035
_symmetry_Int_Tables_number   1
_chemical_formula_structural   Y3Sc2Sn3O
_chemical_formula_sum   'Y6 Sc4 Sn6 O2'
_cell_volume   408.85738190
_cell_formula_units_Z   2
loop_
 _symmetry_equiv_pos_site_id
 _symmetry_equiv_pos_as_xyz
  1  'x, y, z'
loop_
 _atom_site_type_symbol
 _atom_site_label
 _atom_site_symmetry_multiplicity
 _atom_site_fract_x
 _atom_site_fract_y
 _atom_site_fract_z
 _atom_site_occupancy
  Y  Y0  1  0.000000  0.773080  0.750000  1
  Y  Y1  1  0.000000  0.226920  0.250000  1
  Y  Y2  1  0.226920  0.226920  0.750000  1
  Y  Y3  1  0.226920  0.000000  0.250000  1
  Y  Y4  1  0.773080  0.773080  0.250000  1
  Y  Y5  1  0.773080  0.000000  0.750000  1
  Sc  Sc6  1  0.333333  0.666667  0.000000  1
  Sc  Sc7  1  0.333333  0.666667  0.500000  1
  Sc  Sc8  1  0.666667  0.333333  0.000000  1
  Sc  Sc9  1  0.666667  0.333333  0.500000  1
  Sn  Sn10  1  0.000000  0.594334  0.250000  1
  Sn  Sn11  1  0.000000  0.405666  0.750000  1
  Sn  Sn12  1  0.405666  0.405666  0.250000  1
  Sn  Sn13  1  0.594334  0.594334  0.750000  1
  Sn  Sn14  1  0.405666  0.000000  0.750000  1
  Sn  Sn15  1  0.594334  0.000000  0.250000  1
  O  O16  1  0.000000  0.000000  0.000000  1
  O  O17  1  0.000000  0.000000  0.500000  1
