# generated using pymatgen
data_Ho2Sc2Si7Pt9W
_symmetry_space_group_name_H-M   'P 1'
_cell_length_a   9.93326946
_cell_length_b   9.96046633
_cell_length_c   3.97678400
_cell_angle_alpha   90.00000000
_cell_angle_beta   90.00000000
_cell_angle_gamma   119.64131932
_symmetry_Int_Tables_number   1
_chemical_formula_structural   Ho2Sc2Si7Pt9W
_chemical_formula_sum   'Ho2 Sc2 Si7 Pt9 W1'
_cell_volume   341.97383318
_cell_formula_units_Z   1
loop_
 _symmetry_equiv_pos_site_id
 _symmetry_equiv_pos_as_xyz
  1  'x, y, z'
loop_
 _atom_site_type_symbol
 _atom_site_label
 _atom_site_symmetry_multiplicity
 _atom_site_fract_x
 _atom_site_fract_y
 _atom_site_fract_z
 _atom_site_occupancy
  Ho  Ho0  1  0.000752  0.995784  0.000000  1
  Ho  Ho1  1  0.331919  0.667914  0.500000  1
  Sc  Sc2  1  0.566783  0.110381  0.500000  1
  Sc  Sc3  1  0.547398  0.438762  0.500000  1
  Si  Si4  1  0.246497  0.201079  0.500000  1
  Si  Si5  1  0.804730  0.046641  0.500000  1
  Si  Si6  1  0.951959  0.734182  0.500000  1
  Si  Si7  1  0.552781  0.643748  0.000000  1
  Si  Si8  1  0.355684  0.912243  0.000000  1
  Si  Si9  1  0.079884  0.447596  0.000000  1
  Si  Si10  1  0.679728  0.339112  0.000000  1
  Pt  Pt11  1  0.218561  0.939378  0.500000  1
  Pt  Pt12  1  0.059986  0.285849  0.500000  1
  Pt  Pt13  1  0.719321  0.778342  0.500000  1
  Pt  Pt14  1  0.307021  0.412274  0.000000  1
  Pt  Pt15  1  0.587801  0.899751  0.000000  1
  Pt  Pt16  1  0.098655  0.692007  0.000000  1
  Pt  Pt17  1  0.392614  0.177333  0.000000  1
  Pt  Pt18  1  0.829490  0.208085  0.000000  1
  Pt  Pt19  1  0.785307  0.614158  0.000000  1
  W  W20  1  0.883129  0.455382  0.500000  1
