# generated using pymatgen
data_DyTm(PaGa5)3
_symmetry_space_group_name_H-M   'P 1'
_cell_length_a   12.55038275
_cell_length_b   12.55038246
_cell_length_c   12.55038300
_cell_angle_alpha   28.26326575
_cell_angle_beta   28.26326822
_cell_angle_gamma   28.26327134
_symmetry_Int_Tables_number   1
_chemical_formula_structural   DyTm(PaGa5)3
_chemical_formula_sum   'Dy1 Tm1 Pa3 Ga15'
_cell_volume   391.64575294
_cell_formula_units_Z   1
loop_
 _symmetry_equiv_pos_site_id
 _symmetry_equiv_pos_as_xyz
  1  'x, y, z'
loop_
 _atom_site_type_symbol
 _atom_site_label
 _atom_site_symmetry_multiplicity
 _atom_site_fract_x
 _atom_site_fract_y
 _atom_site_fract_z
 _atom_site_occupancy
  Dy  Dy0  1  0.999365  0.999365  0.999365  1
  Tm  Tm1  1  0.599528  0.599528  0.599528  1
  Pa  Pa2  1  0.130580  0.130580  0.130580  1
  Pa  Pa3  1  0.869925  0.869925  0.869925  1
  Pa  Pa4  1  0.400790  0.400790  0.400790  1
  Ga  Ga5  1  0.132258  0.635659  0.635659  1
  Ga  Ga6  1  0.635659  0.635659  0.132258  1
  Ga  Ga7  1  0.635659  0.132258  0.635659  1
  Ga  Ga8  1  0.364569  0.871832  0.364569  1
  Ga  Ga9  1  0.364569  0.364569  0.871832  1
  Ga  Ga10  1  0.871832  0.364569  0.364569  1
  Ga  Ga11  1  0.431024  0.882522  0.882522  1
  Ga  Ga12  1  0.882522  0.882522  0.431024  1
  Ga  Ga13  1  0.882522  0.431024  0.882522  1
  Ga  Ga14  1  0.117446  0.565958  0.117446  1
  Ga  Ga15  1  0.117446  0.117446  0.565958  1
  Ga  Ga16  1  0.565958  0.117446  0.117446  1
  Ga  Ga17  1  0.497949  0.497949  0.002447  1
  Ga  Ga18  1  0.497949  0.002447  0.497949  1
  Ga  Ga19  1  0.002447  0.497949  0.497949  1
