# generated using pymatgen
data_Pu4BiRh4Au
_symmetry_space_group_name_H-M   'P 1'
_cell_length_a   7.68471500
_cell_length_b   7.68471500
_cell_length_c   3.71022500
_cell_angle_alpha   90.00000000
_cell_angle_beta   90.00000000
_cell_angle_gamma   90.00000000
_symmetry_Int_Tables_number   1
_chemical_formula_structural   Pu4BiRh4Au
_chemical_formula_sum   'Pu4 Bi1 Rh4 Au1'
_cell_volume   219.10676092
_cell_formula_units_Z   1
loop_
 _symmetry_equiv_pos_site_id
 _symmetry_equiv_pos_as_xyz
  1  'x, y, z'
loop_
 _atom_site_type_symbol
 _atom_site_label
 _atom_site_symmetry_multiplicity
 _atom_site_fract_x
 _atom_site_fract_y
 _atom_site_fract_z
 _atom_site_occupancy
  Pu  Pu0  1  0.677851  0.164319  0.500000  1
  Pu  Pu1  1  0.322149  0.835681  0.500000  1
  Pu  Pu2  1  0.164319  0.322149  0.500000  1
  Pu  Pu3  1  0.835681  0.677851  0.500000  1
  Bi  Bi4  1  0.500000  0.500000  0.000000  1
  Rh  Rh5  1  0.125201  0.638515  0.000000  1
  Rh  Rh6  1  0.874799  0.361485  0.000000  1
  Rh  Rh7  1  0.638515  0.874799  0.000000  1
  Rh  Rh8  1  0.361485  0.125201  0.000000  1
  Au  Au9  1  0.000000  0.000000  0.000000  1
