# generated using pymatgen
data_DyTm5Al24Ir5Os3
_symmetry_space_group_name_H-M   'P 1'
_cell_length_a   8.80379156
_cell_length_b   8.80379166
_cell_length_c   9.47706007
_cell_angle_alpha   89.75120916
_cell_angle_beta   90.24878903
_cell_angle_gamma   120.12053146
_symmetry_Int_Tables_number   1
_chemical_formula_structural   DyTm5Al24Ir5Os3
_chemical_formula_sum   'Dy1 Tm5 Al24 Ir5 Os3'
_cell_volume   635.34492292
_cell_formula_units_Z   1
loop_
 _symmetry_equiv_pos_site_id
 _symmetry_equiv_pos_as_xyz
  1  'x, y, z'
loop_
 _atom_site_type_symbol
 _atom_site_label
 _atom_site_symmetry_multiplicity
 _atom_site_fract_x
 _atom_site_fract_y
 _atom_site_fract_z
 _atom_site_occupancy
  Dy  Dy0  1  0.806869  0.193131  0.750253  1
  Tm  Tm1  1  0.196945  0.388664  0.251967  1
  Tm  Tm2  1  0.803096  0.611909  0.748081  1
  Tm  Tm3  1  0.611336  0.803055  0.251967  1
  Tm  Tm4  1  0.388091  0.196904  0.748081  1
  Tm  Tm5  1  0.194348  0.805652  0.249767  1
  Al  Al6  1  0.333449  0.666551  0.029865  1
  Al  Al7  1  0.666274  0.333726  0.970357  1
  Al  Al8  1  0.665800  0.334200  0.527209  1
  Al  Al9  1  0.333922  0.666078  0.472586  1
  Al  Al10  1  0.164764  0.327750  0.575722  1
  Al  Al11  1  0.835647  0.672496  0.423955  1
  Al  Al12  1  0.672250  0.835236  0.575722  1
  Al  Al13  1  0.836697  0.673042  0.075335  1
  Al  Al14  1  0.327504  0.164353  0.423955  1
  Al  Al15  1  0.163786  0.327210  0.925021  1
  Al  Al16  1  0.163032  0.836968  0.576220  1
  Al  Al17  1  0.326958  0.163303  0.075335  1
  Al  Al18  1  0.836920  0.163080  0.423095  1
  Al  Al19  1  0.672790  0.836214  0.925021  1
  Al  Al20  1  0.836846  0.163154  0.076901  1
  Al  Al21  1  0.163120  0.836880  0.923816  1
  Al  Al22  1  0.562301  0.123635  0.249533  1
  Al  Al23  1  0.436912  0.876003  0.750465  1
  Al  Al24  1  0.876365  0.437699  0.249533  1
  Al  Al25  1  0.123997  0.563088  0.750465  1
  Al  Al26  1  0.562403  0.437597  0.250527  1
  Al  Al27  1  0.437676  0.562324  0.749388  1
  Al  Al28  1  0.001012  0.998988  0.250020  1
  Al  Al29  1  0.999590  0.000410  0.749978  1
  Ir  Ir30  1  0.499540  0.999707  0.000393  1
  Ir  Ir31  1  0.000293  0.500460  0.000393  1
  Ir  Ir32  1  0.499519  0.999688  0.499587  1
  Ir  Ir33  1  0.499855  0.500145  0.000106  1
  Ir  Ir34  1  0.000312  0.500481  0.499587  1
  Os  Os35  1  0.499844  0.500156  0.499812  1
  Os  Os36  1  0.999972  0.000028  0.000027  1
  Os  Os37  1  0.999966  0.000034  0.499957  1
