# generated using pymatgen
data_Rh2IF18
_symmetry_space_group_name_H-M   'P 1'
_cell_length_a   5.34253735
_cell_length_b   8.68873508
_cell_length_c   8.73935136
_cell_angle_alpha   61.23003250
_cell_angle_beta   84.48465605
_cell_angle_gamma   84.54819395
_symmetry_Int_Tables_number   1
_chemical_formula_structural   Rh2IF18
_chemical_formula_sum   'Rh2 I1 F18'
_cell_volume   353.40305907
_cell_formula_units_Z   1
loop_
 _symmetry_equiv_pos_site_id
 _symmetry_equiv_pos_as_xyz
  1  'x, y, z'
loop_
 _atom_site_type_symbol
 _atom_site_label
 _atom_site_symmetry_multiplicity
 _atom_site_fract_x
 _atom_site_fract_y
 _atom_site_fract_z
 _atom_site_occupancy
  Rh  Rh0  1  0.562833  0.334199  0.334096  1
  Rh  Rh1  1  0.437307  0.664768  0.666293  1
  I  I2  1  0.999861  0.001020  0.999610  1
  F  F3  1  0.875761  0.778066  0.073671  1
  F  F4  1  0.688634  0.073887  0.074283  1
  F  F5  1  0.738095  0.413698  0.114931  1
  F  F6  1  0.122718  0.920720  0.222604  1
  F  F7  1  0.387636  0.554779  0.254258  1
  F  F8  1  0.310486  0.255115  0.257648  1
  F  F9  1  0.815374  0.413097  0.410328  1
  F  F10  1  0.739718  0.114487  0.413486  1
  F  F11  1  0.611210  0.745329  0.446481  1
  F  F12  1  0.388854  0.254323  0.553986  1
  F  F13  1  0.259975  0.884163  0.587526  1
  F  F14  1  0.185267  0.586104  0.589675  1
  F  F15  1  0.689176  0.743763  0.743100  1
  F  F16  1  0.613011  0.444622  0.745529  1
  F  F17  1  0.877146  0.081261  0.776596  1
  F  F18  1  0.262109  0.584628  0.885408  1
  F  F19  1  0.311027  0.927957  0.925022  1
  F  F20  1  0.123802  0.224013  0.925475  1
