# generated using pymatgen
data_Sr4TmSc7Se16
_symmetry_space_group_name_H-M   'P 1'
_cell_length_a   3.99830300
_cell_length_b   12.33120043
_cell_length_c   14.43922058
_cell_angle_alpha   90.11722577
_cell_angle_beta   90.00000000
_cell_angle_gamma   90.00000000
_symmetry_Int_Tables_number   1
_chemical_formula_structural   Sr4TmSc7Se16
_chemical_formula_sum   'Sr4 Tm1 Sc7 Se16'
_cell_volume   711.90804633
_cell_formula_units_Z   1
loop_
 _symmetry_equiv_pos_site_id
 _symmetry_equiv_pos_as_xyz
  1  'x, y, z'
loop_
 _atom_site_type_symbol
 _atom_site_label
 _atom_site_symmetry_multiplicity
 _atom_site_fract_x
 _atom_site_fract_y
 _atom_site_fract_z
 _atom_site_occupancy
  Sr  Sr0  1  0.250000  0.760544  0.331745  1
  Sr  Sr1  1  0.250000  0.260738  0.165341  1
  Sr  Sr2  1  0.750000  0.241691  0.670579  1
  Sr  Sr3  1  0.750000  0.739110  0.832718  1
  Tm  Tm4  1  0.750000  0.082614  0.403293  1
  Sc  Sc5  1  0.250000  0.443004  0.389218  1
  Sc  Sc6  1  0.250000  0.939074  0.107849  1
  Sc  Sc7  1  0.750000  0.559399  0.610592  1
  Sc  Sc8  1  0.750000  0.059077  0.889182  1
  Sc  Sc9  1  0.250000  0.419626  0.902548  1
  Sc  Sc10  1  0.250000  0.917265  0.599346  1
  Sc  Sc11  1  0.750000  0.580977  0.097313  1
  Se  Se12  1  0.250000  0.204099  0.839954  1
  Se  Se13  1  0.250000  0.702980  0.662152  1
  Se  Se14  1  0.750000  0.795253  0.159854  1
  Se  Se15  1  0.750000  0.301032  0.335667  1
  Se  Se16  1  0.250000  0.125276  0.535272  1
  Se  Se17  1  0.250000  0.624046  0.972240  1
  Se  Se18  1  0.750000  0.870923  0.475369  1
  Se  Se19  1  0.750000  0.376028  0.027224  1
  Se  Se20  1  0.250000  0.025431  0.279910  1
  Se  Se21  1  0.250000  0.529552  0.214698  1
  Se  Se22  1  0.750000  0.970158  0.716132  1
  Se  Se23  1  0.750000  0.471602  0.784969  1
  Se  Se24  1  0.250000  0.413581  0.574251  1
  Se  Se25  1  0.250000  0.912643  0.923762  1
  Se  Se26  1  0.750000  0.587794  0.425466  1
  Se  Se27  1  0.750000  0.086485  0.073355  1
