# generated using pymatgen
data_Ca4HoBi5O18
_symmetry_space_group_name_H-M   'P 1'
_cell_length_a   6.84909608
_cell_length_b   7.56707821
_cell_length_c   8.49184100
_cell_angle_alpha   99.50272426
_cell_angle_beta   98.48207835
_cell_angle_gamma   107.76204470
_symmetry_Int_Tables_number   1
_chemical_formula_structural   Ca4HoBi5O18
_chemical_formula_sum   'Ca4 Ho1 Bi5 O18'
_cell_volume   404.10482543
_cell_formula_units_Z   1
loop_
 _symmetry_equiv_pos_site_id
 _symmetry_equiv_pos_as_xyz
  1  'x, y, z'
loop_
 _atom_site_type_symbol
 _atom_site_label
 _atom_site_symmetry_multiplicity
 _atom_site_fract_x
 _atom_site_fract_y
 _atom_site_fract_z
 _atom_site_occupancy
  Ca  Ca0  1  0.596616  0.697998  0.198422  1
  Ca  Ca1  1  0.404549  0.301965  0.801060  1
  Ca  Ca2  1  0.204772  0.899644  0.416318  1
  Ca  Ca3  1  0.002673  0.507758  0.005128  1
  Ho  Ho4  1  0.804437  0.109668  0.580943  1
  Bi  Bi5  1  0.997644  0.997058  0.000091  1
  Bi  Bi6  1  0.786812  0.577579  0.586362  1
  Bi  Bi7  1  0.630923  0.199932  0.188520  1
  Bi  Bi8  1  0.373606  0.798854  0.806896  1
  Bi  Bi9  1  0.215102  0.427326  0.414980  1
  O  O10  1  0.822103  0.808922  0.476076  1
  O  O11  1  0.000251  0.244758  0.171267  1
  O  O12  1  0.667285  0.413384  0.060602  1
  O  O13  1  0.476238  0.007955  0.675545  1
  O  O14  1  0.860864  0.351245  0.421176  1
  O  O15  1  0.504822  0.399014  0.351078  1
  O  O16  1  0.253934  0.627541  0.273879  1
  O  O17  1  0.978145  0.822486  0.164571  1
  O  O18  1  0.661764  0.941908  0.003100  1
  O  O19  1  0.334337  0.058037  0.996254  1
  O  O20  1  0.009611  0.162253  0.826488  1
  O  O21  1  0.747242  0.366139  0.719739  1
  O  O22  1  0.493003  0.591531  0.652174  1
  O  O23  1  0.139145  0.651258  0.580660  1
  O  O24  1  0.553125  0.997479  0.328772  1
  O  O25  1  0.331610  0.586912  0.937837  1
  O  O26  1  0.993116  0.750713  0.827642  1
  O  O27  1  0.156269  0.200678  0.534420  1
