# generated using pymatgen
data_Nd3Cd5Pt4
_symmetry_space_group_name_H-M   'P 1'
_cell_length_a   4.30051800
_cell_length_b   7.23802499
_cell_length_c   8.74932864
_cell_angle_alpha   91.20608456
_cell_angle_beta   90.00000000
_cell_angle_gamma   90.00000000
_symmetry_Int_Tables_number   1
_chemical_formula_structural   Nd3Cd5Pt4
_chemical_formula_sum   'Nd3 Cd5 Pt4'
_cell_volume   272.28226265
_cell_formula_units_Z   1
loop_
 _symmetry_equiv_pos_site_id
 _symmetry_equiv_pos_as_xyz
  1  'x, y, z'
loop_
 _atom_site_type_symbol
 _atom_site_label
 _atom_site_symmetry_multiplicity
 _atom_site_fract_x
 _atom_site_fract_y
 _atom_site_fract_z
 _atom_site_occupancy
  Nd  Nd0  1  0.250000  0.043841  0.324465  1
  Nd  Nd1  1  0.250000  0.540340  0.163773  1
  Nd  Nd2  1  0.750000  0.956402  0.685244  1
  Cd  Cd3  1  0.750000  0.456715  0.820963  1
  Cd  Cd4  1  0.250000  0.148305  0.937469  1
  Cd  Cd5  1  0.250000  0.628235  0.562499  1
  Cd  Cd6  1  0.750000  0.865477  0.057635  1
  Cd  Cd7  1  0.750000  0.366013  0.445621  1
  Pt  Pt8  1  0.250000  0.241341  0.629195  1
  Pt  Pt9  1  0.250000  0.743334  0.870891  1
  Pt  Pt10  1  0.750000  0.754993  0.368490  1
  Pt  Pt11  1  0.750000  0.255005  0.133758  1
