# generated using pymatgen
data_YbNi3(BrO3)8
_symmetry_space_group_name_H-M   'P 1'
_cell_length_a   5.73492092
_cell_length_b   10.59364450
_cell_length_c   10.63735218
_cell_angle_alpha   119.11559084
_cell_angle_beta   90.19804406
_cell_angle_gamma   89.09208692
_symmetry_Int_Tables_number   1
_chemical_formula_structural   YbNi3(BrO3)8
_chemical_formula_sum   'Yb1 Ni3 Br8 O24'
_cell_volume   564.51973338
_cell_formula_units_Z   1
loop_
 _symmetry_equiv_pos_site_id
 _symmetry_equiv_pos_as_xyz
  1  'x, y, z'
loop_
 _atom_site_type_symbol
 _atom_site_label
 _atom_site_symmetry_multiplicity
 _atom_site_fract_x
 _atom_site_fract_y
 _atom_site_fract_z
 _atom_site_occupancy
  Yb  Yb0  1  0.130323  0.766039  0.506678  1
  Ni  Ni1  1  0.643586  0.236639  0.492475  1
  Ni  Ni2  1  0.139168  0.260855  0.005031  1
  Ni  Ni3  1  0.641942  0.740027  0.992946  1
  Br  Br4  1  0.267285  0.405036  0.342580  1
  Br  Br5  1  0.748965  0.576499  0.653284  1
  Br  Br6  1  0.263518  0.918883  0.861009  1
  Br  Br7  1  0.766951  0.084850  0.151898  1
  Br  Br8  1  0.776783  0.104401  0.702921  1
  Br  Br9  1  0.301013  0.922326  0.302727  1
  Br  Br10  1  0.286883  0.415033  0.813871  1
  Br  Br11  1  0.781256  0.578767  0.172599  1
  O  O12  1  0.431622  0.894376  0.978508  1
  O  O13  1  0.935525  0.116358  0.040290  1
  O  O14  1  0.373576  0.803272  0.697484  1
  O  O15  1  0.875975  0.192625  0.319358  1
  O  O16  1  0.365873  0.289537  0.174135  1
  O  O17  1  0.856125  0.691812  0.818753  1
  O  O18  1  0.933618  0.239523  0.832940  1
  O  O19  1  0.445696  0.776571  0.171626  1
  O  O20  1  0.908910  0.950756  0.676651  1
  O  O21  1  0.444537  0.072369  0.331469  1
  O  O22  1  0.351403  0.081484  0.883710  1
  O  O23  1  0.861164  0.916787  0.114561  1
  O  O24  1  0.429785  0.276574  0.673757  1
  O  O25  1  0.911520  0.718874  0.310567  1
  O  O26  1  0.356762  0.389382  0.955592  1
  O  O27  1  0.851991  0.598165  0.028196  1
  O  O28  1  0.424560  0.567994  0.845825  1
  O  O29  1  0.934471  0.431836  0.152518  1
  O  O30  1  0.362707  0.566622  0.372089  1
  O  O31  1  0.848921  0.411806  0.622440  1
  O  O32  1  0.437674  0.377532  0.457206  1
  O  O33  1  0.917847  0.608681  0.543987  1
  O  O34  1  0.845911  0.110183  0.550355  1
  O  O35  1  0.355757  0.907524  0.449961  1
