# generated using pymatgen
data_Er2Fe6Co2Ni4P7
_symmetry_space_group_name_H-M   'P 1'
_cell_length_a   8.99445606
_cell_length_b   9.02147083
_cell_length_c   3.63550700
_cell_angle_alpha   90.00000000
_cell_angle_beta   90.00000000
_cell_angle_gamma   119.99211643
_symmetry_Int_Tables_number   1
_chemical_formula_structural   Er2Fe6Co2Ni4P7
_chemical_formula_sum   'Er2 Fe6 Co2 Ni4 P7'
_cell_volume   255.49497662
_cell_formula_units_Z   1
loop_
 _symmetry_equiv_pos_site_id
 _symmetry_equiv_pos_as_xyz
  1  'x, y, z'
loop_
 _atom_site_type_symbol
 _atom_site_label
 _atom_site_symmetry_multiplicity
 _atom_site_fract_x
 _atom_site_fract_y
 _atom_site_fract_z
 _atom_site_occupancy
  Er  Er0  1  0.999323  0.998211  0.000000  1
  Er  Er1  1  0.333591  0.668521  0.500000  1
  Fe  Fe2  1  0.824625  0.214094  0.000000  1
  Fe  Fe3  1  0.784268  0.607092  0.000000  1
  Fe  Fe4  1  0.392896  0.178173  0.000000  1
  Fe  Fe5  1  0.886872  0.457503  0.500000  1
  Fe  Fe6  1  0.546638  0.428194  0.500000  1
  Fe  Fe7  1  0.571920  0.116059  0.500000  1
  Co  Co8  1  0.713929  0.769053  0.500000  1
  Co  Co9  1  0.229257  0.945514  0.500000  1
  Ni  Ni10  1  0.099070  0.705139  0.000000  1
  Ni  Ni11  1  0.295486  0.396733  0.000000  1
  Ni  Ni12  1  0.601933  0.899912  0.000000  1
  Ni  Ni13  1  0.055869  0.283237  0.500000  1
  P  P14  1  0.073024  0.446590  0.000000  1
  P  P15  1  0.556798  0.631130  0.000000  1
  P  P16  1  0.367794  0.926862  0.000000  1
  P  P17  1  0.780950  0.045744  0.500000  1
  P  P18  1  0.949041  0.734978  0.500000  1
  P  P19  1  0.268369  0.214353  0.500000  1
  P  P20  1  0.668348  0.332908  0.000000  1
