# generated using pymatgen
data_KPaMnS3
_symmetry_space_group_name_H-M   'P 1'
_cell_length_a   7.46760741
_cell_length_b   7.46760726
_cell_length_c   10.32169201
_cell_angle_alpha   90.00547985
_cell_angle_beta   89.99452057
_cell_angle_gamma   148.95267308
_symmetry_Int_Tables_number   1
_chemical_formula_structural   KPaMnS3
_chemical_formula_sum   'K2 Pa2 Mn2 S6'
_cell_volume   296.85860979
_cell_formula_units_Z   2
loop_
 _symmetry_equiv_pos_site_id
 _symmetry_equiv_pos_as_xyz
  1  'x, y, z'
loop_
 _atom_site_type_symbol
 _atom_site_label
 _atom_site_symmetry_multiplicity
 _atom_site_fract_x
 _atom_site_fract_y
 _atom_site_fract_z
 _atom_site_occupancy
  K  K0  1  0.739925  0.260075  0.250028  1
  K  K1  1  0.260075  0.739925  0.749972  1
  Pa  Pa2  1  0.000000  0.000000  0.000000  1
  Pa  Pa3  1  0.000000  0.000000  0.500000  1
  Mn  Mn4  1  0.468320  0.531681  0.250155  1
  Mn  Mn5  1  0.531681  0.468320  0.749845  1
  S  S6  1  0.377619  0.622382  0.062043  1
  S  S7  1  0.059445  0.940556  0.250040  1
  S  S8  1  0.377535  0.622466  0.438142  1
  S  S9  1  0.622466  0.377535  0.561858  1
  S  S10  1  0.940556  0.059445  0.749960  1
  S  S11  1  0.622382  0.377619  0.937957  1
