# generated using pymatgen
data_Er6MnZn22P
_symmetry_space_group_name_H-M   'P 1'
_cell_length_a   9.00241163
_cell_length_b   9.00207604
_cell_length_c   9.00199000
_cell_angle_alpha   60.00008098
_cell_angle_beta   59.99904325
_cell_angle_gamma   60.00164695
_symmetry_Int_Tables_number   1
_chemical_formula_structural   Er6MnZn22P
_chemical_formula_sum   'Er6 Mn1 Zn22 P1'
_cell_volume   515.85495054
_cell_formula_units_Z   1
loop_
 _symmetry_equiv_pos_site_id
 _symmetry_equiv_pos_as_xyz
  1  'x, y, z'
loop_
 _atom_site_type_symbol
 _atom_site_label
 _atom_site_symmetry_multiplicity
 _atom_site_fract_x
 _atom_site_fract_y
 _atom_site_fract_z
 _atom_site_occupancy
  Er  Er0  1  0.711582  0.288340  0.288465  1
  Er  Er1  1  0.711769  0.288283  0.711684  1
  Er  Er2  1  0.711683  0.711697  0.288367  1
  Er  Er3  1  0.288418  0.711660  0.711535  1
  Er  Er4  1  0.288231  0.711717  0.288316  1
  Er  Er5  1  0.288317  0.288303  0.711633  1
  Mn  Mn6  1  0.000000  0.000000  0.000000  1
  Zn  Zn7  1  0.633370  0.122213  0.122212  1
  Zn  Zn8  1  0.122209  0.633379  0.122172  1
  Zn  Zn9  1  0.122218  0.122192  0.633391  1
  Zn  Zn10  1  0.122190  0.122235  0.122187  1
  Zn  Zn11  1  0.366630  0.877787  0.877788  1
  Zn  Zn12  1  0.877791  0.366621  0.877828  1
  Zn  Zn13  1  0.877782  0.877808  0.366609  1
  Zn  Zn14  1  0.877810  0.877765  0.877813  1
  Zn  Zn15  1  0.500000  0.000000  0.000000  1
  Zn  Zn16  1  0.500000  0.000000  0.500000  1
  Zn  Zn17  1  0.500000  0.500000  0.000000  1
  Zn  Zn18  1  0.000000  0.500000  0.500000  1
  Zn  Zn19  1  0.000000  0.500000  0.000000  1
  Zn  Zn20  1  0.000000  0.000000  0.500000  1
  Zn  Zn21  1  0.011148  0.329624  0.329618  1
  Zn  Zn22  1  0.329618  0.011153  0.329589  1
  Zn  Zn23  1  0.329644  0.329611  0.011116  1
  Zn  Zn24  1  0.329609  0.329639  0.329597  1
  Zn  Zn25  1  0.988852  0.670376  0.670382  1
  Zn  Zn26  1  0.670382  0.988847  0.670411  1
  Zn  Zn27  1  0.670356  0.670389  0.988884  1
  Zn  Zn28  1  0.670391  0.670361  0.670403  1
  P  P29  1  0.500000  0.500000  0.500000  1
