# generated using pymatgen
data_Tl2V(IO3)6
_symmetry_space_group_name_H-M   'P 1'
_cell_length_a   7.79186633
_cell_length_b   7.79186658
_cell_length_c   7.79186600
_cell_angle_alpha   97.15846042
_cell_angle_beta   97.15846806
_cell_angle_gamma   97.15846338
_symmetry_Int_Tables_number   1
_chemical_formula_structural   Tl2V(IO3)6
_chemical_formula_sum   'Tl2 V1 I6 O18'
_cell_volume   460.97991150
_cell_formula_units_Z   1
loop_
 _symmetry_equiv_pos_site_id
 _symmetry_equiv_pos_as_xyz
  1  'x, y, z'
loop_
 _atom_site_type_symbol
 _atom_site_label
 _atom_site_symmetry_multiplicity
 _atom_site_fract_x
 _atom_site_fract_y
 _atom_site_fract_z
 _atom_site_occupancy
  Tl  Tl0  1  0.171514  0.171514  0.171514  1
  Tl  Tl1  1  0.828486  0.828486  0.828486  1
  V  V2  1  0.500000  0.500000  0.500000  1
  I  I3  1  0.335263  0.704391  0.136978  1
  I  I4  1  0.136978  0.335263  0.704391  1
  I  I5  1  0.863022  0.664737  0.295609  1
  I  I6  1  0.664737  0.295609  0.863022  1
  I  I7  1  0.704391  0.136978  0.335263  1
  I  I8  1  0.295609  0.863022  0.664737  1
  O  O9  1  0.907043  0.291018  0.391147  1
  O  O10  1  0.097962  0.687359  0.097572  1
  O  O11  1  0.092957  0.708982  0.608853  1
  O  O12  1  0.450489  0.693260  0.663720  1
  O  O13  1  0.549512  0.306740  0.336280  1
  O  O14  1  0.336280  0.549512  0.306740  1
  O  O15  1  0.291018  0.391147  0.907043  1
  O  O16  1  0.663720  0.450488  0.693260  1
  O  O17  1  0.708982  0.608853  0.092957  1
  O  O18  1  0.097572  0.097962  0.687359  1
  O  O19  1  0.391147  0.907043  0.291018  1
  O  O20  1  0.608853  0.092957  0.708982  1
  O  O21  1  0.687359  0.097572  0.097962  1
  O  O22  1  0.693260  0.663720  0.450488  1
  O  O23  1  0.902428  0.902038  0.312641  1
  O  O24  1  0.306740  0.336280  0.549512  1
  O  O25  1  0.902038  0.312641  0.902428  1
  O  O26  1  0.312641  0.902428  0.902038  1
