# generated using pymatgen
data_Ce3(InFe)2
_symmetry_space_group_name_H-M   'P 1'
_cell_length_a   4.82746500
_cell_length_b   7.51705000
_cell_length_c   16.98000400
_cell_angle_alpha   90.00000000
_cell_angle_beta   90.00000000
_cell_angle_gamma   90.00000000
_symmetry_Int_Tables_number   1
_chemical_formula_structural   Ce3(InFe)2
_chemical_formula_sum   'Ce12 In8 Fe8'
_cell_volume   616.17540747
_cell_formula_units_Z   4
loop_
 _symmetry_equiv_pos_site_id
 _symmetry_equiv_pos_as_xyz
  1  'x, y, z'
loop_
 _atom_site_type_symbol
 _atom_site_label
 _atom_site_symmetry_multiplicity
 _atom_site_fract_x
 _atom_site_fract_y
 _atom_site_fract_z
 _atom_site_occupancy
  Ce  Ce0  1  0.250000  0.258760  0.166043  1
  Ce  Ce1  1  0.750000  0.741240  0.833957  1
  Ce  Ce2  1  0.750000  0.758760  0.333957  1
  Ce  Ce3  1  0.250000  0.241240  0.666043  1
  Ce  Ce4  1  0.250000  0.486072  0.918950  1
  Ce  Ce5  1  0.750000  0.513928  0.081050  1
  Ce  Ce6  1  0.750000  0.986072  0.581050  1
  Ce  Ce7  1  0.250000  0.013928  0.418950  1
  Ce  Ce8  1  0.250000  0.038033  0.864491  1
  Ce  Ce9  1  0.750000  0.961967  0.135509  1
  Ce  Ce10  1  0.750000  0.538033  0.635509  1
  Ce  Ce11  1  0.250000  0.461967  0.364491  1
  In  In12  1  0.750000  0.290471  0.797495  1
  In  In13  1  0.750000  0.209529  0.297495  1
  In  In14  1  0.250000  0.790471  0.702505  1
  In  In15  1  0.250000  0.835066  0.028382  1
  In  In16  1  0.750000  0.164934  0.971618  1
  In  In17  1  0.750000  0.335066  0.471618  1
  In  In18  1  0.250000  0.664934  0.528382  1
  In  In19  1  0.250000  0.709529  0.202505  1
  Fe  Fe20  1  0.750000  0.526884  0.203630  1
  Fe  Fe21  1  0.750000  0.973116  0.703630  1
  Fe  Fe22  1  0.250000  0.026884  0.296370  1
  Fe  Fe23  1  0.250000  0.287979  0.546729  1
  Fe  Fe24  1  0.750000  0.712021  0.453271  1
  Fe  Fe25  1  0.750000  0.787979  0.953271  1
  Fe  Fe26  1  0.250000  0.212021  0.046729  1
  Fe  Fe27  1  0.250000  0.473116  0.796370  1
