# generated using pymatgen
data_YbDyAl3Ir
_symmetry_space_group_name_H-M   'P 1'
_cell_length_a   5.54585800
_cell_length_b   5.54585807
_cell_length_c   8.67207400
_cell_angle_alpha   90.00000000
_cell_angle_beta   90.00000000
_cell_angle_gamma   119.99999955
_symmetry_Int_Tables_number   1
_chemical_formula_structural   YbDyAl3Ir
_chemical_formula_sum   'Yb2 Dy2 Al6 Ir2'
_cell_volume   230.98889719
_cell_formula_units_Z   2
loop_
 _symmetry_equiv_pos_site_id
 _symmetry_equiv_pos_as_xyz
  1  'x, y, z'
loop_
 _atom_site_type_symbol
 _atom_site_label
 _atom_site_symmetry_multiplicity
 _atom_site_fract_x
 _atom_site_fract_y
 _atom_site_fract_z
 _atom_site_occupancy
  Yb  Yb0  1  0.333333  0.666666  0.556063  1
  Yb  Yb1  1  0.333333  0.666666  0.943936  1
  Dy  Dy2  1  0.666666  0.333334  0.051793  1
  Dy  Dy3  1  0.666666  0.333334  0.448207  1
  Al  Al4  1  0.161777  0.323554  0.250000  1
  Al  Al5  1  0.161778  0.838223  0.250000  1
  Al  Al6  1  0.676447  0.838223  0.250000  1
  Al  Al7  1  0.324358  0.162177  0.750000  1
  Al  Al8  1  0.837820  0.162177  0.750000  1
  Al  Al9  1  0.837821  0.675642  0.750000  1
  Ir  Ir10  1  0.000000  0.000000  0.999493  1
  Ir  Ir11  1  0.000000  0.000000  0.500507  1
