# generated using pymatgen
data_DyHo2In3Rh2Au
_symmetry_space_group_name_H-M   'P 1'
_cell_length_a   7.74719507
_cell_length_b   7.74745894
_cell_length_c   3.79432400
_cell_angle_alpha   90.00000000
_cell_angle_beta   90.00000000
_cell_angle_gamma   120.01404001
_symmetry_Int_Tables_number   1
_chemical_formula_structural   DyHo2In3Rh2Au
_chemical_formula_sum   'Dy1 Ho2 In3 Rh2 Au1'
_cell_volume   197.20020383
_cell_formula_units_Z   1
loop_
 _symmetry_equiv_pos_site_id
 _symmetry_equiv_pos_as_xyz
  1  'x, y, z'
loop_
 _atom_site_type_symbol
 _atom_site_label
 _atom_site_symmetry_multiplicity
 _atom_site_fract_x
 _atom_site_fract_y
 _atom_site_fract_z
 _atom_site_occupancy
  Dy  Dy0  1  0.411357  0.392598  0.500000  1
  Ho  Ho1  1  0.607665  0.018890  0.500000  1
  Ho  Ho2  1  0.981085  0.588729  0.500000  1
  In  In3  1  0.743014  0.739823  0.000000  1
  In  In4  1  0.260237  0.002842  0.000000  1
  In  In5  1  0.996682  0.257189  0.000000  1
  Rh  Rh6  1  0.666960  0.333233  0.000000  1
  Rh  Rh7  1  0.999767  0.999760  0.500000  1
  Au  Au8  1  0.333233  0.666937  0.000000  1
