# generated using pymatgen
data_Sr3Tb(ReN3)4
_symmetry_space_group_name_H-M   'P 1'
_cell_length_a   7.54094627
_cell_length_b   7.54094629
_cell_length_c   6.31246216
_cell_angle_alpha   76.39411750
_cell_angle_beta   76.39412035
_cell_angle_gamma   86.36896695
_symmetry_Int_Tables_number   1
_chemical_formula_structural   Sr3Tb(ReN3)4
_chemical_formula_sum   'Sr3 Tb1 Re4 N12'
_cell_volume   339.08692419
_cell_formula_units_Z   1
loop_
 _symmetry_equiv_pos_site_id
 _symmetry_equiv_pos_as_xyz
  1  'x, y, z'
loop_
 _atom_site_type_symbol
 _atom_site_label
 _atom_site_symmetry_multiplicity
 _atom_site_fract_x
 _atom_site_fract_y
 _atom_site_fract_z
 _atom_site_occupancy
  Sr  Sr0  1  0.310210  0.689790  0.750000  1
  Sr  Sr1  1  0.089060  0.910940  0.250000  1
  Sr  Sr2  1  0.691786  0.308214  0.250000  1
  Tb  Tb3  1  0.903470  0.096530  0.750000  1
  Re  Re4  1  0.628705  0.797681  0.246766  1
  Re  Re5  1  0.202319  0.371295  0.253234  1
  Re  Re6  1  0.375311  0.202604  0.744481  1
  Re  Re7  1  0.797396  0.624689  0.755519  1
  N  N8  1  0.345044  0.326212  0.980918  1
  N  N9  1  0.006667  0.223727  0.364660  1
  N  N10  1  0.776273  0.993333  0.135340  1
  N  N11  1  0.215227  0.019743  0.825686  1
  N  N12  1  0.643594  0.654157  0.029113  1
  N  N13  1  0.876161  0.393767  0.815238  1
  N  N14  1  0.130764  0.598107  0.173455  1
  N  N15  1  0.980257  0.784773  0.674314  1
  N  N16  1  0.401893  0.869236  0.326545  1
  N  N17  1  0.673788  0.654956  0.519082  1
  N  N18  1  0.606233  0.123839  0.684762  1
  N  N19  1  0.345843  0.356406  0.470887  1
