# generated using pymatgen
data_Ta6Mn5Si6Os
_symmetry_space_group_name_H-M   'P 1'
_cell_length_a   7.30087831
_cell_length_b   7.31832928
_cell_length_c   7.29658956
_cell_angle_alpha   127.82440380
_cell_angle_beta   122.10045032
_cell_angle_gamma   81.56966946
_symmetry_Int_Tables_number   1
_chemical_formula_structural   Ta6Mn5Si6Os
_chemical_formula_sum   'Ta6 Mn5 Si6 Os1'
_cell_volume   251.33021660
_cell_formula_units_Z   1
loop_
 _symmetry_equiv_pos_site_id
 _symmetry_equiv_pos_as_xyz
  1  'x, y, z'
loop_
 _atom_site_type_symbol
 _atom_site_label
 _atom_site_symmetry_multiplicity
 _atom_site_fract_x
 _atom_site_fract_y
 _atom_site_fract_z
 _atom_site_occupancy
  Ta  Ta0  1  0.557800  0.102698  0.051117  1
  Ta  Ta1  1  0.453379  0.490290  0.544736  1
  Ta  Ta2  1  0.964910  0.495310  0.022225  1
  Ta  Ta3  1  0.028508  0.058569  0.521891  1
  Ta  Ta4  1  0.751263  0.914037  0.662197  1
  Ta  Ta5  1  0.248909  0.914515  0.167256  1
  Mn  Mn6  1  0.846552  0.494687  0.591046  1
  Mn  Mn7  1  0.587987  0.743544  0.084428  1
  Mn  Mn8  1  0.408974  0.498127  0.155278  1
  Mn  Mn9  1  0.500587  0.250429  0.750371  1
  Mn  Mn10  1  0.000121  0.250183  0.251032  1
  Si  Si11  1  0.340817  0.829576  0.500624  1
  Si  Si12  1  0.661624  0.158980  0.488588  1
  Si  Si13  1  0.827075  0.828905  0.989627  1
  Si  Si14  1  0.172958  0.169773  0.005134  1
  Si  Si15  1  0.766626  0.524696  0.246053  1
  Si  Si16  1  0.228256  0.475351  0.759514  1
  Os  Os17  1  0.153654  0.742329  0.650886  1
