# generated using pymatgen
data_La6Pr4Sn5BiCl2
_symmetry_space_group_name_H-M   'P 1'
_cell_length_a   9.67572455
_cell_length_b   9.67572462
_cell_length_c   6.83160600
_cell_angle_alpha   90.00000000
_cell_angle_beta   90.00000000
_cell_angle_gamma   120.21954373
_symmetry_Int_Tables_number   1
_chemical_formula_structural   La6Pr4Sn5BiCl2
_chemical_formula_sum   'La6 Pr4 Sn5 Bi1 Cl2'
_cell_volume   552.65665685
_cell_formula_units_Z   1
loop_
 _symmetry_equiv_pos_site_id
 _symmetry_equiv_pos_as_xyz
  1  'x, y, z'
loop_
 _atom_site_type_symbol
 _atom_site_label
 _atom_site_symmetry_multiplicity
 _atom_site_fract_x
 _atom_site_fract_y
 _atom_site_fract_z
 _atom_site_occupancy
  La  La0  1  0.738180  0.004296  0.750000  1
  La  La1  1  0.738297  0.738297  0.250000  1
  La  La2  1  0.000189  0.263281  0.250000  1
  La  La3  1  0.004296  0.738180  0.750000  1
  La  La4  1  0.259992  0.259992  0.750000  1
  La  La5  1  0.263281  0.000189  0.250000  1
  Pr  Pr6  1  0.667203  0.331033  0.001034  1
  Pr  Pr7  1  0.331033  0.667203  0.498966  1
  Pr  Pr8  1  0.667203  0.331033  0.498966  1
  Pr  Pr9  1  0.331033  0.667203  0.001034  1
  Sn  Sn10  1  0.999361  0.612885  0.250000  1
  Sn  Sn11  1  0.612885  0.999361  0.250000  1
  Sn  Sn12  1  0.387731  0.000459  0.750000  1
  Sn  Sn13  1  0.000459  0.387731  0.750000  1
  Sn  Sn14  1  0.387048  0.387048  0.250000  1
  Bi  Bi15  1  0.613463  0.613463  0.750000  1
  Cl  Cl16  1  0.999170  0.999170  0.500664  1
  Cl  Cl17  1  0.999170  0.999170  0.999336  1
