# generated using pymatgen
data_Tm7LuZr8(Si4Mo)4
_symmetry_space_group_name_H-M   'P 1'
_cell_length_a   6.89943203
_cell_length_b   7.12731126
_cell_length_c   13.70855402
_cell_angle_alpha   89.98470794
_cell_angle_beta   89.99151797
_cell_angle_gamma   89.99446861
_symmetry_Int_Tables_number   1
_chemical_formula_structural   Tm7LuZr8(Si4Mo)4
_chemical_formula_sum   'Tm7 Lu1 Zr8 Si16 Mo4'
_cell_volume   674.10987912
_cell_formula_units_Z   1
loop_
 _symmetry_equiv_pos_site_id
 _symmetry_equiv_pos_as_xyz
  1  'x, y, z'
loop_
 _atom_site_type_symbol
 _atom_site_label
 _atom_site_symmetry_multiplicity
 _atom_site_fract_x
 _atom_site_fract_y
 _atom_site_fract_z
 _atom_site_occupancy
  Tm  Tm0  1  0.509479  0.322399  0.097911  1
  Tm  Tm1  1  0.009522  0.177591  0.402014  1
  Tm  Tm2  1  0.490548  0.677427  0.598074  1
  Tm  Tm3  1  0.990495  0.822453  0.902265  1
  Tm  Tm4  1  0.490311  0.677359  0.902108  1
  Tm  Tm5  1  0.990478  0.822501  0.598090  1
  Tm  Tm6  1  0.509513  0.322472  0.401747  1
  Lu  Lu7  1  0.009507  0.177792  0.098182  1
  Zr  Zr8  1  0.827852  0.326385  0.626646  1
  Zr  Zr9  1  0.327631  0.173600  0.873483  1
  Zr  Zr10  1  0.172186  0.673920  0.126520  1
  Zr  Zr11  1  0.672321  0.826481  0.373255  1
  Zr  Zr12  1  0.172156  0.673771  0.373284  1
  Zr  Zr13  1  0.672541  0.826560  0.126294  1
  Zr  Zr14  1  0.827902  0.326174  0.873645  1
  Zr  Zr15  1  0.327743  0.173639  0.626607  1
  Si  Si16  1  0.659230  0.032212  0.542180  1
  Si  Si17  1  0.159329  0.467381  0.958120  1
  Si  Si18  1  0.339851  0.968441  0.042362  1
  Si  Si19  1  0.840707  0.532162  0.457796  1
  Si  Si20  1  0.340849  0.967858  0.457821  1
  Si  Si21  1  0.841147  0.531204  0.042555  1
  Si  Si22  1  0.658943  0.032004  0.957697  1
  Si  Si23  1  0.159278  0.467923  0.542178  1
  Si  Si24  1  0.526071  0.390297  0.750105  1
  Si  Si25  1  0.025969  0.109519  0.750082  1
  Si  Si26  1  0.474011  0.609659  0.249800  1
  Si  Si27  1  0.974108  0.891082  0.249748  1
  Si  Si28  1  0.788799  0.637079  0.750171  1
  Si  Si29  1  0.288668  0.862780  0.750097  1
  Si  Si30  1  0.211009  0.362474  0.249690  1
  Si  Si31  1  0.711853  0.137360  0.249671  1
  Mo  Mo32  1  0.654637  0.006333  0.750152  1
  Mo  Mo33  1  0.154608  0.493552  0.750096  1
  Mo  Mo34  1  0.345244  0.993822  0.249770  1
  Mo  Mo35  1  0.845505  0.506335  0.249785  1
