# generated using pymatgen
data_Tb3Nd9(Si2Ni)4
_symmetry_space_group_name_H-M   'P 1'
_cell_length_a   4.20292600
_cell_length_b   11.70277785
_cell_length_c   11.50912532
_cell_angle_alpha   89.78155527
_cell_angle_beta   90.00000000
_cell_angle_gamma   90.00000000
_symmetry_Int_Tables_number   1
_chemical_formula_structural   Tb3Nd9(Si2Ni)4
_chemical_formula_sum   'Tb3 Nd9 Si8 Ni4'
_cell_volume   566.08267996
_cell_formula_units_Z   1
loop_
 _symmetry_equiv_pos_site_id
 _symmetry_equiv_pos_as_xyz
  1  'x, y, z'
loop_
 _atom_site_type_symbol
 _atom_site_label
 _atom_site_symmetry_multiplicity
 _atom_site_fract_x
 _atom_site_fract_y
 _atom_site_fract_z
 _atom_site_occupancy
  Tb  Tb0  1  0.250000  0.692277  0.208639  1
  Tb  Tb1  1  0.750000  0.195252  0.289184  1
  Tb  Tb2  1  0.750000  0.304663  0.788604  1
  Nd  Nd3  1  0.250000  0.059158  0.887089  1
  Nd  Nd4  1  0.250000  0.439626  0.383522  1
  Nd  Nd5  1  0.750000  0.940148  0.117283  1
  Nd  Nd6  1  0.750000  0.557735  0.613088  1
  Nd  Nd7  1  0.250000  0.123054  0.561193  1
  Nd  Nd8  1  0.250000  0.378114  0.060864  1
  Nd  Nd9  1  0.750000  0.878764  0.437886  1
  Nd  Nd10  1  0.750000  0.621039  0.939470  1
  Nd  Nd11  1  0.250000  0.802191  0.709610  1
  Si  Si12  1  0.250000  0.809652  0.972468  1
  Si  Si13  1  0.250000  0.688293  0.464399  1
  Si  Si14  1  0.750000  0.189553  0.031527  1
  Si  Si15  1  0.750000  0.311097  0.530634  1
  Si  Si16  1  0.250000  0.484739  0.800597  1
  Si  Si17  1  0.250000  0.016937  0.301946  1
  Si  Si18  1  0.750000  0.513867  0.198230  1
  Si  Si19  1  0.750000  0.989799  0.701290  1
  Ni  Ni20  1  0.250000  0.361941  0.632834  1
  Ni  Ni21  1  0.250000  0.139912  0.134095  1
  Ni  Ni22  1  0.750000  0.639038  0.364326  1
  Ni  Ni23  1  0.750000  0.863150  0.871222  1
