# generated using pymatgen
data_Zn3InP7N12
_symmetry_space_group_name_H-M   'P 1'
_cell_length_a   7.20031332
_cell_length_b   7.21592287
_cell_length_c   7.20031412
_cell_angle_alpha   109.51514549
_cell_angle_beta   109.42727207
_cell_angle_gamma   109.51513796
_symmetry_Int_Tables_number   1
_chemical_formula_structural   Zn3InP7N12
_chemical_formula_sum   'Zn3 In1 P7 N12'
_cell_volume   287.83068477
_cell_formula_units_Z   1
loop_
 _symmetry_equiv_pos_site_id
 _symmetry_equiv_pos_as_xyz
  1  'x, y, z'
loop_
 _atom_site_type_symbol
 _atom_site_label
 _atom_site_symmetry_multiplicity
 _atom_site_fract_x
 _atom_site_fract_y
 _atom_site_fract_z
 _atom_site_occupancy
  Zn  Zn0  1  0.667069  0.668806  0.667069  1
  Zn  Zn1  1  0.332931  0.001737  0.000000  1
  Zn  Zn2  1  0.000000  0.001737  0.332931  1
  In  In3  1  0.000000  0.309348  0.000000  1
  P  P4  1  0.748973  0.252139  0.496918  1
  P  P5  1  0.252055  0.755220  0.503082  1
  P  P6  1  0.503082  0.755220  0.252055  1
  P  P7  1  0.496918  0.252139  0.748973  1
  P  P8  1  0.747945  0.503165  0.251027  1
  P  P9  1  0.251027  0.503165  0.747945  1
  P  P10  1  0.000000  0.970211  0.000000  1
  N  N11  1  0.558365  0.274845  0.000000  1
  N  N12  1  0.442519  0.444771  0.714262  1
  N  N13  1  0.000000  0.274845  0.558365  1
  N  N14  1  0.271743  0.002252  0.557481  1
  N  N15  1  0.714262  0.444771  0.442519  1
  N  N16  1  0.000000  0.560739  0.276335  1
  N  N17  1  0.557481  0.002252  0.271743  1
  N  N18  1  0.441635  0.716480  0.441635  1
  N  N19  1  0.276335  0.560739  0.000000  1
  N  N20  1  0.723665  0.284404  0.723665  1
  N  N21  1  0.728257  0.730509  0.285738  1
  N  N22  1  0.285738  0.730509  0.728257  1
