# generated using pymatgen
data_Tb10Y6MgHg3Ir4
_symmetry_space_group_name_H-M   'P 1'
_cell_length_a   9.65243004
_cell_length_b   9.65921391
_cell_length_c   9.65921400
_cell_angle_alpha   59.99999968
_cell_angle_beta   59.97674803
_cell_angle_gamma   59.97674291
_symmetry_Int_Tables_number   1
_chemical_formula_structural   Tb10Y6MgHg3Ir4
_chemical_formula_sum   'Tb10 Y6 Mg1 Hg3 Ir4'
_cell_volume   636.57927424
_cell_formula_units_Z   1
loop_
 _symmetry_equiv_pos_site_id
 _symmetry_equiv_pos_as_xyz
  1  'x, y, z'
loop_
 _atom_site_type_symbol
 _atom_site_label
 _atom_site_symmetry_multiplicity
 _atom_site_fract_x
 _atom_site_fract_y
 _atom_site_fract_z
 _atom_site_occupancy
  Tb  Tb0  1  0.600056  0.598169  0.598169  1
  Tb  Tb1  1  0.600056  0.598169  0.203605  1
  Tb  Tb2  1  0.600056  0.203605  0.598169  1
  Tb  Tb3  1  0.194469  0.601843  0.601843  1
  Tb  Tb4  1  0.059307  0.440447  0.440447  1
  Tb  Tb5  1  0.436949  0.062266  0.062266  1
  Tb  Tb6  1  0.436949  0.062266  0.438518  1
  Tb  Tb7  1  0.059307  0.440447  0.059799  1
  Tb  Tb8  1  0.436949  0.438518  0.062266  1
  Tb  Tb9  1  0.059307  0.059799  0.440447  1
  Y  Y10  1  0.185808  0.812914  0.812914  1
  Y  Y11  1  0.811992  0.187313  0.187313  1
  Y  Y12  1  0.811992  0.187313  0.813381  1
  Y  Y13  1  0.185808  0.812914  0.188365  1
  Y  Y14  1  0.811992  0.813381  0.187313  1
  Y  Y15  1  0.185808  0.188365  0.812914  1
  Mg  Mg16  1  0.536334  0.821222  0.821222  1
  Hg  Hg17  1  0.830959  0.836249  0.836249  1
  Hg  Hg18  1  0.830959  0.836249  0.496543  1
  Hg  Hg19  1  0.830959  0.496543  0.836249  1
  Ir  Ir20  1  0.389978  0.393186  0.393186  1
  Ir  Ir21  1  0.389978  0.393186  0.823650  1
  Ir  Ir22  1  0.389978  0.823650  0.393186  1
  Ir  Ir23  1  0.824048  0.391984  0.391984  1
