# generated using pymatgen
data_SmCl13
_symmetry_space_group_name_H-M   'P 1'
_cell_length_a   12.11511008
_cell_length_b   17.06088182
_cell_length_c   9.55840830
_cell_angle_alpha   96.44450436
_cell_angle_beta   109.45680786
_cell_angle_gamma   132.61902181
_symmetry_Int_Tables_number   1
_chemical_formula_structural   SmCl13
_chemical_formula_sum   'Sm2 Cl26'
_cell_volume   1197.40285997
_cell_formula_units_Z   2
loop_
 _symmetry_equiv_pos_site_id
 _symmetry_equiv_pos_as_xyz
  1  'x, y, z'
loop_
 _atom_site_type_symbol
 _atom_site_label
 _atom_site_symmetry_multiplicity
 _atom_site_fract_x
 _atom_site_fract_y
 _atom_site_fract_z
 _atom_site_occupancy
  Sm  Sm0  1  0.870849  0.041297  0.958441  1
  Sm  Sm1  1  0.379151  0.708703  0.541559  1
  Cl  Cl2  1  0.255548  0.424989  0.620560  1
  Cl  Cl3  1  0.730655  0.367493  0.030834  1
  Cl  Cl4  1  0.956814  0.092076  0.556149  1
  Cl  Cl5  1  0.994452  0.325011  0.879440  1
  Cl  Cl6  1  0.576021  0.154958  0.243307  1
  Cl  Cl7  1  0.673979  0.595042  0.256693  1
  Cl  Cl8  1  0.293186  0.657924  0.943851  1
  Cl  Cl9  1  0.519345  0.382507  0.469166  1
  Cl  Cl10  1  0.024204  0.789451  0.728604  1
  Cl  Cl11  1  0.409016  0.647802  0.310543  1
  Cl  Cl12  1  0.074209  0.122871  0.800868  1
  Cl  Cl13  1  0.723449  0.194056  0.476603  1
  Cl  Cl14  1  0.195256  0.150262  0.120448  1
  Cl  Cl15  1  0.727482  0.525523  0.705101  1
  Cl  Cl16  1  0.221144  0.939512  0.233999  1
  Cl  Cl17  1  0.315702  0.508184  0.473760  1
  Cl  Cl18  1  0.225796  0.960549  0.771396  1
  Cl  Cl19  1  0.840984  0.102198  0.189457  1
  Cl  Cl20  1  0.654843  0.805492  0.852915  1
  Cl  Cl21  1  0.595157  0.944508  0.647085  1
  Cl  Cl22  1  0.028856  0.810488  0.266001  1
  Cl  Cl23  1  0.934298  0.241816  0.026240  1
  Cl  Cl24  1  0.175791  0.627129  0.699132  1
  Cl  Cl25  1  0.522518  0.224477  0.794899  1
  Cl  Cl26  1  0.054744  0.599738  0.379552  1
  Cl  Cl27  1  0.526551  0.555944  0.023397  1
