# generated using pymatgen
data_Dy3Lu2Tc5(P6Ir7)2
_symmetry_space_group_name_H-M   'P 1'
_cell_length_a   12.61746704
_cell_length_b   12.71668651
_cell_length_c   3.97004400
_cell_angle_alpha   90.00000000
_cell_angle_beta   90.00000000
_cell_angle_gamma   120.14533659
_symmetry_Int_Tables_number   1
_chemical_formula_structural   Dy3Lu2Tc5(P6Ir7)2
_chemical_formula_sum   'Dy3 Lu2 Tc5 P12 Ir14'
_cell_volume   550.85107750
_cell_formula_units_Z   1
loop_
 _symmetry_equiv_pos_site_id
 _symmetry_equiv_pos_as_xyz
  1  'x, y, z'
loop_
 _atom_site_type_symbol
 _atom_site_label
 _atom_site_symmetry_multiplicity
 _atom_site_fract_x
 _atom_site_fract_y
 _atom_site_fract_z
 _atom_site_occupancy
  Dy  Dy0  1  0.999465  0.810931  0.000000  1
  Dy  Dy1  1  0.186431  0.184989  0.000000  1
  Dy  Dy2  1  0.810582  0.998228  0.000000  1
  Lu  Lu3  1  0.334560  0.668207  0.500000  1
  Lu  Lu4  1  0.666667  0.333393  0.500000  1
  Tc  Tc5  1  0.996209  0.449865  0.500000  1
  Tc  Tc6  1  0.548578  0.544790  0.500000  1
  Tc  Tc7  1  0.457239  0.009735  0.500000  1
  Tc  Tc8  1  0.619625  0.798545  0.500000  1
  Tc  Tc9  1  0.201834  0.821688  0.500000  1
  P  P10  1  0.006575  0.639829  0.500000  1
  P  P11  1  0.363498  0.364882  0.500000  1
  P  P12  1  0.633119  0.993506  0.500000  1
  P  P13  1  0.519133  0.693852  0.000000  1
  P  P14  1  0.308361  0.829324  0.000000  1
  P  P15  1  0.170658  0.483931  0.000000  1
  P  P16  1  0.484013  0.170357  0.000000  1
  P  P17  1  0.685864  0.515866  0.000000  1
  P  P18  1  0.831933  0.314930  0.000000  1
  P  P19  1  0.998923  0.176428  0.500000  1
  P  P20  1  0.816872  0.820088  0.500000  1
  P  P21  1  0.177369  0.993721  0.500000  1
  Ir  Ir22  1  0.506858  0.873713  0.000000  1
  Ir  Ir23  1  0.129003  0.635991  0.000000  1
  Ir  Ir24  1  0.361871  0.495235  0.000000  1
  Ir  Ir25  1  0.491990  0.358970  0.000000  1
  Ir  Ir26  1  0.864658  0.505169  0.000000  1
  Ir  Ir27  1  0.643501  0.138113  0.000000  1
  Ir  Ir28  1  0.000297  0.285563  0.000000  1
  Ir  Ir29  1  0.716192  0.710772  0.000000  1
  Ir  Ir30  1  0.287554  0.005452  0.000000  1
  Ir  Ir31  1  0.180227  0.375993  0.500000  1
  Ir  Ir32  1  0.374575  0.184038  0.500000  1
  Ir  Ir33  1  0.807114  0.622049  0.500000  1
  Ir  Ir34  1  0.819073  0.192707  0.500000  1
  Ir  Ir35  1  0.999576  0.999149  0.500000  1
