# generated using pymatgen
data_Zr10SnGeBi5
_symmetry_space_group_name_H-M   'P 1'
_cell_length_a   5.93837963
_cell_length_b   8.75852929
_cell_length_c   8.74932976
_cell_angle_alpha   119.96471945
_cell_angle_beta   89.94990430
_cell_angle_gamma   90.02483130
_symmetry_Int_Tables_number   1
_chemical_formula_structural   Zr10SnGeBi5
_chemical_formula_sum   'Zr10 Sn1 Ge1 Bi5'
_cell_volume   394.23818030
_cell_formula_units_Z   1
loop_
 _symmetry_equiv_pos_site_id
 _symmetry_equiv_pos_as_xyz
  1  'x, y, z'
loop_
 _atom_site_type_symbol
 _atom_site_label
 _atom_site_symmetry_multiplicity
 _atom_site_fract_x
 _atom_site_fract_y
 _atom_site_fract_z
 _atom_site_occupancy
  Zr  Zr0  1  0.498281  0.330313  0.664008  1
  Zr  Zr1  1  0.498283  0.669688  0.333695  1
  Zr  Zr2  1  0.002061  0.669486  0.333776  1
  Zr  Zr3  1  0.002059  0.330514  0.664299  1
  Zr  Zr4  1  0.762347  0.254139  0.998950  1
  Zr  Zr5  1  0.762333  0.745857  0.744805  1
  Zr  Zr6  1  0.763821  0.000004  0.255145  1
  Zr  Zr7  1  0.237213  0.748628  0.005917  1
  Zr  Zr8  1  0.237224  0.251372  0.257292  1
  Zr  Zr9  1  0.237905  0.999997  0.742260  1
  Sn  Sn10  1  0.251902  0.000002  0.390259  1
  Ge  Ge11  1  0.499495  0.000000  0.999690  1
  Bi  Bi12  1  0.747412  0.610416  0.999269  1
  Bi  Bi13  1  0.747422  0.389588  0.388857  1
  Bi  Bi14  1  0.747520  0.000000  0.608674  1
  Bi  Bi15  1  0.252369  0.388237  0.000673  1
  Bi  Bi16  1  0.252352  0.611759  0.612431  1
