# generated using pymatgen
data_NdSm4Sc15(BO3)20
_symmetry_space_group_name_H-M   'P 1'
_cell_length_a   7.80070637
_cell_length_b   7.80070653
_cell_length_c   18.85235287
_cell_angle_alpha   87.73312332
_cell_angle_beta   87.73312124
_cell_angle_gamma   78.33488532
_symmetry_Int_Tables_number   1
_chemical_formula_structural   NdSm4Sc15(BO3)20
_chemical_formula_sum   'Nd1 Sm4 Sc15 B20 O60'
_cell_volume   1122.02801552
_cell_formula_units_Z   1
loop_
 _symmetry_equiv_pos_site_id
 _symmetry_equiv_pos_as_xyz
  1  'x, y, z'
loop_
 _atom_site_type_symbol
 _atom_site_label
 _atom_site_symmetry_multiplicity
 _atom_site_fract_x
 _atom_site_fract_y
 _atom_site_fract_z
 _atom_site_occupancy
  Nd  Nd0  1  0.999940  0.000060  0.500000  1
  Sm  Sm1  1  0.400064  0.400069  0.700094  1
  Sm  Sm2  1  0.800029  0.799956  0.899988  1
  Sm  Sm3  1  0.200044  0.199971  0.100012  1
  Sm  Sm4  1  0.599931  0.599936  0.299906  1
  Sc  Sc5  1  0.709442  0.162299  0.081154  1
  Sc  Sc6  1  0.109500  0.562116  0.281089  1
  Sc  Sc7  1  0.509484  0.962052  0.481032  1
  Sc  Sc8  1  0.909440  0.362269  0.681118  1
  Sc  Sc9  1  0.309478  0.762261  0.881119  1
  Sc  Sc10  1  0.237739  0.690522  0.118881  1
  Sc  Sc11  1  0.637731  0.090560  0.318882  1
  Sc  Sc12  1  0.037948  0.490516  0.518968  1
  Sc  Sc13  1  0.437884  0.890500  0.718911  1
  Sc  Sc14  1  0.837701  0.290558  0.918846  1
  Sc  Sc15  1  0.252824  0.347162  0.899960  1
  Sc  Sc16  1  0.652838  0.747176  0.100040  1
  Sc  Sc17  1  0.052788  0.147431  0.299823  1
  Sc  Sc18  1  0.452663  0.547337  0.500000  1
  Sc  Sc19  1  0.852569  0.947212  0.700177  1
  B  B20  1  0.500023  0.499977  0.000000  1
  B  B21  1  0.899964  0.899914  0.200032  1
  B  B22  1  0.300209  0.300139  0.399937  1
  B  B23  1  0.699861  0.699791  0.600063  1
  B  B24  1  0.100086  0.100036  0.799968  1
  B  B25  1  0.847754  0.750740  0.399780  1
  B  B26  1  0.249260  0.152246  0.600220  1
  B  B27  1  0.648144  0.551790  0.799952  1
  B  B28  1  0.048170  0.951830  0.000000  1
  B  B29  1  0.448210  0.351856  0.200048  1
  B  B30  1  0.390365  0.938531  0.219269  1
  B  B31  1  0.789941  0.339765  0.419053  1
  B  B32  1  0.190720  0.737703  0.619780  1
  B  B33  1  0.590227  0.138674  0.819228  1
  B  B34  1  0.990354  0.538531  0.019259  1
  B  B35  1  0.660235  0.210059  0.580947  1
  B  B36  1  0.061469  0.609634  0.780731  1
  B  B37  1  0.461469  0.009646  0.980741  1
  B  B38  1  0.861326  0.409773  0.180772  1
  B  B39  1  0.262297  0.809280  0.380220  1
  O  O40  1  0.640588  0.359412  0.000000  1
  O  O41  1  0.040548  0.759391  0.200001  1
  O  O42  1  0.440707  0.159506  0.399938  1
  O  O43  1  0.840494  0.559293  0.600062  1
  O  O44  1  0.240609  0.959452  0.799999  1
  O  O45  1  0.471935  0.612361  0.056240  1
  O  O46  1  0.871779  0.012324  0.256272  1
  O  O47  1  0.272081  0.412512  0.456192  1
  O  O48  1  0.671920  0.812313  0.656250  1
  O  O49  1  0.071884  0.212414  0.856207  1
  O  O50  1  0.387639  0.528065  0.943760  1
  O  O51  1  0.787586  0.928116  0.143793  1
  O  O52  1  0.187687  0.328080  0.343750  1
  O  O53  1  0.587488  0.727919  0.543808  1
  O  O54  1  0.987676  0.128221  0.743728  1
  O  O55  1  0.907670  0.092330  0.000000  1
  O  O56  1  0.307694  0.492302  0.199999  1
  O  O57  1  0.708285  0.892233  0.400026  1
  O  O58  1  0.107767  0.291715  0.599974  1
  O  O59  1  0.507698  0.692306  0.800001  1
  O  O60  1  0.418438  0.826221  0.163050  1
  O  O61  1  0.818565  0.225943  0.363339  1
  O  O62  1  0.218348  0.626672  0.563133  1
  O  O63  1  0.618337  0.026230  0.763064  1
  O  O64  1  0.018417  0.426191  0.963047  1
  O  O65  1  0.173779  0.581562  0.836950  1
  O  O66  1  0.573809  0.981583  0.036953  1
  O  O67  1  0.973770  0.381663  0.236936  1
  O  O68  1  0.373328  0.781652  0.436867  1
  O  O69  1  0.774057  0.181435  0.636661  1
  O  O70  1  0.077259  0.849860  0.940496  1
  O  O71  1  0.477345  0.249835  0.140571  1
  O  O72  1  0.876754  0.649590  0.340106  1
  O  O73  1  0.280011  0.050422  0.540829  1
  O  O74  1  0.677218  0.449814  0.740435  1
  O  O75  1  0.712692  0.111640  0.871888  1
  O  O76  1  0.112813  0.511451  0.071940  1
  O  O77  1  0.512794  0.911437  0.271981  1
  O  O78  1  0.912044  0.314662  0.471676  1
  O  O79  1  0.313873  0.710689  0.672110  1
  O  O80  1  0.729499  0.558399  0.181060  1
  O  O81  1  0.131052  0.957993  0.379714  1
  O  O82  1  0.529073  0.359160  0.581278  1
  O  O83  1  0.929581  0.758202  0.781026  1
  O  O84  1  0.329602  0.158274  0.980979  1
  O  O85  1  0.441601  0.270501  0.818940  1
  O  O86  1  0.841726  0.670398  0.019021  1
  O  O87  1  0.241798  0.070419  0.218974  1
  O  O88  1  0.640840  0.470927  0.418722  1
  O  O89  1  0.042007  0.868948  0.620286  1
  O  O90  1  0.150140  0.922741  0.059504  1
  O  O91  1  0.550186  0.322782  0.259565  1
  O  O92  1  0.949578  0.719989  0.459171  1
  O  O93  1  0.350410  0.123246  0.659894  1
  O  O94  1  0.750165  0.522655  0.859429  1
  O  O95  1  0.888360  0.287308  0.128112  1
  O  O96  1  0.289311  0.686127  0.327890  1
  O  O97  1  0.685338  0.087956  0.528324  1
  O  O98  1  0.088563  0.487206  0.728019  1
  O  O99  1  0.488549  0.887187  0.928060  1
