# generated using pymatgen
data_Ho3Er9InCo4Cu
_symmetry_space_group_name_H-M   'P 1'
_cell_length_a   8.23472991
_cell_length_b   8.23472976
_cell_length_c   8.23266963
_cell_angle_alpha   110.99032995
_cell_angle_beta   110.89007840
_cell_angle_gamma   106.58229058
_symmetry_Int_Tables_number   1
_chemical_formula_structural   Ho3Er9InCo4Cu
_chemical_formula_sum   'Ho3 Er9 In1 Co4 Cu1'
_cell_volume   428.87741214
_cell_formula_units_Z   1
loop_
 _symmetry_equiv_pos_site_id
 _symmetry_equiv_pos_as_xyz
  1  'x, y, z'
loop_
 _atom_site_type_symbol
 _atom_site_label
 _atom_site_symmetry_multiplicity
 _atom_site_fract_x
 _atom_site_fract_y
 _atom_site_fract_z
 _atom_site_occupancy
  Ho  Ho0  1  0.185682  0.288802  0.474483  1
  Ho  Ho1  1  0.814080  0.711091  0.525172  1
  Ho  Ho2  1  0.185998  0.711301  0.897299  1
  Er  Er3  1  0.814094  0.288905  0.102998  1
  Er  Er4  1  0.315347  0.619987  0.304406  1
  Er  Er5  1  0.684480  0.379951  0.695752  1
  Er  Er6  1  0.315802  0.011272  0.695752  1
  Er  Er7  1  0.684417  0.989059  0.304406  1
  Er  Er8  1  0.418683  0.219310  0.199174  1
  Er  Er9  1  0.581740  0.781112  0.800987  1
  Er  Er10  1  0.019875  0.219246  0.800987  1
  Er  Er11  1  0.979864  0.780492  0.199174  1
  In  In12  1  0.500036  0.500070  0.000106  1
  Co  Co13  1  0.112971  0.612960  0.499600  1
  Co  Co14  1  0.886640  0.386629  0.499600  1
  Co  Co15  1  0.375787  0.000053  0.375840  1
  Co  Co16  1  0.624233  0.000216  0.624449  1
  Cu  Cu17  1  0.000272  0.999543  0.999815  1
