# generated using pymatgen
data_K(AcB8)3
_symmetry_space_group_name_H-M   'P 1'
_cell_length_a   7.27449659
_cell_length_b   7.27449505
_cell_length_c   5.97333300
_cell_angle_alpha   90.00000000
_cell_angle_beta   90.00000000
_cell_angle_gamma   109.28207183
_symmetry_Int_Tables_number   1
_chemical_formula_structural   K(AcB8)3
_chemical_formula_sum   'K1 Ac3 B24'
_cell_volume   298.36680246
_cell_formula_units_Z   1
loop_
 _symmetry_equiv_pos_site_id
 _symmetry_equiv_pos_as_xyz
  1  'x, y, z'
loop_
 _atom_site_type_symbol
 _atom_site_label
 _atom_site_symmetry_multiplicity
 _atom_site_fract_x
 _atom_site_fract_y
 _atom_site_fract_z
 _atom_site_occupancy
  K  K0  1  0.000000  0.000000  0.000000  1
  Ac  Ac1  1  0.752074  0.247926  0.500000  1
  Ac  Ac2  1  0.500000  0.500000  0.000000  1
  Ac  Ac3  1  0.247926  0.752074  0.500000  1
  B  B4  1  0.175741  0.324574  0.649133  1
  B  B5  1  0.924973  0.574974  0.147884  1
  B  B6  1  0.675426  0.824259  0.649133  1
  B  B7  1  0.425026  0.075027  0.147884  1
  B  B8  1  0.175741  0.324574  0.350867  1
  B  B9  1  0.924973  0.574974  0.852116  1
  B  B10  1  0.675426  0.824259  0.350867  1
  B  B11  1  0.425026  0.075027  0.852116  1
  B  B12  1  0.399282  0.399282  0.500000  1
  B  B13  1  0.147904  0.650091  0.000000  1
  B  B14  1  0.898668  0.898668  0.500000  1
  B  B15  1  0.650091  0.147904  0.000000  1
  B  B16  1  0.324574  0.175741  0.649133  1
  B  B17  1  0.075027  0.425026  0.147884  1
  B  B18  1  0.824259  0.675426  0.649133  1
  B  B19  1  0.574974  0.924973  0.147884  1
  B  B20  1  0.101332  0.101332  0.500000  1
  B  B21  1  0.852096  0.349909  0.000000  1
  B  B22  1  0.600718  0.600718  0.500000  1
  B  B23  1  0.349909  0.852096  0.000000  1
  B  B24  1  0.324574  0.175741  0.350867  1
  B  B25  1  0.075027  0.425026  0.852116  1
  B  B26  1  0.824259  0.675426  0.350867  1
  B  B27  1  0.574974  0.924973  0.852116  1
