# generated using pymatgen
data_SrBi3Ir2(RhO7)2
_symmetry_space_group_name_H-M   'P 1'
_cell_length_a   7.41184888
_cell_length_b   7.34884051
_cell_length_c   7.40296400
_cell_angle_alpha   59.75607048
_cell_angle_beta   60.03964610
_cell_angle_gamma   59.71854676
_symmetry_Int_Tables_number   1
_chemical_formula_structural   SrBi3Ir2(RhO7)2
_chemical_formula_sum   'Sr1 Bi3 Ir2 Rh2 O14'
_cell_volume   284.07235769
_cell_formula_units_Z   1
loop_
 _symmetry_equiv_pos_site_id
 _symmetry_equiv_pos_as_xyz
  1  'x, y, z'
loop_
 _atom_site_type_symbol
 _atom_site_label
 _atom_site_symmetry_multiplicity
 _atom_site_fract_x
 _atom_site_fract_y
 _atom_site_fract_z
 _atom_site_occupancy
  Sr  Sr0  1  0.125000  0.625000  0.125000  1
  Bi  Bi1  1  0.125000  0.125000  0.125000  1
  Bi  Bi2  1  0.625000  0.125000  0.125000  1
  Bi  Bi3  1  0.125000  0.125000  0.625000  1
  Ir  Ir4  1  0.625000  0.625000  0.625000  1
  Ir  Ir5  1  0.625000  0.625000  0.125000  1
  Rh  Rh6  1  0.125000  0.625000  0.625000  1
  Rh  Rh7  1  0.625000  0.125000  0.625000  1
  O  O8  1  0.256898  0.232967  0.255068  1
  O  O9  1  0.300008  0.708865  0.293115  1
  O  O10  1  0.955575  0.958521  0.542953  1
  O  O11  1  0.547367  0.953478  0.543160  1
  O  O12  1  0.692472  0.708162  0.299683  1
  O  O13  1  0.949992  0.541135  0.551987  1
  O  O14  1  0.702633  0.296522  0.706840  1
  O  O15  1  0.294425  0.291479  0.707047  1
  O  O16  1  0.702633  0.296522  0.294004  1
  O  O17  1  0.300008  0.708865  0.698013  1
  O  O18  1  0.949992  0.541135  0.956885  1
  O  O19  1  0.557528  0.541838  0.950317  1
  O  O20  1  0.993102  0.017033  0.994932  1
  O  O21  1  0.547367  0.953478  0.955996  1
