# generated using pymatgen
data_Li2AcYSi4
_symmetry_space_group_name_H-M   'P 1'
_cell_length_a   3.90486500
_cell_length_b   7.83126877
_cell_length_c   10.61368567
_cell_angle_alpha   89.51886648
_cell_angle_beta   90.00000000
_cell_angle_gamma   90.00000000
_symmetry_Int_Tables_number   1
_chemical_formula_structural   Li2AcYSi4
_chemical_formula_sum   'Li4 Ac2 Y2 Si8'
_cell_volume   324.55556678
_cell_formula_units_Z   2
loop_
 _symmetry_equiv_pos_site_id
 _symmetry_equiv_pos_as_xyz
  1  'x, y, z'
loop_
 _atom_site_type_symbol
 _atom_site_label
 _atom_site_symmetry_multiplicity
 _atom_site_fract_x
 _atom_site_fract_y
 _atom_site_fract_z
 _atom_site_occupancy
  Li  Li0  1  0.250000  0.997830  0.386133  1
  Li  Li1  1  0.750000  0.002170  0.613867  1
  Li  Li2  1  0.250000  0.491728  0.104020  1
  Li  Li3  1  0.750000  0.508272  0.895980  1
  Ac  Ac4  1  0.250000  0.643136  0.636767  1
  Ac  Ac5  1  0.750000  0.356864  0.363233  1
  Y  Y6  1  0.250000  0.130114  0.867730  1
  Y  Y7  1  0.750000  0.869886  0.132270  1
  Si  Si8  1  0.750000  0.261679  0.060949  1
  Si  Si9  1  0.250000  0.738321  0.939051  1
  Si  Si10  1  0.750000  0.788030  0.416201  1
  Si  Si11  1  0.250000  0.211970  0.583799  1
  Si  Si12  1  0.750000  0.845633  0.832110  1
  Si  Si13  1  0.250000  0.154367  0.167890  1
  Si  Si14  1  0.750000  0.323915  0.688332  1
  Si  Si15  1  0.250000  0.676085  0.311668  1
