# generated using pymatgen
data_Nd2Sc2SnSb
_symmetry_space_group_name_H-M   'P 1'
_cell_length_a   8.84230624
_cell_length_b   8.84230631
_cell_length_c   8.84230527
_cell_angle_alpha   150.38504023
_cell_angle_beta   150.38503986
_cell_angle_gamma   42.37650275
_symmetry_Int_Tables_number   1
_chemical_formula_structural   Nd2Sc2SnSb
_chemical_formula_sum   'Nd2 Sc2 Sn1 Sb1'
_cell_volume   168.41639330
_cell_formula_units_Z   1
loop_
 _symmetry_equiv_pos_site_id
 _symmetry_equiv_pos_as_xyz
  1  'x, y, z'
loop_
 _atom_site_type_symbol
 _atom_site_label
 _atom_site_symmetry_multiplicity
 _atom_site_fract_x
 _atom_site_fract_y
 _atom_site_fract_z
 _atom_site_occupancy
  Nd  Nd0  1  0.825351  0.825351  0.000000  1
  Nd  Nd1  1  0.173466  0.173466  0.000000  1
  Sc  Sc2  1  0.001218  0.501218  0.500000  1
  Sc  Sc3  1  0.501218  0.001218  0.500000  1
  Sn  Sn4  1  0.625720  0.625720  0.000000  1
  Sb  Sb5  1  0.373027  0.373027  0.000000  1
