# generated using pymatgen
data_TmLu4Os2C7
_symmetry_space_group_name_H-M   'P 1'
_cell_length_a   8.01840800
_cell_length_b   8.01840860
_cell_length_c   3.44549300
_cell_angle_alpha   90.00000000
_cell_angle_beta   90.00000000
_cell_angle_gamma   121.19547306
_symmetry_Int_Tables_number   1
_chemical_formula_structural   TmLu4Os2C7
_chemical_formula_sum   'Tm1 Lu4 Os2 C7'
_cell_volume   189.49579846
_cell_formula_units_Z   1
loop_
 _symmetry_equiv_pos_site_id
 _symmetry_equiv_pos_as_xyz
  1  'x, y, z'
loop_
 _atom_site_type_symbol
 _atom_site_label
 _atom_site_symmetry_multiplicity
 _atom_site_fract_x
 _atom_site_fract_y
 _atom_site_fract_z
 _atom_site_occupancy
  Tm  Tm0  1  0.500000  0.500000  0.000000  1
  Lu  Lu1  1  0.339526  0.079250  0.500000  1
  Lu  Lu2  1  0.660474  0.920750  0.500000  1
  Lu  Lu3  1  0.079250  0.339526  0.500000  1
  Lu  Lu4  1  0.920750  0.660474  0.500000  1
  Os  Os5  1  0.285166  0.714834  0.000000  1
  Os  Os6  1  0.714834  0.285166  0.000000  1
  C  C7  1  0.172724  0.172724  0.000000  1
  C  C8  1  0.827276  0.827276  0.000000  1
  C  C9  1  0.000000  0.000000  0.000000  1
  C  C10  1  0.370794  0.629206  0.500000  1
  C  C11  1  0.629206  0.370794  0.500000  1
  C  C12  1  0.500000  0.000000  0.000000  1
  C  C13  1  0.000000  0.500000  0.000000  1
