# generated using pymatgen
data_YHo5B14MoOs
_symmetry_space_group_name_H-M   'P 1'
_cell_length_a   8.08473909
_cell_length_b   8.08474091
_cell_length_c   9.37502200
_cell_angle_alpha   90.00000000
_cell_angle_beta   90.00000000
_cell_angle_gamma   155.00854643
_symmetry_Int_Tables_number   1
_chemical_formula_structural   YHo5B14MoOs
_chemical_formula_sum   'Y1 Ho5 B14 Mo1 Os1'
_cell_volume   258.88907291
_cell_formula_units_Z   1
loop_
 _symmetry_equiv_pos_site_id
 _symmetry_equiv_pos_as_xyz
  1  'x, y, z'
loop_
 _atom_site_type_symbol
 _atom_site_label
 _atom_site_symmetry_multiplicity
 _atom_site_fract_x
 _atom_site_fract_y
 _atom_site_fract_z
 _atom_site_occupancy
  Y  Y0  1  0.744961  0.255039  0.750000  1
  Ho  Ho1  1  0.256561  0.743439  0.250000  1
  Ho  Ho2  1  0.605885  0.394115  0.061828  1
  Ho  Ho3  1  0.393296  0.606704  0.941206  1
  Ho  Ho4  1  0.393296  0.606704  0.558794  1
  Ho  Ho5  1  0.605885  0.394115  0.438172  1
  B  B6  1  0.979010  0.020990  0.096320  1
  B  B7  1  0.019494  0.980506  0.908884  1
  B  B8  1  0.019494  0.980506  0.591116  1
  B  B9  1  0.979010  0.020990  0.403680  1
  B  B10  1  0.773355  0.226645  0.035356  1
  B  B11  1  0.228112  0.771888  0.968300  1
  B  B12  1  0.228112  0.771888  0.531700  1
  B  B13  1  0.773355  0.226645  0.464644  1
  B  B14  1  0.868159  0.131841  0.150909  1
  B  B15  1  0.134447  0.865553  0.852920  1
  B  B16  1  0.134447  0.865553  0.647080  1
  B  B17  1  0.868159  0.131841  0.349091  1
  B  B18  1  0.042506  0.957494  0.250000  1
  B  B19  1  0.954184  0.045816  0.750000  1
  Mo  Mo20  1  0.552460  0.447540  0.750000  1
  Os  Os21  1  0.445809  0.554191  0.250000  1
