# generated using pymatgen
data_Yb6Cd2AgSn3
_symmetry_space_group_name_H-M   'P 1'
_cell_length_a   5.28201700
_cell_length_b   7.45435800
_cell_length_c   15.87055100
_cell_angle_alpha   90.00006918
_cell_angle_beta   90.00183320
_cell_angle_gamma   90.00000000
_symmetry_Int_Tables_number   1
_chemical_formula_structural   Yb6Cd2AgSn3
_chemical_formula_sum   'Yb12 Cd4 Ag2 Sn6'
_cell_volume   624.88780004
_cell_formula_units_Z   2
loop_
 _symmetry_equiv_pos_site_id
 _symmetry_equiv_pos_as_xyz
  1  'x, y, z'
loop_
 _atom_site_type_symbol
 _atom_site_label
 _atom_site_symmetry_multiplicity
 _atom_site_fract_x
 _atom_site_fract_y
 _atom_site_fract_z
 _atom_site_occupancy
  Yb  Yb0  1  0.500005  0.246078  0.003411  1
  Yb  Yb1  1  0.499999  0.753923  0.003411  1
  Yb  Yb2  1  0.000066  0.253886  0.163195  1
  Yb  Yb3  1  0.000072  0.746115  0.163195  1
  Yb  Yb4  1  0.500120  0.254650  0.329739  1
  Yb  Yb5  1  0.500118  0.745350  0.329739  1
  Yb  Yb6  1  0.999989  0.248934  0.499922  1
  Yb  Yb7  1  0.999990  0.751067  0.499922  1
  Yb  Yb8  1  0.499905  0.251154  0.666717  1
  Yb  Yb9  1  0.499904  0.748847  0.666717  1
  Yb  Yb10  1  0.999894  0.245265  0.836979  1
  Yb  Yb11  1  0.999896  0.754737  0.836980  1
  Cd  Cd12  1  0.000168  0.000000  0.330160  1
  Cd  Cd13  1  0.500001  0.500001  0.498523  1
  Cd  Cd14  1  0.999854  0.000000  0.668212  1
  Cd  Cd15  1  0.499852  0.500001  0.836503  1
  Ag  Ag16  1  0.999973  0.000000  0.001153  1
  Ag  Ag17  1  0.500127  0.500000  0.165718  1
  Sn  Sn18  1  0.999994  0.500000  0.997968  1
  Sn  Sn19  1  0.500062  0.000000  0.168689  1
  Sn  Sn20  1  0.000134  0.500000  0.334121  1
  Sn  Sn21  1  0.500000  0.000000  0.498961  1
  Sn  Sn22  1  0.999930  0.500000  0.667733  1
  Sn  Sn23  1  0.499943  0.000000  0.832333  1
