# generated using pymatgen
data_Ba2NiP2Pd
_symmetry_space_group_name_H-M   'P 1'
_cell_length_a   6.28591622
_cell_length_b   6.27916265
_cell_length_c   7.67222709
_cell_angle_alpha   89.49517785
_cell_angle_beta   89.01101643
_cell_angle_gamma   104.12152603
_symmetry_Int_Tables_number   1
_chemical_formula_structural   Ba2NiP2Pd
_chemical_formula_sum   'Ba4 Ni2 P4 Pd2'
_cell_volume   293.60355808
_cell_formula_units_Z   2
loop_
 _symmetry_equiv_pos_site_id
 _symmetry_equiv_pos_as_xyz
  1  'x, y, z'
loop_
 _atom_site_type_symbol
 _atom_site_label
 _atom_site_symmetry_multiplicity
 _atom_site_fract_x
 _atom_site_fract_y
 _atom_site_fract_z
 _atom_site_occupancy
  Ba  Ba0  1  0.186803  0.811272  0.508127  1
  Ba  Ba1  1  0.685069  0.312934  0.991196  1
  Ba  Ba2  1  0.813197  0.188728  0.491873  1
  Ba  Ba3  1  0.314931  0.687066  0.008804  1
  Ni  Ni4  1  0.385919  0.384821  0.618370  1
  Ni  Ni5  1  0.614081  0.615179  0.381630  1
  P  P6  1  0.162054  0.206386  0.817172  1
  P  P7  1  0.643674  0.687496  0.663053  1
  P  P8  1  0.837946  0.793614  0.182828  1
  P  P9  1  0.356326  0.312504  0.336947  1
  Pd  Pd10  1  0.121028  0.124428  0.125713  1
  Pd  Pd11  1  0.878972  0.875572  0.874287  1
