# generated using pymatgen
data_Sr4Al18IrPd5
_symmetry_space_group_name_H-M   'P 1'
_cell_length_a   7.75286156
_cell_length_b   7.75286137
_cell_length_c   9.74577773
_cell_angle_alpha   89.94641261
_cell_angle_beta   89.94641643
_cell_angle_gamma   119.44445414
_symmetry_Int_Tables_number   1
_chemical_formula_structural   Sr4Al18IrPd5
_chemical_formula_sum   'Sr4 Al18 Ir1 Pd5'
_cell_volume   510.12254379
_cell_formula_units_Z   1
loop_
 _symmetry_equiv_pos_site_id
 _symmetry_equiv_pos_as_xyz
  1  'x, y, z'
loop_
 _atom_site_type_symbol
 _atom_site_label
 _atom_site_symmetry_multiplicity
 _atom_site_fract_x
 _atom_site_fract_y
 _atom_site_fract_z
 _atom_site_occupancy
  Sr  Sr0  1  0.995512  0.669274  0.250476  1
  Sr  Sr1  1  0.004488  0.330726  0.749524  1
  Sr  Sr2  1  0.669274  0.995512  0.250476  1
  Sr  Sr3  1  0.330726  0.004488  0.749524  1
  Al  Al4  1  0.132431  0.132431  0.253177  1
  Al  Al5  1  0.867569  0.867569  0.746823  1
  Al  Al6  1  0.005380  0.334648  0.074742  1
  Al  Al7  1  0.994620  0.665352  0.925258  1
  Al  Al8  1  0.996905  0.669982  0.572095  1
  Al  Al9  1  0.330018  0.003095  0.427905  1
  Al  Al10  1  0.003095  0.330018  0.427905  1
  Al  Al11  1  0.669982  0.996905  0.572095  1
  Al  Al12  1  0.665352  0.994620  0.925258  1
  Al  Al13  1  0.334648  0.005380  0.074742  1
  Al  Al14  1  0.330767  0.330767  0.544677  1
  Al  Al15  1  0.669233  0.669233  0.455323  1
  Al  Al16  1  0.664010  0.664010  0.047632  1
  Al  Al17  1  0.335990  0.335990  0.952368  1
  Al  Al18  1  0.339710  0.540323  0.250846  1
  Al  Al19  1  0.660290  0.459677  0.749154  1
  Al  Al20  1  0.540323  0.339710  0.250846  1
  Al  Al21  1  0.459677  0.660290  0.749154  1
  Ir  Ir22  1  0.000000  0.000000  0.500000  1
  Pd  Pd23  1  0.670213  0.329787  0.000000  1
  Pd  Pd24  1  0.329787  0.670213  0.000000  1
  Pd  Pd25  1  0.330263  0.669737  0.500000  1
  Pd  Pd26  1  0.669737  0.330263  0.500000  1
  Pd  Pd27  1  0.000000  0.000000  0.000000  1
