# generated using pymatgen
data_Sc2CoReOs2
_symmetry_space_group_name_H-M   'P 1'
_cell_length_a   5.13886139
_cell_length_b   5.06897397
_cell_length_c   8.56119500
_cell_angle_alpha   90.00000000
_cell_angle_beta   90.00000000
_cell_angle_gamma   119.55113513
_symmetry_Int_Tables_number   1
_chemical_formula_structural   Sc2CoReOs2
_chemical_formula_sum   'Sc4 Co2 Re2 Os4'
_cell_volume   193.99860608
_cell_formula_units_Z   2
loop_
 _symmetry_equiv_pos_site_id
 _symmetry_equiv_pos_as_xyz
  1  'x, y, z'
loop_
 _atom_site_type_symbol
 _atom_site_label
 _atom_site_symmetry_multiplicity
 _atom_site_fract_x
 _atom_site_fract_y
 _atom_site_fract_z
 _atom_site_occupancy
  Sc  Sc0  1  0.330406  0.662752  0.435141  1
  Sc  Sc1  1  0.669594  0.332345  0.935141  1
  Sc  Sc2  1  0.669594  0.332345  0.564859  1
  Sc  Sc3  1  0.330406  0.662752  0.064859  1
  Co  Co4  1  0.656506  0.833930  0.750000  1
  Co  Co5  1  0.343494  0.177425  0.250000  1
  Re  Re6  1  0.167933  0.831129  0.750000  1
  Re  Re7  1  0.832067  0.663197  0.250000  1
  Os  Os8  1  0.829200  0.179890  0.250000  1
  Os  Os9  1  0.170800  0.350690  0.750000  1
  Os  Os10  1  0.000000  0.986773  0.500000  1
  Os  Os11  1  0.000000  0.986773  0.000000  1
