# generated using pymatgen
data_Cs9K3Al2(FeSe6)2
_symmetry_space_group_name_H-M   'P 1'
_cell_length_a   11.00652766
_cell_length_b   11.01104623
_cell_length_c   13.97163552
_cell_angle_alpha   89.88971310
_cell_angle_beta   89.78515968
_cell_angle_gamma   140.36039411
_symmetry_Int_Tables_number   1
_chemical_formula_structural   Cs9K3Al2(FeSe6)2
_chemical_formula_sum   'Cs9 K3 Al2 Fe2 Se12'
_cell_volume   1080.19407491
_cell_formula_units_Z   1
loop_
 _symmetry_equiv_pos_site_id
 _symmetry_equiv_pos_as_xyz
  1  'x, y, z'
loop_
 _atom_site_type_symbol
 _atom_site_label
 _atom_site_symmetry_multiplicity
 _atom_site_fract_x
 _atom_site_fract_y
 _atom_site_fract_z
 _atom_site_occupancy
  Cs  Cs0  1  0.363819  0.362577  0.822980  1
  Cs  Cs1  1  0.167602  0.524871  0.132063  1
  Cs  Cs2  1  0.488208  0.835952  0.873996  1
  Cs  Cs3  1  0.974132  0.330087  0.632530  1
  Cs  Cs4  1  0.667142  0.016499  0.372211  1
  Cs  Cs5  1  0.839091  0.489431  0.875461  1
  Cs  Cs6  1  0.521454  0.163588  0.131337  1
  Cs  Cs7  1  0.013671  0.663648  0.373478  1
  Cs  Cs8  1  0.333694  0.976459  0.631527  1
  K  K9  1  0.844008  0.844016  0.652482  1
  K  K10  1  0.156744  0.157978  0.331173  1
  K  K11  1  0.656027  0.656635  0.159906  1
  Al  Al12  1  0.931453  0.089160  0.002978  1
  Al  Al13  1  0.412571  0.568603  0.497479  1
  Fe  Fe14  1  0.088092  0.931135  0.003158  1
  Fe  Fe15  1  0.567686  0.412721  0.497759  1
  Se  Se16  1  0.274058  0.275502  0.567519  1
  Se  Se17  1  0.691989  0.692850  0.415752  1
  Se  Se18  1  0.210733  0.212019  0.082776  1
  Se  Se19  1  0.822998  0.824018  0.915817  1
  Se  Se20  1  0.702330  0.982760  0.118239  1
  Se  Se21  1  0.013389  0.310255  0.892012  1
  Se  Se22  1  0.507804  0.785568  0.616934  1
  Se  Se23  1  0.192284  0.482370  0.386036  1
  Se  Se24  1  0.307514  0.009468  0.893137  1
  Se  Se25  1  0.983605  0.702847  0.117627  1
  Se  Se26  1  0.483536  0.193455  0.387225  1
  Se  Se27  1  0.784369  0.505528  0.616406  1
