# generated using pymatgen
data_Sc5Ti3Al15Os7
_symmetry_space_group_name_H-M   'P 1'
_cell_length_a   8.80693125
_cell_length_b   8.80693032
_cell_length_c   8.80520254
_cell_angle_alpha   120.06423423
_cell_angle_beta   120.01896031
_cell_angle_gamma   89.93922477
_symmetry_Int_Tables_number   1
_chemical_formula_structural   Sc5Ti3Al15Os7
_chemical_formula_sum   'Sc5 Ti3 Al15 Os7'
_cell_volume   482.56664261
_cell_formula_units_Z   1
loop_
 _symmetry_equiv_pos_site_id
 _symmetry_equiv_pos_as_xyz
  1  'x, y, z'
loop_
 _atom_site_type_symbol
 _atom_site_label
 _atom_site_symmetry_multiplicity
 _atom_site_fract_x
 _atom_site_fract_y
 _atom_site_fract_z
 _atom_site_occupancy
  Sc  Sc0  1  0.783440  0.277438  0.053667  1
  Sc  Sc1  1  0.223751  0.277455  0.493955  1
  Sc  Sc2  1  0.214546  0.714546  0.500000  1
  Sc  Sc3  1  0.223772  0.729773  0.946333  1
  Sc  Sc4  1  0.783501  0.729796  0.506045  1
  Ti  Ti5  1  0.771787  0.271787  0.500000  1
  Ti  Ti6  1  0.377259  0.119137  0.741854  1
  Ti  Ti7  1  0.377284  0.635407  0.258146  1
  Al  Al8  1  0.987417  0.487417  0.500000  1
  Al  Al9  1  0.160552  0.339944  0.179304  1
  Al  Al10  1  0.160639  0.981248  0.820696  1
  Al  Al11  1  0.154738  0.344460  0.810251  1
  Al  Al12  1  0.534208  0.344487  0.189749  1
  Al  Al13  1  0.842529  0.655336  0.812767  1
  Al  Al14  1  0.842570  0.029762  0.187233  1
  Al  Al15  1  0.840524  0.658851  0.181730  1
  Al  Al16  1  0.477121  0.658793  0.818270  1
  Al  Al17  1  0.381240  0.125387  0.255841  1
  Al  Al18  1  0.869548  0.125401  0.744159  1
  Al  Al19  1  0.622319  0.876556  0.254258  1
  Al  Al20  1  0.622297  0.368061  0.745742  1
  Al  Al21  1  0.617669  0.875307  0.742343  1
  Al  Al22  1  0.132963  0.875325  0.257657  1
  Os  Os23  1  0.998633  0.001513  0.500742  1
  Os  Os24  1  0.500795  0.001532  0.002924  1
  Os  Os25  1  0.498718  0.498718  0.000000  1
  Os  Os26  1  0.500771  0.497892  0.499258  1
  Os  Os27  1  0.998606  0.497871  0.997076  1
  Os  Os28  1  0.999974  0.999974  0.000000  1
  Os  Os29  1  0.500824  0.000824  0.500000  1
