# generated using pymatgen
data_HoEr2Tm5Ga3Co
_symmetry_space_group_name_H-M   'P 1'
_cell_length_a   9.88852619
_cell_length_b   9.88852734
_cell_length_c   6.86811000
_cell_angle_alpha   90.00000000
_cell_angle_beta   90.00000000
_cell_angle_gamma   119.97750958
_symmetry_Int_Tables_number   1
_chemical_formula_structural   HoEr2Tm5Ga3Co
_chemical_formula_sum   'Ho2 Er4 Tm10 Ga6 Co2'
_cell_volume   581.74068720
_cell_formula_units_Z   2
loop_
 _symmetry_equiv_pos_site_id
 _symmetry_equiv_pos_as_xyz
  1  'x, y, z'
loop_
 _atom_site_type_symbol
 _atom_site_label
 _atom_site_symmetry_multiplicity
 _atom_site_fract_x
 _atom_site_fract_y
 _atom_site_fract_z
 _atom_site_occupancy
  Ho  Ho0  1  0.999948  0.000052  0.269762  1
  Ho  Ho1  1  0.000052  0.999948  0.769762  1
  Er  Er2  1  0.463890  0.927565  0.293079  1
  Er  Er3  1  0.072435  0.536110  0.293079  1
  Er  Er4  1  0.927565  0.463890  0.793079  1
  Er  Er5  1  0.536110  0.072435  0.793079  1
  Tm  Tm6  1  0.173556  0.826444  0.990042  1
  Tm  Tm7  1  0.826444  0.173556  0.490042  1
  Tm  Tm8  1  0.174237  0.347528  0.990133  1
  Tm  Tm9  1  0.652472  0.825763  0.990133  1
  Tm  Tm10  1  0.347528  0.174237  0.490133  1
  Tm  Tm11  1  0.825763  0.652472  0.490133  1
  Tm  Tm12  1  0.333648  0.666352  0.673070  1
  Tm  Tm13  1  0.666352  0.333648  0.173070  1
  Tm  Tm14  1  0.463854  0.536146  0.293551  1
  Tm  Tm15  1  0.536146  0.463854  0.793551  1
  Ga  Ga16  1  0.163516  0.836484  0.541254  1
  Ga  Ga17  1  0.836484  0.163516  0.041254  1
  Ga  Ga18  1  0.163833  0.327304  0.541194  1
  Ga  Ga19  1  0.672696  0.836167  0.541194  1
  Ga  Ga20  1  0.327304  0.163833  0.041194  1
  Ga  Ga21  1  0.836167  0.672696  0.041194  1
  Co  Co22  1  0.333612  0.666388  0.056569  1
  Co  Co23  1  0.666388  0.333612  0.556569  1
