# generated using pymatgen
data_Lu2Fe4SiPC2
_symmetry_space_group_name_H-M   'P 1'
_cell_length_a   5.48855584
_cell_length_b   5.48855687
_cell_length_c   6.65426500
_cell_angle_alpha   90.00000000
_cell_angle_beta   90.00000000
_cell_angle_gamma   141.43173861
_symmetry_Int_Tables_number   1
_chemical_formula_structural   Lu2Fe4SiPC2
_chemical_formula_sum   'Lu2 Fe4 Si1 P1 C2'
_cell_volume   124.97282764
_cell_formula_units_Z   1
loop_
 _symmetry_equiv_pos_site_id
 _symmetry_equiv_pos_as_xyz
  1  'x, y, z'
loop_
 _atom_site_type_symbol
 _atom_site_label
 _atom_site_symmetry_multiplicity
 _atom_site_fract_x
 _atom_site_fract_y
 _atom_site_fract_z
 _atom_site_occupancy
  Lu  Lu0  1  0.548327  0.451673  0.250000  1
  Lu  Lu1  1  0.451989  0.548011  0.750000  1
  Fe  Fe2  1  0.834314  0.165686  0.063839  1
  Fe  Fe3  1  0.166372  0.833628  0.946534  1
  Fe  Fe4  1  0.166372  0.833628  0.553466  1
  Fe  Fe5  1  0.834314  0.165686  0.436161  1
  Si  Si6  1  0.731087  0.268913  0.750000  1
  P  P7  1  0.268320  0.731680  0.250000  1
  C  C8  1  0.999452  0.000548  0.999068  1
  C  C9  1  0.999452  0.000548  0.500932  1
