# generated using pymatgen
data_Rb8Li4HoIn3As8
_symmetry_space_group_name_H-M   'P 1'
_cell_length_a   10.56575667
_cell_length_b   10.56575741
_cell_length_c   6.64872022
_cell_angle_alpha   89.87824501
_cell_angle_beta   90.12175640
_cell_angle_gamma   102.12254722
_symmetry_Int_Tables_number   1
_chemical_formula_structural   Rb8Li4HoIn3As8
_chemical_formula_sum   'Rb8 Li4 Ho1 In3 As8'
_cell_volume   725.67738747
_cell_formula_units_Z   1
loop_
 _symmetry_equiv_pos_site_id
 _symmetry_equiv_pos_as_xyz
  1  'x, y, z'
loop_
 _atom_site_type_symbol
 _atom_site_label
 _atom_site_symmetry_multiplicity
 _atom_site_fract_x
 _atom_site_fract_y
 _atom_site_fract_z
 _atom_site_occupancy
  Rb  Rb0  1  0.574273  0.926437  0.751207  1
  Rb  Rb1  1  0.926437  0.574273  0.248793  1
  Rb  Rb2  1  0.424193  0.067928  0.244932  1
  Rb  Rb3  1  0.067928  0.424193  0.755068  1
  Rb  Rb4  1  0.678920  0.327252  0.783340  1
  Rb  Rb5  1  0.827452  0.172533  0.276100  1
  Rb  Rb6  1  0.327252  0.678920  0.216660  1
  Rb  Rb7  1  0.172533  0.827452  0.723900  1
  Li  Li8  1  0.621692  0.621692  0.000000  1
  Li  Li9  1  0.879378  0.879378  0.500000  1
  Li  Li10  1  0.379034  0.379034  0.000000  1
  Li  Li11  1  0.117423  0.117423  0.500000  1
  Ho  Ho12  1  0.373500  0.373500  0.500000  1
  In  In13  1  0.867407  0.867407  0.000000  1
  In  In14  1  0.631041  0.631041  0.500000  1
  In  In15  1  0.130444  0.130444  0.000000  1
  As  As16  1  0.343173  0.155722  0.752022  1
  As  As17  1  0.155722  0.343173  0.247978  1
  As  As18  1  0.655291  0.844207  0.252098  1
  As  As19  1  0.844207  0.655291  0.747902  1
  As  As20  1  0.907286  0.090044  0.771653  1
  As  As21  1  0.596410  0.408962  0.266104  1
  As  As22  1  0.090044  0.907286  0.228347  1
  As  As23  1  0.408962  0.596410  0.733896  1
