# generated using pymatgen
data_La4In2Cu3Ni
_symmetry_space_group_name_H-M   'P 1'
_cell_length_a   7.97529269
_cell_length_b   7.97539970
_cell_length_c   3.79438200
_cell_angle_alpha   90.00000000
_cell_angle_beta   90.00000000
_cell_angle_gamma   89.73895070
_symmetry_Int_Tables_number   1
_chemical_formula_structural   La4In2Cu3Ni
_chemical_formula_sum   'La4 In2 Cu3 Ni1'
_cell_volume   241.34351396
_cell_formula_units_Z   1
loop_
 _symmetry_equiv_pos_site_id
 _symmetry_equiv_pos_as_xyz
  1  'x, y, z'
loop_
 _atom_site_type_symbol
 _atom_site_label
 _atom_site_symmetry_multiplicity
 _atom_site_fract_x
 _atom_site_fract_y
 _atom_site_fract_z
 _atom_site_occupancy
  La  La0  1  0.666398  0.178349  0.500000  1
  La  La1  1  0.186729  0.313259  0.500000  1
  La  La2  1  0.824134  0.675851  0.500000  1
  La  La3  1  0.321654  0.833606  0.500000  1
  In  In4  1  0.998085  0.001097  0.000000  1
  In  In5  1  0.498913  0.501901  0.000000  1
  Cu  Cu6  1  0.886782  0.381932  0.000000  1
  Cu  Cu7  1  0.118080  0.613225  0.000000  1
  Cu  Cu8  1  0.616254  0.883754  0.000000  1
  Ni  Ni9  1  0.382971  0.117027  0.000000  1
