# generated using pymatgen
data_Ce5Mn9(P6Os5)2
_symmetry_space_group_name_H-M   'P 1'
_cell_length_a   12.57211000
_cell_length_b   12.57211031
_cell_length_c   3.88947500
_cell_angle_alpha   90.00000000
_cell_angle_beta   90.00000000
_cell_angle_gamma   119.99999918
_symmetry_Int_Tables_number   1
_chemical_formula_structural   Ce5Mn9(P6Os5)2
_chemical_formula_sum   'Ce5 Mn9 P12 Os10'
_cell_volume   532.39991187
_cell_formula_units_Z   1
loop_
 _symmetry_equiv_pos_site_id
 _symmetry_equiv_pos_as_xyz
  1  'x, y, z'
loop_
 _atom_site_type_symbol
 _atom_site_label
 _atom_site_symmetry_multiplicity
 _atom_site_fract_x
 _atom_site_fract_y
 _atom_site_fract_z
 _atom_site_occupancy
  Ce  Ce0  1  0.180829  0.180829  0.500000  1
  Ce  Ce1  1  0.819171  0.000000  0.500000  1
  Ce  Ce2  1  0.000000  0.819171  0.500000  1
  Ce  Ce3  1  0.333333  0.666667  0.000000  1
  Ce  Ce4  1  0.666667  0.333333  0.000000  1
  Mn  Mn5  1  0.710215  0.710215  0.500000  1
  Mn  Mn6  1  0.289785  0.000000  0.500000  1
  Mn  Mn7  1  0.000000  0.289785  0.500000  1
  Mn  Mn8  1  0.364527  0.481474  0.500000  1
  Mn  Mn9  1  0.518526  0.883053  0.500000  1
  Mn  Mn10  1  0.116947  0.635473  0.500000  1
  Mn  Mn11  1  0.883053  0.518526  0.500000  1
  Mn  Mn12  1  0.635473  0.116947  0.500000  1
  Mn  Mn13  1  0.481474  0.364527  0.500000  1
  P  P14  1  0.811160  0.811160  0.000000  1
  P  P15  1  0.188840  0.000000  0.000000  1
  P  P16  1  0.000000  0.188840  0.000000  1
  P  P17  1  0.162850  0.476933  0.500000  1
  P  P18  1  0.523067  0.685917  0.500000  1
  P  P19  1  0.314083  0.837150  0.500000  1
  P  P20  1  0.685917  0.523067  0.500000  1
  P  P21  1  0.837150  0.314083  0.500000  1
  P  P22  1  0.476933  0.162850  0.500000  1
  P  P23  1  0.361853  0.361853  0.000000  1
  P  P24  1  0.638147  0.000000  0.000000  1
  P  P25  1  0.000000  0.638147  0.000000  1
  Os  Os26  1  0.547372  0.547372  0.000000  1
  Os  Os27  1  0.452628  0.000000  0.000000  1
  Os  Os28  1  0.000000  0.452628  0.000000  1
  Os  Os29  1  0.183803  0.383496  0.000000  1
  Os  Os30  1  0.616504  0.800307  0.000000  1
  Os  Os31  1  0.199693  0.816197  0.000000  1
  Os  Os32  1  0.800307  0.616504  0.000000  1
  Os  Os33  1  0.816197  0.199693  0.000000  1
  Os  Os34  1  0.383496  0.183803  0.000000  1
  Os  Os35  1  0.000000  0.000000  0.000000  1
