# generated using pymatgen
data_SrPrDy5CoI12
_symmetry_space_group_name_H-M   'P 1'
_cell_length_a   9.80141521
_cell_length_b   9.84451423
_cell_length_c   9.83681657
_cell_angle_alpha   106.17454636
_cell_angle_beta   106.48668218
_cell_angle_gamma   105.98222812
_symmetry_Int_Tables_number   1
_chemical_formula_structural   SrPrDy5CoI12
_chemical_formula_sum   'Sr1 Pr1 Dy5 Co1 I12'
_cell_volume   806.79297582
_cell_formula_units_Z   1
loop_
 _symmetry_equiv_pos_site_id
 _symmetry_equiv_pos_as_xyz
  1  'x, y, z'
loop_
 _atom_site_type_symbol
 _atom_site_label
 _atom_site_symmetry_multiplicity
 _atom_site_fract_x
 _atom_site_fract_y
 _atom_site_fract_z
 _atom_site_occupancy
  Sr  Sr0  1  0.500749  0.498804  0.499933  1
  Pr  Pr1  1  0.712369  0.981647  0.908840  1
  Dy  Dy2  1  0.979309  0.906785  0.707301  1
  Dy  Dy3  1  0.019637  0.093440  0.293026  1
  Dy  Dy4  1  0.094325  0.291985  0.020237  1
  Dy  Dy5  1  0.274136  0.018300  0.087777  1
  Dy  Dy6  1  0.909172  0.708727  0.980723  1
  Co  Co7  1  0.998134  0.000664  0.999587  1
  I  I8  1  0.552687  0.624568  0.863704  1
  I  I9  1  0.446571  0.363083  0.134964  1
  I  I10  1  0.316816  0.925894  0.778729  1
  I  I11  1  0.366177  0.134001  0.444510  1
  I  I12  1  0.928942  0.778379  0.322525  1
  I  I13  1  0.682638  0.077050  0.233992  1
  I  I14  1  0.073434  0.222041  0.677918  1
  I  I15  1  0.783841  0.332848  0.928684  1
  I  I16  1  0.225972  0.681844  0.074883  1
  I  I17  1  0.867465  0.554274  0.633902  1
  I  I18  1  0.135030  0.446732  0.366114  1
  I  I19  1  0.632596  0.858932  0.542650  1
