# generated using pymatgen
data_SrTbNd5FeI12
_symmetry_space_group_name_H-M   'P 1'
_cell_length_a   10.06730492
_cell_length_b   9.96845837
_cell_length_c   9.97055505
_cell_angle_alpha   106.31064519
_cell_angle_beta   106.10045482
_cell_angle_gamma   106.57558747
_symmetry_Int_Tables_number   1
_chemical_formula_structural   SrTbNd5FeI12
_chemical_formula_sum   'Sr1 Tb1 Nd5 Fe1 I12'
_cell_volume   848.09105112
_cell_formula_units_Z   1
loop_
 _symmetry_equiv_pos_site_id
 _symmetry_equiv_pos_as_xyz
  1  'x, y, z'
loop_
 _atom_site_type_symbol
 _atom_site_label
 _atom_site_symmetry_multiplicity
 _atom_site_fract_x
 _atom_site_fract_y
 _atom_site_fract_z
 _atom_site_occupancy
  Sr  Sr0  1  0.499831  0.500289  0.500124  1
  Tb  Tb1  1  0.703838  0.978424  0.905143  1
  Nd  Nd2  1  0.091044  0.289158  0.020684  1
  Nd  Nd3  1  0.020145  0.092018  0.288125  1
  Nd  Nd4  1  0.303615  0.021486  0.096713  1
  Nd  Nd5  1  0.906256  0.710532  0.978496  1
  Nd  Nd6  1  0.978796  0.907855  0.711312  1
  Fe  Fe7  1  0.999246  0.999539  0.999668  1
  I  I8  1  0.450295  0.372204  0.139978  1
  I  I9  1  0.141883  0.452091  0.372149  1
  I  I10  1  0.369953  0.140468  0.452072  1
  I  I11  1  0.550207  0.634759  0.860628  1
  I  I12  1  0.857855  0.547711  0.627928  1
  I  I13  1  0.630017  0.862842  0.555260  1
  I  I14  1  0.772275  0.313358  0.925321  1
  I  I15  1  0.925492  0.773756  0.319510  1
  I  I16  1  0.321854  0.926218  0.774202  1
  I  I17  1  0.223059  0.678951  0.073144  1
  I  I18  1  0.074323  0.226188  0.680466  1
  I  I19  1  0.680016  0.072151  0.219075  1
