# generated using pymatgen
data_HoTm4Th3Ni8
_symmetry_space_group_name_H-M   'P 1'
_cell_length_a   4.28758400
_cell_length_b   5.45146341
_cell_length_c   13.83158819
_cell_angle_alpha   89.53363579
_cell_angle_beta   90.00000000
_cell_angle_gamma   90.00000000
_symmetry_Int_Tables_number   1
_chemical_formula_structural   HoTm4Th3Ni8
_chemical_formula_sum   'Ho1 Tm4 Th3 Ni8'
_cell_volume   323.28340077
_cell_formula_units_Z   1
loop_
 _symmetry_equiv_pos_site_id
 _symmetry_equiv_pos_as_xyz
  1  'x, y, z'
loop_
 _atom_site_type_symbol
 _atom_site_label
 _atom_site_symmetry_multiplicity
 _atom_site_fract_x
 _atom_site_fract_y
 _atom_site_fract_z
 _atom_site_occupancy
  Ho  Ho0  1  0.750000  0.478793  0.715960  1
  Tm  Tm1  1  0.250000  0.521893  0.284609  1
  Tm  Tm2  1  0.250000  0.977671  0.781562  1
  Tm  Tm3  1  0.250000  0.752597  0.537525  1
  Tm  Tm4  1  0.250000  0.745625  0.033247  1
  Th  Th5  1  0.750000  0.259663  0.964418  1
  Th  Th6  1  0.750000  0.020848  0.215645  1
  Th  Th7  1  0.750000  0.245412  0.468351  1
  Ni  Ni8  1  0.250000  0.021667  0.355944  1
  Ni  Ni9  1  0.750000  0.524543  0.145395  1
  Ni  Ni10  1  0.750000  0.743018  0.395555  1
  Ni  Ni11  1  0.250000  0.481258  0.854570  1
  Ni  Ni12  1  0.750000  0.975546  0.643508  1
  Ni  Ni13  1  0.750000  0.759949  0.892006  1
  Ni  Ni14  1  0.250000  0.242669  0.105147  1
  Ni  Ni15  1  0.250000  0.248846  0.606556  1
