# generated using pymatgen
data_Zr4Al5Tc2Pt
_symmetry_space_group_name_H-M   'P 1'
_cell_length_a   5.32177200
_cell_length_b   5.26253886
_cell_length_c   8.73507700
_cell_angle_alpha   90.00000000
_cell_angle_beta   90.00000000
_cell_angle_gamma   120.37302406
_symmetry_Int_Tables_number   1
_chemical_formula_structural   Zr4Al5Tc2Pt
_chemical_formula_sum   'Zr4 Al5 Tc2 Pt1'
_cell_volume   211.05915923
_cell_formula_units_Z   1
loop_
 _symmetry_equiv_pos_site_id
 _symmetry_equiv_pos_as_xyz
  1  'x, y, z'
loop_
 _atom_site_type_symbol
 _atom_site_label
 _atom_site_symmetry_multiplicity
 _atom_site_fract_x
 _atom_site_fract_y
 _atom_site_fract_z
 _atom_site_occupancy
  Zr  Zr0  1  0.334696  0.669392  0.430831  1
  Zr  Zr1  1  0.663606  0.327211  0.942305  1
  Zr  Zr2  1  0.663606  0.327211  0.557695  1
  Zr  Zr3  1  0.334696  0.669392  0.069169  1
  Al  Al4  1  0.652672  0.819756  0.750000  1
  Al  Al5  1  0.006998  0.013995  0.998630  1
  Al  Al6  1  0.006998  0.013995  0.501370  1
  Al  Al7  1  0.831158  0.662317  0.250000  1
  Al  Al8  1  0.167087  0.819756  0.750000  1
  Tc  Tc9  1  0.835582  0.173615  0.250000  1
  Tc  Tc10  1  0.338033  0.173615  0.250000  1
  Pt  Pt11  1  0.164870  0.329741  0.750000  1
