# generated using pymatgen
data_Ho2Fe(BIr)4
_symmetry_space_group_name_H-M   'P 1'
_cell_length_a   7.42077391
_cell_length_b   6.25319049
_cell_length_c   5.53487398
_cell_angle_alpha   77.76511182
_cell_angle_beta   55.43882025
_cell_angle_gamma   46.79603207
_symmetry_Int_Tables_number   1
_chemical_formula_structural   Ho2Fe(BIr)4
_chemical_formula_sum   'Ho2 Fe1 B4 Ir4'
_cell_volume   147.36443243
_cell_formula_units_Z   1
loop_
 _symmetry_equiv_pos_site_id
 _symmetry_equiv_pos_as_xyz
  1  'x, y, z'
loop_
 _atom_site_type_symbol
 _atom_site_label
 _atom_site_symmetry_multiplicity
 _atom_site_fract_x
 _atom_site_fract_y
 _atom_site_fract_z
 _atom_site_occupancy
  Ho  Ho0  1  0.857534  0.857534  0.142466  1
  Ho  Ho1  1  0.142466  0.142466  0.857535  1
  Fe  Fe2  1  0.750001  0.750000  0.749999  1
  B  B3  1  0.497578  0.777888  0.188806  1
  B  B4  1  0.188806  0.535728  0.497578  1
  B  B5  1  0.777888  0.497577  0.535729  1
  B  B6  1  0.535729  0.188806  0.777888  1
  Ir  Ir7  1  0.502261  0.502259  0.997740  1
  Ir  Ir8  1  0.250001  0.250000  0.249998  1
  Ir  Ir9  1  0.997740  0.997740  0.502259  1
  Ir  Ir10  1  0.500000  0.500000  0.500000  1
