# generated using pymatgen
data_LaNd2(SnAu2)3
_symmetry_space_group_name_H-M   'P 1'
_cell_length_a   5.09607000
_cell_length_b   7.19599500
_cell_length_c   15.41937200
_cell_angle_alpha   89.99972291
_cell_angle_beta   90.00029851
_cell_angle_gamma   89.99996159
_symmetry_Int_Tables_number   1
_chemical_formula_structural   LaNd2(SnAu2)3
_chemical_formula_sum   'La2 Nd4 Sn6 Au12'
_cell_volume   565.44832760
_cell_formula_units_Z   2
loop_
 _symmetry_equiv_pos_site_id
 _symmetry_equiv_pos_as_xyz
  1  'x, y, z'
loop_
 _atom_site_type_symbol
 _atom_site_label
 _atom_site_symmetry_multiplicity
 _atom_site_fract_x
 _atom_site_fract_y
 _atom_site_fract_z
 _atom_site_occupancy
  La  La0  1  0.999969  0.000000  0.666395  1
  La  La1  1  0.499995  0.500000  0.833580  1
  Nd  Nd2  1  0.000001  0.000000  0.000528  1
  Nd  Nd3  1  0.500004  0.500002  0.166914  1
  Nd  Nd4  1  0.000032  0.000001  0.333083  1
  Nd  Nd5  1  0.500004  0.500000  0.499487  1
  Sn  Sn6  1  0.000001  0.499999  0.001890  1
  Sn  Sn7  1  0.500006  0.000000  0.167372  1
  Sn  Sn8  1  0.000010  0.500000  0.332626  1
  Sn  Sn9  1  0.500002  0.000000  0.498060  1
  Sn  Sn10  1  0.999990  0.500000  0.665419  1
  Sn  Sn11  1  0.499958  0.000000  0.834605  1
  Au  Au12  1  0.500004  0.247777  0.001490  1
  Au  Au13  1  0.500002  0.752226  0.001487  1
  Au  Au14  1  0.000005  0.250824  0.166642  1
  Au  Au15  1  0.000006  0.749172  0.166642  1
  Au  Au16  1  0.500038  0.249243  0.333441  1
  Au  Au17  1  0.500034  0.750760  0.333440  1
  Au  Au18  1  0.000006  0.252219  0.498530  1
  Au  Au19  1  0.000005  0.747783  0.498531  1
  Au  Au20  1  0.499972  0.252583  0.665169  1
  Au  Au21  1  0.499968  0.747416  0.665168  1
  Au  Au22  1  0.999995  0.247386  0.834749  1
  Au  Au23  1  0.999995  0.752614  0.834751  1
