# generated using pymatgen
data_Ca3Yb3(YBi3)2
_symmetry_space_group_name_H-M   'P 1'
_cell_length_a   8.20492754
_cell_length_b   8.37805021
_cell_length_c   8.38201722
_cell_angle_alpha   109.89264486
_cell_angle_beta   109.05503741
_cell_angle_gamma   109.03675869
_symmetry_Int_Tables_number   1
_chemical_formula_structural   Ca3Yb3(YBi3)2
_chemical_formula_sum   'Ca3 Yb3 Y2 Bi6'
_cell_volume   445.86145547
_cell_formula_units_Z   1
loop_
 _symmetry_equiv_pos_site_id
 _symmetry_equiv_pos_as_xyz
  1  'x, y, z'
loop_
 _atom_site_type_symbol
 _atom_site_label
 _atom_site_symmetry_multiplicity
 _atom_site_fract_x
 _atom_site_fract_y
 _atom_site_fract_z
 _atom_site_occupancy
  Ca  Ca0  1  0.501035  0.998897  0.645920  1
  Ca  Ca1  1  0.354987  0.353263  0.354259  1
  Ca  Ca2  1  0.502106  0.000735  0.146858  1
  Yb  Yb3  1  0.001729  0.646818  0.501171  1
  Yb  Yb4  1  0.855212  0.853899  0.853018  1
  Yb  Yb5  1  0.000975  0.145894  0.499257  1
  Y  Y6  1  0.141276  0.499800  0.999563  1
  Y  Y7  1  0.641694  0.500430  0.000201  1
  Bi  Bi8  1  0.376149  0.622795  0.755710  1
  Bi  Bi9  1  0.876913  0.256093  0.123589  1
  Bi  Bi10  1  0.621505  0.744366  0.367668  1
  Bi  Bi11  1  0.119757  0.866931  0.243822  1
  Bi  Bi12  1  0.252425  0.132320  0.875851  1
  Bi  Bi13  1  0.754239  0.377760  0.633111  1
