# generated using pymatgen
data_VSi6Pt4W
_symmetry_space_group_name_H-M   'P 1'
_cell_length_a   3.50245100
_cell_length_b   5.50673576
_cell_length_c   9.20768090
_cell_angle_alpha   89.91072616
_cell_angle_beta   90.00000000
_cell_angle_gamma   90.00000000
_symmetry_Int_Tables_number   1
_chemical_formula_structural   VSi6Pt4W
_chemical_formula_sum   'V1 Si6 Pt4 W1'
_cell_volume   177.58899053
_cell_formula_units_Z   1
loop_
 _symmetry_equiv_pos_site_id
 _symmetry_equiv_pos_as_xyz
  1  'x, y, z'
loop_
 _atom_site_type_symbol
 _atom_site_label
 _atom_site_symmetry_multiplicity
 _atom_site_fract_x
 _atom_site_fract_y
 _atom_site_fract_z
 _atom_site_occupancy
  V  V0  1  0.000000  0.499593  0.395122  1
  Si  Si1  1  0.500000  0.187310  0.436584  1
  Si  Si2  1  0.500000  0.180421  0.778595  1
  Si  Si3  1  0.000000  0.350047  0.132264  1
  Si  Si4  1  0.500000  0.670441  0.553954  1
  Si  Si5  1  0.500000  0.677093  0.227780  1
  Si  Si6  1  0.000000  0.841549  0.873253  1
  Pt  Pt7  1  0.000000  0.999267  0.288030  1
  Pt  Pt8  1  0.500000  0.998957  0.031940  1
  Pt  Pt9  1  0.000000  0.498581  0.709594  1
  Pt  Pt10  1  0.500000  0.500020  0.969010  1
  W  W11  1  0.000000  0.999322  0.603872  1
