# generated using pymatgen
data_Li5Au4
_symmetry_space_group_name_H-M   'P 1'
_cell_length_a   4.57093817
_cell_length_b   4.20135582
_cell_length_c   11.59590310
_cell_angle_alpha   122.12932412
_cell_angle_beta   130.78058797
_cell_angle_gamma   62.50846202
_symmetry_Int_Tables_number   1
_chemical_formula_structural   Li5Au4
_chemical_formula_sum   'Li5 Au4'
_cell_volume   140.51467592
_cell_formula_units_Z   1
loop_
 _symmetry_equiv_pos_site_id
 _symmetry_equiv_pos_as_xyz
  1  'x, y, z'
loop_
 _atom_site_type_symbol
 _atom_site_label
 _atom_site_symmetry_multiplicity
 _atom_site_fract_x
 _atom_site_fract_y
 _atom_site_fract_z
 _atom_site_occupancy
  Li  Li0  1  0.143446  0.214961  0.102235  1
  Li  Li1  1  0.718228  0.771369  0.331688  1
  Li  Li2  1  0.026585  0.136292  0.679195  1
  Li  Li3  1  0.582025  0.677602  0.890486  1
  Li  Li4  1  0.460000  0.574993  0.450050  1
  Au  Au5  1  0.954368  0.989500  0.223175  1
  Au  Au6  1  0.797292  0.894905  0.776782  1
  Au  Au7  1  0.220063  0.358233  0.557823  1
  Au  Au8  1  0.369192  0.458853  0.004880  1
