# generated using pymatgen
data_BI13
_symmetry_space_group_name_H-M   'P 1'
_cell_length_a   13.45625016
_cell_length_b   10.86009798
_cell_length_c   16.95072688
_cell_angle_alpha   120.38823807
_cell_angle_beta   93.22167581
_cell_angle_gamma   112.53374237
_symmetry_Int_Tables_number   1
_chemical_formula_structural   BI13
_chemical_formula_sum   'B2 I26'
_cell_volume   1873.94673222
_cell_formula_units_Z   2
loop_
 _symmetry_equiv_pos_site_id
 _symmetry_equiv_pos_as_xyz
  1  'x, y, z'
loop_
 _atom_site_type_symbol
 _atom_site_label
 _atom_site_symmetry_multiplicity
 _atom_site_fract_x
 _atom_site_fract_y
 _atom_site_fract_z
 _atom_site_occupancy
  B  B0  1  0.273226  0.884706  0.050981  1
  B  B1  1  0.726774  0.115294  0.949019  1
  I  I2  1  0.306857  0.684724  0.972550  1
  I  I3  1  0.693143  0.315276  0.027450  1
  I  I4  1  0.585986  0.756508  0.357115  1
  I  I5  1  0.414014  0.243492  0.642885  1
  I  I6  1  0.713439  0.722929  0.019044  1
  I  I7  1  0.286561  0.277071  0.980956  1
  I  I8  1  0.732163  0.017126  0.165232  1
  I  I9  1  0.267837  0.982874  0.834768  1
  I  I10  1  0.405532  0.120333  0.155129  1
  I  I11  1  0.594468  0.879667  0.844871  1
  I  I12  1  0.183231  0.613097  0.652617  1
  I  I13  1  0.816769  0.386903  0.347383  1
  I  I14  1  0.099088  0.830752  0.020135  1
  I  I15  1  0.900912  0.169248  0.979865  1
  I  I16  1  0.105730  0.125127  0.223662  1
  I  I17  1  0.894270  0.874873  0.776338  1
  I  I18  1  0.305089  0.920449  0.472332  1
  I  I19  1  0.694911  0.079551  0.527668  1
  I  I20  1  0.293200  0.428379  0.645075  1
  I  I21  1  0.706800  0.571621  0.354925  1
  I  I22  1  0.796702  0.428839  0.705880  1
  I  I23  1  0.203298  0.571161  0.294120  1
  I  I24  1  0.868395  0.617601  0.595905  1
  I  I25  1  0.131605  0.382399  0.404095  1
  I  I26  1  0.255070  0.631717  0.155444  1
  I  I27  1  0.744930  0.368283  0.844556  1
