# generated using pymatgen
data_Y5Er2Sc9(In3Co)2
_symmetry_space_group_name_H-M   'P 1'
_cell_length_a   9.89879132
_cell_length_b   9.89865642
_cell_length_c   6.95925921
_cell_angle_alpha   89.91040523
_cell_angle_beta   90.08990015
_cell_angle_gamma   120.02311252
_symmetry_Int_Tables_number   1
_chemical_formula_structural   Y5Er2Sc9(In3Co)2
_chemical_formula_sum   'Y5 Er2 Sc9 In6 Co2'
_cell_volume   590.40518170
_cell_formula_units_Z   1
loop_
 _symmetry_equiv_pos_site_id
 _symmetry_equiv_pos_as_xyz
  1  'x, y, z'
loop_
 _atom_site_type_symbol
 _atom_site_label
 _atom_site_symmetry_multiplicity
 _atom_site_fract_x
 _atom_site_fract_y
 _atom_site_fract_z
 _atom_site_occupancy
  Y  Y0  1  0.532663  0.065110  0.787708  1
  Y  Y1  1  0.934887  0.467345  0.787721  1
  Y  Y2  1  0.531476  0.468536  0.788187  1
  Y  Y3  1  0.467153  0.934143  0.288413  1
  Y  Y4  1  0.065855  0.532848  0.288407  1
  Er  Er5  1  0.999622  0.000341  0.781762  1
  Er  Er6  1  0.999964  0.000051  0.282255  1
  Sc  Sc7  1  0.464520  0.535480  0.288121  1
  Sc  Sc8  1  0.816621  0.639357  0.492825  1
  Sc  Sc9  1  0.360654  0.183390  0.492815  1
  Sc  Sc10  1  0.820944  0.179068  0.494897  1
  Sc  Sc11  1  0.183526  0.361186  0.000618  1
  Sc  Sc12  1  0.638809  0.816475  0.000634  1
  Sc  Sc13  1  0.180066  0.819938  0.995991  1
  Sc  Sc14  1  0.664930  0.335069  0.190200  1
  Sc  Sc15  1  0.334158  0.665830  0.689822  1
  In  In16  1  0.837055  0.673741  0.048008  1
  In  In17  1  0.326256  0.162942  0.048012  1
  In  In18  1  0.837020  0.162986  0.047436  1
  In  In19  1  0.166479  0.328958  0.544947  1
  In  In20  1  0.671022  0.833511  0.544941  1
  In  In21  1  0.162720  0.837293  0.548204  1
  Co  Co22  1  0.667175  0.332831  0.549658  1
  Co  Co23  1  0.336425  0.663572  0.054322  1
