# generated using pymatgen
data_Hf6Al16Pd6Ru
_symmetry_space_group_name_H-M   'P 1'
_cell_length_a   8.75800959
_cell_length_b   8.75377309
_cell_length_c   8.75801034
_cell_angle_alpha   60.01600394
_cell_angle_beta   60.01058289
_cell_angle_gamma   60.01599945
_symmetry_Int_Tables_number   1
_chemical_formula_structural   Hf6Al16Pd6Ru
_chemical_formula_sum   'Hf6 Al16 Pd6 Ru1'
_cell_volume   474.93141259
_cell_formula_units_Z   1
loop_
 _symmetry_equiv_pos_site_id
 _symmetry_equiv_pos_as_xyz
  1  'x, y, z'
loop_
 _atom_site_type_symbol
 _atom_site_label
 _atom_site_symmetry_multiplicity
 _atom_site_fract_x
 _atom_site_fract_y
 _atom_site_fract_z
 _atom_site_occupancy
  Hf  Hf0  1  0.682828  0.679108  0.317172  1
  Hf  Hf1  1  0.316450  0.683550  0.316450  1
  Hf  Hf2  1  0.682828  0.320892  0.317172  1
  Hf  Hf3  1  0.317172  0.320892  0.682828  1
  Hf  Hf4  1  0.683550  0.316450  0.683550  1
  Hf  Hf5  1  0.317172  0.679108  0.682828  1
  Al  Al6  1  0.880933  0.879088  0.360891  1
  Al  Al7  1  0.883880  0.362465  0.883880  1
  Al  Al8  1  0.360891  0.879088  0.880933  1
  Al  Al9  1  0.883880  0.869775  0.883880  1
  Al  Al10  1  0.119067  0.120912  0.639109  1
  Al  Al11  1  0.116120  0.637535  0.116120  1
  Al  Al12  1  0.639109  0.120912  0.119067  1
  Al  Al13  1  0.116120  0.130225  0.116120  1
  Al  Al14  1  0.666815  0.662593  0.007999  1
  Al  Al15  1  0.663750  0.008857  0.663750  1
  Al  Al16  1  0.007999  0.662593  0.666815  1
  Al  Al17  1  0.663750  0.663644  0.663750  1
  Al  Al18  1  0.333185  0.337407  0.992001  1
  Al  Al19  1  0.336250  0.991143  0.336250  1
  Al  Al20  1  0.992001  0.337407  0.333185  1
  Al  Al21  1  0.336250  0.336356  0.336250  1
  Pd  Pd22  1  0.000000  0.000000  0.000000  1
  Pd  Pd23  1  0.000000  0.000000  0.500000  1
  Pd  Pd24  1  0.500000  0.000000  0.500000  1
  Pd  Pd25  1  0.000000  0.500000  0.500000  1
  Pd  Pd26  1  0.500000  0.500000  0.000000  1
  Pd  Pd27  1  0.500000  0.000000  0.000000  1
  Ru  Ru28  1  0.000000  0.500000  0.000000  1
