# generated using pymatgen
data_SmErNi7
_symmetry_space_group_name_H-M   'P 1'
_cell_length_a   4.93514515
_cell_length_b   4.93514353
_cell_length_c   12.32639105
_cell_angle_alpha   78.45215595
_cell_angle_beta   78.45216070
_cell_angle_gamma   60.00000248
_symmetry_Int_Tables_number   1
_chemical_formula_structural   SmErNi7
_chemical_formula_sum   'Sm2 Er2 Ni14'
_cell_volume   252.95429985
_cell_formula_units_Z   2
loop_
 _symmetry_equiv_pos_site_id
 _symmetry_equiv_pos_as_xyz
  1  'x, y, z'
loop_
 _atom_site_type_symbol
 _atom_site_label
 _atom_site_symmetry_multiplicity
 _atom_site_fract_x
 _atom_site_fract_y
 _atom_site_fract_z
 _atom_site_occupancy
  Sm  Sm0  1  0.948683  0.948683  0.153952  1
  Sm  Sm1  1  0.051317  0.051317  0.846048  1
  Er  Er2  1  0.852268  0.852268  0.443197  1
  Er  Er3  1  0.147732  0.147732  0.556803  1
  Ni  Ni4  1  0.500000  0.500000  0.500000  1
  Ni  Ni5  1  0.721986  0.721986  0.834044  1
  Ni  Ni6  1  0.278014  0.278014  0.165956  1
  Ni  Ni7  1  0.611456  0.611456  0.165630  1
  Ni  Ni8  1  0.388544  0.388544  0.834370  1
  Ni  Ni9  1  0.000000  0.500000  0.000000  1
  Ni  Ni10  1  0.500000  0.000000  0.000000  1
  Ni  Ni11  1  0.500000  0.500000  0.000000  1
  Ni  Ni12  1  0.388668  0.388668  0.331058  1
  Ni  Ni13  1  0.891605  0.388668  0.331058  1
  Ni  Ni14  1  0.388668  0.891605  0.331058  1
  Ni  Ni15  1  0.611332  0.611332  0.668942  1
  Ni  Ni16  1  0.108395  0.611332  0.668942  1
  Ni  Ni17  1  0.611332  0.108395  0.668942  1
