# generated using pymatgen
data_PrHo4Pd13Au2
_symmetry_space_group_name_H-M   'P 1'
_cell_length_a   4.18872500
_cell_length_b   4.16581700
_cell_length_c   20.79110300
_cell_angle_alpha   90.00000000
_cell_angle_beta   90.00000000
_cell_angle_gamma   90.00000000
_symmetry_Int_Tables_number   1
_chemical_formula_structural   PrHo4Pd13Au2
_chemical_formula_sum   'Pr1 Ho4 Pd13 Au2'
_cell_volume   362.79355786
_cell_formula_units_Z   1
loop_
 _symmetry_equiv_pos_site_id
 _symmetry_equiv_pos_as_xyz
  1  'x, y, z'
loop_
 _atom_site_type_symbol
 _atom_site_label
 _atom_site_symmetry_multiplicity
 _atom_site_fract_x
 _atom_site_fract_y
 _atom_site_fract_z
 _atom_site_occupancy
  Pr  Pr0  1  0.000000  0.000000  0.998347  1
  Ho  Ho1  1  0.000000  0.000000  0.200148  1
  Ho  Ho2  1  0.000000  0.000000  0.397161  1
  Ho  Ho3  1  0.000000  0.000000  0.604942  1
  Ho  Ho4  1  0.000000  0.000000  0.799181  1
  Pd  Pd5  1  0.500000  0.500000  0.001143  1
  Pd  Pd6  1  0.500000  0.500000  0.398245  1
  Pd  Pd7  1  0.500000  0.500000  0.600733  1
  Pd  Pd8  1  0.500000  0.500000  0.799426  1
  Pd  Pd9  1  0.500000  0.000000  0.103194  1
  Pd  Pd10  1  0.500000  0.000000  0.299406  1
  Pd  Pd11  1  0.500000  0.000000  0.700201  1
  Pd  Pd12  1  0.500000  0.000000  0.897174  1
  Pd  Pd13  1  0.000000  0.500000  0.103159  1
  Pd  Pd14  1  0.000000  0.500000  0.299368  1
  Pd  Pd15  1  0.000000  0.500000  0.499609  1
  Pd  Pd16  1  0.000000  0.500000  0.700479  1
  Pd  Pd17  1  0.000000  0.500000  0.897058  1
  Au  Au18  1  0.500000  0.500000  0.200720  1
  Au  Au19  1  0.500000  0.000000  0.500302  1
