# generated using pymatgen
data_La6Al24Ru5Rh3
_symmetry_space_group_name_H-M   'P 1'
_cell_length_a   8.97110800
_cell_length_b   8.97110663
_cell_length_c   9.69800500
_cell_angle_alpha   90.00000000
_cell_angle_beta   90.00000000
_cell_angle_gamma   119.99999030
_symmetry_Int_Tables_number   1
_chemical_formula_structural   La6Al24Ru5Rh3
_chemical_formula_sum   'La6 Al24 Ru5 Rh3'
_cell_volume   675.93538389
_cell_formula_units_Z   1
loop_
 _symmetry_equiv_pos_site_id
 _symmetry_equiv_pos_as_xyz
  1  'x, y, z'
loop_
 _atom_site_type_symbol
 _atom_site_label
 _atom_site_symmetry_multiplicity
 _atom_site_fract_x
 _atom_site_fract_y
 _atom_site_fract_z
 _atom_site_occupancy
  La  La0  1  0.191407  0.382813  0.251866  1
  La  La1  1  0.808593  0.617187  0.748134  1
  La  La2  1  0.617187  0.808593  0.251866  1
  La  La3  1  0.382813  0.191407  0.748134  1
  La  La4  1  0.191407  0.808593  0.251866  1
  La  La5  1  0.808593  0.191407  0.748134  1
  Al  Al6  1  0.333333  0.666667  0.003264  1
  Al  Al7  1  0.666667  0.333333  0.996736  1
  Al  Al8  1  0.666667  0.333333  0.500497  1
  Al  Al9  1  0.333333  0.666667  0.499503  1
  Al  Al10  1  0.162333  0.324666  0.576818  1
  Al  Al11  1  0.837667  0.675334  0.423182  1
  Al  Al12  1  0.675334  0.837667  0.576818  1
  Al  Al13  1  0.838312  0.676624  0.076046  1
  Al  Al14  1  0.324666  0.162333  0.423182  1
  Al  Al15  1  0.161688  0.323376  0.923954  1
  Al  Al16  1  0.162333  0.837667  0.576818  1
  Al  Al17  1  0.323376  0.161688  0.076046  1
  Al  Al18  1  0.837667  0.162333  0.423182  1
  Al  Al19  1  0.676624  0.838312  0.923954  1
  Al  Al20  1  0.838312  0.161688  0.076046  1
  Al  Al21  1  0.161688  0.838312  0.923954  1
  Al  Al22  1  0.563813  0.127627  0.249546  1
  Al  Al23  1  0.436187  0.872373  0.750454  1
  Al  Al24  1  0.872373  0.436187  0.249546  1
  Al  Al25  1  0.127627  0.563813  0.750454  1
  Al  Al26  1  0.563813  0.436187  0.249546  1
  Al  Al27  1  0.436187  0.563813  0.750454  1
  Al  Al28  1  0.000000  0.000000  0.250366  1
  Al  Al29  1  0.000000  0.000000  0.749634  1
  Ru  Ru30  1  0.500000  0.000000  0.500000  1
  Ru  Ru31  1  0.000000  0.500000  0.500000  1
  Ru  Ru32  1  0.500000  0.500000  0.500000  1
  Ru  Ru33  1  0.000000  0.000000  0.000000  1
  Ru  Ru34  1  0.000000  0.000000  0.500000  1
  Rh  Rh35  1  0.500000  0.000000  0.000000  1
  Rh  Rh36  1  0.000000  0.500000  0.000000  1
  Rh  Rh37  1  0.500000  0.500000  0.000000  1
