# generated using pymatgen
data_Ag3Sn(Pt2O7)2
_symmetry_space_group_name_H-M   'P 1'
_cell_length_a   7.15609556
_cell_length_b   7.23680006
_cell_length_c   7.15609600
_cell_angle_alpha   60.36823035
_cell_angle_beta   60.00000722
_cell_angle_gamma   60.36822009
_symmetry_Int_Tables_number   1
_chemical_formula_structural   Ag3Sn(Pt2O7)2
_chemical_formula_sum   'Ag3 Sn1 Pt4 O14'
_cell_volume   263.49887293
_cell_formula_units_Z   1
loop_
 _symmetry_equiv_pos_site_id
 _symmetry_equiv_pos_as_xyz
  1  'x, y, z'
loop_
 _atom_site_type_symbol
 _atom_site_label
 _atom_site_symmetry_multiplicity
 _atom_site_fract_x
 _atom_site_fract_y
 _atom_site_fract_z
 _atom_site_occupancy
  Ag  Ag0  1  0.125000  0.125000  0.125000  1
  Ag  Ag1  1  0.625000  0.125000  0.125000  1
  Ag  Ag2  1  0.125000  0.125000  0.625000  1
  Sn  Sn3  1  0.125000  0.625000  0.125000  1
  Pt  Pt4  1  0.625000  0.625000  0.625000  1
  Pt  Pt5  1  0.125000  0.625000  0.625000  1
  Pt  Pt6  1  0.625000  0.625000  0.125000  1
  Pt  Pt7  1  0.625000  0.125000  0.625000  1
  O  O8  1  0.002883  0.991350  0.002883  1
  O  O9  1  0.247117  0.258650  0.247117  1
  O  O10  1  0.520741  0.554957  0.962151  1
  O  O11  1  0.288707  0.294570  0.708362  1
  O  O12  1  0.962151  0.554957  0.962151  1
  O  O13  1  0.962151  0.554957  0.520741  1
  O  O14  1  0.541638  0.955430  0.961293  1
  O  O15  1  0.541638  0.955430  0.541638  1
  O  O16  1  0.961293  0.955430  0.541638  1
  O  O17  1  0.708362  0.294570  0.288707  1
  O  O18  1  0.287849  0.695043  0.729259  1
  O  O19  1  0.729259  0.695043  0.287849  1
  O  O20  1  0.708362  0.294570  0.708362  1
  O  O21  1  0.287849  0.695043  0.287849  1
