# generated using pymatgen
data_VMoF6
_symmetry_space_group_name_H-M   'P 1'
_cell_length_a   5.68025377
_cell_length_b   5.68025357
_cell_length_c   5.68025237
_cell_angle_alpha   58.18905091
_cell_angle_beta   58.18904458
_cell_angle_gamma   58.18903704
_symmetry_Int_Tables_number   1
_chemical_formula_structural   VMoF6
_chemical_formula_sum   'V1 Mo1 F6'
_cell_volume   124.21694205
_cell_formula_units_Z   1
loop_
 _symmetry_equiv_pos_site_id
 _symmetry_equiv_pos_as_xyz
  1  'x, y, z'
loop_
 _atom_site_type_symbol
 _atom_site_label
 _atom_site_symmetry_multiplicity
 _atom_site_fract_x
 _atom_site_fract_y
 _atom_site_fract_z
 _atom_site_occupancy
  V  V0  1  0.000000  0.000000  0.000000  1
  Mo  Mo1  1  0.500000  0.500000  0.500000  1
  F  F2  1  0.671720  0.844329  0.240334  1
  F  F3  1  0.844329  0.240334  0.671720  1
  F  F4  1  0.759666  0.328280  0.155671  1
  F  F5  1  0.155671  0.759666  0.328280  1
  F  F6  1  0.328280  0.155671  0.759666  1
  F  F7  1  0.240334  0.671720  0.844329  1
