# generated using pymatgen
data_Ac3TlIn2Ag2Ir
_symmetry_space_group_name_H-M   'P 1'
_cell_length_a   8.19907173
_cell_length_b   8.22814899
_cell_length_c   4.30257200
_cell_angle_alpha   90.00000000
_cell_angle_beta   90.00000000
_cell_angle_gamma   120.55022067
_symmetry_Int_Tables_number   1
_chemical_formula_structural   Ac3TlIn2Ag2Ir
_chemical_formula_sum   'Ac3 Tl1 In2 Ag2 Ir1'
_cell_volume   249.97174009
_cell_formula_units_Z   1
loop_
 _symmetry_equiv_pos_site_id
 _symmetry_equiv_pos_as_xyz
  1  'x, y, z'
loop_
 _atom_site_type_symbol
 _atom_site_label
 _atom_site_symmetry_multiplicity
 _atom_site_fract_x
 _atom_site_fract_y
 _atom_site_fract_z
 _atom_site_occupancy
  Ac  Ac0  1  0.575973  0.596911  0.000000  1
  Ac  Ac1  1  0.401352  0.973376  0.000000  1
  Ac  Ac2  1  0.023548  0.428358  0.000000  1
  Tl  Tl3  1  0.995592  0.749111  0.500000  1
  In  In4  1  0.249718  0.250325  0.500000  1
  In  In5  1  0.750337  0.003282  0.500000  1
  Ag  Ag6  1  0.000131  0.012236  0.000000  1
  Ag  Ag7  1  0.659269  0.323950  0.500000  1
  Ir  Ir8  1  0.344077  0.662450  0.500000  1
