# generated using pymatgen
data_TbSmFe7CoB8
_symmetry_space_group_name_H-M   'P 1'
_cell_length_a   6.98719923
_cell_length_b   6.98179752
_cell_length_c   3.80187401
_cell_angle_alpha   90.03684771
_cell_angle_beta   89.93485588
_cell_angle_gamma   90.12815561
_symmetry_Int_Tables_number   1
_chemical_formula_structural   TbSmFe7CoB8
_chemical_formula_sum   'Tb1 Sm1 Fe7 Co1 B8'
_cell_volume   185.46699718
_cell_formula_units_Z   1
loop_
 _symmetry_equiv_pos_site_id
 _symmetry_equiv_pos_as_xyz
  1  'x, y, z'
loop_
 _atom_site_type_symbol
 _atom_site_label
 _atom_site_symmetry_multiplicity
 _atom_site_fract_x
 _atom_site_fract_y
 _atom_site_fract_z
 _atom_site_occupancy
  Tb  Tb0  1  0.000763  0.001321  0.000355  1
  Sm  Sm1  1  0.499583  0.499852  0.500564  1
  Fe  Fe2  1  0.386572  0.131867  0.893314  1
  Fe  Fe3  1  0.614336  0.868758  0.892851  1
  Fe  Fe4  1  0.366844  0.886657  0.393386  1
  Fe  Fe5  1  0.634041  0.113568  0.392924  1
  Fe  Fe6  1  0.111849  0.367367  0.606399  1
  Fe  Fe7  1  0.885751  0.631850  0.607103  1
  Fe  Fe8  1  0.130614  0.613565  0.107677  1
  Co  Co9  1  0.865437  0.386311  0.107768  1
  B  B10  1  0.801912  0.670125  0.104843  1
  B  B11  1  0.204768  0.334723  0.103852  1
  B  B12  1  0.836263  0.295890  0.604710  1
  B  B13  1  0.164800  0.702432  0.606424  1
  B  B14  1  0.701049  0.834578  0.394231  1
  B  B15  1  0.296641  0.164715  0.394417  1
  B  B16  1  0.665968  0.196193  0.893751  1
  B  B17  1  0.332809  0.800228  0.895434  1
