# generated using pymatgen
data_TmFe4MoP3
_symmetry_space_group_name_H-M   'P 1'
_cell_length_a   3.69570000
_cell_length_b   10.39201900
_cell_length_c   11.92853900
_cell_angle_alpha   90.00000000
_cell_angle_beta   90.00000000
_cell_angle_gamma   90.00000000
_symmetry_Int_Tables_number   1
_chemical_formula_structural   TmFe4MoP3
_chemical_formula_sum   'Tm4 Fe16 Mo4 P12'
_cell_volume   458.12489964
_cell_formula_units_Z   4
loop_
 _symmetry_equiv_pos_site_id
 _symmetry_equiv_pos_as_xyz
  1  'x, y, z'
loop_
 _atom_site_type_symbol
 _atom_site_label
 _atom_site_symmetry_multiplicity
 _atom_site_fract_x
 _atom_site_fract_y
 _atom_site_fract_z
 _atom_site_occupancy
  Tm  Tm0  1  0.250000  0.582244  0.707219  1
  Tm  Tm1  1  0.250000  0.917756  0.207219  1
  Tm  Tm2  1  0.750000  0.417756  0.292781  1
  Tm  Tm3  1  0.750000  0.082244  0.792781  1
  Fe  Fe4  1  0.250000  0.408644  0.492191  1
  Fe  Fe5  1  0.250000  0.091356  0.992191  1
  Fe  Fe6  1  0.750000  0.591356  0.507809  1
  Fe  Fe7  1  0.750000  0.908644  0.007809  1
  Fe  Fe8  1  0.250000  0.217299  0.177893  1
  Fe  Fe9  1  0.250000  0.282701  0.677893  1
  Fe  Fe10  1  0.750000  0.782701  0.822107  1
  Fe  Fe11  1  0.750000  0.717299  0.322107  1
  Fe  Fe12  1  0.250000  0.876369  0.701914  1
  Fe  Fe13  1  0.250000  0.623631  0.201914  1
  Fe  Fe14  1  0.750000  0.123631  0.298086  1
  Fe  Fe15  1  0.750000  0.376369  0.798086  1
  Fe  Fe16  1  0.250000  0.463158  0.932217  1
  Fe  Fe17  1  0.250000  0.036842  0.432217  1
  Fe  Fe18  1  0.750000  0.536842  0.067783  1
  Fe  Fe19  1  0.750000  0.963158  0.567783  1
  Mo  Mo20  1  0.250000  0.706061  0.987777  1
  Mo  Mo21  1  0.250000  0.793939  0.487777  1
  Mo  Mo22  1  0.750000  0.293939  0.012223  1
  Mo  Mo23  1  0.750000  0.206061  0.512223  1
  P  P24  1  0.250000  0.425532  0.114443  1
  P  P25  1  0.250000  0.074468  0.614443  1
  P  P26  1  0.750000  0.574468  0.885557  1
  P  P27  1  0.750000  0.925532  0.385557  1
  P  P28  1  0.250000  0.264212  0.867498  1
  P  P29  1  0.250000  0.235788  0.367498  1
  P  P30  1  0.750000  0.735788  0.132502  1
  P  P31  1  0.750000  0.764212  0.632502  1
  P  P32  1  0.250000  0.592604  0.390167  1
  P  P33  1  0.250000  0.907396  0.890167  1
  P  P34  1  0.750000  0.407396  0.609833  1
  P  P35  1  0.750000  0.092604  0.109833  1
