# generated using pymatgen
data_Li3Ca4Si8Ag
_symmetry_space_group_name_H-M   'P 1'
_cell_length_a   3.80833500
_cell_length_b   7.86491651
_cell_length_c   10.65372442
_cell_angle_alpha   90.41621666
_cell_angle_beta   90.00000000
_cell_angle_gamma   90.00000000
_symmetry_Int_Tables_number   1
_chemical_formula_structural   Li3Ca4Si8Ag
_chemical_formula_sum   'Li3 Ca4 Si8 Ag1'
_cell_volume   319.09445740
_cell_formula_units_Z   1
loop_
 _symmetry_equiv_pos_site_id
 _symmetry_equiv_pos_as_xyz
  1  'x, y, z'
loop_
 _atom_site_type_symbol
 _atom_site_label
 _atom_site_symmetry_multiplicity
 _atom_site_fract_x
 _atom_site_fract_y
 _atom_site_fract_z
 _atom_site_occupancy
  Li  Li0  1  0.750000  0.999535  0.610786  1
  Li  Li1  1  0.250000  0.499949  0.111477  1
  Li  Li2  1  0.750000  0.500362  0.887965  1
  Ca  Ca3  1  0.250000  0.133202  0.864459  1
  Ca  Ca4  1  0.750000  0.864624  0.136653  1
  Ca  Ca5  1  0.250000  0.635621  0.634602  1
  Ca  Ca6  1  0.750000  0.364982  0.365183  1
  Si  Si7  1  0.750000  0.267606  0.068170  1
  Si  Si8  1  0.250000  0.730778  0.931743  1
  Si  Si9  1  0.750000  0.763218  0.436404  1
  Si  Si10  1  0.250000  0.231740  0.566424  1
  Si  Si11  1  0.750000  0.833539  0.825123  1
  Si  Si12  1  0.250000  0.168133  0.174894  1
  Si  Si13  1  0.750000  0.328825  0.674390  1
  Si  Si14  1  0.250000  0.668700  0.323460  1
  Ag  Ag15  1  0.250000  0.009187  0.388268  1
