# generated using pymatgen
data_CaDy6CoSn23Ir5
_symmetry_space_group_name_H-M   'P 1'
_cell_length_a   9.86198100
_cell_length_b   9.85350141
_cell_length_c   10.07763403
_cell_angle_alpha   90.12479815
_cell_angle_beta   90.00000000
_cell_angle_gamma   120.02848147
_symmetry_Int_Tables_number   1
_chemical_formula_structural   CaDy6CoSn23Ir5
_chemical_formula_sum   'Ca1 Dy6 Co1 Sn23 Ir5'
_cell_volume   847.84774857
_cell_formula_units_Z   1
loop_
 _symmetry_equiv_pos_site_id
 _symmetry_equiv_pos_as_xyz
  1  'x, y, z'
loop_
 _atom_site_type_symbol
 _atom_site_label
 _atom_site_symmetry_multiplicity
 _atom_site_fract_x
 _atom_site_fract_y
 _atom_site_fract_z
 _atom_site_occupancy
  Ca  Ca0  1  0.003248  0.006495  0.995945  1
  Dy  Dy1  1  0.037800  0.518665  0.307000  1
  Dy  Dy2  1  0.480456  0.960913  0.306118  1
  Dy  Dy3  1  0.480865  0.518665  0.307000  1
  Dy  Dy4  1  0.962036  0.481351  0.693776  1
  Dy  Dy5  1  0.518743  0.037487  0.694272  1
  Dy  Dy6  1  0.519315  0.481351  0.693776  1
  Co  Co7  1  0.829544  0.659088  0.200288  1
  Sn  Sn8  1  0.999786  0.999572  0.499121  1
  Sn  Sn9  1  0.110898  0.876770  0.276485  1
  Sn  Sn10  1  0.765871  0.876770  0.276485  1
  Sn  Sn11  1  0.117441  0.234881  0.283928  1
  Sn  Sn12  1  0.881175  0.116579  0.717106  1
  Sn  Sn13  1  0.235406  0.116579  0.717106  1
  Sn  Sn14  1  0.881287  0.762573  0.716561  1
  Sn  Sn15  1  0.351647  0.999900  0.000241  1
  Sn  Sn16  1  0.656665  0.650474  0.004782  1
  Sn  Sn17  1  0.000246  0.353950  0.000962  1
  Sn  Sn18  1  0.353707  0.353950  0.000962  1
  Sn  Sn19  1  0.993809  0.650474  0.004782  1
  Sn  Sn20  1  0.648252  0.999900  0.000241  1
  Sn  Sn21  1  0.780726  0.561453  0.451571  1
  Sn  Sn22  1  0.777673  0.221353  0.458759  1
  Sn  Sn23  1  0.443680  0.221353  0.458759  1
  Sn  Sn24  1  0.222181  0.444362  0.541729  1
  Sn  Sn25  1  0.221583  0.779031  0.541374  1
  Sn  Sn26  1  0.557448  0.779031  0.541374  1
  Sn  Sn27  1  0.669151  0.338300  0.178534  1
  Sn  Sn28  1  0.333087  0.666175  0.825363  1
  Sn  Sn29  1  0.666776  0.333552  0.879498  1
  Sn  Sn30  1  0.332562  0.665126  0.122344  1
  Ir  Ir31  1  0.168408  0.827430  0.800748  1
  Ir  Ir32  1  0.659022  0.827430  0.800748  1
  Ir  Ir33  1  0.170027  0.340053  0.799413  1
  Ir  Ir34  1  0.829484  0.169482  0.201424  1
  Ir  Ir35  1  0.339996  0.169482  0.201424  1
