# generated using pymatgen
data_Pr6Nd4(SnBi)3
_symmetry_space_group_name_H-M   'P 1'
_cell_length_a   9.48955800
_cell_length_b   9.48349188
_cell_length_c   6.71734000
_cell_angle_alpha   90.00000000
_cell_angle_beta   90.00000000
_cell_angle_gamma   120.02116172
_symmetry_Int_Tables_number   1
_chemical_formula_structural   Pr6Nd4(SnBi)3
_chemical_formula_sum   'Pr6 Nd4 Sn3 Bi3'
_cell_volume   523.41911096
_cell_formula_units_Z   1
loop_
 _symmetry_equiv_pos_site_id
 _symmetry_equiv_pos_as_xyz
  1  'x, y, z'
loop_
 _atom_site_type_symbol
 _atom_site_label
 _atom_site_symmetry_multiplicity
 _atom_site_fract_x
 _atom_site_fract_y
 _atom_site_fract_z
 _atom_site_occupancy
  Pr  Pr0  1  0.238771  0.000000  0.250000  1
  Pr  Pr1  1  0.243411  0.238220  0.750000  1
  Pr  Pr2  1  0.005191  0.761780  0.750000  1
  Pr  Pr3  1  0.005256  0.247202  0.250000  1
  Pr  Pr4  1  0.758055  0.752798  0.250000  1
  Pr  Pr5  1  0.753285  0.000000  0.750000  1
  Nd  Nd6  1  0.331132  0.666486  0.001396  1
  Nd  Nd7  1  0.664647  0.333514  0.498604  1
  Nd  Nd8  1  0.664647  0.333514  0.001396  1
  Nd  Nd9  1  0.331132  0.666486  0.498604  1
  Sn  Sn10  1  0.999860  0.606383  0.250000  1
  Sn  Sn11  1  0.393478  0.393617  0.250000  1
  Sn  Sn12  1  0.393920  0.000000  0.750000  1
  Bi  Bi13  1  0.609254  0.000000  0.250000  1
  Bi  Bi14  1  0.608323  0.608685  0.750000  1
  Bi  Bi15  1  0.999638  0.391315  0.750000  1
