# generated using pymatgen
data_LiY9Mg3Ru
_symmetry_space_group_name_H-M   'P 1'
_cell_length_a   9.60948200
_cell_length_b   9.60948241
_cell_length_c   9.84689300
_cell_angle_alpha   90.00000000
_cell_angle_beta   90.00000000
_cell_angle_gamma   119.99999860
_symmetry_Int_Tables_number   1
_chemical_formula_structural   LiY9Mg3Ru
_chemical_formula_sum   'Li2 Y18 Mg6 Ru2'
_cell_volume   787.46240745
_cell_formula_units_Z   2
loop_
 _symmetry_equiv_pos_site_id
 _symmetry_equiv_pos_as_xyz
  1  'x, y, z'
loop_
 _atom_site_type_symbol
 _atom_site_label
 _atom_site_symmetry_multiplicity
 _atom_site_fract_x
 _atom_site_fract_y
 _atom_site_fract_z
 _atom_site_occupancy
  Li  Li0  1  0.000000  0.000000  0.500000  1
  Li  Li1  1  0.000000  0.000000  0.000000  1
  Y  Y2  1  0.210012  0.789988  0.441635  1
  Y  Y3  1  0.210012  0.420026  0.441635  1
  Y  Y4  1  0.579974  0.789988  0.441635  1
  Y  Y5  1  0.789988  0.210012  0.558365  1
  Y  Y6  1  0.789988  0.579974  0.558365  1
  Y  Y7  1  0.420026  0.210012  0.558365  1
  Y  Y8  1  0.789988  0.210012  0.941635  1
  Y  Y9  1  0.789988  0.579974  0.941635  1
  Y  Y10  1  0.420026  0.210012  0.941635  1
  Y  Y11  1  0.210012  0.789988  0.058365  1
  Y  Y12  1  0.210012  0.420026  0.058365  1
  Y  Y13  1  0.579974  0.789988  0.058365  1
  Y  Y14  1  0.542450  0.457550  0.250000  1
  Y  Y15  1  0.542450  0.084901  0.250000  1
  Y  Y16  1  0.915099  0.457550  0.250000  1
  Y  Y17  1  0.457550  0.542450  0.750000  1
  Y  Y18  1  0.457550  0.915099  0.750000  1
  Y  Y19  1  0.084901  0.542450  0.750000  1
  Mg  Mg20  1  0.893219  0.106781  0.250000  1
  Mg  Mg21  1  0.893219  0.786438  0.250000  1
  Mg  Mg22  1  0.213562  0.106781  0.250000  1
  Mg  Mg23  1  0.106781  0.893219  0.750000  1
  Mg  Mg24  1  0.106781  0.213562  0.750000  1
  Mg  Mg25  1  0.786438  0.893219  0.750000  1
  Ru  Ru26  1  0.333333  0.666667  0.250000  1
  Ru  Ru27  1  0.666667  0.333333  0.750000  1
