# generated using pymatgen
data_Ti6AlSiN2
_symmetry_space_group_name_H-M   'P 1'
_cell_length_a   5.53154889
_cell_length_b   5.53154799
_cell_length_c   8.25831900
_cell_angle_alpha   90.00000000
_cell_angle_beta   90.00000000
_cell_angle_gamma   147.48535476
_symmetry_Int_Tables_number   1
_chemical_formula_structural   Ti6AlSiN2
_chemical_formula_sum   'Ti6 Al1 Si1 N2'
_cell_volume   135.82378189
_cell_formula_units_Z   1
loop_
 _symmetry_equiv_pos_site_id
 _symmetry_equiv_pos_as_xyz
  1  'x, y, z'
loop_
 _atom_site_type_symbol
 _atom_site_label
 _atom_site_symmetry_multiplicity
 _atom_site_fract_x
 _atom_site_fract_y
 _atom_site_fract_z
 _atom_site_occupancy
  Ti  Ti0  1  0.628477  0.371523  0.547195  1
  Ti  Ti1  1  0.374223  0.625777  0.035701  1
  Ti  Ti2  1  0.374223  0.625777  0.464299  1
  Ti  Ti3  1  0.628477  0.371523  0.952805  1
  Ti  Ti4  1  0.952485  0.047515  0.750000  1
  Ti  Ti5  1  0.038100  0.961900  0.250000  1
  Al  Al6  1  0.748790  0.251210  0.250000  1
  Si  Si7  1  0.253565  0.746435  0.750000  1
  N  N8  1  0.000830  0.999170  0.502616  1
  N  N9  1  0.000830  0.999170  0.997384  1
