# generated using pymatgen
data_Tb2Y2HgRh
_symmetry_space_group_name_H-M   'P 1'
_cell_length_a   9.63580588
_cell_length_b   9.63580648
_cell_length_c   9.64328800
_cell_angle_alpha   59.97431948
_cell_angle_beta   59.97431742
_cell_angle_gamma   60.05136936
_symmetry_Int_Tables_number   1
_chemical_formula_structural   Tb2Y2HgRh
_chemical_formula_sum   'Tb8 Y8 Hg4 Rh4'
_cell_volume   633.11958432
_cell_formula_units_Z   4
loop_
 _symmetry_equiv_pos_site_id
 _symmetry_equiv_pos_as_xyz
  1  'x, y, z'
loop_
 _atom_site_type_symbol
 _atom_site_label
 _atom_site_symmetry_multiplicity
 _atom_site_fract_x
 _atom_site_fract_y
 _atom_site_fract_z
 _atom_site_occupancy
  Tb  Tb0  1  0.601117  0.601117  0.601633  1
  Tb  Tb1  1  0.601117  0.601117  0.196134  1
  Tb  Tb2  1  0.601633  0.196134  0.601117  1
  Tb  Tb3  1  0.196134  0.601633  0.601117  1
  Tb  Tb4  1  0.060388  0.439612  0.439612  1
  Tb  Tb5  1  0.439612  0.060388  0.060388  1
  Tb  Tb6  1  0.439612  0.060388  0.439612  1
  Tb  Tb7  1  0.060388  0.439612  0.060388  1
  Y  Y8  1  0.439954  0.439954  0.060046  1
  Y  Y9  1  0.060046  0.060046  0.439954  1
  Y  Y10  1  0.186819  0.813181  0.813181  1
  Y  Y11  1  0.813181  0.186819  0.186819  1
  Y  Y12  1  0.813181  0.186819  0.813181  1
  Y  Y13  1  0.186819  0.813181  0.186819  1
  Y  Y14  1  0.812833  0.812833  0.187167  1
  Y  Y15  1  0.187167  0.187167  0.812833  1
  Hg  Hg16  1  0.835179  0.835179  0.834799  1
  Hg  Hg17  1  0.835179  0.835179  0.494842  1
  Hg  Hg18  1  0.834799  0.494842  0.835179  1
  Hg  Hg19  1  0.494842  0.834799  0.835179  1
  Rh  Rh20  1  0.392066  0.392066  0.394203  1
  Rh  Rh21  1  0.392066  0.392066  0.821666  1
  Rh  Rh22  1  0.394203  0.821666  0.392066  1
  Rh  Rh23  1  0.821666  0.394203  0.392066  1
