# generated using pymatgen
data_Ac5(MgGe)8
_symmetry_space_group_name_H-M   'P 1'
_cell_length_a   8.86368131
_cell_length_b   8.86368063
_cell_length_c   13.62197885
_cell_angle_alpha   87.73057659
_cell_angle_beta   87.73057741
_cell_angle_gamma   30.86774066
_symmetry_Int_Tables_number   1
_chemical_formula_structural   Ac5(MgGe)8
_chemical_formula_sum   'Ac5 Mg8 Ge8'
_cell_volume   548.61563861
_cell_formula_units_Z   1
loop_
 _symmetry_equiv_pos_site_id
 _symmetry_equiv_pos_as_xyz
  1  'x, y, z'
loop_
 _atom_site_type_symbol
 _atom_site_label
 _atom_site_symmetry_multiplicity
 _atom_site_fract_x
 _atom_site_fract_y
 _atom_site_fract_z
 _atom_site_occupancy
  Ac  Ac0  1  0.105726  0.105726  0.249792  1
  Ac  Ac1  1  0.894274  0.894274  0.750208  1
  Ac  Ac2  1  0.096905  0.096905  0.564352  1
  Ac  Ac3  1  0.903095  0.903095  0.435648  1
  Ac  Ac4  1  0.500000  0.500000  0.000000  1
  Mg  Mg5  1  0.182111  0.182111  0.995592  1
  Mg  Mg6  1  0.817889  0.817889  0.004408  1
  Mg  Mg7  1  0.215458  0.215458  0.772151  1
  Mg  Mg8  1  0.784542  0.784542  0.227849  1
  Mg  Mg9  1  0.298995  0.298995  0.569869  1
  Mg  Mg10  1  0.701005  0.701005  0.430131  1
  Mg  Mg11  1  0.575043  0.575043  0.751040  1
  Mg  Mg12  1  0.424957  0.424957  0.248960  1
  Ge  Ge13  1  0.064682  0.064682  0.846547  1
  Ge  Ge14  1  0.935318  0.935318  0.153453  1
  Ge  Ge15  1  0.275341  0.275341  0.365088  1
  Ge  Ge16  1  0.724659  0.724659  0.634912  1
  Ge  Ge17  1  0.334738  0.334738  0.894234  1
  Ge  Ge18  1  0.665262  0.665262  0.105766  1
  Ge  Ge19  1  0.464093  0.464093  0.588059  1
  Ge  Ge20  1  0.535907  0.535907  0.411941  1
