# generated using pymatgen
data_La6PrTm3(Sn3Cl)2
_symmetry_space_group_name_H-M   'P 1'
_cell_length_a   9.48250000
_cell_length_b   9.48249909
_cell_length_c   6.76291100
_cell_angle_alpha   90.00000000
_cell_angle_beta   90.00000000
_cell_angle_gamma   119.99998921
_symmetry_Int_Tables_number   1
_chemical_formula_structural   La6PrTm3(Sn3Cl)2
_chemical_formula_sum   'La6 Pr1 Tm3 Sn6 Cl2'
_cell_volume   526.63535593
_cell_formula_units_Z   1
loop_
 _symmetry_equiv_pos_site_id
 _symmetry_equiv_pos_as_xyz
  1  'x, y, z'
loop_
 _atom_site_type_symbol
 _atom_site_label
 _atom_site_symmetry_multiplicity
 _atom_site_fract_x
 _atom_site_fract_y
 _atom_site_fract_z
 _atom_site_occupancy
  La  La0  1  0.737253  0.000267  0.749208  1
  La  La1  1  0.737253  0.736985  0.250792  1
  La  La2  1  0.999733  0.262747  0.250792  1
  La  La3  1  0.999733  0.736985  0.749208  1
  La  La4  1  0.263015  0.262747  0.749208  1
  La  La5  1  0.263015  0.000267  0.250792  1
  Pr  Pr6  1  0.333333  0.666667  0.000000  1
  Tm  Tm7  1  0.666667  0.333333  0.000000  1
  Tm  Tm8  1  0.333333  0.666667  0.500000  1
  Tm  Tm9  1  0.666667  0.333333  0.500000  1
  Sn  Sn10  1  0.610576  0.606793  0.747174  1
  Sn  Sn11  1  0.996217  0.606793  0.252826  1
  Sn  Sn12  1  0.610576  0.003783  0.252826  1
  Sn  Sn13  1  0.393207  0.003783  0.747174  1
  Sn  Sn14  1  0.996217  0.389424  0.747174  1
  Sn  Sn15  1  0.393207  0.389424  0.252826  1
  Cl  Cl16  1  0.000000  0.000000  0.500000  1
  Cl  Cl17  1  0.000000  0.000000  0.000000  1
