# generated using pymatgen
data_Ti5Nb3Cr2(Si3C)2
_symmetry_space_group_name_H-M   'P 1'
_cell_length_a   7.42185500
_cell_length_b   7.42185477
_cell_length_c   5.09243700
_cell_angle_alpha   90.00000000
_cell_angle_beta   90.00000000
_cell_angle_gamma   119.99999655
_symmetry_Int_Tables_number   1
_chemical_formula_structural   Ti5Nb3Cr2(Si3C)2
_chemical_formula_sum   'Ti5 Nb3 Cr2 Si6 C2'
_cell_volume   242.93004415
_cell_formula_units_Z   1
loop_
 _symmetry_equiv_pos_site_id
 _symmetry_equiv_pos_as_xyz
  1  'x, y, z'
loop_
 _atom_site_type_symbol
 _atom_site_label
 _atom_site_symmetry_multiplicity
 _atom_site_fract_x
 _atom_site_fract_y
 _atom_site_fract_z
 _atom_site_occupancy
  Ti  Ti0  1  0.666667  0.333333  0.997679  1
  Ti  Ti1  1  0.333333  0.666667  0.997679  1
  Ti  Ti2  1  0.765076  0.765076  0.751425  1
  Ti  Ti3  1  0.234924  0.000000  0.751425  1
  Ti  Ti4  1  0.000000  0.234924  0.751425  1
  Nb  Nb5  1  0.239252  0.239252  0.245406  1
  Nb  Nb6  1  0.760748  0.000000  0.245406  1
  Nb  Nb7  1  0.000000  0.760748  0.245406  1
  Cr  Cr8  1  0.333333  0.666667  0.502002  1
  Cr  Cr9  1  0.666667  0.333333  0.502002  1
  Si  Si10  1  0.412727  0.412727  0.730187  1
  Si  Si11  1  0.587273  0.000000  0.730187  1
  Si  Si12  1  0.000000  0.587273  0.730187  1
  Si  Si13  1  0.589935  0.589935  0.273002  1
  Si  Si14  1  0.410065  0.000000  0.273002  1
  Si  Si15  1  0.000000  0.410065  0.273002  1
  C  C16  1  0.000000  0.000000  0.995407  1
  C  C17  1  0.000000  0.000000  0.505170  1
