# generated using pymatgen
data_Ca9Pr8Ho3Si16
_symmetry_space_group_name_H-M   'P 1'
_cell_length_a   7.52001443
_cell_length_b   7.94792572
_cell_length_c   15.11133829
_cell_angle_alpha   89.95791436
_cell_angle_beta   90.06463168
_cell_angle_gamma   89.97549377
_symmetry_Int_Tables_number   1
_chemical_formula_structural   Ca9Pr8Ho3Si16
_chemical_formula_sum   'Ca9 Pr8 Ho3 Si16'
_cell_volume   903.18136528
_cell_formula_units_Z   1
loop_
 _symmetry_equiv_pos_site_id
 _symmetry_equiv_pos_as_xyz
  1  'x, y, z'
loop_
 _atom_site_type_symbol
 _atom_site_label
 _atom_site_symmetry_multiplicity
 _atom_site_fract_x
 _atom_site_fract_y
 _atom_site_fract_z
 _atom_site_occupancy
  Ca  Ca0  1  0.645985  0.996144  0.249491  1
  Ca  Ca1  1  0.150530  0.502727  0.249078  1
  Ca  Ca2  1  0.850612  0.494637  0.749862  1
  Ca  Ca3  1  0.350229  0.005187  0.749953  1
  Ca  Ca4  1  0.680691  0.818666  0.878215  1
  Ca  Ca5  1  0.181182  0.680111  0.620528  1
  Ca  Ca6  1  0.819336  0.320310  0.121149  1
  Ca  Ca7  1  0.319554  0.180918  0.379722  1
  Ca  Ca8  1  0.318070  0.179472  0.121947  1
  Pr  Pr9  1  0.972902  0.815928  0.098631  1
  Pr  Pr10  1  0.472940  0.684312  0.402497  1
  Pr  Pr11  1  0.526597  0.315024  0.902277  1
  Pr  Pr12  1  0.026454  0.183498  0.597985  1
  Pr  Pr13  1  0.027533  0.185238  0.899357  1
  Pr  Pr14  1  0.528029  0.314387  0.599730  1
  Pr  Pr15  1  0.472261  0.686447  0.099580  1
  Pr  Pr16  1  0.972015  0.814516  0.401071  1
  Ho  Ho17  1  0.821393  0.318675  0.376437  1
  Ho  Ho18  1  0.180752  0.680295  0.875688  1
  Ho  Ho19  1  0.680317  0.819566  0.623636  1
  Si  Si20  1  0.761179  0.621609  0.252799  1
  Si  Si21  1  0.255491  0.876318  0.251023  1
  Si  Si22  1  0.741060  0.119646  0.747609  1
  Si  Si23  1  0.240877  0.380095  0.751880  1
  Si  Si24  1  0.026717  0.097189  0.253133  1
  Si  Si25  1  0.534604  0.404482  0.254074  1
  Si  Si26  1  0.469277  0.600347  0.750405  1
  Si  Si27  1  0.968916  0.899408  0.749077  1
  Si  Si28  1  0.863941  0.529377  0.959887  1
  Si  Si29  1  0.365960  0.971392  0.539617  1
  Si  Si30  1  0.639949  0.027191  0.036856  1
  Si  Si31  1  0.134314  0.470731  0.460909  1
  Si  Si32  1  0.149100  0.475927  0.033965  1
  Si  Si33  1  0.654073  0.032718  0.465594  1
  Si  Si34  1  0.351105  0.965063  0.961550  1
  Si  Si35  1  0.846055  0.532448  0.534787  1
