# generated using pymatgen
data_La4Cd2Si3Ge
_symmetry_space_group_name_H-M   'P 1'
_cell_length_a   7.56642116
_cell_length_b   7.56641999
_cell_length_c   4.45263000
_cell_angle_alpha   90.00000000
_cell_angle_beta   90.00000000
_cell_angle_gamma   89.79855110
_symmetry_Int_Tables_number   1
_chemical_formula_structural   La4Cd2Si3Ge
_chemical_formula_sum   'La4 Cd2 Si3 Ge1'
_cell_volume   254.91469909
_cell_formula_units_Z   1
loop_
 _symmetry_equiv_pos_site_id
 _symmetry_equiv_pos_as_xyz
  1  'x, y, z'
loop_
 _atom_site_type_symbol
 _atom_site_label
 _atom_site_symmetry_multiplicity
 _atom_site_fract_x
 _atom_site_fract_y
 _atom_site_fract_z
 _atom_site_occupancy
  La  La0  1  0.679616  0.179616  0.500000  1
  La  La1  1  0.321185  0.821185  0.500000  1
  La  La2  1  0.180085  0.317898  0.500000  1
  La  La3  1  0.817898  0.680085  0.500000  1
  Cd  Cd4  1  0.998110  0.003679  0.000000  1
  Cd  Cd5  1  0.503679  0.498110  0.000000  1
  Si  Si6  1  0.884502  0.384502  0.000000  1
  Si  Si7  1  0.612290  0.887663  0.000000  1
  Si  Si8  1  0.387663  0.112290  0.000000  1
  Ge  Ge9  1  0.114972  0.614972  0.000000  1
