# generated using pymatgen
data_HfZr5(GaN)2
_symmetry_space_group_name_H-M   'P 1'
_cell_length_a   5.97405296
_cell_length_b   5.97405237
_cell_length_c   8.81874400
_cell_angle_alpha   90.00000000
_cell_angle_beta   90.00000000
_cell_angle_gamma   146.73410673
_symmetry_Int_Tables_number   1
_chemical_formula_structural   HfZr5(GaN)2
_chemical_formula_sum   'Hf1 Zr5 Ga2 N2'
_cell_volume   172.63999021
_cell_formula_units_Z   1
loop_
 _symmetry_equiv_pos_site_id
 _symmetry_equiv_pos_as_xyz
  1  'x, y, z'
loop_
 _atom_site_type_symbol
 _atom_site_label
 _atom_site_symmetry_multiplicity
 _atom_site_fract_x
 _atom_site_fract_y
 _atom_site_fract_z
 _atom_site_occupancy
  Hf  Hf0  1  0.949085  0.050914  0.750001  1
  Zr  Zr1  1  0.372975  0.627023  0.047749  1
  Zr  Zr2  1  0.051101  0.948898  0.250001  1
  Zr  Zr3  1  0.372975  0.627023  0.452252  1
  Zr  Zr4  1  0.626664  0.373334  0.549513  1
  Zr  Zr5  1  0.626664  0.373334  0.950488  1
  Ga  Ga6  1  0.745921  0.254078  0.250001  1
  Ga  Ga7  1  0.255897  0.744102  0.750001  1
  N  N8  1  0.999356  0.000644  0.996754  1
  N  N9  1  0.999356  0.000644  0.503246  1
