# generated using pymatgen
data_Th5P12Ru18Pt
_symmetry_space_group_name_H-M   'P 1'
_cell_length_a   12.74931512
_cell_length_b   12.64890379
_cell_length_c   4.02005500
_cell_angle_alpha   90.00000000
_cell_angle_beta   90.00000000
_cell_angle_gamma   119.73981272
_symmetry_Int_Tables_number   1
_chemical_formula_structural   Th5P12Ru18Pt
_chemical_formula_sum   'Th5 P12 Ru18 Pt1'
_cell_volume   562.90493058
_cell_formula_units_Z   1
loop_
 _symmetry_equiv_pos_site_id
 _symmetry_equiv_pos_as_xyz
  1  'x, y, z'
loop_
 _atom_site_type_symbol
 _atom_site_label
 _atom_site_symmetry_multiplicity
 _atom_site_fract_x
 _atom_site_fract_y
 _atom_site_fract_z
 _atom_site_occupancy
  Th  Th0  1  0.000000  0.185193  0.500000  1
  Th  Th1  1  0.812405  0.811779  0.500000  1
  Th  Th2  1  0.187595  0.999375  0.500000  1
  Th  Th3  1  0.662273  0.330651  0.000000  1
  Th  Th4  1  0.337727  0.668379  0.000000  1
  P  P5  1  0.000000  0.811113  0.000000  1
  P  P6  1  0.185153  0.185883  0.000000  1
  P  P7  1  0.814847  0.000731  0.000000  1
  P  P8  1  0.694233  0.171828  0.500000  1
  P  P9  1  0.819050  0.521397  0.500000  1
  P  P10  1  0.473852  0.305800  0.500000  1
  P  P11  1  0.180950  0.702347  0.500000  1
  P  P12  1  0.526148  0.831946  0.500000  1
  P  P13  1  0.305767  0.477595  0.500000  1
  P  P14  1  0.000000  0.366807  0.000000  1
  P  P15  1  0.624202  0.624615  0.000000  1
  P  P16  1  0.375798  0.000413  0.000000  1
  Ru  Ru17  1  0.443959  0.445625  0.000000  1
  Ru  Ru18  1  0.556041  0.001666  0.000000  1
  Ru  Ru19  1  0.000000  0.709236  0.500000  1
  Ru  Ru20  1  0.283222  0.284946  0.500000  1
  Ru  Ru21  1  0.716778  0.001724  0.500000  1
  Ru  Ru22  1  0.806328  0.185125  0.000000  1
  Ru  Ru23  1  0.816506  0.620653  0.000000  1
  Ru  Ru24  1  0.374620  0.192311  0.000000  1
  Ru  Ru25  1  0.183494  0.804147  0.000000  1
  Ru  Ru26  1  0.625380  0.817691  0.000000  1
  Ru  Ru27  1  0.193672  0.378798  0.000000  1
  Ru  Ru28  1  0.872834  0.368464  0.500000  1
  Ru  Ru29  1  0.629978  0.508512  0.500000  1
  Ru  Ru30  1  0.493339  0.128035  0.500000  1
  Ru  Ru31  1  0.370022  0.878534  0.500000  1
  Ru  Ru32  1  0.506661  0.634695  0.500000  1
  Ru  Ru33  1  0.127166  0.495631  0.500000  1
  Ru  Ru34  1  0.000000  0.997800  0.000000  1
  Pt  Pt35  1  0.000000  0.550558  0.000000  1
