# generated using pymatgen
data_Dy5HoNi20P13
_symmetry_space_group_name_H-M   'P 1'
_cell_length_a   12.64806301
_cell_length_b   12.64347663
_cell_length_c   3.75762600
_cell_angle_alpha   90.00000000
_cell_angle_beta   90.00000000
_cell_angle_gamma   120.00706393
_symmetry_Int_Tables_number   1
_chemical_formula_structural   Dy5HoNi20P13
_chemical_formula_sum   'Dy5 Ho1 Ni20 P13'
_cell_volume   520.35987020
_cell_formula_units_Z   1
loop_
 _symmetry_equiv_pos_site_id
 _symmetry_equiv_pos_as_xyz
  1  'x, y, z'
loop_
 _atom_site_type_symbol
 _atom_site_label
 _atom_site_symmetry_multiplicity
 _atom_site_fract_x
 _atom_site_fract_y
 _atom_site_fract_z
 _atom_site_occupancy
  Dy  Dy0  1  0.188277  0.470239  0.000000  1
  Dy  Dy1  1  0.529583  0.717824  0.000000  1
  Dy  Dy2  1  0.282129  0.811745  0.000000  1
  Dy  Dy3  1  0.811931  0.530246  0.500000  1
  Dy  Dy4  1  0.469542  0.281557  0.500000  1
  Ho  Ho5  1  0.718378  0.188047  0.500000  1
  Ni  Ni6  1  0.091376  0.195942  0.000000  1
  Ni  Ni7  1  0.804059  0.895788  0.000000  1
  Ni  Ni8  1  0.104512  0.908568  0.000000  1
  Ni  Ni9  1  0.333313  0.666649  0.500000  1
  Ni  Ni10  1  0.921578  0.073055  0.500000  1
  Ni  Ni11  1  0.926980  0.848597  0.500000  1
  Ni  Ni12  1  0.151406  0.078467  0.500000  1
  Ni  Ni13  1  0.666745  0.333153  0.000000  1
  Ni  Ni14  1  0.416731  0.438225  0.000000  1
  Ni  Ni15  1  0.562209  0.978942  0.000000  1
  Ni  Ni16  1  0.021371  0.583146  0.000000  1
  Ni  Ni17  1  0.246810  0.317374  0.500000  1
  Ni  Ni18  1  0.682646  0.929628  0.500000  1
  Ni  Ni19  1  0.070575  0.753115  0.500000  1
  Ni  Ni20  1  0.434801  0.021904  0.500000  1
  Ni  Ni21  1  0.978024  0.412770  0.500000  1
  Ni  Ni22  1  0.587165  0.565288  0.500000  1
  Ni  Ni23  1  0.921322  0.241646  0.000000  1
  Ni  Ni24  1  0.758073  0.679789  0.000000  1
  Ni  Ni25  1  0.320374  0.078336  0.000000  1
  P  P26  1  0.386790  0.523876  0.500000  1
  P  P27  1  0.476095  0.862899  0.500000  1
  P  P28  1  0.137045  0.613135  0.500000  1
  P  P29  1  0.047011  0.279195  0.500000  1
  P  P30  1  0.720890  0.767870  0.500000  1
  P  P31  1  0.232298  0.953140  0.500000  1
  P  P32  1  0.523490  0.137641  0.000000  1
  P  P33  1  0.862178  0.385098  0.000000  1
  P  P34  1  0.614441  0.476834  0.000000  1
  P  P35  1  0.765103  0.048482  0.000000  1
  P  P36  1  0.951807  0.716997  0.000000  1
  P  P37  1  0.282986  0.234831  0.000000  1
  P  P38  1  0.999952  0.999964  0.000000  1
