# generated using pymatgen
data_Dy4ErCr3(P3Ir4)4
_symmetry_space_group_name_H-M   'P 1'
_cell_length_a   12.63142400
_cell_length_b   12.63142481
_cell_length_c   3.95587300
_cell_angle_alpha   90.00000000
_cell_angle_beta   90.00000000
_cell_angle_gamma   119.99999789
_symmetry_Int_Tables_number   1
_chemical_formula_structural   Dy4ErCr3(P3Ir4)4
_chemical_formula_sum   'Dy4 Er1 Cr3 P12 Ir16'
_cell_volume   546.61007955
_cell_formula_units_Z   1
loop_
 _symmetry_equiv_pos_site_id
 _symmetry_equiv_pos_as_xyz
  1  'x, y, z'
loop_
 _atom_site_type_symbol
 _atom_site_label
 _atom_site_symmetry_multiplicity
 _atom_site_fract_x
 _atom_site_fract_y
 _atom_site_fract_z
 _atom_site_occupancy
  Dy  Dy0  1  0.666667  0.333333  0.500000  1
  Dy  Dy1  1  0.999997  0.810621  0.000000  1
  Dy  Dy2  1  0.189379  0.189376  0.000000  1
  Dy  Dy3  1  0.810624  0.000003  0.000000  1
  Er  Er4  1  0.333333  0.666667  0.500000  1
  Cr  Cr5  1  0.000008  0.453465  0.500000  1
  Cr  Cr6  1  0.546535  0.546543  0.500000  1
  Cr  Cr7  1  0.453457  0.999992  0.500000  1
  P  P8  1  0.999966  0.632385  0.500000  1
  P  P9  1  0.367615  0.367581  0.500000  1
  P  P10  1  0.632419  0.000034  0.500000  1
  P  P11  1  0.516015  0.684237  0.000000  1
  P  P12  1  0.315763  0.831779  0.000000  1
  P  P13  1  0.168221  0.483985  0.000000  1
  P  P14  1  0.483767  0.168010  0.000000  1
  P  P15  1  0.684243  0.516233  0.000000  1
  P  P16  1  0.831990  0.315757  0.000000  1
  P  P17  1  0.000011  0.177698  0.500000  1
  P  P18  1  0.822302  0.822313  0.500000  1
  P  P19  1  0.177687  0.999989  0.500000  1
  Ir  Ir20  1  0.509054  0.868199  0.000000  1
  Ir  Ir21  1  0.131801  0.640856  0.000000  1
  Ir  Ir22  1  0.359144  0.490946  0.000000  1
  Ir  Ir23  1  0.490591  0.359189  0.000000  1
  Ir  Ir24  1  0.868599  0.509409  0.000000  1
  Ir  Ir25  1  0.640811  0.131401  0.000000  1
  Ir  Ir26  1  0.000032  0.287233  0.000000  1
  Ir  Ir27  1  0.712767  0.712799  0.000000  1
  Ir  Ir28  1  0.287201  0.999968  0.000000  1
  Ir  Ir29  1  0.623612  0.802682  0.500000  1
  Ir  Ir30  1  0.197318  0.820930  0.500000  1
  Ir  Ir31  1  0.179070  0.376388  0.500000  1
  Ir  Ir32  1  0.376244  0.178982  0.500000  1
  Ir  Ir33  1  0.802738  0.623756  0.500000  1
  Ir  Ir34  1  0.821018  0.197262  0.500000  1
  Ir  Ir35  1  0.000000  0.000000  0.500000  1
