# generated using pymatgen
data_Hf5Ta(ReGe)6
_symmetry_space_group_name_H-M   'P 1'
_cell_length_a   7.84583579
_cell_length_b   7.84658704
_cell_length_c   7.84583572
_cell_angle_alpha   126.28902747
_cell_angle_beta   128.36588701
_cell_angle_gamma   77.72662663
_symmetry_Int_Tables_number   1
_chemical_formula_structural   Hf5Ta(ReGe)6
_chemical_formula_sum   'Hf5 Ta1 Re6 Ge6'
_cell_volume   295.96218126
_cell_formula_units_Z   1
loop_
 _symmetry_equiv_pos_site_id
 _symmetry_equiv_pos_as_xyz
  1  'x, y, z'
loop_
 _atom_site_type_symbol
 _atom_site_label
 _atom_site_symmetry_multiplicity
 _atom_site_fract_x
 _atom_site_fract_y
 _atom_site_fract_z
 _atom_site_occupancy
  Hf  Hf0  1  0.550402  0.091948  0.041546  1
  Hf  Hf1  1  0.452060  0.499584  0.547525  1
  Hf  Hf2  1  0.949630  0.491146  0.041516  1
  Hf  Hf3  1  0.047953  0.095457  0.547506  1
  Hf  Hf4  1  0.750007  0.899741  0.649734  1
  Ta  Ta5  1  0.250029  0.900817  0.150787  1
  Re  Re6  1  0.496567  0.237131  0.733748  1
  Re  Re7  1  0.003383  0.237131  0.240565  1
  Re  Re8  1  0.129396  0.756404  0.628816  1
  Re  Re9  1  0.872378  0.499310  0.628690  1
  Re  Re10  1  0.627589  0.756404  0.127008  1
  Re  Re11  1  0.370620  0.499310  0.126932  1
  Ge  Ge12  1  0.750036  0.496140  0.246104  1
  Ge  Ge13  1  0.250014  0.498703  0.748689  1
  Ge  Ge14  1  0.330066  0.829474  0.492014  1
  Ge  Ge15  1  0.662520  0.162011  0.492120  1
  Ge  Ge16  1  0.837460  0.829474  0.999409  1
  Ge  Ge17  1  0.169892  0.162011  0.999492  1
