# generated using pymatgen
data_Ti13Al10Ru7
_symmetry_space_group_name_H-M   'P 1'
_cell_length_a   8.74104101
_cell_length_b   8.74103986
_cell_length_c   8.74104100
_cell_angle_alpha   59.82631658
_cell_angle_beta   59.82631340
_cell_angle_gamma   59.82632767
_symmetry_Int_Tables_number   1
_chemical_formula_structural   Ti13Al10Ru7
_chemical_formula_sum   'Ti13 Al10 Ru7'
_cell_volume   470.39101796
_cell_formula_units_Z   1
loop_
 _symmetry_equiv_pos_site_id
 _symmetry_equiv_pos_as_xyz
  1  'x, y, z'
loop_
 _atom_site_type_symbol
 _atom_site_label
 _atom_site_symmetry_multiplicity
 _atom_site_fract_x
 _atom_site_fract_y
 _atom_site_fract_z
 _atom_site_occupancy
  Ti  Ti0  1  0.219036  0.219036  0.781092  1
  Ti  Ti1  1  0.781092  0.219036  0.219036  1
  Ti  Ti2  1  0.219036  0.781092  0.219036  1
  Ti  Ti3  1  0.786938  0.786938  0.200585  1
  Ti  Ti4  1  0.200585  0.786938  0.786938  1
  Ti  Ti5  1  0.786938  0.200585  0.786938  1
  Ti  Ti6  1  0.379294  0.379294  0.379294  1
  Ti  Ti7  1  0.379003  0.864117  0.379003  1
  Ti  Ti8  1  0.864117  0.379003  0.379003  1
  Ti  Ti9  1  0.379003  0.379003  0.864117  1
  Ti  Ti10  1  0.842490  0.472314  0.842490  1
  Ti  Ti11  1  0.472314  0.842490  0.842490  1
  Ti  Ti12  1  0.842490  0.842490  0.472314  1
  Al  Al13  1  0.154514  0.154514  0.154514  1
  Al  Al14  1  0.155909  0.535617  0.155909  1
  Al  Al15  1  0.535617  0.155909  0.155909  1
  Al  Al16  1  0.155909  0.155909  0.535617  1
  Al  Al17  1  0.618044  0.618044  0.618044  1
  Al  Al18  1  0.619652  0.143849  0.619652  1
  Al  Al19  1  0.143849  0.619652  0.619652  1
  Al  Al20  1  0.619652  0.619652  0.143849  1
  Al  Al21  1  0.834346  0.834346  0.834346  1
  Al  Al22  1  0.002974  0.002974  0.002974  1
  Ru  Ru23  1  0.001469  0.001469  0.499717  1
  Ru  Ru24  1  0.499717  0.001469  0.001469  1
  Ru  Ru25  1  0.001469  0.499717  0.001469  1
  Ru  Ru26  1  0.501774  0.501774  0.000972  1
  Ru  Ru27  1  0.000972  0.501774  0.501774  1
  Ru  Ru28  1  0.501774  0.000972  0.501774  1
  Ru  Ru29  1  0.500024  0.500024  0.500024  1
