# generated using pymatgen
data_RbNb8VSe16
_symmetry_space_group_name_H-M   'P 1'
_cell_length_a   7.00275900
_cell_length_b   7.00275995
_cell_length_c   15.33327900
_cell_angle_alpha   90.00000000
_cell_angle_beta   90.00000000
_cell_angle_gamma   120.00000023
_symmetry_Int_Tables_number   1
_chemical_formula_structural   RbNb8VSe16
_chemical_formula_sum   'Rb1 Nb8 V1 Se16'
_cell_volume   651.18455073
_cell_formula_units_Z   1
loop_
 _symmetry_equiv_pos_site_id
 _symmetry_equiv_pos_as_xyz
  1  'x, y, z'
loop_
 _atom_site_type_symbol
 _atom_site_label
 _atom_site_symmetry_multiplicity
 _atom_site_fract_x
 _atom_site_fract_y
 _atom_site_fract_z
 _atom_site_occupancy
  Rb  Rb0  1  0.000000  0.000000  0.000000  1
  Nb  Nb1  1  0.000000  0.000000  0.289041  1
  Nb  Nb2  1  0.000000  0.000000  0.710959  1
  Nb  Nb3  1  0.507656  0.015311  0.290407  1
  Nb  Nb4  1  0.492344  0.984689  0.709593  1
  Nb  Nb5  1  0.984689  0.492344  0.290407  1
  Nb  Nb6  1  0.015311  0.507656  0.709593  1
  Nb  Nb7  1  0.507656  0.492344  0.290407  1
  Nb  Nb8  1  0.492344  0.507656  0.709593  1
  V  V9  1  0.000000  0.000000  0.500000  1
  Se  Se10  1  0.333333  0.666667  0.597277  1
  Se  Se11  1  0.666667  0.333333  0.402723  1
  Se  Se12  1  0.666667  0.333333  0.176670  1
  Se  Se13  1  0.333333  0.666667  0.823330  1
  Se  Se14  1  0.168694  0.337388  0.182016  1
  Se  Se15  1  0.831306  0.662612  0.817984  1
  Se  Se16  1  0.662612  0.831306  0.182016  1
  Se  Se17  1  0.833000  0.665999  0.602164  1
  Se  Se18  1  0.337388  0.168694  0.817984  1
  Se  Se19  1  0.167000  0.334001  0.397836  1
  Se  Se20  1  0.168694  0.831306  0.182016  1
  Se  Se21  1  0.334001  0.167000  0.602164  1
  Se  Se22  1  0.831306  0.168694  0.817984  1
  Se  Se23  1  0.665999  0.833000  0.397836  1
  Se  Se24  1  0.833000  0.167000  0.602164  1
  Se  Se25  1  0.167000  0.833000  0.397836  1
