# generated using pymatgen
data_Lu4Re3Os5
_symmetry_space_group_name_H-M   'P 1'
_cell_length_a   5.29435962
_cell_length_b   5.32843059
_cell_length_c   8.80918800
_cell_angle_alpha   90.00000000
_cell_angle_beta   90.00000000
_cell_angle_gamma   120.21309206
_symmetry_Int_Tables_number   1
_chemical_formula_structural   Lu4Re3Os5
_chemical_formula_sum   'Lu4 Re3 Os5'
_cell_volume   214.75471529
_cell_formula_units_Z   1
loop_
 _symmetry_equiv_pos_site_id
 _symmetry_equiv_pos_as_xyz
  1  'x, y, z'
loop_
 _atom_site_type_symbol
 _atom_site_label
 _atom_site_symmetry_multiplicity
 _atom_site_fract_x
 _atom_site_fract_y
 _atom_site_fract_z
 _atom_site_occupancy
  Lu  Lu0  1  0.338085  0.669043  0.434172  1
  Lu  Lu1  1  0.667634  0.333817  0.563600  1
  Lu  Lu2  1  0.667634  0.333817  0.936400  1
  Lu  Lu3  1  0.338085  0.669043  0.065828  1
  Re  Re4  1  0.163996  0.339512  0.750000  1
  Re  Re5  1  0.163996  0.824485  0.750000  1
  Re  Re6  1  0.338536  0.169268  0.250000  1
  Os  Os7  1  0.820536  0.650262  0.250000  1
  Os  Os8  1  0.642759  0.821380  0.750000  1
  Os  Os9  1  0.019101  0.009551  0.000254  1
  Os  Os10  1  0.820536  0.170273  0.250000  1
  Os  Os11  1  0.019101  0.009551  0.499746  1
