# generated using pymatgen
data_TbDy15In4Ir3Rh
_symmetry_space_group_name_H-M   'P 1'
_cell_length_a   9.66194086
_cell_length_b   9.66194046
_cell_length_c   9.66193979
_cell_angle_alpha   60.12992209
_cell_angle_beta   60.12992288
_cell_angle_gamma   60.12992195
_symmetry_Int_Tables_number   1
_chemical_formula_structural   TbDy15In4Ir3Rh
_chemical_formula_sum   'Tb1 Dy15 In4 Ir3 Rh1'
_cell_volume   639.66769263
_cell_formula_units_Z   1
loop_
 _symmetry_equiv_pos_site_id
 _symmetry_equiv_pos_as_xyz
  1  'x, y, z'
loop_
 _atom_site_type_symbol
 _atom_site_label
 _atom_site_symmetry_multiplicity
 _atom_site_fract_x
 _atom_site_fract_y
 _atom_site_fract_z
 _atom_site_occupancy
  Tb  Tb0  1  0.597893  0.597893  0.597893  1
  Dy  Dy1  1  0.601008  0.601008  0.201542  1
  Dy  Dy2  1  0.601008  0.201542  0.601008  1
  Dy  Dy3  1  0.201542  0.601008  0.601008  1
  Dy  Dy4  1  0.058407  0.440111  0.440111  1
  Dy  Dy5  1  0.439625  0.059205  0.059205  1
  Dy  Dy6  1  0.440111  0.058407  0.440111  1
  Dy  Dy7  1  0.059205  0.439625  0.059205  1
  Dy  Dy8  1  0.440111  0.440111  0.058407  1
  Dy  Dy9  1  0.059205  0.059205  0.439625  1
  Dy  Dy10  1  0.189320  0.811272  0.811272  1
  Dy  Dy11  1  0.812094  0.189645  0.189645  1
  Dy  Dy12  1  0.811272  0.189320  0.811272  1
  Dy  Dy13  1  0.189645  0.812094  0.189645  1
  Dy  Dy14  1  0.811272  0.811272  0.189320  1
  Dy  Dy15  1  0.189645  0.189645  0.812094  1
  In  In16  1  0.833240  0.833240  0.833240  1
  In  In17  1  0.832674  0.832674  0.501367  1
  In  In18  1  0.832674  0.501367  0.832674  1
  In  In19  1  0.501367  0.832674  0.832674  1
  Ir  Ir20  1  0.390686  0.390686  0.825805  1
  Ir  Ir21  1  0.390686  0.825805  0.390686  1
  Ir  Ir22  1  0.825805  0.390686  0.390686  1
  Rh  Rh23  1  0.391510  0.391510  0.391510  1
