# generated using pymatgen
data_Sr13Sm(Eu3Pt8)2
_symmetry_space_group_name_H-M   'P 1'
_cell_length_a   7.95646097
_cell_length_b   8.08111371
_cell_length_c   15.35226600
_cell_angle_alpha   90.00893351
_cell_angle_beta   89.89654082
_cell_angle_gamma   90.05421975
_symmetry_Int_Tables_number   1
_chemical_formula_structural   Sr13Sm(Eu3Pt8)2
_chemical_formula_sum   'Sr13 Sm1 Eu6 Pt16'
_cell_volume   987.10359533
_cell_formula_units_Z   1
loop_
 _symmetry_equiv_pos_site_id
 _symmetry_equiv_pos_as_xyz
  1  'x, y, z'
loop_
 _atom_site_type_symbol
 _atom_site_label
 _atom_site_symmetry_multiplicity
 _atom_site_fract_x
 _atom_site_fract_y
 _atom_site_fract_z
 _atom_site_occupancy
  Sr  Sr0  1  0.836975  0.670491  0.880580  1
  Sr  Sr1  1  0.493846  0.322250  0.902478  1
  Sr  Sr2  1  0.995300  0.178117  0.594519  1
  Sr  Sr3  1  0.504969  0.677644  0.405050  1
  Sr  Sr4  1  0.007434  0.819732  0.097540  1
  Sr  Sr5  1  0.504428  0.677685  0.095426  1
  Sr  Sr6  1  0.004068  0.821969  0.405786  1
  Sr  Sr7  1  0.496543  0.321377  0.594319  1
  Sr  Sr8  1  0.995496  0.179584  0.905836  1
  Sr  Sr9  1  0.173630  0.488719  0.748137  1
  Sr  Sr10  1  0.679188  0.010513  0.748687  1
  Sr  Sr11  1  0.824037  0.510328  0.251115  1
  Sr  Sr12  1  0.323429  0.988011  0.251356  1
  Sm  Sm13  1  0.336113  0.832018  0.876195  1
  Eu  Eu14  1  0.835681  0.667438  0.620808  1
  Eu  Eu15  1  0.663088  0.168275  0.378632  1
  Eu  Eu16  1  0.164998  0.330322  0.122082  1
  Eu  Eu17  1  0.662451  0.168095  0.121936  1
  Eu  Eu18  1  0.162707  0.331059  0.378977  1
  Eu  Eu19  1  0.337825  0.831215  0.620619  1
  Pt  Pt20  1  0.327713  0.034467  0.035147  1
  Pt  Pt21  1  0.834316  0.460228  0.461525  1
  Pt  Pt22  1  0.666321  0.960810  0.538356  1
  Pt  Pt23  1  0.178035  0.546921  0.961640  1
  Pt  Pt24  1  0.647782  0.969531  0.958442  1
  Pt  Pt25  1  0.164021  0.537577  0.539202  1
  Pt  Pt26  1  0.336080  0.038676  0.461160  1
  Pt  Pt27  1  0.844169  0.458983  0.043405  1
  Pt  Pt28  1  0.538689  0.625808  0.751361  1
  Pt  Pt29  1  0.052644  0.877634  0.748360  1
  Pt  Pt30  1  0.454176  0.374971  0.250339  1
  Pt  Pt31  1  0.954245  0.121835  0.250609  1
  Pt  Pt32  1  0.295373  0.119254  0.752768  1
  Pt  Pt33  1  0.784852  0.379766  0.746324  1
  Pt  Pt34  1  0.708878  0.879354  0.250588  1
  Pt  Pt35  1  0.210502  0.619344  0.250698  1
