# generated using pymatgen
data_Ta2NbCo(BRu2)2
_symmetry_space_group_name_H-M   'P 1'
_cell_length_a   9.26433169
_cell_length_b   9.26433169
_cell_length_c   3.04549400
_cell_angle_alpha   90.00000000
_cell_angle_beta   90.00000000
_cell_angle_gamma   90.18206104
_symmetry_Int_Tables_number   1
_chemical_formula_structural   Ta2NbCo(BRu2)2
_chemical_formula_sum   'Ta4 Nb2 Co2 B4 Ru8'
_cell_volume   261.38685736
_cell_formula_units_Z   2
loop_
 _symmetry_equiv_pos_site_id
 _symmetry_equiv_pos_as_xyz
  1  'x, y, z'
loop_
 _atom_site_type_symbol
 _atom_site_label
 _atom_site_symmetry_multiplicity
 _atom_site_fract_x
 _atom_site_fract_y
 _atom_site_fract_z
 _atom_site_occupancy
  Ta  Ta0  1  0.325982  0.825982  0.000000  1
  Ta  Ta1  1  0.674018  0.174018  0.000000  1
  Ta  Ta2  1  0.500000  0.500000  0.000000  1
  Ta  Ta3  1  0.000000  0.000000  0.000000  1
  Nb  Nb4  1  0.825703  0.674297  0.000000  1
  Nb  Nb5  1  0.174297  0.325703  0.000000  1
  Co  Co6  1  0.500000  0.000000  0.500000  1
  Co  Co7  1  0.000000  0.500000  0.500000  1
  B  B8  1  0.605962  0.894038  0.000000  1
  B  B9  1  0.394038  0.105962  0.000000  1
  B  B10  1  0.106466  0.606466  0.000000  1
  B  B11  1  0.893534  0.393534  0.000000  1
  Ru  Ru12  1  0.566136  0.724825  0.500000  1
  Ru  Ru13  1  0.433864  0.275175  0.500000  1
  Ru  Ru14  1  0.066934  0.775787  0.500000  1
  Ru  Ru15  1  0.933066  0.224213  0.500000  1
  Ru  Ru16  1  0.275787  0.566934  0.500000  1
  Ru  Ru17  1  0.724213  0.433066  0.500000  1
  Ru  Ru18  1  0.224825  0.066136  0.500000  1
  Ru  Ru19  1  0.775175  0.933864  0.500000  1
