# generated using pymatgen
data_Li3YEr2Si2Ge
_symmetry_space_group_name_H-M   'P 1'
_cell_length_a   6.98133596
_cell_length_b   6.98133644
_cell_length_c   4.23252800
_cell_angle_alpha   90.00000000
_cell_angle_beta   90.00000000
_cell_angle_gamma   120.33984476
_symmetry_Int_Tables_number   1
_chemical_formula_structural   Li3YEr2Si2Ge
_chemical_formula_sum   'Li3 Y1 Er2 Si2 Ge1'
_cell_volume   178.03694192
_cell_formula_units_Z   1
loop_
 _symmetry_equiv_pos_site_id
 _symmetry_equiv_pos_as_xyz
  1  'x, y, z'
loop_
 _atom_site_type_symbol
 _atom_site_label
 _atom_site_symmetry_multiplicity
 _atom_site_fract_x
 _atom_site_fract_y
 _atom_site_fract_z
 _atom_site_occupancy
  Li  Li0  1  0.234507  0.999695  0.500000  1
  Li  Li1  1  0.999695  0.234507  0.500000  1
  Li  Li2  1  0.765228  0.765228  0.500000  1
  Y  Y3  1  0.429882  0.429882  0.000000  1
  Er  Er4  1  0.571854  0.000091  0.000000  1
  Er  Er5  1  0.000091  0.571854  0.000000  1
  Si  Si6  1  0.332634  0.667953  0.500000  1
  Si  Si7  1  0.667953  0.332634  0.500000  1
  Ge  Ge8  1  0.998157  0.998157  0.000000  1
