# generated using pymatgen
data_Tb20Cd6TcNi
_symmetry_space_group_name_H-M   'P 1'
_cell_length_a   9.62177700
_cell_length_b   9.62177735
_cell_length_c   9.91972100
_cell_angle_alpha   90.00000000
_cell_angle_beta   90.00000000
_cell_angle_gamma   119.99999537
_symmetry_Int_Tables_number   1
_chemical_formula_structural   Tb20Cd6TcNi
_chemical_formula_sum   'Tb20 Cd6 Tc1 Ni1'
_cell_volume   795.31779443
_cell_formula_units_Z   1
loop_
 _symmetry_equiv_pos_site_id
 _symmetry_equiv_pos_as_xyz
  1  'x, y, z'
loop_
 _atom_site_type_symbol
 _atom_site_label
 _atom_site_symmetry_multiplicity
 _atom_site_fract_x
 _atom_site_fract_y
 _atom_site_fract_z
 _atom_site_occupancy
  Tb  Tb0  1  0.000000  0.000000  0.499875  1
  Tb  Tb1  1  0.000000  0.000000  0.000125  1
  Tb  Tb2  1  0.540845  0.459155  0.250000  1
  Tb  Tb3  1  0.540845  0.081691  0.250000  1
  Tb  Tb4  1  0.918309  0.459155  0.250000  1
  Tb  Tb5  1  0.457170  0.542830  0.750000  1
  Tb  Tb6  1  0.457170  0.914340  0.750000  1
  Tb  Tb7  1  0.085660  0.542830  0.750000  1
  Tb  Tb8  1  0.208824  0.791176  0.439418  1
  Tb  Tb9  1  0.208824  0.417650  0.439418  1
  Tb  Tb10  1  0.582350  0.791176  0.439418  1
  Tb  Tb11  1  0.788662  0.211338  0.563648  1
  Tb  Tb12  1  0.788662  0.577323  0.563648  1
  Tb  Tb13  1  0.422677  0.211338  0.563648  1
  Tb  Tb14  1  0.788662  0.211338  0.936352  1
  Tb  Tb15  1  0.788662  0.577323  0.936352  1
  Tb  Tb16  1  0.422677  0.211338  0.936352  1
  Tb  Tb17  1  0.208824  0.791176  0.060582  1
  Tb  Tb18  1  0.208824  0.417650  0.060582  1
  Tb  Tb19  1  0.582350  0.791176  0.060582  1
  Cd  Cd20  1  0.885632  0.114368  0.250000  1
  Cd  Cd21  1  0.885632  0.771263  0.250000  1
  Cd  Cd22  1  0.228737  0.114368  0.250000  1
  Cd  Cd23  1  0.114117  0.885883  0.750000  1
  Cd  Cd24  1  0.114117  0.228234  0.750000  1
  Cd  Cd25  1  0.771766  0.885883  0.750000  1
  Tc  Tc26  1  0.333333  0.666667  0.250000  1
  Ni  Ni27  1  0.666667  0.333333  0.750000  1
