# generated using pymatgen
data_Sc3(ReMo2)2
_symmetry_space_group_name_H-M   'P 1'
_cell_length_a   5.34056885
_cell_length_b   5.33624905
_cell_length_c   13.12786265
_cell_angle_alpha   89.86794533
_cell_angle_beta   90.09421927
_cell_angle_gamma   119.79530351
_symmetry_Int_Tables_number   1
_chemical_formula_structural   Sc3(ReMo2)2
_chemical_formula_sum   'Sc6 Re4 Mo8'
_cell_volume   324.66774859
_cell_formula_units_Z   2
loop_
 _symmetry_equiv_pos_site_id
 _symmetry_equiv_pos_as_xyz
  1  'x, y, z'
loop_
 _atom_site_type_symbol
 _atom_site_label
 _atom_site_symmetry_multiplicity
 _atom_site_fract_x
 _atom_site_fract_y
 _atom_site_fract_z
 _atom_site_occupancy
  Sc  Sc0  1  0.335014  0.665675  0.918054  1
  Sc  Sc1  1  0.001651  0.000642  0.247848  1
  Sc  Sc2  1  0.667765  0.332160  0.582857  1
  Sc  Sc3  1  0.332235  0.667840  0.667143  1
  Sc  Sc4  1  0.998349  0.999358  0.002151  1
  Sc  Sc5  1  0.664986  0.334325  0.331946  1
  Re  Re6  1  0.500000  0.500000  0.125000  1
  Re  Re7  1  0.166211  0.833563  0.457996  1
  Re  Re8  1  0.833789  0.166437  0.792004  1
  Re  Re9  1  0.500000  0.000000  0.125000  1
  Mo  Mo10  1  0.166390  0.333597  0.457871  1
  Mo  Mo11  1  0.833610  0.666403  0.792129  1
  Mo  Mo12  1  0.334331  0.669847  0.291640  1
  Mo  Mo13  1  0.000000  0.000000  0.625000  1
  Mo  Mo14  1  0.665669  0.330153  0.958360  1
  Mo  Mo15  1  0.000000  0.500000  0.125000  1
  Mo  Mo16  1  0.666841  0.833797  0.457987  1
  Mo  Mo17  1  0.333159  0.166203  0.792013  1
