# generated using pymatgen
data_NdErRe2F14
_symmetry_space_group_name_H-M   'P 1'
_cell_length_a   5.68024600
_cell_length_b   9.07215353
_cell_length_c   12.22307800
_cell_angle_alpha   62.38901574
_cell_angle_beta   90.00000000
_cell_angle_gamma   90.00000000
_symmetry_Int_Tables_number   1
_chemical_formula_structural   NdErRe2F14
_chemical_formula_sum   'Nd2 Er2 Re4 F28'
_cell_volume   558.14634051
_cell_formula_units_Z   2
loop_
 _symmetry_equiv_pos_site_id
 _symmetry_equiv_pos_as_xyz
  1  'x, y, z'
loop_
 _atom_site_type_symbol
 _atom_site_label
 _atom_site_symmetry_multiplicity
 _atom_site_fract_x
 _atom_site_fract_y
 _atom_site_fract_z
 _atom_site_occupancy
  Nd  Nd0  1  0.758614  0.811231  0.764561  1
  Nd  Nd1  1  0.258614  0.188769  0.735439  1
  Er  Er2  1  0.242083  0.184035  0.235607  1
  Er  Er3  1  0.742083  0.815965  0.264393  1
  Re  Re4  1  0.754453  0.269741  0.964066  1
  Re  Re5  1  0.254453  0.730259  0.535934  1
  Re  Re6  1  0.242212  0.722521  0.049962  1
  Re  Re7  1  0.742212  0.277479  0.450038  1
  F  F8  1  0.449692  0.706408  0.925820  1
  F  F9  1  0.949692  0.293592  0.574180  1
  F  F10  1  0.546920  0.291221  0.086170  1
  F  F11  1  0.046920  0.708779  0.413830  1
  F  F12  1  0.460005  0.287159  0.541933  1
  F  F13  1  0.960005  0.712841  0.958067  1
  F  F14  1  0.545837  0.721632  0.447247  1
  F  F15  1  0.045837  0.278368  0.052753  1
  F  F16  1  0.767038  0.514236  0.863248  1
  F  F17  1  0.267038  0.485764  0.636752  1
  F  F18  1  0.234908  0.476111  0.146078  1
  F  F19  1  0.734908  0.523889  0.353922  1
  F  F20  1  0.755713  0.024016  0.058650  1
  F  F21  1  0.255713  0.975984  0.441350  1
  F  F22  1  0.238574  0.967429  0.951234  1
  F  F23  1  0.738574  0.032571  0.548766  1
  F  F24  1  0.974071  0.729782  0.631874  1
  F  F25  1  0.474071  0.270218  0.868126  1
  F  F26  1  0.016198  0.266953  0.352574  1
  F  F27  1  0.516198  0.733047  0.147426  1
  F  F28  1  0.034232  0.744752  0.172926  1
  F  F29  1  0.534232  0.255248  0.327074  1
  F  F30  1  0.950483  0.253936  0.835405  1
  F  F31  1  0.450483  0.746064  0.664595  1
  F  F32  1  0.431764  0.976908  0.234842  1
  F  F33  1  0.931764  0.023092  0.265158  1
  F  F34  1  0.597205  0.036307  0.770391  1
  F  F35  1  0.097205  0.963693  0.729609  1
