# generated using pymatgen
data_Ho19TmRh12
_symmetry_space_group_name_H-M   'P 1'
_cell_length_a   10.89690847
_cell_length_b   10.88243387
_cell_length_c   6.36004300
_cell_angle_alpha   89.88998821
_cell_angle_beta   90.05740143
_cell_angle_gamma   90.06875499
_symmetry_Int_Tables_number   1
_chemical_formula_structural   Ho19TmRh12
_chemical_formula_sum   'Ho19 Tm1 Rh12'
_cell_volume   754.20266280
_cell_formula_units_Z   1
loop_
 _symmetry_equiv_pos_site_id
 _symmetry_equiv_pos_as_xyz
  1  'x, y, z'
loop_
 _atom_site_type_symbol
 _atom_site_label
 _atom_site_symmetry_multiplicity
 _atom_site_fract_x
 _atom_site_fract_y
 _atom_site_fract_z
 _atom_site_occupancy
  Ho  Ho0  1  0.089937  0.291091  0.119145  1
  Ho  Ho1  1  0.791991  0.410194  0.118107  1
  Ho  Ho2  1  0.209476  0.589021  0.118703  1
  Ho  Ho3  1  0.911375  0.708368  0.118229  1
  Ho  Ho4  1  0.411000  0.791374  0.381932  1
  Ho  Ho5  1  0.589074  0.208716  0.380955  1
  Ho  Ho6  1  0.291291  0.088901  0.381948  1
  Ho  Ho7  1  0.708997  0.910867  0.381190  1
  Ho  Ho8  1  0.411092  0.208684  0.881510  1
  Ho  Ho9  1  0.708860  0.089057  0.881805  1
  Ho  Ho10  1  0.290706  0.911475  0.881404  1
  Ho  Ho11  1  0.587899  0.792377  0.881605  1
  Ho  Ho12  1  0.089638  0.708179  0.618481  1
  Ho  Ho13  1  0.910813  0.291652  0.618849  1
  Ho  Ho14  1  0.208685  0.410336  0.618903  1
  Ho  Ho15  1  0.000240  0.000583  0.999705  1
  Ho  Ho16  1  0.500346  0.499912  0.998830  1
  Ho  Ho17  1  0.499478  0.499619  0.499044  1
  Ho  Ho18  1  0.000435  0.999674  0.499580  1
  Tm  Tm19  1  0.790692  0.590122  0.618896  1
  Rh  Rh20  1  0.153809  0.845936  0.249723  1
  Rh  Rh21  1  0.346047  0.345743  0.249848  1
  Rh  Rh22  1  0.653488  0.654193  0.249465  1
  Rh  Rh23  1  0.846214  0.153877  0.250304  1
  Rh  Rh24  1  0.346149  0.653689  0.749800  1
  Rh  Rh25  1  0.153750  0.154028  0.749708  1
  Rh  Rh26  1  0.845547  0.846925  0.750752  1
  Rh  Rh27  1  0.652975  0.345003  0.751042  1
  Rh  Rh28  1  0.000244  0.499946  0.371976  1
  Rh  Rh29  1  0.499672  0.000257  0.129079  1
  Rh  Rh30  1  0.499891  0.000321  0.628392  1
  Rh  Rh31  1  0.000191  0.499883  0.871089  1
