# generated using pymatgen
data_CaNdErGa8Ag3
_symmetry_space_group_name_H-M   'P 1'
_cell_length_a   4.37879622
_cell_length_b   8.40293911
_cell_length_c   8.40293921
_cell_angle_alpha   70.13651236
_cell_angle_beta   74.89720877
_cell_angle_gamma   74.89720829
_symmetry_Int_Tables_number   1
_chemical_formula_structural   CaNdErGa8Ag3
_chemical_formula_sum   'Ca1 Nd1 Er1 Ga8 Ag3'
_cell_volume   275.66127292
_cell_formula_units_Z   1
loop_
 _symmetry_equiv_pos_site_id
 _symmetry_equiv_pos_as_xyz
  1  'x, y, z'
loop_
 _atom_site_type_symbol
 _atom_site_label
 _atom_site_symmetry_multiplicity
 _atom_site_fract_x
 _atom_site_fract_y
 _atom_site_fract_z
 _atom_site_occupancy
  Ca  Ca0  1  0.199118  0.800882  0.800882  1
  Nd  Nd1  1  0.500534  0.499466  0.499466  1
  Er  Er2  1  0.799088  0.200912  0.200912  1
  Ga  Ga3  1  0.357655  0.358480  0.926210  1
  Ga  Ga4  1  0.644177  0.636741  0.074904  1
  Ga  Ga5  1  0.357655  0.926210  0.358480  1
  Ga  Ga6  1  0.644177  0.074904  0.636741  1
  Ga  Ga7  1  0.160343  0.469809  0.209505  1
  Ga  Ga8  1  0.838819  0.528186  0.794175  1
  Ga  Ga9  1  0.160343  0.209505  0.469809  1
  Ga  Ga10  1  0.838819  0.794175  0.528186  1
  Ag  Ag11  1  0.499263  0.000737  0.000737  1
  Ag  Ag12  1  0.000003  0.805311  0.194682  1
  Ag  Ag13  1  0.000003  0.194682  0.805311  1
