# generated using pymatgen
data_Pr5Nd2FeBr12
_symmetry_space_group_name_H-M   'P 1'
_cell_length_a   9.60460529
_cell_length_b   9.43840588
_cell_length_c   9.60871447
_cell_angle_alpha   106.67684560
_cell_angle_beta   106.81866190
_cell_angle_gamma   106.49012614
_symmetry_Int_Tables_number   1
_chemical_formula_structural   Pr5Nd2FeBr12
_chemical_formula_sum   'Pr5 Nd2 Fe1 Br12'
_cell_volume   732.00261296
_cell_formula_units_Z   1
loop_
 _symmetry_equiv_pos_site_id
 _symmetry_equiv_pos_as_xyz
  1  'x, y, z'
loop_
 _atom_site_type_symbol
 _atom_site_label
 _atom_site_symmetry_multiplicity
 _atom_site_fract_x
 _atom_site_fract_y
 _atom_site_fract_z
 _atom_site_occupancy
  Pr  Pr0  1  0.520636  0.601830  0.810051  1
  Pr  Pr1  1  0.189366  0.480411  0.398784  1
  Pr  Pr2  1  0.478762  0.398823  0.189917  1
  Pr  Pr3  1  0.596952  0.798467  0.522590  1
  Pr  Pr4  1  0.403701  0.202188  0.477883  1
  Nd  Nd5  1  0.808035  0.519629  0.600257  1
  Nd  Nd6  1  0.001020  0.999075  0.000080  1
  Fe  Fe7  1  0.499996  0.500339  0.500108  1
  Br  Br8  1  0.722438  0.182172  0.572007  1
  Br  Br9  1  0.959008  0.880978  0.668121  1
  Br  Br10  1  0.573835  0.725746  0.185632  1
  Br  Br11  1  0.117817  0.334833  0.039202  1
  Br  Br12  1  0.671060  0.964204  0.884347  1
  Br  Br13  1  0.880940  0.662526  0.958172  1
  Br  Br14  1  0.040922  0.116380  0.331162  1
  Br  Br15  1  0.816988  0.428117  0.280201  1
  Br  Br16  1  0.331411  0.036390  0.116348  1
  Br  Br17  1  0.279079  0.820714  0.428882  1
  Br  Br18  1  0.181192  0.571739  0.721181  1
  Br  Br19  1  0.426840  0.275438  0.815078  1
