# generated using pymatgen
data_Hf2P7Ru12
_symmetry_space_group_name_H-M   'P 1'
_cell_length_a   9.36590100
_cell_length_b   9.36589958
_cell_length_c   3.88441000
_cell_angle_alpha   90.00000000
_cell_angle_beta   90.00000000
_cell_angle_gamma   119.99999347
_symmetry_Int_Tables_number   1
_chemical_formula_structural   Hf2P7Ru12
_chemical_formula_sum   'Hf2 P7 Ru12'
_cell_volume   295.09019793
_cell_formula_units_Z   1
loop_
 _symmetry_equiv_pos_site_id
 _symmetry_equiv_pos_as_xyz
  1  'x, y, z'
loop_
 _atom_site_type_symbol
 _atom_site_label
 _atom_site_symmetry_multiplicity
 _atom_site_fract_x
 _atom_site_fract_y
 _atom_site_fract_z
 _atom_site_occupancy
  Hf  Hf0  1  0.666667  0.333333  0.500000  1
  Hf  Hf1  1  0.333333  0.666667  0.000000  1
  P  P2  1  0.595327  0.716720  0.500000  1
  P  P3  1  0.000000  0.000000  0.000000  1
  P  P4  1  0.283280  0.878608  0.500000  1
  P  P5  1  0.121392  0.404673  0.500000  1
  P  P6  1  0.882370  0.577091  0.000000  1
  P  P7  1  0.422909  0.305279  0.000000  1
  P  P8  1  0.694721  0.117630  0.000000  1
  Ru  Ru9  1  0.551329  0.942029  0.500000  1
  Ru  Ru10  1  0.390701  0.448671  0.500000  1
  Ru  Ru11  1  0.910245  0.126141  0.500000  1
  Ru  Ru12  1  0.215896  0.089755  0.500000  1
  Ru  Ru13  1  0.873859  0.784104  0.500000  1
  Ru  Ru14  1  0.725183  0.888074  0.000000  1
  Ru  Ru15  1  0.111926  0.837107  0.000000  1
  Ru  Ru16  1  0.162893  0.274817  0.000000  1
  Ru  Ru17  1  0.433967  0.072099  0.000000  1
  Ru  Ru18  1  0.927901  0.361869  0.000000  1
  Ru  Ru19  1  0.638131  0.566033  0.000000  1
  Ru  Ru20  1  0.057971  0.609299  0.500000  1
