# generated using pymatgen
data_Tb5In4IrRh
_symmetry_space_group_name_H-M   'P 1'
_cell_length_a   3.66231400
_cell_length_b   8.07378341
_cell_length_c   18.35325121
_cell_angle_alpha   89.85929666
_cell_angle_beta   90.00000000
_cell_angle_gamma   90.00000000
_symmetry_Int_Tables_number   1
_chemical_formula_structural   Tb5In4IrRh
_chemical_formula_sum   'Tb10 In8 Ir2 Rh2'
_cell_volume   542.68069377
_cell_formula_units_Z   2
loop_
 _symmetry_equiv_pos_site_id
 _symmetry_equiv_pos_as_xyz
  1  'x, y, z'
loop_
 _atom_site_type_symbol
 _atom_site_label
 _atom_site_symmetry_multiplicity
 _atom_site_fract_x
 _atom_site_fract_y
 _atom_site_fract_z
 _atom_site_occupancy
  Tb  Tb0  1  0.000000  0.000000  0.000000  1
  Tb  Tb1  1  0.000000  0.500000  0.500000  1
  Tb  Tb2  1  0.000000  0.751837  0.777746  1
  Tb  Tb3  1  0.000000  0.248163  0.222254  1
  Tb  Tb4  1  0.000000  0.246590  0.721834  1
  Tb  Tb5  1  0.000000  0.753410  0.278166  1
  Tb  Tb6  1  0.000000  0.880066  0.589015  1
  Tb  Tb7  1  0.000000  0.119934  0.410985  1
  Tb  Tb8  1  0.000000  0.380305  0.910768  1
  Tb  Tb9  1  0.000000  0.619695  0.089232  1
  In  In10  1  0.500000  0.794748  0.431597  1
  In  In11  1  0.500000  0.205252  0.568403  1
  In  In12  1  0.500000  0.294938  0.068431  1
  In  In13  1  0.500000  0.705062  0.931569  1
  In  In14  1  0.500000  0.934606  0.149472  1
  In  In15  1  0.500000  0.065394  0.850528  1
  In  In16  1  0.500000  0.436519  0.349435  1
  In  In17  1  0.500000  0.563481  0.650565  1
  Ir  Ir18  1  0.500000  0.975132  0.695937  1
  Ir  Ir19  1  0.500000  0.024868  0.304063  1
  Rh  Rh20  1  0.500000  0.476134  0.805506  1
  Rh  Rh21  1  0.500000  0.523866  0.194494  1
