# generated using pymatgen
data_Pr5In4IrPd
_symmetry_space_group_name_H-M   'P 1'
_cell_length_a   3.81004400
_cell_length_b   8.39685677
_cell_length_c   18.79401798
_cell_angle_alpha   90.13706603
_cell_angle_beta   90.00000000
_cell_angle_gamma   90.00000000
_symmetry_Int_Tables_number   1
_chemical_formula_structural   Pr5In4IrPd
_chemical_formula_sum   'Pr10 In8 Ir2 Pd2'
_cell_volume   601.26390314
_cell_formula_units_Z   2
loop_
 _symmetry_equiv_pos_site_id
 _symmetry_equiv_pos_as_xyz
  1  'x, y, z'
loop_
 _atom_site_type_symbol
 _atom_site_label
 _atom_site_symmetry_multiplicity
 _atom_site_fract_x
 _atom_site_fract_y
 _atom_site_fract_z
 _atom_site_occupancy
  Pr  Pr0  1  0.000000  0.117733  0.415842  1
  Pr  Pr1  1  0.000000  0.882267  0.584158  1
  Pr  Pr2  1  0.000000  0.384982  0.912588  1
  Pr  Pr3  1  0.000000  0.615018  0.087412  1
  Pr  Pr4  1  0.000000  0.252874  0.218667  1
  Pr  Pr5  1  0.000000  0.747126  0.781333  1
  Pr  Pr6  1  0.000000  0.270880  0.720417  1
  Pr  Pr7  1  0.000000  0.729120  0.279583  1
  Pr  Pr8  1  0.000000  0.000000  0.000000  1
  Pr  Pr9  1  0.000000  0.500000  0.500000  1
  In  In10  1  0.500000  0.428885  0.349806  1
  In  In11  1  0.500000  0.571115  0.650194  1
  In  In12  1  0.500000  0.071412  0.849248  1
  In  In13  1  0.500000  0.928588  0.150752  1
  In  In14  1  0.500000  0.292161  0.069578  1
  In  In15  1  0.500000  0.707839  0.930422  1
  In  In16  1  0.500000  0.207317  0.569677  1
  In  In17  1  0.500000  0.792683  0.430323  1
  Ir  Ir18  1  0.500000  0.485203  0.803793  1
  Ir  Ir19  1  0.500000  0.514797  0.196207  1
  Pd  Pd20  1  0.500000  0.015375  0.303358  1
  Pd  Pd21  1  0.500000  0.984625  0.696642  1
