# generated using pymatgen
data_Tb20Ru11Pt
_symmetry_space_group_name_H-M   'P 1'
_cell_length_a   10.89268605
_cell_length_b   10.89268561
_cell_length_c   6.41248621
_cell_angle_alpha   89.96142561
_cell_angle_beta   89.96142515
_cell_angle_gamma   89.89574823
_symmetry_Int_Tables_number   1
_chemical_formula_structural   Tb20Ru11Pt
_chemical_formula_sum   'Tb20 Ru11 Pt1'
_cell_volume   760.84376191
_cell_formula_units_Z   1
loop_
 _symmetry_equiv_pos_site_id
 _symmetry_equiv_pos_as_xyz
  1  'x, y, z'
loop_
 _atom_site_type_symbol
 _atom_site_label
 _atom_site_symmetry_multiplicity
 _atom_site_fract_x
 _atom_site_fract_y
 _atom_site_fract_z
 _atom_site_occupancy
  Tb  Tb0  1  0.292278  0.087067  0.377981  1
  Tb  Tb1  1  0.291767  0.917380  0.878716  1
  Tb  Tb2  1  0.708368  0.087107  0.877756  1
  Tb  Tb3  1  0.708403  0.913506  0.378391  1
  Tb  Tb4  1  0.589959  0.794007  0.878431  1
  Tb  Tb5  1  0.587217  0.206444  0.376984  1
  Tb  Tb6  1  0.414669  0.795022  0.373592  1
  Tb  Tb7  1  0.413207  0.208974  0.877748  1
  Tb  Tb8  1  0.205993  0.410041  0.621569  1
  Tb  Tb9  1  0.204978  0.585331  0.126408  1
  Tb  Tb10  1  0.793556  0.412783  0.123016  1
  Tb  Tb11  1  0.791026  0.586793  0.622252  1
  Tb  Tb12  1  0.912933  0.707722  0.122019  1
  Tb  Tb13  1  0.912893  0.291632  0.622244  1
  Tb  Tb14  1  0.082620  0.708233  0.621284  1
  Tb  Tb15  1  0.086494  0.291597  0.121609  1
  Tb  Tb16  1  0.000116  0.000177  0.499692  1
  Tb  Tb17  1  0.999823  0.999884  0.000308  1
  Tb  Tb18  1  0.503274  0.498137  0.002086  1
  Tb  Tb19  1  0.501863  0.496726  0.497914  1
  Ru  Ru20  1  0.847180  0.152820  0.250000  1
  Ru  Ru21  1  0.847357  0.846802  0.749360  1
  Ru  Ru22  1  0.153198  0.152643  0.750640  1
  Ru  Ru23  1  0.154584  0.845416  0.250000  1
  Ru  Ru24  1  0.652323  0.347677  0.750000  1
  Ru  Ru25  1  0.650261  0.652852  0.250545  1
  Ru  Ru26  1  0.347148  0.349739  0.249455  1
  Ru  Ru27  1  0.500146  0.999180  0.122581  1
  Ru  Ru28  1  0.499656  0.999870  0.624351  1
  Ru  Ru29  1  0.000130  0.500344  0.875649  1
  Ru  Ru30  1  0.000820  0.499854  0.377419  1
  Pt  Pt31  1  0.345756  0.654244  0.750000  1
