# generated using pymatgen
data_BaAl2Ag5
_symmetry_space_group_name_H-M   'P 1'
_cell_length_a   7.41026200
_cell_length_b   9.13060300
_cell_length_c   10.24645200
_cell_angle_alpha   90.00000000
_cell_angle_beta   90.00000000
_cell_angle_gamma   90.00000000
_symmetry_Int_Tables_number   1
_chemical_formula_structural   BaAl2Ag5
_chemical_formula_sum   'Ba4 Al8 Ag20'
_cell_volume   693.27658634
_cell_formula_units_Z   4
loop_
 _symmetry_equiv_pos_site_id
 _symmetry_equiv_pos_as_xyz
  1  'x, y, z'
loop_
 _atom_site_type_symbol
 _atom_site_label
 _atom_site_symmetry_multiplicity
 _atom_site_fract_x
 _atom_site_fract_y
 _atom_site_fract_z
 _atom_site_occupancy
  Ba  Ba0  1  0.250000  0.250973  0.125995  1
  Ba  Ba1  1  0.250000  0.750973  0.374005  1
  Ba  Ba2  1  0.750000  0.749027  0.874005  1
  Ba  Ba3  1  0.750000  0.249027  0.625995  1
  Al  Al4  1  0.250000  0.061128  0.621128  1
  Al  Al5  1  0.250000  0.561128  0.878872  1
  Al  Al6  1  0.750000  0.938872  0.378872  1
  Al  Al7  1  0.750000  0.438872  0.121128  1
  Al  Al8  1  0.250000  0.348865  0.486140  1
  Al  Al9  1  0.250000  0.848865  0.013860  1
  Al  Al10  1  0.750000  0.651135  0.513860  1
  Al  Al11  1  0.750000  0.151135  0.986140  1
  Ag  Ag12  1  0.052258  0.109699  0.401899  1
  Ag  Ag13  1  0.447742  0.609699  0.098101  1
  Ag  Ag14  1  0.552258  0.890301  0.598101  1
  Ag  Ag15  1  0.947742  0.390301  0.901899  1
  Ag  Ag16  1  0.947742  0.890301  0.598101  1
  Ag  Ag17  1  0.552258  0.390301  0.901899  1
  Ag  Ag18  1  0.447742  0.109699  0.401899  1
  Ag  Ag19  1  0.052258  0.609699  0.098101  1
  Ag  Ag20  1  0.047552  0.059003  0.862712  1
  Ag  Ag21  1  0.452448  0.559003  0.637288  1
  Ag  Ag22  1  0.547552  0.940997  0.137288  1
  Ag  Ag23  1  0.952448  0.440997  0.362712  1
  Ag  Ag24  1  0.952448  0.940997  0.137288  1
  Ag  Ag25  1  0.547552  0.440997  0.362712  1
  Ag  Ag26  1  0.452448  0.059003  0.862712  1
  Ag  Ag27  1  0.047552  0.559003  0.637288  1
  Ag  Ag28  1  0.250000  0.309454  0.745861  1
  Ag  Ag29  1  0.250000  0.809454  0.754139  1
  Ag  Ag30  1  0.750000  0.690546  0.254139  1
  Ag  Ag31  1  0.750000  0.190546  0.245861  1
