# generated using pymatgen
data_Cs2K2Zr6GaI18
_symmetry_space_group_name_H-M   'P 1'
_cell_length_a   11.48060217
_cell_length_b   11.73215481
_cell_length_c   11.81594136
_cell_angle_alpha   118.66012690
_cell_angle_beta   100.23693194
_cell_angle_gamma   104.24145714
_symmetry_Int_Tables_number   1
_chemical_formula_structural   Cs2K2Zr6GaI18
_chemical_formula_sum   'Cs2 K2 Zr6 Ga1 I18'
_cell_volume   1269.15647077
_cell_formula_units_Z   1
loop_
 _symmetry_equiv_pos_site_id
 _symmetry_equiv_pos_as_xyz
  1  'x, y, z'
loop_
 _atom_site_type_symbol
 _atom_site_label
 _atom_site_symmetry_multiplicity
 _atom_site_fract_x
 _atom_site_fract_y
 _atom_site_fract_z
 _atom_site_occupancy
  Cs  Cs0  1  0.659033  0.538549  0.231663  1
  Cs  Cs1  1  0.340967  0.461451  0.768337  1
  K  K2  1  0.683064  0.224005  0.563898  1
  K  K3  1  0.316936  0.775995  0.436102  1
  Zr  Zr4  1  0.150147  0.050317  0.228333  1
  Zr  Zr5  1  0.849853  0.949683  0.771667  1
  Zr  Zr6  1  0.862063  0.124537  0.135573  1
  Zr  Zr7  1  0.137937  0.875463  0.864427  1
  Zr  Zr8  1  0.143884  0.240844  0.046075  1
  Zr  Zr9  1  0.856116  0.759156  0.953925  1
  Ga  Ga10  1  0.000000  0.000000  0.000000  1
  I  I11  1  0.006921  0.404724  0.198868  1
  I  I12  1  0.993079  0.595276  0.801132  1
  I  I13  1  0.326430  0.326401  0.307747  1
  I  I14  1  0.673570  0.673599  0.692253  1
  I  I15  1  0.313603  0.526129  0.110818  1
  I  I16  1  0.686397  0.473871  0.889182  1
  I  I17  1  0.003033  0.793995  0.206013  1
  I  I18  1  0.996967  0.206005  0.793987  1
  I  I19  1  0.706165  0.263054  0.293172  1
  I  I20  1  0.293835  0.736946  0.706828  1
  I  I21  1  0.314737  0.131790  0.907438  1
  I  I22  1  0.685263  0.868210  0.092562  1
  I  I23  1  0.018961  0.200405  0.405490  1
  I  I24  1  0.981039  0.799595  0.594510  1
  I  I25  1  0.318722  0.923262  0.104349  1
  I  I26  1  0.681278  0.076738  0.895651  1
  I  I27  1  0.334336  0.106576  0.489728  1
  I  I28  1  0.665664  0.893424  0.510272  1
