# generated using pymatgen
data_Zr2Co3Tc
_symmetry_space_group_name_H-M   'P 1'
_cell_length_a   4.96535400
_cell_length_b   4.96535426
_cell_length_c   8.16443500
_cell_angle_alpha   90.00000000
_cell_angle_beta   90.00000000
_cell_angle_gamma   119.99999829
_symmetry_Int_Tables_number   1
_chemical_formula_structural   Zr2Co3Tc
_chemical_formula_sum   'Zr4 Co6 Tc2'
_cell_volume   174.32401927
_cell_formula_units_Z   2
loop_
 _symmetry_equiv_pos_site_id
 _symmetry_equiv_pos_as_xyz
  1  'x, y, z'
loop_
 _atom_site_type_symbol
 _atom_site_label
 _atom_site_symmetry_multiplicity
 _atom_site_fract_x
 _atom_site_fract_y
 _atom_site_fract_z
 _atom_site_occupancy
  Zr  Zr0  1  0.333333  0.666667  0.435028  1
  Zr  Zr1  1  0.666667  0.333333  0.564972  1
  Zr  Zr2  1  0.666667  0.333333  0.935028  1
  Zr  Zr3  1  0.333333  0.666667  0.064972  1
  Co  Co4  1  0.828974  0.171026  0.250000  1
  Co  Co5  1  0.828974  0.657947  0.250000  1
  Co  Co6  1  0.342053  0.171026  0.250000  1
  Co  Co7  1  0.171026  0.828974  0.750000  1
  Co  Co8  1  0.171026  0.342053  0.750000  1
  Co  Co9  1  0.657947  0.828974  0.750000  1
  Tc  Tc10  1  0.000000  0.000000  0.500000  1
  Tc  Tc11  1  0.000000  0.000000  0.000000  1
