# generated using pymatgen
data_Y2P4Ru5Rh
_symmetry_space_group_name_H-M   'P 1'
_cell_length_a   3.97054400
_cell_length_b   11.21732356
_cell_length_c   12.59114117
_cell_angle_alpha   89.68020753
_cell_angle_beta   90.00000000
_cell_angle_gamma   90.00000000
_symmetry_Int_Tables_number   1
_chemical_formula_structural   Y2P4Ru5Rh
_chemical_formula_sum   'Y6 P12 Ru15 Rh3'
_cell_volume   560.78654960
_cell_formula_units_Z   3
loop_
 _symmetry_equiv_pos_site_id
 _symmetry_equiv_pos_as_xyz
  1  'x, y, z'
loop_
 _atom_site_type_symbol
 _atom_site_label
 _atom_site_symmetry_multiplicity
 _atom_site_fract_x
 _atom_site_fract_y
 _atom_site_fract_z
 _atom_site_occupancy
  Y  Y0  1  0.000000  0.498471  0.524748  1
  Y  Y1  1  0.500000  0.001068  0.475492  1
  Y  Y2  1  0.500000  0.817816  0.204464  1
  Y  Y3  1  0.500000  0.180959  0.204164  1
  Y  Y4  1  0.000000  0.682662  0.795672  1
  Y  Y5  1  0.000000  0.318010  0.795581  1
  P  P6  1  0.500000  0.500750  0.881117  1
  P  P7  1  0.000000  0.998874  0.118782  1
  P  P8  1  0.500000  0.505968  0.341612  1
  P  P9  1  0.000000  0.000309  0.660883  1
  P  P10  1  0.500000  0.302948  0.615128  1
  P  P11  1  0.500000  0.699349  0.616870  1
  P  P12  1  0.000000  0.195266  0.384813  1
  P  P13  1  0.000000  0.801735  0.383286  1
  P  P14  1  0.500000  0.845804  0.895402  1
  P  P15  1  0.500000  0.154246  0.895031  1
  P  P16  1  0.000000  0.653412  0.105619  1
  P  P17  1  0.000000  0.344288  0.102073  1
  Ru  Ru18  1  0.500000  0.498363  0.156992  1
  Ru  Ru19  1  0.000000  0.000153  0.844583  1
  Ru  Ru20  1  0.000000  0.500484  0.986449  1
  Ru  Ru21  1  0.500000  0.999490  0.013937  1
  Ru  Ru22  1  0.500000  0.332009  0.989875  1
  Ru  Ru23  1  0.500000  0.667895  0.990499  1
  Ru  Ru24  1  0.000000  0.167216  0.009906  1
  Ru  Ru25  1  0.000000  0.831295  0.010506  1
  Ru  Ru26  1  0.500000  0.300587  0.427206  1
  Ru  Ru27  1  0.500000  0.702382  0.430082  1
  Ru  Ru28  1  0.000000  0.201219  0.570011  1
  Ru  Ru29  1  0.000000  0.800189  0.570599  1
  Ru  Ru30  1  0.500000  0.879198  0.714207  1
  Ru  Ru31  1  0.500000  0.122453  0.713759  1
  Ru  Ru32  1  0.000000  0.619907  0.287365  1
  Rh  Rh33  1  0.500000  0.500679  0.693420  1
  Rh  Rh34  1  0.000000  0.999563  0.306247  1
  Rh  Rh35  1  0.000000  0.374987  0.283617  1
