# generated using pymatgen
data_TbSm6OsI12
_symmetry_space_group_name_H-M   'P 1'
_cell_length_a   10.02450079
_cell_length_b   10.02450102
_cell_length_c   10.02450063
_cell_angle_alpha   107.27149693
_cell_angle_beta   107.27149143
_cell_angle_gamma   107.27149092
_symmetry_Int_Tables_number   1
_chemical_formula_structural   TbSm6OsI12
_chemical_formula_sum   'Tb1 Sm6 Os1 I12'
_cell_volume   832.65454741
_cell_formula_units_Z   1
loop_
 _symmetry_equiv_pos_site_id
 _symmetry_equiv_pos_as_xyz
  1  'x, y, z'
loop_
 _atom_site_type_symbol
 _atom_site_label
 _atom_site_symmetry_multiplicity
 _atom_site_fract_x
 _atom_site_fract_y
 _atom_site_fract_z
 _atom_site_occupancy
  Tb  Tb0  1  0.500000  0.500000  0.500000  1
  Sm  Sm1  1  0.905137  0.702338  0.977494  1
  Sm  Sm2  1  0.977494  0.905137  0.702338  1
  Sm  Sm3  1  0.702338  0.977494  0.905137  1
  Sm  Sm4  1  0.094863  0.297662  0.022506  1
  Sm  Sm5  1  0.022506  0.094863  0.297662  1
  Sm  Sm6  1  0.297662  0.022506  0.094863  1
  Os  Os7  1  0.000000  0.000000  0.000000  1
  I  I8  1  0.774315  0.317701  0.926061  1
  I  I9  1  0.926061  0.774315  0.317701  1
  I  I10  1  0.317701  0.926061  0.774315  1
  I  I11  1  0.225685  0.682299  0.073939  1
  I  I12  1  0.073939  0.225685  0.682299  1
  I  I13  1  0.682299  0.073939  0.225685  1
  I  I14  1  0.536532  0.612767  0.834172  1
  I  I15  1  0.834172  0.536532  0.612767  1
  I  I16  1  0.612767  0.834172  0.536532  1
  I  I17  1  0.463468  0.387233  0.165828  1
  I  I18  1  0.165828  0.463468  0.387233  1
  I  I19  1  0.387233  0.165828  0.463468  1
