# generated using pymatgen
data_Y10Al3GaRu6
_symmetry_space_group_name_H-M   'P 1'
_cell_length_a   8.37584800
_cell_length_b   8.37584740
_cell_length_c   8.37585000
_cell_angle_alpha   109.57129010
_cell_angle_beta   109.57128863
_cell_angle_gamma   109.57128459
_symmetry_Int_Tables_number   1
_chemical_formula_structural   Y10Al3GaRu6
_chemical_formula_sum   'Y10 Al3 Ga1 Ru6'
_cell_volume   450.65587475
_cell_formula_units_Z   1
loop_
 _symmetry_equiv_pos_site_id
 _symmetry_equiv_pos_as_xyz
  1  'x, y, z'
loop_
 _atom_site_type_symbol
 _atom_site_label
 _atom_site_symmetry_multiplicity
 _atom_site_fract_x
 _atom_site_fract_y
 _atom_site_fract_z
 _atom_site_occupancy
  Y  Y0  1  0.783847  0.783847  0.783847  1
  Y  Y1  1  0.318419  0.567908  0.749235  1
  Y  Y2  1  0.749235  0.318419  0.567908  1
  Y  Y3  1  0.567908  0.749235  0.318419  1
  Y  Y4  1  0.714883  0.499657  0.000529  1
  Y  Y5  1  0.000529  0.714883  0.499657  1
  Y  Y6  1  0.499657  0.000529  0.714883  1
  Y  Y7  1  0.250415  0.181970  0.932418  1
  Y  Y8  1  0.932418  0.250415  0.181970  1
  Y  Y9  1  0.181970  0.932418  0.250415  1
  Al  Al10  1  0.088968  0.500424  0.999621  1
  Al  Al11  1  0.999621  0.088968  0.500424  1
  Al  Al12  1  0.500424  0.999621  0.088968  1
  Ga  Ga13  1  0.412304  0.412304  0.412304  1
  Ru  Ru14  1  0.878163  0.128160  0.749740  1
  Ru  Ru15  1  0.749740  0.878163  0.128160  1
  Ru  Ru16  1  0.128160  0.749740  0.878163  1
  Ru  Ru17  1  0.249538  0.622962  0.370839  1
  Ru  Ru18  1  0.370839  0.249538  0.622962  1
  Ru  Ru19  1  0.622962  0.370839  0.249538  1
