# generated using pymatgen
data_Ac2Cd4CoIr17
_symmetry_space_group_name_H-M   'P 1'
_cell_length_a   8.89505100
_cell_length_b   8.89505048
_cell_length_c   5.15159400
_cell_angle_alpha   90.00000000
_cell_angle_beta   90.00000000
_cell_angle_gamma   89.41509955
_symmetry_Int_Tables_number   1
_chemical_formula_structural   Ac2Cd4CoIr17
_chemical_formula_sum   'Ac2 Cd4 Co1 Ir17'
_cell_volume   407.58280947
_cell_formula_units_Z   1
loop_
 _symmetry_equiv_pos_site_id
 _symmetry_equiv_pos_as_xyz
  1  'x, y, z'
loop_
 _atom_site_type_symbol
 _atom_site_label
 _atom_site_symmetry_multiplicity
 _atom_site_fract_x
 _atom_site_fract_y
 _atom_site_fract_z
 _atom_site_occupancy
  Ac  Ac0  1  0.500000  0.500000  0.000000  1
  Ac  Ac1  1  0.000000  0.000000  0.000000  1
  Cd  Cd2  1  0.115637  0.615637  0.000000  1
  Cd  Cd3  1  0.884363  0.384363  0.000000  1
  Cd  Cd4  1  0.381769  0.118231  0.000000  1
  Cd  Cd5  1  0.618231  0.881769  0.000000  1
  Co  Co6  1  0.000000  0.500000  0.500000  1
  Ir  Ir7  1  0.319314  0.819314  0.758588  1
  Ir  Ir8  1  0.680686  0.180686  0.758588  1
  Ir  Ir9  1  0.176817  0.323183  0.757240  1
  Ir  Ir10  1  0.823183  0.676817  0.757240  1
  Ir  Ir11  1  0.680686  0.180686  0.241412  1
  Ir  Ir12  1  0.319314  0.819314  0.241412  1
  Ir  Ir13  1  0.823183  0.676817  0.242760  1
  Ir  Ir14  1  0.176817  0.323183  0.242760  1
  Ir  Ir15  1  0.559730  0.703660  0.500000  1
  Ir  Ir16  1  0.440270  0.296340  0.500000  1
  Ir  Ir17  1  0.939597  0.211868  0.500000  1
  Ir  Ir18  1  0.060403  0.788132  0.500000  1
  Ir  Ir19  1  0.711868  0.439597  0.500000  1
  Ir  Ir20  1  0.288132  0.560403  0.500000  1
  Ir  Ir21  1  0.203660  0.059730  0.500000  1
  Ir  Ir22  1  0.796340  0.940270  0.500000  1
  Ir  Ir23  1  0.500000  0.000000  0.500000  1
