# generated using pymatgen
data_Cs6Na4TiSnP6
_symmetry_space_group_name_H-M   'P 1'
_cell_length_a   10.67842111
_cell_length_b   10.67842161
_cell_length_c   16.58952700
_cell_angle_alpha   90.00000000
_cell_angle_beta   90.00000000
_cell_angle_gamma   142.47904822
_symmetry_Int_Tables_number   1
_chemical_formula_structural   Cs6Na4TiSnP6
_chemical_formula_sum   'Cs12 Na8 Ti2 Sn2 P12'
_cell_volume   1152.13170497
_cell_formula_units_Z   2
loop_
 _symmetry_equiv_pos_site_id
 _symmetry_equiv_pos_as_xyz
  1  'x, y, z'
loop_
 _atom_site_type_symbol
 _atom_site_label
 _atom_site_symmetry_multiplicity
 _atom_site_fract_x
 _atom_site_fract_y
 _atom_site_fract_z
 _atom_site_occupancy
  Cs  Cs0  1  0.941880  0.606927  0.826717  1
  Cs  Cs1  1  0.558120  0.893073  0.326717  1
  Cs  Cs2  1  0.393073  0.058120  0.173283  1
  Cs  Cs3  1  0.055478  0.391479  0.172817  1
  Cs  Cs4  1  0.891479  0.555478  0.327183  1
  Cs  Cs5  1  0.444522  0.108521  0.672817  1
  Cs  Cs6  1  0.608521  0.944522  0.827183  1
  Cs  Cs7  1  0.273680  0.274238  0.318095  1
  Cs  Cs8  1  0.774238  0.773680  0.181905  1
  Cs  Cs9  1  0.226320  0.225762  0.818095  1
  Cs  Cs10  1  0.725762  0.726320  0.681905  1
  Cs  Cs11  1  0.106927  0.441880  0.673283  1
  Na  Na12  1  0.920074  0.079926  0.000000  1
  Na  Na13  1  0.579926  0.420074  0.500000  1
  Na  Na14  1  0.079645  0.920355  0.000000  1
  Na  Na15  1  0.420355  0.579645  0.500000  1
  Na  Na16  1  0.754866  0.245134  0.000000  1
  Na  Na17  1  0.745134  0.254866  0.500000  1
  Na  Na18  1  0.245744  0.754256  0.000000  1
  Na  Na19  1  0.254256  0.745744  0.500000  1
  Ti  Ti20  1  0.416855  0.583145  0.000000  1
  Ti  Ti21  1  0.083145  0.916855  0.500000  1
  Sn  Sn22  1  0.583374  0.416626  0.000000  1
  Sn  Sn23  1  0.916626  0.083374  0.500000  1
  P  P24  1  0.872798  0.560405  0.091673  1
  P  P25  1  0.439595  0.127202  0.908327  1
  P  P26  1  0.627202  0.939595  0.591673  1
  P  P27  1  0.949646  0.646131  0.585127  1
  P  P28  1  0.146131  0.449646  0.914873  1
  P  P29  1  0.550354  0.853869  0.085127  1
  P  P30  1  0.353869  0.050354  0.414873  1
  P  P31  1  0.203069  0.194339  0.582601  1
  P  P32  1  0.694339  0.703069  0.917399  1
  P  P33  1  0.296931  0.305661  0.082601  1
  P  P34  1  0.060405  0.372798  0.408327  1
  P  P35  1  0.805661  0.796931  0.417399  1
