# generated using pymatgen
data_Al12FeCo7Si4
_symmetry_space_group_name_H-M   'P 1'
_cell_length_a   7.57750763
_cell_length_b   7.57750747
_cell_length_c   7.57750749
_cell_angle_alpha   59.92419858
_cell_angle_beta   59.92419911
_cell_angle_gamma   59.92420084
_symmetry_Int_Tables_number   1
_chemical_formula_structural   Al12FeCo7Si4
_chemical_formula_sum   'Al12 Fe1 Co7 Si4'
_cell_volume   307.12612570
_cell_formula_units_Z   1
loop_
 _symmetry_equiv_pos_site_id
 _symmetry_equiv_pos_as_xyz
  1  'x, y, z'
loop_
 _atom_site_type_symbol
 _atom_site_label
 _atom_site_symmetry_multiplicity
 _atom_site_fract_x
 _atom_site_fract_y
 _atom_site_fract_z
 _atom_site_occupancy
  Al  Al0  1  0.801099  0.801099  0.198204  1
  Al  Al1  1  0.199620  0.199620  0.800630  1
  Al  Al2  1  0.801099  0.198204  0.801099  1
  Al  Al3  1  0.199620  0.800630  0.199620  1
  Al  Al4  1  0.198204  0.801099  0.801099  1
  Al  Al5  1  0.800630  0.199620  0.199620  1
  Al  Al6  1  0.449455  0.449455  0.050938  1
  Al  Al7  1  0.049903  0.049903  0.450761  1
  Al  Al8  1  0.449455  0.050938  0.449455  1
  Al  Al9  1  0.049903  0.450761  0.049903  1
  Al  Al10  1  0.050938  0.449455  0.449455  1
  Al  Al11  1  0.450761  0.049903  0.049903  1
  Fe  Fe12  1  0.841658  0.841658  0.841658  1
  Co  Co13  1  0.777114  0.407539  0.407539  1
  Co  Co14  1  0.407539  0.777114  0.407539  1
  Co  Co15  1  0.407539  0.407539  0.777114  1
  Co  Co16  1  0.408569  0.408569  0.408569  1
  Co  Co17  1  0.472966  0.841569  0.841569  1
  Co  Co18  1  0.841569  0.472966  0.841569  1
  Co  Co19  1  0.841569  0.841569  0.472966  1
  Si  Si20  1  0.123686  0.626389  0.626389  1
  Si  Si21  1  0.626389  0.123686  0.626389  1
  Si  Si22  1  0.626389  0.626389  0.123686  1
  Si  Si23  1  0.624323  0.624323  0.624323  1
