# generated using pymatgen
data_Li3Yb4MgAu4
_symmetry_space_group_name_H-M   'P 1'
_cell_length_a   4.31684700
_cell_length_b   7.29721601
_cell_length_c   8.60107801
_cell_angle_alpha   90.41645453
_cell_angle_beta   90.00000000
_cell_angle_gamma   90.00000000
_symmetry_Int_Tables_number   1
_chemical_formula_structural   Li3Yb4MgAu4
_chemical_formula_sum   'Li3 Yb4 Mg1 Au4'
_cell_volume   270.93510074
_cell_formula_units_Z   1
loop_
 _symmetry_equiv_pos_site_id
 _symmetry_equiv_pos_as_xyz
  1  'x, y, z'
loop_
 _atom_site_type_symbol
 _atom_site_label
 _atom_site_symmetry_multiplicity
 _atom_site_fract_x
 _atom_site_fract_y
 _atom_site_fract_z
 _atom_site_occupancy
  Li  Li0  1  0.250000  0.132540  0.939436  1
  Li  Li1  1  0.250000  0.635312  0.560169  1
  Li  Li2  1  0.750000  0.867865  0.058149  1
  Yb  Yb3  1  0.750000  0.962648  0.679646  1
  Yb  Yb4  1  0.250000  0.538792  0.174840  1
  Yb  Yb5  1  0.750000  0.463449  0.824008  1
  Yb  Yb6  1  0.250000  0.033769  0.319133  1
  Mg  Mg7  1  0.750000  0.366465  0.441837  1
  Au  Au8  1  0.250000  0.260400  0.627775  1
  Au  Au9  1  0.250000  0.761260  0.874402  1
  Au  Au10  1  0.750000  0.238355  0.127522  1
  Au  Au11  1  0.750000  0.739145  0.373082  1
