# generated using pymatgen
data_GaFePdBr8
_symmetry_space_group_name_H-M   'P 1'
_cell_length_a   7.89837454
_cell_length_b   7.89838125
_cell_length_c   7.65168594
_cell_angle_alpha   82.95650941
_cell_angle_beta   82.95681319
_cell_angle_gamma   67.73684646
_symmetry_Int_Tables_number   1
_chemical_formula_structural   GaFePdBr8
_chemical_formula_sum   'Ga1 Fe1 Pd1 Br8'
_cell_volume   436.91750681
_cell_formula_units_Z   1
loop_
 _symmetry_equiv_pos_site_id
 _symmetry_equiv_pos_as_xyz
  1  'x, y, z'
loop_
 _atom_site_type_symbol
 _atom_site_label
 _atom_site_symmetry_multiplicity
 _atom_site_fract_x
 _atom_site_fract_y
 _atom_site_fract_z
 _atom_site_occupancy
  Ga  Ga0  1  0.787313  0.787313  0.331663  1
  Fe  Fe1  1  0.207632  0.207634  0.675989  1
  Pd  Pd2  1  0.002510  0.002508  0.996002  1
  Br  Br3  1  0.692653  0.085385  0.153889  1
  Br  Br4  1  0.085385  0.692654  0.153893  1
  Br  Br5  1  0.315590  0.909683  0.844109  1
  Br  Br6  1  0.618349  0.618349  0.285922  1
  Br  Br7  1  0.909683  0.315590  0.844108  1
  Br  Br8  1  0.181683  0.181682  0.384240  1
  Br  Br9  1  0.820888  0.820887  0.619321  1
  Br  Br10  1  0.378314  0.378314  0.710865  1
