# generated using pymatgen
data_Dy3Sc3CrBi2
_symmetry_space_group_name_H-M   'P 1'
_cell_length_a   4.28605200
_cell_length_b   7.96259687
_cell_length_c   7.96259700
_cell_angle_alpha   119.99998807
_cell_angle_beta   90.00000000
_cell_angle_gamma   90.00000000
_symmetry_Int_Tables_number   1
_chemical_formula_structural   Dy3Sc3CrBi2
_chemical_formula_sum   'Dy3 Sc3 Cr1 Bi2'
_cell_volume   235.34099460
_cell_formula_units_Z   1
loop_
 _symmetry_equiv_pos_site_id
 _symmetry_equiv_pos_as_xyz
  1  'x, y, z'
loop_
 _atom_site_type_symbol
 _atom_site_label
 _atom_site_symmetry_multiplicity
 _atom_site_fract_x
 _atom_site_fract_y
 _atom_site_fract_z
 _atom_site_occupancy
  Dy  Dy0  1  0.000000  0.390913  0.390913  1
  Dy  Dy1  1  0.000000  0.000000  0.609087  1
  Dy  Dy2  1  0.000000  0.609087  0.000000  1
  Sc  Sc3  1  0.500000  0.774791  0.774791  1
  Sc  Sc4  1  0.500000  0.000000  0.225209  1
  Sc  Sc5  1  0.500000  0.225209  0.000000  1
  Cr  Cr6  1  0.000000  0.000000  0.000000  1
  Bi  Bi7  1  0.500000  0.666667  0.333333  1
  Bi  Bi8  1  0.500000  0.333333  0.666667  1
