# generated using pymatgen
data_HfTa(SiTc)2
_symmetry_space_group_name_H-M   'P 1'
_cell_length_a   3.35329800
_cell_length_b   6.93139076
_cell_length_c   11.90353651
_cell_angle_alpha   89.64858793
_cell_angle_beta   90.00000000
_cell_angle_gamma   90.00000000
_symmetry_Int_Tables_number   1
_chemical_formula_structural   HfTa(SiTc)2
_chemical_formula_sum   'Hf3 Ta3 Si6 Tc6'
_cell_volume   276.66891858
_cell_formula_units_Z   3
loop_
 _symmetry_equiv_pos_site_id
 _symmetry_equiv_pos_as_xyz
  1  'x, y, z'
loop_
 _atom_site_type_symbol
 _atom_site_label
 _atom_site_symmetry_multiplicity
 _atom_site_fract_x
 _atom_site_fract_y
 _atom_site_fract_z
 _atom_site_occupancy
  Hf  Hf0  1  0.500000  0.297670  0.298965  1
  Hf  Hf1  1  0.500000  0.296279  0.700801  1
  Hf  Hf2  1  0.500000  0.799208  0.201703  1
  Ta  Ta3  1  0.500000  0.404905  0.999644  1
  Ta  Ta4  1  0.500000  0.901146  0.501721  1
  Ta  Ta5  1  0.500000  0.796411  0.799151  1
  Si  Si6  1  0.500000  0.003722  0.998349  1
  Si  Si7  1  0.500000  0.501753  0.499556  1
  Si  Si8  1  0.000000  0.993245  0.667622  1
  Si  Si9  1  0.000000  0.499384  0.162297  1
  Si  Si10  1  0.000000  0.502800  0.834605  1
  Si  Si11  1  0.000000  0.997782  0.337870  1
  Tc  Tc12  1  0.000000  0.244521  0.501977  1
  Tc  Tc13  1  0.000000  0.747290  0.997062  1
  Tc  Tc14  1  0.000000  0.627686  0.627799  1
  Tc  Tc15  1  0.000000  0.129344  0.125201  1
  Tc  Tc16  1  0.000000  0.128939  0.872080  1
  Tc  Tc17  1  0.000000  0.628114  0.373600  1
