# generated using pymatgen
data_V2Se7S2
_symmetry_space_group_name_H-M   'P 1'
_cell_length_a   8.56967235
_cell_length_b   8.56826608
_cell_length_c   8.51819291
_cell_angle_alpha   83.40958883
_cell_angle_beta   96.57553888
_cell_angle_gamma   78.58198505
_symmetry_Int_Tables_number   1
_chemical_formula_structural   V2Se7S2
_chemical_formula_sum   'V4 Se14 S4'
_cell_volume   602.95843180
_cell_formula_units_Z   2
loop_
 _symmetry_equiv_pos_site_id
 _symmetry_equiv_pos_as_xyz
  1  'x, y, z'
loop_
 _atom_site_type_symbol
 _atom_site_label
 _atom_site_symmetry_multiplicity
 _atom_site_fract_x
 _atom_site_fract_y
 _atom_site_fract_z
 _atom_site_occupancy
  V  V0  1  0.400944  0.134698  0.415395  1
  V  V1  1  0.134655  0.400939  0.084594  1
  V  V2  1  0.599016  0.865420  0.584553  1
  V  V3  1  0.865389  0.599005  0.915458  1
  Se  Se4  1  0.321486  0.861459  0.449466  1
  Se  Se5  1  0.861521  0.321370  0.050590  1
  Se  Se6  1  0.678408  0.138665  0.550434  1
  Se  Se7  1  0.138599  0.678472  0.949467  1
  Se  Se8  1  0.099895  0.295117  0.379750  1
  Se  Se9  1  0.295135  0.099846  0.120326  1
  Se  Se10  1  0.900234  0.704841  0.620205  1
  Se  Se11  1  0.704700  0.900260  0.879801  1
  Se  Se12  1  0.301712  0.392882  0.529007  1
  Se  Se13  1  0.392897  0.301757  0.970979  1
  Se  Se14  1  0.698294  0.607050  0.471034  1
  Se  Se15  1  0.607014  0.698264  0.029018  1
  Se  Se16  1  0.406490  0.406573  0.249916  1
  Se  Se17  1  0.593511  0.593464  0.749988  1
  S  S18  1  0.345773  0.992608  0.651556  1
  S  S19  1  0.992669  0.345679  0.848491  1
  S  S20  1  0.654119  0.007514  0.348341  1
  S  S21  1  0.007542  0.654118  0.151635  1
