# generated using pymatgen
data_Tb12Nd7MgPb16
_symmetry_space_group_name_H-M   'P 1'
_cell_length_a   8.31227800
_cell_length_b   8.39416336
_cell_length_c   15.86774600
_cell_angle_alpha   90.03397136
_cell_angle_beta   90.22306890
_cell_angle_gamma   89.80036820
_symmetry_Int_Tables_number   1
_chemical_formula_structural   Tb12Nd7MgPb16
_chemical_formula_sum   'Tb12 Nd7 Mg1 Pb16'
_cell_volume   1107.15064084
_cell_formula_units_Z   1
loop_
 _symmetry_equiv_pos_site_id
 _symmetry_equiv_pos_as_xyz
  1  'x, y, z'
loop_
 _atom_site_type_symbol
 _atom_site_label
 _atom_site_symmetry_multiplicity
 _atom_site_fract_x
 _atom_site_fract_y
 _atom_site_fract_z
 _atom_site_occupancy
  Tb  Tb0  1  0.630827  0.161083  0.621334  1
  Tb  Tb1  1  0.132133  0.341808  0.878479  1
  Tb  Tb2  1  0.376394  0.841740  0.122925  1
  Tb  Tb3  1  0.869494  0.662319  0.378875  1
  Tb  Tb4  1  0.378905  0.841991  0.378084  1
  Tb  Tb5  1  0.867445  0.662490  0.121879  1
  Tb  Tb6  1  0.631655  0.160849  0.877504  1
  Tb  Tb7  1  0.129904  0.342379  0.620621  1
  Tb  Tb8  1  0.469417  0.676974  0.599643  1
  Tb  Tb9  1  0.796461  0.495737  0.749257  1
  Tb  Tb10  1  0.297294  0.005025  0.749191  1
  Tb  Tb11  1  0.201478  0.505876  0.250685  1
  Nd  Nd12  1  0.974823  0.822087  0.901236  1
  Nd  Nd13  1  0.525837  0.315747  0.098078  1
  Nd  Nd14  1  0.022741  0.174989  0.402234  1
  Nd  Nd15  1  0.527394  0.317104  0.401810  1
  Nd  Nd16  1  0.020339  0.175033  0.097242  1
  Nd  Nd17  1  0.475319  0.678017  0.902725  1
  Nd  Nd18  1  0.974064  0.821667  0.598311  1
  Mg  Mg19  1  0.704615  0.995903  0.250238  1
  Pb  Pb20  1  0.710181  0.960621  0.458346  1
  Pb  Pb21  1  0.208663  0.537859  0.044917  1
  Pb  Pb22  1  0.291774  0.038761  0.957626  1
  Pb  Pb23  1  0.785519  0.467308  0.543708  1
  Pb  Pb24  1  0.291353  0.036493  0.542646  1
  Pb  Pb25  1  0.792476  0.461708  0.957188  1
  Pb  Pb26  1  0.707768  0.958751  0.040927  1
  Pb  Pb27  1  0.212823  0.539109  0.456718  1
  Pb  Pb28  1  0.434219  0.374102  0.749412  1
  Pb  Pb29  1  0.934802  0.126016  0.749645  1
  Pb  Pb30  1  0.567491  0.621014  0.250247  1
  Pb  Pb31  1  0.065670  0.876623  0.250426  1
  Pb  Pb32  1  0.659569  0.849531  0.748230  1
  Pb  Pb33  1  0.164292  0.650325  0.749710  1
  Pb  Pb34  1  0.328330  0.150105  0.249966  1
  Pb  Pb35  1  0.838535  0.352851  0.249934  1
