# generated using pymatgen
data_Ba4NaCa(ReN4)2
_symmetry_space_group_name_H-M   'P 1'
_cell_length_a   10.85774109
_cell_length_b   10.49998398
_cell_length_c   8.09464975
_cell_angle_alpha   70.09202247
_cell_angle_beta   65.40332117
_cell_angle_gamma   44.62452364
_symmetry_Int_Tables_number   1
_chemical_formula_structural   Ba4NaCa(ReN4)2
_chemical_formula_sum   'Ba8 Na2 Ca2 Re4 N16'
_cell_volume   588.01564775
_cell_formula_units_Z   2
loop_
 _symmetry_equiv_pos_site_id
 _symmetry_equiv_pos_as_xyz
  1  'x, y, z'
loop_
 _atom_site_type_symbol
 _atom_site_label
 _atom_site_symmetry_multiplicity
 _atom_site_fract_x
 _atom_site_fract_y
 _atom_site_fract_z
 _atom_site_occupancy
  Ba  Ba0  1  0.578816  0.943800  0.910011  1
  Ba  Ba1  1  0.943800  0.578816  0.567373  1
  Ba  Ba2  1  0.306200  0.671184  0.682627  1
  Ba  Ba3  1  0.111218  0.111218  0.888782  1
  Ba  Ba4  1  0.138782  0.138782  0.361218  1
  Ba  Ba5  1  0.362415  0.362415  0.137585  1
  Ba  Ba6  1  0.671184  0.306200  0.339989  1
  Ba  Ba7  1  0.887585  0.887585  0.112415  1
  Na  Na8  1  0.335210  0.335210  0.664790  1
  Na  Na9  1  0.914790  0.914790  0.585210  1
  Ca  Ca10  1  0.659328  0.659328  0.340672  1
  Ca  Ca11  1  0.590672  0.590672  0.909328  1
  Re  Re12  1  0.494120  0.008743  0.488320  1
  Re  Re13  1  0.008743  0.494120  0.008818  1
  Re  Re14  1  0.755880  0.241257  0.761680  1
  Re  Re15  1  0.241257  0.755880  0.241182  1
  N  N16  1  0.022130  0.655753  0.839407  1
  N  N17  1  0.707547  0.283498  0.996776  1
  N  N18  1  0.655753  0.022130  0.482711  1
  N  N19  1  0.522082  0.824341  0.658072  1
  N  N20  1  0.227870  0.594247  0.410593  1
  N  N21  1  0.727918  0.425659  0.591928  1
  N  N22  1  0.995514  0.026838  0.705728  1
  N  N23  1  0.542453  0.966502  0.253224  1
  N  N24  1  0.425659  0.727918  0.254494  1
  N  N25  1  0.966502  0.542453  0.237822  1
  N  N26  1  0.283498  0.707547  0.012178  1
  N  N27  1  0.824341  0.522082  0.995506  1
  N  N28  1  0.223162  0.254486  0.978081  1
  N  N29  1  0.594247  0.227870  0.767289  1
  N  N30  1  0.254486  0.223162  0.544272  1
  N  N31  1  0.026838  0.995514  0.271919  1
