# generated using pymatgen
data_Tb5Lu5Co4
_symmetry_space_group_name_H-M   'P 1'
_cell_length_a   8.45315186
_cell_length_b   8.45315108
_cell_length_c   6.85627944
_cell_angle_alpha   83.50659627
_cell_angle_beta   83.50659833
_cell_angle_gamma   43.05769053
_symmetry_Int_Tables_number   1
_chemical_formula_structural   Tb5Lu5Co4
_chemical_formula_sum   'Tb5 Lu5 Co4'
_cell_volume   332.00479076
_cell_formula_units_Z   1
loop_
 _symmetry_equiv_pos_site_id
 _symmetry_equiv_pos_as_xyz
  1  'x, y, z'
loop_
 _atom_site_type_symbol
 _atom_site_label
 _atom_site_symmetry_multiplicity
 _atom_site_fract_x
 _atom_site_fract_y
 _atom_site_fract_z
 _atom_site_occupancy
  Tb  Tb0  1  0.572149  0.427851  0.250000  1
  Tb  Tb1  1  0.209731  0.985537  0.084982  1
  Tb  Tb2  1  0.014463  0.790269  0.415018  1
  Tb  Tb3  1  0.793903  0.012782  0.912399  1
  Tb  Tb4  1  0.987218  0.206097  0.587601  1
  Lu  Lu5  1  0.642922  0.787961  0.685234  1
  Lu  Lu6  1  0.212039  0.357078  0.814766  1
  Lu  Lu7  1  0.355622  0.211537  0.315569  1
  Lu  Lu8  1  0.788463  0.644378  0.184431  1
  Lu  Lu9  1  0.428197  0.571803  0.750000  1
  Co  Co10  1  0.404253  0.824365  0.428097  1
  Co  Co11  1  0.175635  0.595747  0.071903  1
  Co  Co12  1  0.593843  0.178439  0.573636  1
  Co  Co13  1  0.821561  0.406157  0.926364  1
