# generated using pymatgen
data_Nd2Mg2SnPb
_symmetry_space_group_name_H-M   'P 1'
_cell_length_a   8.75597626
_cell_length_b   8.75597632
_cell_length_c   8.75597543
_cell_angle_alpha   149.93011231
_cell_angle_beta   149.93010905
_cell_angle_gamma   43.04400370
_symmetry_Int_Tables_number   1
_chemical_formula_structural   Nd2Mg2SnPb
_chemical_formula_sum   'Nd2 Mg2 Sn1 Pb1'
_cell_volume   168.09429152
_cell_formula_units_Z   1
loop_
 _symmetry_equiv_pos_site_id
 _symmetry_equiv_pos_as_xyz
  1  'x, y, z'
loop_
 _atom_site_type_symbol
 _atom_site_label
 _atom_site_symmetry_multiplicity
 _atom_site_fract_x
 _atom_site_fract_y
 _atom_site_fract_z
 _atom_site_occupancy
  Nd  Nd0  1  0.661873  0.661873  0.000000  1
  Nd  Nd1  1  0.336087  0.336087  0.000000  1
  Mg  Mg2  1  0.001708  0.501708  0.500000  1
  Mg  Mg3  1  0.501708  0.001708  0.500000  1
  Sn  Sn4  1  0.134185  0.134185  0.000000  1
  Pb  Pb5  1  0.864440  0.864440  0.000000  1
