# generated using pymatgen
data_CsLiHgTe2
_symmetry_space_group_name_H-M   'P 1'
_cell_length_a   8.52846853
_cell_length_b   8.52846763
_cell_length_c   8.52846800
_cell_angle_alpha   148.38464875
_cell_angle_beta   148.38465169
_cell_angle_gamma   45.31786242
_symmetry_Int_Tables_number   1
_chemical_formula_structural   CsLiHgTe2
_chemical_formula_sum   'Cs1 Li1 Hg1 Te2'
_cell_volume   169.91464089
_cell_formula_units_Z   1
loop_
 _symmetry_equiv_pos_site_id
 _symmetry_equiv_pos_as_xyz
  1  'x, y, z'
loop_
 _atom_site_type_symbol
 _atom_site_label
 _atom_site_symmetry_multiplicity
 _atom_site_fract_x
 _atom_site_fract_y
 _atom_site_fract_z
 _atom_site_occupancy
  Cs  Cs0  1  0.000000  0.000000  0.000000  1
  Li  Li1  1  0.250000  0.750001  0.500001  1
  Hg  Hg2  1  0.750001  0.250000  0.500001  1
  Te  Te3  1  0.359444  0.359444  0.000000  1
  Te  Te4  1  0.640556  0.640556  0.000000  1
