# generated using pymatgen
data_Th10Sn6S
_symmetry_space_group_name_H-M   'P 1'
_cell_length_a   6.50484200
_cell_length_b   9.46695124
_cell_length_c   9.46690600
_cell_angle_alpha   119.99955539
_cell_angle_beta   90.00002151
_cell_angle_gamma   89.99933258
_symmetry_Int_Tables_number   1
_chemical_formula_structural   Th10Sn6S
_chemical_formula_sum   'Th10 Sn6 S1'
_cell_volume   504.87926471
_cell_formula_units_Z   1
loop_
 _symmetry_equiv_pos_site_id
 _symmetry_equiv_pos_as_xyz
  1  'x, y, z'
loop_
 _atom_site_type_symbol
 _atom_site_label
 _atom_site_symmetry_multiplicity
 _atom_site_fract_x
 _atom_site_fract_y
 _atom_site_fract_z
 _atom_site_occupancy
  Th  Th0  1  0.499998  0.333335  0.666666  1
  Th  Th1  1  0.499998  0.666666  0.333334  1
  Th  Th2  1  0.999996  0.666668  0.333331  1
  Th  Th3  1  0.999999  0.333334  0.666670  1
  Th  Th4  1  0.753642  0.256329  0.999999  1
  Th  Th5  1  0.753634  0.743658  0.743663  1
  Th  Th6  1  0.753632  0.000001  0.256339  1
  Th  Th7  1  0.246356  0.743663  0.999996  1
  Th  Th8  1  0.246356  0.256337  0.256343  1
  Th  Th9  1  0.246357  0.000006  0.743667  1
  Sn  Sn10  1  0.750405  0.613434  0.000000  1
  Sn  Sn11  1  0.750415  0.386558  0.386559  1
  Sn  Sn12  1  0.750384  0.000000  0.613438  1
  Sn  Sn13  1  0.249622  0.386562  0.000000  1
  Sn  Sn14  1  0.249601  0.613454  0.613429  1
  Sn  Sn15  1  0.249610  0.000000  0.386565  1
  S  S16  1  0.499995  0.999998  0.000001  1
