# generated using pymatgen
data_La3Nd(IO4)4
_symmetry_space_group_name_H-M   'P 1'
_cell_length_a   5.74937699
_cell_length_b   5.75885461
_cell_length_c   11.16757100
_cell_angle_alpha   90.03386695
_cell_angle_beta   89.72135179
_cell_angle_gamma   90.08010531
_symmetry_Int_Tables_number   1
_chemical_formula_structural   La3Nd(IO4)4
_chemical_formula_sum   'La3 Nd1 I4 O16'
_cell_volume   369.75153770
_cell_formula_units_Z   1
loop_
 _symmetry_equiv_pos_site_id
 _symmetry_equiv_pos_as_xyz
  1  'x, y, z'
loop_
 _atom_site_type_symbol
 _atom_site_label
 _atom_site_symmetry_multiplicity
 _atom_site_fract_x
 _atom_site_fract_y
 _atom_site_fract_z
 _atom_site_occupancy
  La  La0  1  0.493649  0.315335  0.891399  1
  La  La1  1  0.500434  0.815327  0.111009  1
  La  La2  1  0.002793  0.816313  0.891516  1
  Nd  Nd3  1  0.990210  0.316711  0.107357  1
  I  I4  1  0.003787  0.327288  0.632785  1
  I  I5  1  0.998955  0.825534  0.364975  1
  I  I6  1  0.497552  0.827254  0.632697  1
  I  I7  1  0.506661  0.325733  0.367184  1
  O  O8  1  0.242405  0.067276  0.008324  1
  O  O9  1  0.753189  0.566479  0.994406  1
  O  O10  1  0.251374  0.565967  0.008181  1
  O  O11  1  0.743272  0.068270  0.994565  1
  O  O12  1  0.128149  0.429682  0.775151  1
  O  O13  1  0.874684  0.934549  0.224058  1
  O  O14  1  0.370670  0.929373  0.775170  1
  O  O15  1  0.634990  0.426556  0.224893  1
  O  O16  1  0.845026  0.086162  0.709999  1
  O  O17  1  0.152702  0.582825  0.286058  1
  O  O18  1  0.654813  0.586502  0.709845  1
  O  O19  1  0.349536  0.083334  0.291215  1
  O  O20  1  0.245941  0.164264  0.562932  1
  O  O21  1  0.755685  0.664523  0.435417  1
  O  O22  1  0.256667  0.663973  0.562667  1
  O  O23  1  0.746860  0.164413  0.438199  1
