# generated using pymatgen
data_Dy8Si12IrPt3
_symmetry_space_group_name_H-M   'P 1'
_cell_length_a   8.17613900
_cell_length_b   8.17613955
_cell_length_c   7.95386200
_cell_angle_alpha   90.00000000
_cell_angle_beta   90.00000000
_cell_angle_gamma   119.99999374
_symmetry_Int_Tables_number   1
_chemical_formula_structural   Dy8Si12IrPt3
_chemical_formula_sum   'Dy8 Si12 Ir1 Pt3'
_cell_volume   460.47416835
_cell_formula_units_Z   1
loop_
 _symmetry_equiv_pos_site_id
 _symmetry_equiv_pos_as_xyz
  1  'x, y, z'
loop_
 _atom_site_type_symbol
 _atom_site_label
 _atom_site_symmetry_multiplicity
 _atom_site_fract_x
 _atom_site_fract_y
 _atom_site_fract_z
 _atom_site_occupancy
  Dy  Dy0  1  0.000000  0.000000  0.249316  1
  Dy  Dy1  1  0.000000  0.000000  0.749450  1
  Dy  Dy2  1  0.508367  0.491633  0.251970  1
  Dy  Dy3  1  0.508367  0.016735  0.251970  1
  Dy  Dy4  1  0.983265  0.491633  0.251970  1
  Dy  Dy5  1  0.489360  0.510640  0.748226  1
  Dy  Dy6  1  0.489360  0.978718  0.748226  1
  Dy  Dy7  1  0.021282  0.510640  0.748226  1
  Si  Si8  1  0.166935  0.833065  0.498701  1
  Si  Si9  1  0.166935  0.333871  0.498701  1
  Si  Si10  1  0.666129  0.833065  0.498701  1
  Si  Si11  1  0.835291  0.164709  0.500596  1
  Si  Si12  1  0.835291  0.670583  0.500596  1
  Si  Si13  1  0.329417  0.164709  0.500596  1
  Si  Si14  1  0.834829  0.165171  0.999615  1
  Si  Si15  1  0.834829  0.669658  0.999615  1
  Si  Si16  1  0.330342  0.165171  0.999615  1
  Si  Si17  1  0.165145  0.834855  0.999805  1
  Si  Si18  1  0.165145  0.330290  0.999805  1
  Si  Si19  1  0.669710  0.834855  0.999805  1
  Ir  Ir20  1  0.333333  0.666667  0.468323  1
  Pt  Pt21  1  0.666667  0.333333  0.532195  1
  Pt  Pt22  1  0.666667  0.333333  0.967416  1
  Pt  Pt23  1  0.333333  0.666667  0.036553  1
