# generated using pymatgen
data_Ho8Ti10NbSi16Ir
_symmetry_space_group_name_H-M   'P 1'
_cell_length_a   7.02604837
_cell_length_b   7.02213222
_cell_length_c   12.86158226
_cell_angle_alpha   90.18372719
_cell_angle_beta   89.87891168
_cell_angle_gamma   89.77900122
_symmetry_Int_Tables_number   1
_chemical_formula_structural   Ho8Ti10NbSi16Ir
_chemical_formula_sum   'Ho8 Ti10 Nb1 Si16 Ir1'
_cell_volume   634.55327942
_cell_formula_units_Z   1
loop_
 _symmetry_equiv_pos_site_id
 _symmetry_equiv_pos_as_xyz
  1  'x, y, z'
loop_
 _atom_site_type_symbol
 _atom_site_label
 _atom_site_symmetry_multiplicity
 _atom_site_fract_x
 _atom_site_fract_y
 _atom_site_fract_z
 _atom_site_occupancy
  Ho  Ho0  1  0.341184  0.003559  0.467265  1
  Ho  Ho1  1  0.496594  0.842048  0.718122  1
  Ho  Ho2  1  0.500745  0.157553  0.215134  1
  Ho  Ho3  1  0.842538  0.497228  0.281750  1
  Ho  Ho4  1  0.158030  0.501114  0.785075  1
  Ho  Ho5  1  0.657713  0.998312  0.968498  1
  Ho  Ho6  1  0.003915  0.340521  0.532917  1
  Ho  Ho7  1  0.998450  0.657741  0.031251  1
  Ti  Ti8  1  0.826615  0.175415  0.752030  1
  Ti  Ti9  1  0.673492  0.673882  0.500125  1
  Ti  Ti10  1  0.149293  0.002361  0.875668  1
  Ti  Ti11  1  0.492753  0.657344  0.125141  1
  Ti  Ti12  1  0.506938  0.349421  0.628072  1
  Ti  Ti13  1  0.656887  0.493475  0.875289  1
  Ti  Ti14  1  0.348778  0.508018  0.371299  1
  Ti  Ti15  1  0.849318  0.993372  0.374200  1
  Ti  Ti16  1  0.002217  0.147792  0.124826  1
  Ti  Ti17  1  0.994199  0.848911  0.625290  1
  Nb  Nb18  1  0.175201  0.826746  0.247849  1
  Si  Si19  1  0.202129  0.132924  0.685514  1
  Si  Si20  1  0.372388  0.701732  0.933227  1
  Si  Si21  1  0.631495  0.296287  0.434275  1
  Si  Si22  1  0.701212  0.372139  0.066182  1
  Si  Si23  1  0.296286  0.630916  0.566091  1
  Si  Si24  1  0.795505  0.867775  0.183421  1
  Si  Si25  1  0.132831  0.203367  0.315195  1
  Si  Si26  1  0.867512  0.796711  0.816227  1
  Si  Si27  1  0.287792  0.954022  0.061342  1
  Si  Si28  1  0.548763  0.792141  0.315875  1
  Si  Si29  1  0.449263  0.209568  0.818730  1
  Si  Si30  1  0.792174  0.547667  0.684627  1
  Si  Si31  1  0.209556  0.447730  0.181302  1
  Si  Si32  1  0.708419  0.048103  0.565876  1
  Si  Si33  1  0.951381  0.286258  0.936436  1
  Si  Si34  1  0.047332  0.707437  0.435490  1
  Ir  Ir35  1  0.331104  0.330409  0.000385  1
