# generated using pymatgen
data_Tb2Lu3SiBi2
_symmetry_space_group_name_H-M   'P 1'
_cell_length_a   11.98818100
_cell_length_b   9.05893200
_cell_length_c   7.98319300
_cell_angle_alpha   90.00000000
_cell_angle_beta   90.00000000
_cell_angle_gamma   90.00000000
_symmetry_Int_Tables_number   1
_chemical_formula_structural   Tb2Lu3SiBi2
_chemical_formula_sum   'Tb8 Lu12 Si4 Bi8'
_cell_volume   866.97568970
_cell_formula_units_Z   4
loop_
 _symmetry_equiv_pos_site_id
 _symmetry_equiv_pos_as_xyz
  1  'x, y, z'
loop_
 _atom_site_type_symbol
 _atom_site_label
 _atom_site_symmetry_multiplicity
 _atom_site_fract_x
 _atom_site_fract_y
 _atom_site_fract_z
 _atom_site_occupancy
  Tb  Tb0  1  0.211891  0.750000  0.164278  1
  Tb  Tb1  1  0.711891  0.750000  0.335722  1
  Tb  Tb2  1  0.788109  0.250000  0.835722  1
  Tb  Tb3  1  0.288109  0.250000  0.664278  1
  Tb  Tb4  1  0.294550  0.750000  0.638594  1
  Tb  Tb5  1  0.794550  0.750000  0.861406  1
  Tb  Tb6  1  0.705450  0.250000  0.361406  1
  Tb  Tb7  1  0.205450  0.250000  0.138594  1
  Lu  Lu8  1  0.062639  0.553968  0.821079  1
  Lu  Lu9  1  0.562639  0.946032  0.678921  1
  Lu  Lu10  1  0.937361  0.053968  0.178921  1
  Lu  Lu11  1  0.437361  0.446032  0.321079  1
  Lu  Lu12  1  0.937361  0.446032  0.178921  1
  Lu  Lu13  1  0.437361  0.053968  0.321079  1
  Lu  Lu14  1  0.062639  0.946032  0.821079  1
  Lu  Lu15  1  0.562639  0.553968  0.678921  1
  Lu  Lu16  1  0.000874  0.750000  0.460267  1
  Lu  Lu17  1  0.500874  0.750000  0.039733  1
  Lu  Lu18  1  0.999126  0.250000  0.539733  1
  Lu  Lu19  1  0.499126  0.250000  0.960267  1
  Si  Si20  1  0.478037  0.750000  0.411149  1
  Si  Si21  1  0.978037  0.750000  0.088851  1
  Si  Si22  1  0.521963  0.250000  0.588851  1
  Si  Si23  1  0.021963  0.250000  0.911149  1
  Bi  Bi24  1  0.328280  0.510251  0.932540  1
  Bi  Bi25  1  0.828280  0.989749  0.567460  1
  Bi  Bi26  1  0.671720  0.010251  0.067460  1
  Bi  Bi27  1  0.171720  0.489749  0.432540  1
  Bi  Bi28  1  0.671720  0.489749  0.067460  1
  Bi  Bi29  1  0.171720  0.010251  0.432540  1
  Bi  Bi30  1  0.328280  0.989749  0.932540  1
  Bi  Bi31  1  0.828280  0.510251  0.567460  1
