# generated using pymatgen
data_GdErTmTaO7
_symmetry_space_group_name_H-M   'P 1'
_cell_length_a   6.44687831
_cell_length_b   6.44687764
_cell_length_c   7.48422576
_cell_angle_alpha   90.01161307
_cell_angle_beta   90.01161807
_cell_angle_gamma   108.84893316
_symmetry_Int_Tables_number   1
_chemical_formula_structural   GdErTmTaO7
_chemical_formula_sum   'Gd2 Er2 Tm2 Ta2 O14'
_cell_volume   294.38007297
_cell_formula_units_Z   2
loop_
 _symmetry_equiv_pos_site_id
 _symmetry_equiv_pos_as_xyz
  1  'x, y, z'
loop_
 _atom_site_type_symbol
 _atom_site_label
 _atom_site_symmetry_multiplicity
 _atom_site_fract_x
 _atom_site_fract_y
 _atom_site_fract_z
 _atom_site_occupancy
  Gd  Gd0  1  0.476451  0.477136  0.999542  1
  Gd  Gd1  1  0.522864  0.523549  0.500458  1
  Er  Er2  1  0.465919  0.999054  0.255184  1
  Er  Er3  1  0.000946  0.534081  0.244816  1
  Tm  Tm4  1  0.534147  0.001272  0.755529  1
  Tm  Tm5  1  0.998728  0.465853  0.744471  1
  Ta  Ta6  1  0.002356  0.002365  0.500707  1
  Ta  Ta7  1  0.997635  0.997644  0.999293  1
  O  O8  1  0.929671  0.070329  0.750000  1
  O  O9  1  0.643000  0.357000  0.750000  1
  O  O10  1  0.314213  0.055831  0.542306  1
  O  O11  1  0.944169  0.685787  0.957694  1
  O  O12  1  0.633410  0.366590  0.250000  1
  O  O13  1  0.923148  0.673057  0.529169  1
  O  O14  1  0.326943  0.076852  0.970831  1
  O  O15  1  0.077255  0.326971  0.027443  1
  O  O16  1  0.673029  0.922745  0.472557  1
  O  O17  1  0.366002  0.633998  0.750000  1
  O  O18  1  0.684527  0.940296  0.039550  1
  O  O19  1  0.059704  0.315473  0.460450  1
  O  O20  1  0.358207  0.641793  0.250000  1
  O  O21  1  0.067678  0.932322  0.250000  1
