# generated using pymatgen
data_Dy2Ho2Al24IrPt8
_symmetry_space_group_name_H-M   'P 1'
_cell_length_a   7.51896522
_cell_length_b   7.54352192
_cell_length_c   13.16863105
_cell_angle_alpha   84.63337022
_cell_angle_beta   79.12296257
_cell_angle_gamma   59.91494593
_symmetry_Int_Tables_number   1
_chemical_formula_structural   Dy2Ho2Al24IrPt8
_chemical_formula_sum   'Dy2 Ho2 Al24 Ir1 Pt8'
_cell_volume   634.68320626
_cell_formula_units_Z   1
loop_
 _symmetry_equiv_pos_site_id
 _symmetry_equiv_pos_as_xyz
  1  'x, y, z'
loop_
 _atom_site_type_symbol
 _atom_site_label
 _atom_site_symmetry_multiplicity
 _atom_site_fract_x
 _atom_site_fract_y
 _atom_site_fract_z
 _atom_site_occupancy
  Dy  Dy0  1  0.393549  0.168489  0.808800  1
  Dy  Dy1  1  0.606451  0.831511  0.191200  1
  Ho  Ho2  1  0.733900  0.498375  0.808607  1
  Ho  Ho3  1  0.266100  0.501625  0.191393  1
  Al  Al4  1  0.686808  0.830629  0.945389  1
  Al  Al5  1  0.313192  0.169371  0.054611  1
  Al  Al6  1  0.146561  0.832067  0.561627  1
  Al  Al7  1  0.853439  0.167933  0.438373  1
  Al  Al8  1  0.479979  0.166642  0.558999  1
  Al  Al9  1  0.520021  0.833358  0.441001  1
  Al  Al10  1  0.217375  0.165339  0.328310  1
  Al  Al11  1  0.782625  0.834661  0.671690  1
  Al  Al12  1  0.436549  0.507010  0.671580  1
  Al  Al13  1  0.563451  0.492990  0.328420  1
  Al  Al14  1  0.109251  0.160133  0.669555  1
  Al  Al15  1  0.890749  0.839867  0.330445  1
  Al  Al16  1  0.349882  0.499238  0.945614  1
  Al  Al17  1  0.650118  0.500762  0.054386  1
  Al  Al18  1  0.015014  0.171294  0.954537  1
  Al  Al19  1  0.984986  0.828706  0.045463  1
  Al  Al20  1  0.186635  0.499338  0.441138  1
  Al  Al21  1  0.813365  0.500662  0.558862  1
  Al  Al22  1  0.734405  0.163836  0.183141  1
  Al  Al23  1  0.265595  0.836164  0.816859  1
  Al  Al24  1  0.060884  0.629682  0.817373  1
  Al  Al25  1  0.939116  0.370318  0.182627  1
  Al  Al26  1  0.855818  0.041760  0.816408  1
  Al  Al27  1  0.144182  0.958240  0.183592  1
  Ir  Ir28  1  0.000000  0.500000  0.000000  1
  Pt  Pt29  1  0.119960  0.491948  0.638552  1
  Pt  Pt30  1  0.880040  0.508052  0.361448  1
  Pt  Pt31  1  0.657667  0.171015  0.999732  1
  Pt  Pt32  1  0.342333  0.828985  0.000268  1
  Pt  Pt33  1  0.537536  0.166865  0.361769  1
  Pt  Pt34  1  0.462464  0.833135  0.638231  1
  Pt  Pt35  1  0.778667  0.174968  0.636982  1
  Pt  Pt36  1  0.221333  0.825032  0.363018  1
