# generated using pymatgen
data_NdEu3(Mo2O7)2
_symmetry_space_group_name_H-M   'P 1'
_cell_length_a   7.49289725
_cell_length_b   7.49289726
_cell_length_c   7.49289729
_cell_angle_alpha   60.31424800
_cell_angle_beta   60.31425002
_cell_angle_gamma   60.31424664
_symmetry_Int_Tables_number   1
_chemical_formula_structural   NdEu3(Mo2O7)2
_chemical_formula_sum   'Nd1 Eu3 Mo4 O14'
_cell_volume   299.57907663
_cell_formula_units_Z   1
loop_
 _symmetry_equiv_pos_site_id
 _symmetry_equiv_pos_as_xyz
  1  'x, y, z'
loop_
 _atom_site_type_symbol
 _atom_site_label
 _atom_site_symmetry_multiplicity
 _atom_site_fract_x
 _atom_site_fract_y
 _atom_site_fract_z
 _atom_site_occupancy
  Nd  Nd0  1  0.125000  0.125000  0.125000  1
  Eu  Eu1  1  0.625000  0.125000  0.125000  1
  Eu  Eu2  1  0.125000  0.625000  0.125000  1
  Eu  Eu3  1  0.125000  0.125000  0.625000  1
  Mo  Mo4  1  0.125000  0.625000  0.625000  1
  Mo  Mo5  1  0.625000  0.125000  0.625000  1
  Mo  Mo6  1  0.625000  0.625000  0.125000  1
  Mo  Mo7  1  0.625000  0.625000  0.625000  1
  O  O8  1  0.252140  0.252140  0.252140  1
  O  O9  1  0.997860  0.997860  0.997860  1
  O  O10  1  0.700260  0.700260  0.304152  1
  O  O11  1  0.292150  0.292150  0.711628  1
  O  O12  1  0.700260  0.304152  0.700260  1
  O  O13  1  0.292150  0.711628  0.292150  1
  O  O14  1  0.304152  0.700260  0.700260  1
  O  O15  1  0.711628  0.292150  0.292150  1
  O  O16  1  0.549740  0.549740  0.945848  1
  O  O17  1  0.957850  0.957850  0.538372  1
  O  O18  1  0.549740  0.945848  0.549740  1
  O  O19  1  0.957850  0.538372  0.957850  1
  O  O20  1  0.945848  0.549740  0.549740  1
  O  O21  1  0.538372  0.957850  0.957850  1
