# generated using pymatgen
data_BaBi6(AsO5)4
_symmetry_space_group_name_H-M   'P 1'
_cell_length_a   7.28077234
_cell_length_b   8.07246197
_cell_length_c   9.45587416
_cell_angle_alpha   106.83614169
_cell_angle_beta   93.25516232
_cell_angle_gamma   111.29184828
_symmetry_Int_Tables_number   1
_chemical_formula_structural   BaBi6(AsO5)4
_chemical_formula_sum   'Ba1 Bi6 As4 O20'
_cell_volume   487.38607485
_cell_formula_units_Z   1
loop_
 _symmetry_equiv_pos_site_id
 _symmetry_equiv_pos_as_xyz
  1  'x, y, z'
loop_
 _atom_site_type_symbol
 _atom_site_label
 _atom_site_symmetry_multiplicity
 _atom_site_fract_x
 _atom_site_fract_y
 _atom_site_fract_z
 _atom_site_occupancy
  Ba  Ba0  1  0.000000  0.500001  0.000000  1
  Bi  Bi1  1  0.445623  0.305318  0.090873  1
  Bi  Bi2  1  0.796263  0.790811  0.325675  1
  Bi  Bi3  1  0.667285  0.380973  0.485996  1
  Bi  Bi4  1  0.332715  0.619026  0.514003  1
  Bi  Bi5  1  0.203737  0.209188  0.674325  1
  Bi  Bi6  1  0.554377  0.694683  0.909127  1
  As  As7  1  0.959305  0.226783  0.249758  1
  As  As8  1  0.355350  0.905235  0.261479  1
  As  As9  1  0.644649  0.094763  0.738521  1
  As  As10  1  0.040695  0.773215  0.750241  1
  O  O11  1  0.359117  0.818997  0.073290  1
  O  O12  1  0.668214  0.593800  0.100471  1
  O  O13  1  0.850542  0.984706  0.174869  1
  O  O14  1  0.137223  0.323564  0.152014  1
  O  O15  1  0.786719  0.330285  0.248098  1
  O  O16  1  0.124854  0.769571  0.288347  1
  O  O17  1  0.389362  0.139256  0.311330  1
  O  O18  1  0.534047  0.877643  0.370392  1
  O  O19  1  0.550246  0.524418  0.361935  1
  O  O20  1  0.064243  0.303599  0.438011  1
  O  O21  1  0.935758  0.696402  0.561989  1
  O  O22  1  0.449754  0.475581  0.638064  1
  O  O23  1  0.465955  0.122357  0.629608  1
  O  O24  1  0.610637  0.860744  0.688671  1
  O  O25  1  0.875147  0.230427  0.711654  1
  O  O26  1  0.213280  0.669714  0.751901  1
  O  O27  1  0.862777  0.676435  0.847985  1
  O  O28  1  0.149458  0.015293  0.825131  1
  O  O29  1  0.331785  0.406200  0.899528  1
  O  O30  1  0.640882  0.181002  0.926710  1
