# generated using pymatgen
data_TbPa3(GaTc)4
_symmetry_space_group_name_H-M   'P 1'
_cell_length_a   3.89982100
_cell_length_b   7.05477126
_cell_length_c   8.41983957
_cell_angle_alpha   89.19213527
_cell_angle_beta   90.00000000
_cell_angle_gamma   90.00000000
_symmetry_Int_Tables_number   1
_chemical_formula_structural   TbPa3(GaTc)4
_chemical_formula_sum   'Tb1 Pa3 Ga4 Tc4'
_cell_volume   231.62650561
_cell_formula_units_Z   1
loop_
 _symmetry_equiv_pos_site_id
 _symmetry_equiv_pos_as_xyz
  1  'x, y, z'
loop_
 _atom_site_type_symbol
 _atom_site_label
 _atom_site_symmetry_multiplicity
 _atom_site_fract_x
 _atom_site_fract_y
 _atom_site_fract_z
 _atom_site_occupancy
  Tb  Tb0  1  0.750000  0.036112  0.687890  1
  Pa  Pa1  1  0.750000  0.532699  0.806183  1
  Pa  Pa2  1  0.250000  0.970325  0.310959  1
  Pa  Pa3  1  0.250000  0.473040  0.187937  1
  Ga  Ga4  1  0.750000  0.637507  0.444258  1
  Ga  Ga5  1  0.250000  0.345433  0.557563  1
  Ga  Ga6  1  0.750000  0.141042  0.053466  1
  Ga  Ga7  1  0.250000  0.865798  0.937803  1
  Tc  Tc8  1  0.250000  0.725797  0.640679  1
  Tc  Tc9  1  0.250000  0.276222  0.876748  1
  Tc  Tc10  1  0.750000  0.752088  0.142918  1
  Tc  Tc11  1  0.750000  0.243938  0.353595  1
