# generated using pymatgen
data_La3NdZn4(InCu4)4
_symmetry_space_group_name_H-M   'P 1'
_cell_length_a   5.14362300
_cell_length_b   8.43936733
_cell_length_c   10.77779501
_cell_angle_alpha   90.01785308
_cell_angle_beta   90.00000000
_cell_angle_gamma   90.00000000
_symmetry_Int_Tables_number   1
_chemical_formula_structural   La3NdZn4(InCu4)4
_chemical_formula_sum   'La3 Nd1 Zn4 In4 Cu16'
_cell_volume   467.85246060
_cell_formula_units_Z   1
loop_
 _symmetry_equiv_pos_site_id
 _symmetry_equiv_pos_as_xyz
  1  'x, y, z'
loop_
 _atom_site_type_symbol
 _atom_site_label
 _atom_site_symmetry_multiplicity
 _atom_site_fract_x
 _atom_site_fract_y
 _atom_site_fract_z
 _atom_site_occupancy
  La  La0  1  0.250000  0.756164  0.058712  1
  La  La1  1  0.750000  0.243878  0.941547  1
  La  La2  1  0.750000  0.744564  0.558431  1
  Nd  Nd3  1  0.250000  0.256426  0.440935  1
  Zn  Zn4  1  0.250000  0.815935  0.740630  1
  Zn  Zn5  1  0.750000  0.184045  0.260028  1
  Zn  Zn6  1  0.750000  0.683992  0.241198  1
  Zn  Zn7  1  0.250000  0.316114  0.758462  1
  In  In8  1  0.250000  0.636542  0.365325  1
  In  In9  1  0.750000  0.360591  0.633845  1
  In  In10  1  0.750000  0.861939  0.865201  1
  In  In11  1  0.250000  0.138493  0.135550  1
  Cu  Cu12  1  0.502551  0.566918  0.812245  1
  Cu  Cu13  1  0.497273  0.432618  0.188038  1
  Cu  Cu14  1  0.497446  0.933353  0.312651  1
  Cu  Cu15  1  0.002727  0.432618  0.188038  1
  Cu  Cu16  1  0.501874  0.067318  0.687404  1
  Cu  Cu17  1  0.997449  0.566918  0.812245  1
  Cu  Cu18  1  0.998126  0.067318  0.687404  1
  Cu  Cu19  1  0.002554  0.933353  0.312651  1
  Cu  Cu20  1  0.250000  0.555715  0.606757  1
  Cu  Cu21  1  0.750000  0.442384  0.392826  1
  Cu  Cu22  1  0.750000  0.943282  0.107188  1
  Cu  Cu23  1  0.250000  0.056722  0.892911  1
  Cu  Cu24  1  0.250000  0.921067  0.514010  1
  Cu  Cu25  1  0.750000  0.081618  0.485521  1
  Cu  Cu26  1  0.750000  0.580217  0.014744  1
  Cu  Cu27  1  0.250000  0.419900  0.985504  1
