# generated using pymatgen
data_TbTm7Ga3Fe
_symmetry_space_group_name_H-M   'P 1'
_cell_length_a   9.83738600
_cell_length_b   9.83738584
_cell_length_c   6.90076500
_cell_angle_alpha   90.00000000
_cell_angle_beta   90.00000000
_cell_angle_gamma   120.00000053
_symmetry_Int_Tables_number   1
_chemical_formula_structural   TbTm7Ga3Fe
_chemical_formula_sum   'Tb2 Tm14 Ga6 Fe2'
_cell_volume   578.34540001
_cell_formula_units_Z   2
loop_
 _symmetry_equiv_pos_site_id
 _symmetry_equiv_pos_as_xyz
  1  'x, y, z'
loop_
 _atom_site_type_symbol
 _atom_site_label
 _atom_site_symmetry_multiplicity
 _atom_site_fract_x
 _atom_site_fract_y
 _atom_site_fract_z
 _atom_site_occupancy
  Tb  Tb0  1  0.000000  0.000000  0.768557  1
  Tb  Tb1  1  0.000000  0.000000  0.268557  1
  Tm  Tm2  1  0.825681  0.651363  0.488428  1
  Tm  Tm3  1  0.348637  0.174319  0.488428  1
  Tm  Tm4  1  0.825681  0.174319  0.488428  1
  Tm  Tm5  1  0.174319  0.348637  0.988428  1
  Tm  Tm6  1  0.651363  0.825681  0.988428  1
  Tm  Tm7  1  0.174319  0.825681  0.988428  1
  Tm  Tm8  1  0.666667  0.333333  0.171272  1
  Tm  Tm9  1  0.333333  0.666667  0.671272  1
  Tm  Tm10  1  0.536841  0.073682  0.792809  1
  Tm  Tm11  1  0.926318  0.463159  0.792809  1
  Tm  Tm12  1  0.536841  0.463159  0.792809  1
  Tm  Tm13  1  0.463159  0.926318  0.292809  1
  Tm  Tm14  1  0.073682  0.536841  0.292809  1
  Tm  Tm15  1  0.463159  0.536841  0.292809  1
  Ga  Ga16  1  0.835594  0.671188  0.041297  1
  Ga  Ga17  1  0.328812  0.164406  0.041297  1
  Ga  Ga18  1  0.835594  0.164406  0.041297  1
  Ga  Ga19  1  0.164406  0.328812  0.541297  1
  Ga  Ga20  1  0.671188  0.835594  0.541297  1
  Ga  Ga21  1  0.164406  0.835594  0.541297  1
  Fe  Fe22  1  0.666667  0.333333  0.555605  1
  Fe  Fe23  1  0.333333  0.666667  0.055605  1
