# generated using pymatgen
data_Ca4Si8Tc5Mo
_symmetry_space_group_name_H-M   'P 1'
_cell_length_a   6.82273939
_cell_length_b   6.70591507
_cell_length_c   6.79724969
_cell_angle_alpha   70.64511398
_cell_angle_beta   90.01954422
_cell_angle_gamma   90.32375026
_symmetry_Int_Tables_number   1
_chemical_formula_structural   Ca4Si8Tc5Mo
_chemical_formula_sum   'Ca4 Si8 Tc5 Mo1'
_cell_volume   293.41144190
_cell_formula_units_Z   1
loop_
 _symmetry_equiv_pos_site_id
 _symmetry_equiv_pos_as_xyz
  1  'x, y, z'
loop_
 _atom_site_type_symbol
 _atom_site_label
 _atom_site_symmetry_multiplicity
 _atom_site_fract_x
 _atom_site_fract_y
 _atom_site_fract_z
 _atom_site_occupancy
  Ca  Ca0  1  0.335029  0.556961  0.815296  1
  Ca  Ca1  1  0.835816  0.943196  0.182476  1
  Ca  Ca2  1  0.663849  0.442967  0.185460  1
  Ca  Ca3  1  0.164755  0.056823  0.816098  1
  Si  Si4  1  0.547261  0.874806  0.904115  1
  Si  Si5  1  0.046663  0.618766  0.102617  1
  Si  Si6  1  0.453391  0.118382  0.104052  1
  Si  Si7  1  0.954056  0.379636  0.902602  1
  Si  Si8  1  0.137203  0.866087  0.495531  1
  Si  Si9  1  0.635197  0.637496  0.504234  1
  Si  Si10  1  0.869859  0.128928  0.500973  1
  Si  Si11  1  0.358946  0.371945  0.493336  1
  Tc  Tc12  1  0.498903  0.006752  0.502161  1
  Tc  Tc13  1  0.998603  0.497576  0.500765  1
  Tc  Tc14  1  0.839409  0.753995  0.754766  1
  Tc  Tc15  1  0.338372  0.746602  0.245803  1
  Tc  Tc16  1  0.159700  0.245901  0.247393  1
  Mo  Mo17  1  0.662987  0.253180  0.742320  1
