# generated using pymatgen
data_Zr3U3Fe16Si7
_symmetry_space_group_name_H-M   'P 1'
_cell_length_a   8.19823063
_cell_length_b   8.17659412
_cell_length_c   8.18978756
_cell_angle_alpha   60.12156957
_cell_angle_beta   59.85941168
_cell_angle_gamma   60.01902794
_symmetry_Int_Tables_number   1
_chemical_formula_structural   Zr3U3Fe16Si7
_chemical_formula_sum   'Zr3 U3 Fe16 Si7'
_cell_volume   388.19114599
_cell_formula_units_Z   1
loop_
 _symmetry_equiv_pos_site_id
 _symmetry_equiv_pos_as_xyz
  1  'x, y, z'
loop_
 _atom_site_type_symbol
 _atom_site_label
 _atom_site_symmetry_multiplicity
 _atom_site_fract_x
 _atom_site_fract_y
 _atom_site_fract_z
 _atom_site_occupancy
  Zr  Zr0  1  0.788579  0.214073  0.785927  1
  Zr  Zr1  1  0.214073  0.788579  0.211421  1
  Zr  Zr2  1  0.208047  0.208047  0.791953  1
  U  U3  1  0.779007  0.779007  0.220993  1
  U  U4  1  0.219039  0.779962  0.780961  1
  U  U5  1  0.779962  0.219039  0.220038  1
  Fe  Fe6  1  0.175463  0.176529  0.177836  1
  Fe  Fe7  1  0.176529  0.175463  0.470173  1
  Fe  Fe8  1  0.824148  0.825506  0.522796  1
  Fe  Fe9  1  0.822164  0.529827  0.824537  1
  Fe  Fe10  1  0.623392  0.135191  0.619290  1
  Fe  Fe11  1  0.825506  0.824148  0.827550  1
  Fe  Fe12  1  0.380710  0.377873  0.376608  1
  Fe  Fe13  1  0.621625  0.623628  0.620418  1
  Fe  Fe14  1  0.477204  0.172450  0.175852  1
  Fe  Fe15  1  0.529827  0.822164  0.823471  1
  Fe  Fe16  1  0.172450  0.477204  0.174494  1
  Fe  Fe17  1  0.623628  0.621625  0.134329  1
  Fe  Fe18  1  0.377873  0.380710  0.864809  1
  Fe  Fe19  1  0.865671  0.379582  0.376372  1
  Fe  Fe20  1  0.379582  0.865671  0.378375  1
  Fe  Fe21  1  0.135191  0.623392  0.622127  1
  Si  Si22  1  0.498999  0.498999  0.001001  1
  Si  Si23  1  0.498462  0.498462  0.501538  1
  Si  Si24  1  0.492298  0.008067  0.507702  1
  Si  Si25  1  0.998999  0.998999  0.501001  1
  Si  Si26  1  0.009213  0.494291  0.505709  1
  Si  Si27  1  0.008067  0.492298  0.991933  1
  Si  Si28  1  0.494291  0.009213  0.990787  1
