# generated using pymatgen
data_Tb15YCd4(IrPt)2
_symmetry_space_group_name_H-M   'P 1'
_cell_length_a   9.70817166
_cell_length_b   9.70817139
_cell_length_c   9.68094300
_cell_angle_alpha   60.09273843
_cell_angle_beta   60.09273935
_cell_angle_gamma   60.28154826
_symmetry_Int_Tables_number   1
_chemical_formula_structural   Tb15YCd4(IrPt)2
_chemical_formula_sum   'Tb15 Y1 Cd4 Ir2 Pt2'
_cell_volume   647.44528487
_cell_formula_units_Z   1
loop_
 _symmetry_equiv_pos_site_id
 _symmetry_equiv_pos_as_xyz
  1  'x, y, z'
loop_
 _atom_site_type_symbol
 _atom_site_label
 _atom_site_symmetry_multiplicity
 _atom_site_fract_x
 _atom_site_fract_y
 _atom_site_fract_z
 _atom_site_occupancy
  Tb  Tb0  1  0.350487  0.350487  0.346180  1
  Tb  Tb1  1  0.350487  0.350487  0.952846  1
  Tb  Tb2  1  0.355866  0.944426  0.349853  1
  Tb  Tb3  1  0.944426  0.355866  0.349853  1
  Tb  Tb4  1  0.806555  0.190305  0.190633  1
  Tb  Tb5  1  0.190305  0.806555  0.812507  1
  Tb  Tb6  1  0.190305  0.806555  0.190633  1
  Tb  Tb7  1  0.806555  0.190305  0.812507  1
  Tb  Tb8  1  0.191465  0.191465  0.808535  1
  Tb  Tb9  1  0.811072  0.811072  0.188928  1
  Tb  Tb10  1  0.938002  0.564679  0.561538  1
  Tb  Tb11  1  0.564679  0.938002  0.935781  1
  Tb  Tb12  1  0.564679  0.938002  0.561538  1
  Tb  Tb13  1  0.938002  0.564679  0.935781  1
  Tb  Tb14  1  0.563857  0.563857  0.936143  1
  Y  Y15  1  0.937443  0.937443  0.562557  1
  Cd  Cd16  1  0.581019  0.581019  0.582199  1
  Cd  Cd17  1  0.581019  0.581019  0.255764  1
  Cd  Cd18  1  0.580702  0.255560  0.581870  1
  Cd  Cd19  1  0.255560  0.580702  0.581870  1
  Ir  Ir20  1  0.140776  0.573127  0.143049  1
  Ir  Ir21  1  0.573127  0.140776  0.143049  1
  Pt  Pt22  1  0.141806  0.141806  0.145374  1
  Pt  Pt23  1  0.141806  0.141806  0.571013  1
