# generated using pymatgen
data_Y6Ho2CdAgIrPt
_symmetry_space_group_name_H-M   'P 1'
_cell_length_a   9.67382212
_cell_length_b   9.67382124
_cell_length_c   9.66042100
_cell_angle_alpha   60.04581511
_cell_angle_beta   60.04581813
_cell_angle_gamma   60.15225966
_symmetry_Int_Tables_number   1
_chemical_formula_structural   Y6Ho2CdAgIrPt
_chemical_formula_sum   'Y12 Ho4 Cd2 Ag2 Ir2 Pt2'
_cell_volume   640.43574972
_cell_formula_units_Z   2
loop_
 _symmetry_equiv_pos_site_id
 _symmetry_equiv_pos_as_xyz
  1  'x, y, z'
loop_
 _atom_site_type_symbol
 _atom_site_label
 _atom_site_symmetry_multiplicity
 _atom_site_fract_x
 _atom_site_fract_y
 _atom_site_fract_z
 _atom_site_occupancy
  Y  Y0  1  0.806759  0.190211  0.190666  1
  Y  Y1  1  0.190211  0.806759  0.812363  1
  Y  Y2  1  0.190211  0.806759  0.190666  1
  Y  Y3  1  0.806759  0.190211  0.812363  1
  Y  Y4  1  0.191394  0.191394  0.808606  1
  Y  Y5  1  0.811410  0.811410  0.188590  1
  Y  Y6  1  0.935647  0.564667  0.561508  1
  Y  Y7  1  0.564667  0.935647  0.938177  1
  Y  Y8  1  0.564667  0.935647  0.561508  1
  Y  Y9  1  0.935647  0.564667  0.938177  1
  Y  Y10  1  0.562883  0.562883  0.937117  1
  Y  Y11  1  0.936263  0.936263  0.563737  1
  Ho  Ho12  1  0.349822  0.349822  0.346811  1
  Ho  Ho13  1  0.349822  0.349822  0.953544  1
  Ho  Ho14  1  0.356167  0.943710  0.350061  1
  Ho  Ho15  1  0.943710  0.356167  0.350061  1
  Cd  Cd16  1  0.580609  0.260305  0.579543  1
  Cd  Cd17  1  0.260305  0.580609  0.579543  1
  Ag  Ag18  1  0.582890  0.582890  0.582569  1
  Ag  Ag19  1  0.582890  0.582890  0.251652  1
  Ir  Ir20  1  0.141120  0.571043  0.143919  1
  Ir  Ir21  1  0.571043  0.141120  0.143919  1
  Pt  Pt22  1  0.142550  0.142550  0.145868  1
  Pt  Pt23  1  0.142550  0.142550  0.569031  1
