# generated using pymatgen
data_Pr2Cd3HgPd2
_symmetry_space_group_name_H-M   'P 1'
_cell_length_a   5.55994184
_cell_length_b   5.55994114
_cell_length_c   8.38383941
_cell_angle_alpha   89.91165387
_cell_angle_beta   90.08833522
_cell_angle_gamma   133.68423481
_symmetry_Int_Tables_number   1
_chemical_formula_structural   Pr2Cd3HgPd2
_chemical_formula_sum   'Pr2 Cd3 Hg1 Pd2'
_cell_volume   187.41981631
_cell_formula_units_Z   1
loop_
 _symmetry_equiv_pos_site_id
 _symmetry_equiv_pos_as_xyz
  1  'x, y, z'
loop_
 _atom_site_type_symbol
 _atom_site_label
 _atom_site_symmetry_multiplicity
 _atom_site_fract_x
 _atom_site_fract_y
 _atom_site_fract_z
 _atom_site_occupancy
  Pr  Pr0  1  0.933894  0.066106  0.253716  1
  Pr  Pr1  1  0.067577  0.932423  0.747197  1
  Cd  Cd2  1  0.354691  0.645309  0.552718  1
  Cd  Cd3  1  0.643655  0.356345  0.049399  1
  Cd  Cd4  1  0.358613  0.641387  0.949697  1
  Hg  Hg5  1  0.637330  0.362670  0.448829  1
  Pd  Pd6  1  0.225558  0.774442  0.247426  1
  Pd  Pd7  1  0.778681  0.221319  0.751017  1
