# generated using pymatgen
data_Zr10GaPb5S
_symmetry_space_group_name_H-M   'P 1'
_cell_length_a   5.89094279
_cell_length_b   8.56227011
_cell_length_c   8.56802700
_cell_angle_alpha   119.98100877
_cell_angle_beta   89.93502005
_cell_angle_gamma   90.12905206
_symmetry_Int_Tables_number   1
_chemical_formula_structural   Zr10GaPb5S
_chemical_formula_sum   'Zr10 Ga1 Pb5 S1'
_cell_volume   374.34079981
_cell_formula_units_Z   1
loop_
 _symmetry_equiv_pos_site_id
 _symmetry_equiv_pos_as_xyz
  1  'x, y, z'
loop_
 _atom_site_type_symbol
 _atom_site_label
 _atom_site_symmetry_multiplicity
 _atom_site_fract_x
 _atom_site_fract_y
 _atom_site_fract_z
 _atom_site_occupancy
  Zr  Zr0  1  0.503581  0.340195  0.676148  1
  Zr  Zr1  1  0.503590  0.664039  0.323853  1
  Zr  Zr2  1  0.996674  0.664938  0.324628  1
  Zr  Zr3  1  0.996679  0.340315  0.675372  1
  Zr  Zr4  1  0.753278  0.259470  0.000005  1
  Zr  Zr5  1  0.759440  0.747886  0.762401  1
  Zr  Zr6  1  0.759435  0.985490  0.237610  1
  Zr  Zr7  1  0.236463  0.751456  0.999997  1
  Zr  Zr8  1  0.242592  0.246853  0.246479  1
  Zr  Zr9  1  0.242592  0.000367  0.753516  1
  Ga  Ga10  1  0.753435  0.606247  0.999986  1
  Pb  Pb11  1  0.749484  0.389127  0.392173  1
  Pb  Pb12  1  0.749481  0.996957  0.607835  1
  Pb  Pb13  1  0.249079  0.394612  0.999991  1
  Pb  Pb14  1  0.251697  0.607124  0.603564  1
  Pb  Pb15  1  0.251698  0.003568  0.396440  1
  S  S16  1  0.500799  0.001364  0.000002  1
