# generated using pymatgen
data_Nb3Co2ReC
_symmetry_space_group_name_H-M   'P 1'
_cell_length_a   8.17324182
_cell_length_b   8.17324196
_cell_length_c   8.17324200
_cell_angle_alpha   59.99999982
_cell_angle_beta   59.99999929
_cell_angle_gamma   59.99999772
_symmetry_Int_Tables_number   1
_chemical_formula_structural   Nb3Co2ReC
_chemical_formula_sum   'Nb12 Co8 Re4 C4'
_cell_volume   386.07177670
_cell_formula_units_Z   4
loop_
 _symmetry_equiv_pos_site_id
 _symmetry_equiv_pos_as_xyz
  1  'x, y, z'
loop_
 _atom_site_type_symbol
 _atom_site_label
 _atom_site_symmetry_multiplicity
 _atom_site_fract_x
 _atom_site_fract_y
 _atom_site_fract_z
 _atom_site_occupancy
  Nb  Nb0  1  0.693723  0.306277  0.693723  1
  Nb  Nb1  1  0.943723  0.556277  0.556277  1
  Nb  Nb2  1  0.556277  0.943723  0.943723  1
  Nb  Nb3  1  0.943723  0.556277  0.943723  1
  Nb  Nb4  1  0.556277  0.556277  0.943723  1
  Nb  Nb5  1  0.943723  0.943723  0.556277  1
  Nb  Nb6  1  0.693723  0.693723  0.306277  1
  Nb  Nb7  1  0.306277  0.693723  0.693723  1
  Nb  Nb8  1  0.693723  0.306277  0.306277  1
  Nb  Nb9  1  0.306277  0.306277  0.693723  1
  Nb  Nb10  1  0.556277  0.943723  0.556277  1
  Nb  Nb11  1  0.306277  0.693723  0.306277  1
  Co  Co12  1  0.325865  0.325865  0.325865  1
  Co  Co13  1  0.227594  0.924135  0.924135  1
  Co  Co14  1  0.924135  0.227594  0.924135  1
  Co  Co15  1  0.924135  0.924135  0.227594  1
  Co  Co16  1  0.325865  0.022406  0.325865  1
  Co  Co17  1  0.325865  0.325865  0.022406  1
  Co  Co18  1  0.022406  0.325865  0.325865  1
  Co  Co19  1  0.924135  0.924135  0.924135  1
  Re  Re20  1  0.125000  0.125000  0.125000  1
  Re  Re21  1  0.625000  0.125000  0.125000  1
  Re  Re22  1  0.125000  0.625000  0.125000  1
  Re  Re23  1  0.125000  0.125000  0.625000  1
  C  C24  1  0.625000  0.625000  0.625000  1
  C  C25  1  0.125000  0.625000  0.625000  1
  C  C26  1  0.625000  0.125000  0.625000  1
  C  C27  1  0.625000  0.625000  0.125000  1
