# generated using pymatgen
data_AlZnIrS4
_symmetry_space_group_name_H-M   'P 1'
_cell_length_a   7.10318503
_cell_length_b   7.10318446
_cell_length_c   7.10318531
_cell_angle_alpha   120.66646418
_cell_angle_beta   118.98349013
_cell_angle_gamma   90.30956219
_symmetry_Int_Tables_number   1
_chemical_formula_structural   AlZnIrS4
_chemical_formula_sum   'Al2 Zn2 Ir2 S8'
_cell_volume   254.02037904
_cell_formula_units_Z   2
loop_
 _symmetry_equiv_pos_site_id
 _symmetry_equiv_pos_as_xyz
  1  'x, y, z'
loop_
 _atom_site_type_symbol
 _atom_site_label
 _atom_site_symmetry_multiplicity
 _atom_site_fract_x
 _atom_site_fract_y
 _atom_site_fract_z
 _atom_site_occupancy
  Al  Al0  1  0.500000  0.000000  0.000000  1
  Al  Al1  1  0.500000  0.500000  0.500000  1
  Zn  Zn2  1  0.878640  0.628640  0.250000  1
  Zn  Zn3  1  0.121360  0.371360  0.750000  1
  Ir  Ir4  1  0.500000  0.000000  0.500000  1
  Ir  Ir5  1  0.000000  0.000000  0.000000  1
  S  S6  1  0.738653  0.765825  0.527172  1
  S  S7  1  0.738653  0.211482  0.972828  1
  S  S8  1  0.742175  0.761677  0.980498  1
  S  S9  1  0.281179  0.761677  0.519502  1
  S  S10  1  0.261347  0.234175  0.472828  1
  S  S11  1  0.261347  0.788518  0.027172  1
  S  S12  1  0.257825  0.238323  0.019502  1
  S  S13  1  0.718821  0.238323  0.480498  1
