# generated using pymatgen
data_Ta7Nb3Si5Ge
_symmetry_space_group_name_H-M   'P 1'
_cell_length_a   7.57508132
_cell_length_b   7.56339418
_cell_length_c   7.56832149
_cell_angle_alpha   128.21083884
_cell_angle_beta   128.24626675
_cell_angle_gamma   76.26154371
_symmetry_Int_Tables_number   1
_chemical_formula_structural   Ta7Nb3Si5Ge
_chemical_formula_sum   'Ta7 Nb3 Si5 Ge1'
_cell_volume   260.04133158
_cell_formula_units_Z   1
loop_
 _symmetry_equiv_pos_site_id
 _symmetry_equiv_pos_as_xyz
  1  'x, y, z'
loop_
 _atom_site_type_symbol
 _atom_site_label
 _atom_site_symmetry_multiplicity
 _atom_site_fract_x
 _atom_site_fract_y
 _atom_site_fract_z
 _atom_site_occupancy
  Ta  Ta0  1  0.487616  0.982628  0.171492  1
  Ta  Ta1  1  0.688128  0.517362  0.505219  1
  Ta  Ta2  1  0.982121  0.811156  0.494572  1
  Ta  Ta3  1  0.316034  0.487352  0.505376  1
  Ta  Ta4  1  0.810770  0.316491  0.828449  1
  Ta  Ta5  1  0.501190  0.501226  0.000337  1
  Ta  Ta6  1  0.999717  0.999705  0.999676  1
  Nb  Nb7  1  0.013654  0.183566  0.495184  1
  Nb  Nb8  1  0.518830  0.013553  0.830626  1
  Nb  Nb9  1  0.183137  0.687867  0.169230  1
  Si  Si10  1  0.129823  0.630115  0.760149  1
  Si  Si11  1  0.630192  0.869797  0.500169  1
  Si  Si12  1  0.369724  0.129784  0.499856  1
  Si  Si13  1  0.869721  0.369815  0.239849  1
  Si  Si14  1  0.749475  0.749638  0.999693  1
  Ge  Ge15  1  0.249867  0.249945  0.000122  1
