# generated using pymatgen
data_Gd3In4AgIr
_symmetry_space_group_name_H-M   'P 1'
_cell_length_a   8.05871400
_cell_length_b   8.05871346
_cell_length_c   3.73161500
_cell_angle_alpha   90.00000000
_cell_angle_beta   90.00000000
_cell_angle_gamma   119.99999401
_symmetry_Int_Tables_number   1
_chemical_formula_structural   Gd3In4AgIr
_chemical_formula_sum   'Gd3 In4 Ag1 Ir1'
_cell_volume   209.87414760
_cell_formula_units_Z   1
loop_
 _symmetry_equiv_pos_site_id
 _symmetry_equiv_pos_as_xyz
  1  'x, y, z'
loop_
 _atom_site_type_symbol
 _atom_site_label
 _atom_site_symmetry_multiplicity
 _atom_site_fract_x
 _atom_site_fract_y
 _atom_site_fract_z
 _atom_site_occupancy
  Gd  Gd0  1  0.703724  0.953091  0.500000  1
  Gd  Gd1  1  0.249366  0.296276  0.500000  1
  Gd  Gd2  1  0.046909  0.750634  0.500000  1
  In  In3  1  0.937571  0.336354  0.000000  1
  In  In4  1  0.398784  0.062429  0.000000  1
  In  In5  1  0.663646  0.601216  0.000000  1
  In  In6  1  0.333333  0.666667  0.000000  1
  Ag  Ag7  1  0.666667  0.333333  0.500000  1
  Ir  Ir8  1  0.000000  0.000000  0.000000  1
