# generated using pymatgen
data_Dy6Tm4InPb5
_symmetry_space_group_name_H-M   'P 1'
_cell_length_a   6.62186100
_cell_length_b   9.00092537
_cell_length_c   9.01408106
_cell_angle_alpha   119.95173895
_cell_angle_beta   90.00007611
_cell_angle_gamma   89.99984131
_symmetry_Int_Tables_number   1
_chemical_formula_structural   Dy6Tm4InPb5
_chemical_formula_sum   'Dy6 Tm4 In1 Pb5'
_cell_volume   465.51138644
_cell_formula_units_Z   1
loop_
 _symmetry_equiv_pos_site_id
 _symmetry_equiv_pos_as_xyz
  1  'x, y, z'
loop_
 _atom_site_type_symbol
 _atom_site_label
 _atom_site_symmetry_multiplicity
 _atom_site_fract_x
 _atom_site_fract_y
 _atom_site_fract_z
 _atom_site_occupancy
  Dy  Dy0  1  0.750001  0.239110  0.000000  1
  Dy  Dy1  1  0.750000  0.761236  0.765953  1
  Dy  Dy2  1  0.750000  0.995283  0.234047  1
  Dy  Dy3  1  0.249999  0.762477  0.000000  1
  Dy  Dy4  1  0.250001  0.237503  0.237024  1
  Dy  Dy5  1  0.250001  0.000479  0.762976  1
  Tm  Tm6  1  0.501831  0.336227  0.670042  1
  Tm  Tm7  1  0.501831  0.666185  0.329958  1
  Tm  Tm8  1  0.998165  0.666217  0.329963  1
  Tm  Tm9  1  0.998165  0.336254  0.670037  1
  In  In10  1  0.750001  0.602855  0.000000  1
  Pb  Pb11  1  0.750003  0.394361  0.394922  1
  Pb  Pb12  1  0.750003  0.999439  0.605078  1
  Pb  Pb13  1  0.249987  0.396259  0.000000  1
  Pb  Pb14  1  0.250006  0.604759  0.603399  1
  Pb  Pb15  1  0.250006  0.001360  0.396601  1
