# generated using pymatgen
data_HoAlAgPt3
_symmetry_space_group_name_H-M   'P 1'
_cell_length_a   5.14478526
_cell_length_b   5.14478468
_cell_length_c   5.14478400
_cell_angle_alpha   64.81925786
_cell_angle_beta   64.81926086
_cell_angle_gamma   64.81925614
_symmetry_Int_Tables_number   1
_chemical_formula_structural   HoAlAgPt3
_chemical_formula_sum   'Ho1 Al1 Ag1 Pt3'
_cell_volume   106.44072037
_cell_formula_units_Z   1
loop_
 _symmetry_equiv_pos_site_id
 _symmetry_equiv_pos_as_xyz
  1  'x, y, z'
loop_
 _atom_site_type_symbol
 _atom_site_label
 _atom_site_symmetry_multiplicity
 _atom_site_fract_x
 _atom_site_fract_y
 _atom_site_fract_z
 _atom_site_occupancy
  Ho  Ho0  1  0.245203  0.245203  0.245203  1
  Al  Al1  1  0.627849  0.627849  0.627849  1
  Ag  Ag2  1  0.997526  0.997526  0.997526  1
  Pt  Pt3  1  0.627160  0.627160  0.125106  1
  Pt  Pt4  1  0.627160  0.125106  0.627160  1
  Pt  Pt5  1  0.125106  0.627160  0.627160  1
