# generated using pymatgen
data_DyY2Zn2In3Ir
_symmetry_space_group_name_H-M   'P 1'
_cell_length_a   7.75809936
_cell_length_b   7.77247443
_cell_length_c   3.84243800
_cell_angle_alpha   90.00000000
_cell_angle_beta   90.00000000
_cell_angle_gamma   120.15125966
_symmetry_Int_Tables_number   1
_chemical_formula_structural   DyY2Zn2In3Ir
_chemical_formula_sum   'Dy1 Y2 Zn2 In3 Ir1'
_cell_volume   200.34945788
_cell_formula_units_Z   1
loop_
 _symmetry_equiv_pos_site_id
 _symmetry_equiv_pos_as_xyz
  1  'x, y, z'
loop_
 _atom_site_type_symbol
 _atom_site_label
 _atom_site_symmetry_multiplicity
 _atom_site_fract_x
 _atom_site_fract_y
 _atom_site_fract_z
 _atom_site_occupancy
  Dy  Dy0  1  0.026329  0.415342  0.000000  1
  Y  Y1  1  0.586458  0.610684  0.000000  1
  Y  Y2  1  0.389406  0.975877  0.000000  1
  Zn  Zn3  1  0.999991  0.000203  0.000000  1
  Zn  Zn4  1  0.667255  0.333212  0.500000  1
  In  In5  1  0.993093  0.732085  0.500000  1
  In  In6  1  0.267322  0.260786  0.500000  1
  In  In7  1  0.739308  0.007336  0.500000  1
  Ir  Ir8  1  0.330837  0.664475  0.500000  1
