# generated using pymatgen
data_TbHo3Ga18(TcPd2)2
_symmetry_space_group_name_H-M   'P 1'
_cell_length_a   7.65142320
_cell_length_b   7.65194227
_cell_length_c   9.61426343
_cell_angle_alpha   90.18036940
_cell_angle_beta   90.15230030
_cell_angle_gamma   120.37674999
_symmetry_Int_Tables_number   1
_chemical_formula_structural   TbHo3Ga18(TcPd2)2
_chemical_formula_sum   'Tb1 Ho3 Ga18 Tc2 Pd4'
_cell_volume   485.61471402
_cell_formula_units_Z   1
loop_
 _symmetry_equiv_pos_site_id
 _symmetry_equiv_pos_as_xyz
  1  'x, y, z'
loop_
 _atom_site_type_symbol
 _atom_site_label
 _atom_site_symmetry_multiplicity
 _atom_site_fract_x
 _atom_site_fract_y
 _atom_site_fract_z
 _atom_site_occupancy
  Tb  Tb0  1  0.335286  0.004873  0.753475  1
  Ho  Ho1  1  0.995173  0.664613  0.246260  1
  Ho  Ho2  1  0.004843  0.335381  0.753720  1
  Ho  Ho3  1  0.664610  0.995147  0.246273  1
  Ga  Ga4  1  0.128654  0.128671  0.251104  1
  Ga  Ga5  1  0.871069  0.871190  0.748895  1
  Ga  Ga6  1  0.002709  0.335655  0.079889  1
  Ga  Ga7  1  0.996993  0.664013  0.920291  1
  Ga  Ga8  1  0.001055  0.667570  0.581939  1
  Ga  Ga9  1  0.332110  0.998644  0.417690  1
  Ga  Ga10  1  0.998633  0.332119  0.417886  1
  Ga  Ga11  1  0.668164  0.001389  0.581968  1
  Ga  Ga12  1  0.664625  0.997264  0.920302  1
  Ga  Ga13  1  0.335685  0.002720  0.080091  1
  Ga  Ga14  1  0.333954  0.334223  0.572929  1
  Ga  Ga15  1  0.666019  0.666018  0.426869  1
  Ga  Ga16  1  0.660286  0.660261  0.062801  1
  Ga  Ga17  1  0.339729  0.340005  0.937364  1
  Ga  Ga18  1  0.335860  0.545286  0.246523  1
  Ga  Ga19  1  0.664358  0.455033  0.753503  1
  Ga  Ga20  1  0.545311  0.335880  0.246523  1
  Ga  Ga21  1  0.454777  0.663991  0.753487  1
  Tc  Tc22  1  0.675371  0.324883  0.000155  1
  Tc  Tc23  1  0.324777  0.675170  0.000157  1
  Pd  Pd24  1  0.330129  0.669835  0.499959  1
  Pd  Pd25  1  0.669931  0.330195  0.499931  1
  Pd  Pd26  1  0.999937  0.999982  0.000056  1
  Pd  Pd27  1  0.999951  0.999990  0.499960  1
