# generated using pymatgen
data_Lu2Ni3P7Ru9
_symmetry_space_group_name_H-M   'P 1'
_cell_length_a   9.34994500
_cell_length_b   9.34994484
_cell_length_c   3.80526300
_cell_angle_alpha   90.00000000
_cell_angle_beta   90.00000000
_cell_angle_gamma   120.00000928
_symmetry_Int_Tables_number   1
_chemical_formula_structural   Lu2Ni3P7Ru9
_chemical_formula_sum   'Lu2 Ni3 P7 Ru9'
_cell_volume   288.09344339
_cell_formula_units_Z   1
loop_
 _symmetry_equiv_pos_site_id
 _symmetry_equiv_pos_as_xyz
  1  'x, y, z'
loop_
 _atom_site_type_symbol
 _atom_site_label
 _atom_site_symmetry_multiplicity
 _atom_site_fract_x
 _atom_site_fract_y
 _atom_site_fract_z
 _atom_site_occupancy
  Lu  Lu0  1  0.333333  0.666667  0.000000  1
  Lu  Lu1  1  0.000000  0.000000  0.500000  1
  Ni  Ni2  1  0.939900  0.446521  0.000000  1
  Ni  Ni3  1  0.506621  0.060100  0.000000  1
  Ni  Ni4  1  0.553479  0.493379  0.000000  1
  P  P5  1  0.963782  0.219073  0.000000  1
  P  P6  1  0.255290  0.036218  0.000000  1
  P  P7  1  0.780927  0.744710  0.000000  1
  P  P8  1  0.072942  0.623725  0.500000  1
  P  P9  1  0.550782  0.927058  0.500000  1
  P  P10  1  0.376275  0.449218  0.500000  1
  P  P11  1  0.666667  0.333333  0.000000  1
  Ru  Ru12  1  0.729788  0.965402  0.000000  1
  Ru  Ru13  1  0.235614  0.270212  0.000000  1
  Ru  Ru14  1  0.034598  0.764386  0.000000  1
  Ru  Ru15  1  0.100569  0.386911  0.500000  1
  Ru  Ru16  1  0.286341  0.899431  0.500000  1
  Ru  Ru17  1  0.613089  0.713659  0.500000  1
  Ru  Ru18  1  0.750444  0.208870  0.500000  1
  Ru  Ru19  1  0.458426  0.249556  0.500000  1
  Ru  Ru20  1  0.791130  0.541574  0.500000  1
