# generated using pymatgen
data_HoFe3NiP3Ru
_symmetry_space_group_name_H-M   'P 1'
_cell_length_a   3.71404700
_cell_length_b   10.23586300
_cell_length_c   11.97734100
_cell_angle_alpha   90.00000000
_cell_angle_beta   90.00000000
_cell_angle_gamma   90.00000000
_symmetry_Int_Tables_number   1
_chemical_formula_structural   HoFe3NiP3Ru
_chemical_formula_sum   'Ho4 Fe12 Ni4 P12 Ru4'
_cell_volume   455.33629987
_cell_formula_units_Z   4
loop_
 _symmetry_equiv_pos_site_id
 _symmetry_equiv_pos_as_xyz
  1  'x, y, z'
loop_
 _atom_site_type_symbol
 _atom_site_label
 _atom_site_symmetry_multiplicity
 _atom_site_fract_x
 _atom_site_fract_y
 _atom_site_fract_z
 _atom_site_occupancy
  Ho  Ho0  1  0.250000  0.581774  0.707019  1
  Ho  Ho1  1  0.250000  0.918226  0.207019  1
  Ho  Ho2  1  0.750000  0.418226  0.292981  1
  Ho  Ho3  1  0.750000  0.081774  0.792981  1
  Fe  Fe4  1  0.250000  0.221988  0.170562  1
  Fe  Fe5  1  0.250000  0.278012  0.670562  1
  Fe  Fe6  1  0.750000  0.778012  0.829438  1
  Fe  Fe7  1  0.750000  0.721988  0.329438  1
  Fe  Fe8  1  0.250000  0.882797  0.700420  1
  Fe  Fe9  1  0.250000  0.617203  0.200420  1
  Fe  Fe10  1  0.750000  0.117203  0.299580  1
  Fe  Fe11  1  0.750000  0.382797  0.799580  1
  Fe  Fe12  1  0.250000  0.463147  0.934823  1
  Fe  Fe13  1  0.250000  0.036853  0.434823  1
  Fe  Fe14  1  0.750000  0.536853  0.065177  1
  Fe  Fe15  1  0.750000  0.963147  0.565177  1
  Ni  Ni16  1  0.250000  0.408443  0.485168  1
  Ni  Ni17  1  0.250000  0.091557  0.985168  1
  Ni  Ni18  1  0.750000  0.591557  0.514832  1
  Ni  Ni19  1  0.750000  0.908443  0.014832  1
  P  P20  1  0.250000  0.424284  0.113095  1
  P  P21  1  0.250000  0.075716  0.613095  1
  P  P22  1  0.750000  0.575716  0.886905  1
  P  P23  1  0.750000  0.924284  0.386905  1
  P  P24  1  0.250000  0.274000  0.856094  1
  P  P25  1  0.250000  0.226000  0.356094  1
  P  P26  1  0.750000  0.726000  0.143906  1
  P  P27  1  0.750000  0.774000  0.643906  1
  P  P28  1  0.250000  0.603553  0.384704  1
  P  P29  1  0.250000  0.896447  0.884704  1
  P  P30  1  0.750000  0.396447  0.615296  1
  P  P31  1  0.750000  0.103553  0.115296  1
  Ru  Ru32  1  0.250000  0.709063  0.991774  1
  Ru  Ru33  1  0.250000  0.790937  0.491774  1
  Ru  Ru34  1  0.750000  0.290937  0.008226  1
  Ru  Ru35  1  0.750000  0.209063  0.508226  1
