# generated using pymatgen
data_Yb2Ho(MnC3)2
_symmetry_space_group_name_H-M   'P 1'
_cell_length_a   8.04705033
_cell_length_b   8.05647807
_cell_length_c   4.96478900
_cell_angle_alpha   90.00000000
_cell_angle_beta   90.00000000
_cell_angle_gamma   119.99450284
_symmetry_Int_Tables_number   1
_chemical_formula_structural   Yb2Ho(MnC3)2
_chemical_formula_sum   'Yb4 Ho2 Mn4 C12'
_cell_volume   278.76447588
_cell_formula_units_Z   2
loop_
 _symmetry_equiv_pos_site_id
 _symmetry_equiv_pos_as_xyz
  1  'x, y, z'
loop_
 _atom_site_type_symbol
 _atom_site_label
 _atom_site_symmetry_multiplicity
 _atom_site_fract_x
 _atom_site_fract_y
 _atom_site_fract_z
 _atom_site_occupancy
  Yb  Yb0  1  0.685500  0.072269  0.250000  1
  Yb  Yb1  1  0.320208  0.928838  0.750000  1
  Yb  Yb2  1  0.074249  0.385784  0.750000  1
  Yb  Yb3  1  0.387621  0.314165  0.250000  1
  Ho  Ho4  1  0.620644  0.688703  0.750000  1
  Ho  Ho5  1  0.931923  0.617442  0.250000  1
  Mn  Mn6  1  0.001329  0.001508  0.499680  1
  Mn  Mn7  1  0.001329  0.001508  0.000320  1
  Mn  Mn8  1  0.668728  0.338246  0.750000  1
  Mn  Mn9  1  0.329533  0.665682  0.250000  1
  C  C10  1  0.959726  0.778184  0.750000  1
  C  C11  1  0.177947  0.954305  0.250000  1
  C  C12  1  0.769705  0.805510  0.250000  1
  C  C13  1  0.225564  0.178724  0.750000  1
  C  C14  1  0.809855  0.040127  0.750000  1
  C  C15  1  0.044869  0.224478  0.250000  1
  C  C16  1  0.863358  0.583323  0.750000  1
  C  C17  1  0.276251  0.858249  0.250000  1
  C  C18  1  0.574483  0.720257  0.250000  1
  C  C19  1  0.418808  0.279367  0.750000  1
  C  C20  1  0.136349  0.417167  0.250000  1
  C  C21  1  0.722024  0.146165  0.750000  1
