# generated using pymatgen
data_Tb5Pr2Sn23Ir6
_symmetry_space_group_name_H-M   'P 1'
_cell_length_a   9.91389639
_cell_length_b   9.91389652
_cell_length_c   10.17765156
_cell_angle_alpha   89.92954786
_cell_angle_beta   90.07044960
_cell_angle_gamma   119.93669177
_symmetry_Int_Tables_number   1
_chemical_formula_structural   Tb5Pr2Sn23Ir6
_chemical_formula_sum   'Tb5 Pr2 Sn23 Ir6'
_cell_volume   866.84855193
_cell_formula_units_Z   1
loop_
 _symmetry_equiv_pos_site_id
 _symmetry_equiv_pos_as_xyz
  1  'x, y, z'
loop_
 _atom_site_type_symbol
 _atom_site_label
 _atom_site_symmetry_multiplicity
 _atom_site_fract_x
 _atom_site_fract_y
 _atom_site_fract_z
 _atom_site_occupancy
  Tb  Tb0  1  0.520220  0.479780  0.693597  1
  Tb  Tb1  1  0.479985  0.959380  0.306805  1
  Tb  Tb2  1  0.520300  0.040747  0.693565  1
  Tb  Tb3  1  0.040620  0.520015  0.306805  1
  Tb  Tb4  1  0.959253  0.479700  0.693565  1
  Pr  Pr5  1  0.000256  0.999744  0.999724  1
  Pr  Pr6  1  0.477749  0.522251  0.307836  1
  Sn  Sn7  1  0.352665  0.999307  0.999560  1
  Sn  Sn8  1  0.647315  0.000191  0.999879  1
  Sn  Sn9  1  0.999809  0.352685  0.999879  1
  Sn  Sn10  1  0.000693  0.647335  0.999560  1
  Sn  Sn11  1  0.647844  0.647141  0.999573  1
  Sn  Sn12  1  0.352859  0.352156  0.999573  1
  Sn  Sn13  1  0.333353  0.666647  0.824500  1
  Sn  Sn14  1  0.666826  0.333174  0.174646  1
  Sn  Sn15  1  0.000260  0.999740  0.500391  1
  Sn  Sn16  1  0.778112  0.221888  0.455496  1
  Sn  Sn17  1  0.222032  0.777968  0.544649  1
  Sn  Sn18  1  0.780455  0.556195  0.456210  1
  Sn  Sn19  1  0.220298  0.443564  0.546195  1
  Sn  Sn20  1  0.443805  0.219545  0.456210  1
  Sn  Sn21  1  0.556436  0.779702  0.546195  1
  Sn  Sn22  1  0.330739  0.669261  0.117828  1
  Sn  Sn23  1  0.666695  0.333305  0.879488  1
  Sn  Sn24  1  0.119245  0.880755  0.284483  1
  Sn  Sn25  1  0.881008  0.118992  0.715723  1
  Sn  Sn26  1  0.116693  0.235389  0.284022  1
  Sn  Sn27  1  0.881147  0.762279  0.715785  1
  Sn  Sn28  1  0.764611  0.883307  0.284022  1
  Sn  Sn29  1  0.237721  0.118853  0.715785  1
  Ir  Ir30  1  0.830299  0.169701  0.198571  1
  Ir  Ir31  1  0.169208  0.830792  0.800679  1
  Ir  Ir32  1  0.833388  0.662602  0.198151  1
  Ir  Ir33  1  0.168950  0.338247  0.801448  1
  Ir  Ir34  1  0.337398  0.166612  0.198151  1
  Ir  Ir35  1  0.661753  0.831050  0.801448  1
