# generated using pymatgen
data_Ti13Mn2(Al3Rh2)3
_symmetry_space_group_name_H-M   'P 1'
_cell_length_a   8.68347625
_cell_length_b   8.68347595
_cell_length_c   8.68347576
_cell_angle_alpha   59.81085755
_cell_angle_beta   59.81085961
_cell_angle_gamma   59.81086803
_symmetry_Int_Tables_number   1
_chemical_formula_structural   Ti13Mn2(Al3Rh2)3
_chemical_formula_sum   'Ti13 Mn2 Al9 Rh6'
_cell_volume   460.99609771
_cell_formula_units_Z   1
loop_
 _symmetry_equiv_pos_site_id
 _symmetry_equiv_pos_as_xyz
  1  'x, y, z'
loop_
 _atom_site_type_symbol
 _atom_site_label
 _atom_site_symmetry_multiplicity
 _atom_site_fract_x
 _atom_site_fract_y
 _atom_site_fract_z
 _atom_site_occupancy
  Ti  Ti0  1  0.207589  0.207589  0.793283  1
  Ti  Ti1  1  0.793283  0.207589  0.207589  1
  Ti  Ti2  1  0.207589  0.793283  0.207589  1
  Ti  Ti3  1  0.805819  0.805819  0.178995  1
  Ti  Ti4  1  0.178995  0.805819  0.805819  1
  Ti  Ti5  1  0.805819  0.178995  0.805819  1
  Ti  Ti6  1  0.382150  0.382150  0.382150  1
  Ti  Ti7  1  0.383404  0.854666  0.383404  1
  Ti  Ti8  1  0.854666  0.383404  0.383404  1
  Ti  Ti9  1  0.383404  0.383404  0.854666  1
  Ti  Ti10  1  0.843906  0.467617  0.843906  1
  Ti  Ti11  1  0.467617  0.843906  0.843906  1
  Ti  Ti12  1  0.843906  0.843906  0.467617  1
  Mn  Mn13  1  0.499686  0.499686  0.499686  1
  Mn  Mn14  1  0.004448  0.004448  0.004448  1
  Al  Al15  1  0.155280  0.155280  0.155280  1
  Al  Al16  1  0.159470  0.526130  0.159470  1
  Al  Al17  1  0.526130  0.159470  0.159470  1
  Al  Al18  1  0.159470  0.159470  0.526130  1
  Al  Al19  1  0.616486  0.616486  0.616486  1
  Al  Al20  1  0.617596  0.150246  0.617596  1
  Al  Al21  1  0.150246  0.617596  0.617596  1
  Al  Al22  1  0.617596  0.617596  0.150246  1
  Al  Al23  1  0.829507  0.829507  0.829507  1
  Rh  Rh24  1  0.002916  0.002916  0.498420  1
  Rh  Rh25  1  0.498420  0.002916  0.002916  1
  Rh  Rh26  1  0.002916  0.498420  0.002916  1
  Rh  Rh27  1  0.500632  0.500632  0.000422  1
  Rh  Rh28  1  0.000422  0.500632  0.500632  1
  Rh  Rh29  1  0.500632  0.000422  0.500632  1
