# generated using pymatgen
data_Ce2Er3(In2Co)2
_symmetry_space_group_name_H-M   'P 1'
_cell_length_a   3.58493300
_cell_length_b   7.85865600
_cell_length_c   17.71763300
_cell_angle_alpha   90.00000000
_cell_angle_beta   90.00000000
_cell_angle_gamma   90.00000000
_symmetry_Int_Tables_number   1
_chemical_formula_structural   Ce2Er3(In2Co)2
_chemical_formula_sum   'Ce4 Er6 In8 Co4'
_cell_volume   499.15453776
_cell_formula_units_Z   2
loop_
 _symmetry_equiv_pos_site_id
 _symmetry_equiv_pos_as_xyz
  1  'x, y, z'
loop_
 _atom_site_type_symbol
 _atom_site_label
 _atom_site_symmetry_multiplicity
 _atom_site_fract_x
 _atom_site_fract_y
 _atom_site_fract_z
 _atom_site_occupancy
  Ce  Ce0  1  0.000000  0.753540  0.277214  1
  Ce  Ce1  1  0.000000  0.246460  0.722786  1
  Ce  Ce2  1  0.000000  0.746460  0.777214  1
  Ce  Ce3  1  0.000000  0.253540  0.222786  1
  Er  Er4  1  0.000000  0.500000  0.500000  1
  Er  Er5  1  0.000000  0.000000  0.000000  1
  Er  Er6  1  0.000000  0.616313  0.090047  1
  Er  Er7  1  0.000000  0.383687  0.909953  1
  Er  Er8  1  0.000000  0.883687  0.590047  1
  Er  Er9  1  0.000000  0.116313  0.409953  1
  In  In10  1  0.500000  0.701865  0.935641  1
  In  In11  1  0.500000  0.298135  0.064359  1
  In  In12  1  0.500000  0.798135  0.435641  1
  In  In13  1  0.500000  0.201865  0.564359  1
  In  In14  1  0.500000  0.566362  0.646591  1
  In  In15  1  0.500000  0.433638  0.353409  1
  In  In16  1  0.500000  0.933638  0.146591  1
  In  In17  1  0.500000  0.066362  0.853409  1
  Co  Co18  1  0.500000  0.510625  0.201034  1
  Co  Co19  1  0.500000  0.489375  0.798966  1
  Co  Co20  1  0.500000  0.989375  0.701034  1
  Co  Co21  1  0.500000  0.010625  0.298966  1
