# generated using pymatgen
data_Y11LuInCo4Au
_symmetry_space_group_name_H-M   'P 1'
_cell_length_a   8.35182599
_cell_length_b   8.36000224
_cell_length_c   8.35182661
_cell_angle_alpha   111.19262785
_cell_angle_beta   110.44318512
_cell_angle_gamma   106.77299785
_symmetry_Int_Tables_number   1
_chemical_formula_structural   Y11LuInCo4Au
_chemical_formula_sum   'Y11 Lu1 In1 Co4 Au1'
_cell_volume   448.35652715
_cell_formula_units_Z   1
loop_
 _symmetry_equiv_pos_site_id
 _symmetry_equiv_pos_as_xyz
  1  'x, y, z'
loop_
 _atom_site_type_symbol
 _atom_site_label
 _atom_site_symmetry_multiplicity
 _atom_site_fract_x
 _atom_site_fract_y
 _atom_site_fract_z
 _atom_site_occupancy
  Y  Y0  1  0.426024  0.220200  0.204207  1
  Y  Y1  1  0.576270  0.780328  0.798515  1
  Y  Y2  1  0.015993  0.220200  0.794176  1
  Y  Y3  1  0.981814  0.780328  0.204059  1
  Y  Y4  1  0.185186  0.290689  0.478048  1
  Y  Y5  1  0.812699  0.709982  0.520782  1
  Y  Y6  1  0.189200  0.709982  0.897284  1
  Y  Y7  1  0.812641  0.290689  0.105502  1
  Y  Y8  1  0.315553  0.618923  0.303369  1
  Y  Y9  1  0.684977  0.381595  0.696619  1
  Y  Y10  1  0.315855  0.011980  0.696126  1
  Lu  Lu11  1  0.683377  0.990569  0.307192  1
  In  In12  1  0.500864  0.501648  0.000784  1
  Co  Co13  1  0.382058  0.998538  0.377939  1
  Co  Co14  1  0.620599  0.998538  0.616480  1
  Co  Co15  1  0.109243  0.610167  0.500924  1
  Co  Co16  1  0.886755  0.385521  0.498766  1
  Au  Au17  1  0.000893  0.000121  0.999229  1
