# generated using pymatgen
data_Dy4LuSn3Se
_symmetry_space_group_name_H-M   'P 1'
_cell_length_a   9.05046700
_cell_length_b   9.05046869
_cell_length_c   6.65248700
_cell_angle_alpha   90.00000000
_cell_angle_beta   90.00000000
_cell_angle_gamma   119.99999748
_symmetry_Int_Tables_number   1
_chemical_formula_structural   Dy4LuSn3Se
_chemical_formula_sum   'Dy8 Lu2 Sn6 Se2'
_cell_volume   471.90734469
_cell_formula_units_Z   2
loop_
 _symmetry_equiv_pos_site_id
 _symmetry_equiv_pos_as_xyz
  1  'x, y, z'
loop_
 _atom_site_type_symbol
 _atom_site_label
 _atom_site_symmetry_multiplicity
 _atom_site_fract_x
 _atom_site_fract_y
 _atom_site_fract_z
 _atom_site_occupancy
  Dy  Dy0  1  0.666667  0.333333  0.000000  1
  Dy  Dy1  1  0.333333  0.666667  0.000000  1
  Dy  Dy2  1  0.746626  0.746626  0.749701  1
  Dy  Dy3  1  0.253374  0.000000  0.749701  1
  Dy  Dy4  1  0.000000  0.253374  0.749701  1
  Dy  Dy5  1  0.253374  0.253374  0.250299  1
  Dy  Dy6  1  0.746626  0.000000  0.250299  1
  Dy  Dy7  1  0.000000  0.746626  0.250299  1
  Lu  Lu8  1  0.333333  0.666667  0.500000  1
  Lu  Lu9  1  0.666667  0.333333  0.500000  1
  Sn  Sn10  1  0.396949  0.396949  0.747540  1
  Sn  Sn11  1  0.603051  0.000000  0.747540  1
  Sn  Sn12  1  0.000000  0.603051  0.747540  1
  Sn  Sn13  1  0.603051  0.603051  0.252460  1
  Sn  Sn14  1  0.396949  0.000000  0.252460  1
  Sn  Sn15  1  0.000000  0.396949  0.252460  1
  Se  Se16  1  0.000000  0.000000  0.000000  1
  Se  Se17  1  0.000000  0.000000  0.500000  1
