# generated using pymatgen
data_SmCd3P7N12
_symmetry_space_group_name_H-M   'P 1'
_cell_length_a   7.46513826
_cell_length_b   7.47966726
_cell_length_c   7.47966876
_cell_angle_alpha   109.51053505
_cell_angle_beta   109.43187440
_cell_angle_gamma   109.43187846
_symmetry_Int_Tables_number   1
_chemical_formula_structural   SmCd3P7N12
_chemical_formula_sum   'Sm1 Cd3 P7 N12'
_cell_volume   321.65570653
_cell_formula_units_Z   1
loop_
 _symmetry_equiv_pos_site_id
 _symmetry_equiv_pos_as_xyz
  1  'x, y, z'
loop_
 _atom_site_type_symbol
 _atom_site_label
 _atom_site_symmetry_multiplicity
 _atom_site_fract_x
 _atom_site_fract_y
 _atom_site_fract_z
 _atom_site_occupancy
  Sm  Sm0  1  0.648611  0.000000  0.000000  1
  Cd  Cd1  1  0.998969  0.000000  0.667436  1
  Cd  Cd2  1  0.998969  0.667436  0.000000  1
  Cd  Cd3  1  0.331533  0.332564  0.332564  1
  P  P4  1  0.247114  0.748999  0.496098  1
  P  P5  1  0.751016  0.252901  0.503902  1
  P  P6  1  0.751016  0.503902  0.252901  1
  P  P7  1  0.247114  0.496098  0.748999  1
  P  P8  1  0.498115  0.747099  0.251001  1
  P  P9  1  0.498115  0.251001  0.747099  1
  P  P10  1  0.014601  0.000000  0.000000  1
  N  N11  1  0.715952  0.298290  0.298290  1
  N  N12  1  0.286867  0.705587  0.287156  1
  N  N13  1  0.306331  0.595579  0.595579  1
  N  N14  1  0.581280  0.581570  0.294413  1
  N  N15  1  0.417662  0.701710  0.000000  1
  N  N16  1  0.999710  0.712844  0.418430  1
  N  N17  1  0.581280  0.294413  0.581570  1
  N  N18  1  0.710752  0.000000  0.404421  1
  N  N19  1  0.417662  0.000000  0.701710  1
  N  N20  1  0.710752  0.404421  0.000000  1
  N  N21  1  0.286867  0.287156  0.705587  1
  N  N22  1  0.999710  0.418430  0.712844  1
