# generated using pymatgen
data_HoEr3S4
_symmetry_space_group_name_H-M   'P 1'
_cell_length_a   12.62380801
_cell_length_b   12.62380804
_cell_length_c   12.62380596
_cell_angle_alpha   17.79050846
_cell_angle_beta   17.79050969
_cell_angle_gamma   17.79050682
_symmetry_Int_Tables_number   1
_chemical_formula_structural   HoEr3S4
_chemical_formula_sum   'Ho1 Er3 S4'
_cell_volume   163.94783139
_cell_formula_units_Z   1
loop_
 _symmetry_equiv_pos_site_id
 _symmetry_equiv_pos_as_xyz
  1  'x, y, z'
loop_
 _atom_site_type_symbol
 _atom_site_label
 _atom_site_symmetry_multiplicity
 _atom_site_fract_x
 _atom_site_fract_y
 _atom_site_fract_z
 _atom_site_occupancy
  Ho  Ho0  1  0.000000  0.000000  0.000000  1
  Er  Er1  1  0.250758  0.250758  0.250758  1
  Er  Er2  1  0.500000  0.500000  0.500000  1
  Er  Er3  1  0.749242  0.749242  0.749242  1
  S  S4  1  0.375202  0.375202  0.375202  1
  S  S5  1  0.124757  0.124757  0.124757  1
  S  S6  1  0.624798  0.624798  0.624798  1
  S  S7  1  0.875243  0.875243  0.875243  1
