# generated using pymatgen
data_Sr(TaN2)2
_symmetry_space_group_name_H-M   'P 1'
_cell_length_a   9.96091503
_cell_length_b   3.15932700
_cell_length_c   11.37091703
_cell_angle_alpha   90.00000000
_cell_angle_beta   89.99969008
_cell_angle_gamma   90.00000000
_symmetry_Int_Tables_number   1
_chemical_formula_structural   Sr(TaN2)2
_chemical_formula_sum   'Sr4 Ta8 N16'
_cell_volume   357.84034624
_cell_formula_units_Z   4
loop_
 _symmetry_equiv_pos_site_id
 _symmetry_equiv_pos_as_xyz
  1  'x, y, z'
loop_
 _atom_site_type_symbol
 _atom_site_label
 _atom_site_symmetry_multiplicity
 _atom_site_fract_x
 _atom_site_fract_y
 _atom_site_fract_z
 _atom_site_occupancy
  Sr  Sr0  1  0.746660  0.500001  0.154124  1
  Sr  Sr1  1  0.246659  0.500001  0.345873  1
  Sr  Sr2  1  0.753339  0.000000  0.654128  1
  Sr  Sr3  1  0.253343  0.000000  0.845875  1
  Ta  Ta4  1  0.074691  0.500001  0.102609  1
  Ta  Ta5  1  0.431713  0.000000  0.105666  1
  Ta  Ta6  1  0.931716  0.000000  0.394336  1
  Ta  Ta7  1  0.574688  0.500001  0.397389  1
  Ta  Ta8  1  0.425310  0.000000  0.602611  1
  Ta  Ta9  1  0.068283  0.500001  0.605664  1
  Ta  Ta10  1  0.568289  0.500001  0.894337  1
  Ta  Ta11  1  0.925311  0.000000  0.897390  1
  N  N12  1  0.610058  0.000000  0.020709  1
  N  N13  1  0.929009  0.000000  0.072871  1
  N  N14  1  0.204398  0.000000  0.143876  1
  N  N15  1  0.475686  0.500001  0.216582  1
  N  N16  1  0.975685  0.500001  0.283421  1
  N  N17  1  0.704396  0.000000  0.356126  1
  N  N18  1  0.429005  0.000000  0.427127  1
  N  N19  1  0.110056  0.000000  0.479294  1
  N  N20  1  0.889943  0.500001  0.520707  1
  N  N21  1  0.570993  0.500001  0.572873  1
  N  N22  1  0.295603  0.500001  0.643875  1
  N  N23  1  0.024317  0.000000  0.716579  1
  N  N24  1  0.524317  0.000000  0.783421  1
  N  N25  1  0.795604  0.500001  0.856126  1
  N  N26  1  0.070996  0.500001  0.927129  1
  N  N27  1  0.389945  0.500001  0.979291  1
