# generated using pymatgen
data_CePr(NbN2)2
_symmetry_space_group_name_H-M   'P 1'
_cell_length_a   3.39907100
_cell_length_b   5.81833165
_cell_length_c   11.08627978
_cell_angle_alpha   90.12712779
_cell_angle_beta   90.00000000
_cell_angle_gamma   90.00000000
_symmetry_Int_Tables_number   1
_chemical_formula_structural   CePr(NbN2)2
_chemical_formula_sum   'Ce2 Pr2 Nb4 N8'
_cell_volume   219.25195483
_cell_formula_units_Z   2
loop_
 _symmetry_equiv_pos_site_id
 _symmetry_equiv_pos_as_xyz
  1  'x, y, z'
loop_
 _atom_site_type_symbol
 _atom_site_label
 _atom_site_symmetry_multiplicity
 _atom_site_fract_x
 _atom_site_fract_y
 _atom_site_fract_z
 _atom_site_occupancy
  Ce  Ce0  1  0.250000  0.579290  0.860498  1
  Ce  Ce1  1  0.750000  0.420710  0.139502  1
  Pr  Pr2  1  0.750000  0.916636  0.358342  1
  Pr  Pr3  1  0.250000  0.083364  0.641658  1
  Nb  Nb4  1  0.250000  0.920450  0.101457  1
  Nb  Nb5  1  0.750000  0.079550  0.898543  1
  Nb  Nb6  1  0.750000  0.579840  0.604958  1
  Nb  Nb7  1  0.250000  0.420160  0.395042  1
  N  N8  1  0.250000  0.656351  0.243324  1
  N  N9  1  0.750000  0.343649  0.756676  1
  N  N10  1  0.750000  0.833895  0.751761  1
  N  N11  1  0.250000  0.166105  0.248239  1
  N  N12  1  0.250000  0.729608  0.512319  1
  N  N13  1  0.750000  0.270392  0.487681  1
  N  N14  1  0.750000  0.757826  0.011429  1
  N  N15  1  0.250000  0.242174  0.988571  1
