# generated using pymatgen
data_Nd4CdIn7Pd12
_symmetry_space_group_name_H-M   'P 1'
_cell_length_a   4.65299800
_cell_length_b   9.98609058
_cell_length_c   10.43033683
_cell_angle_alpha   89.78063028
_cell_angle_beta   90.00000000
_cell_angle_gamma   90.00000000
_symmetry_Int_Tables_number   1
_chemical_formula_structural   Nd4CdIn7Pd12
_chemical_formula_sum   'Nd4 Cd1 In7 Pd12'
_cell_volume   484.64475475
_cell_formula_units_Z   1
loop_
 _symmetry_equiv_pos_site_id
 _symmetry_equiv_pos_as_xyz
  1  'x, y, z'
loop_
 _atom_site_type_symbol
 _atom_site_label
 _atom_site_symmetry_multiplicity
 _atom_site_fract_x
 _atom_site_fract_y
 _atom_site_fract_z
 _atom_site_occupancy
  Nd  Nd0  1  0.250000  0.444064  0.728971  1
  Nd  Nd1  1  0.250000  0.055282  0.231629  1
  Nd  Nd2  1  0.750000  0.556275  0.271597  1
  Nd  Nd3  1  0.750000  0.943700  0.770230  1
  Cd  Cd4  1  0.250000  0.886674  0.516293  1
  In  In5  1  0.250000  0.615421  0.016320  1
  In  In6  1  0.750000  0.112787  0.484294  1
  In  In7  1  0.750000  0.384076  0.984068  1
  In  In8  1  0.250000  0.158607  0.893810  1
  In  In9  1  0.250000  0.340896  0.394466  1
  In  In10  1  0.750000  0.841775  0.106212  1
  In  In11  1  0.750000  0.661317  0.604334  1
  Pd  Pd12  1  0.250000  0.148159  0.620457  1
  Pd  Pd13  1  0.250000  0.355835  0.119461  1
  Pd  Pd14  1  0.750000  0.854826  0.376550  1
  Pd  Pd15  1  0.750000  0.643911  0.880808  1
  Pd  Pd16  1  0.250000  0.736801  0.744064  1
  Pd  Pd17  1  0.250000  0.759552  0.241219  1
  Pd  Pd18  1  0.750000  0.260946  0.257596  1
  Pd  Pd19  1  0.750000  0.239571  0.758343  1
  Pd  Pd20  1  0.250000  0.895136  0.973627  1
  Pd  Pd21  1  0.250000  0.604668  0.473826  1
  Pd  Pd22  1  0.750000  0.105085  0.025853  1
  Pd  Pd23  1  0.750000  0.394635  0.525974  1
