# generated using pymatgen
data_Cu4Te8BrCl3
_symmetry_space_group_name_H-M   'P 1'
_cell_length_a   5.19014797
_cell_length_b   8.28767105
_cell_length_c   12.49083339
_cell_angle_alpha   64.41036535
_cell_angle_beta   89.89413841
_cell_angle_gamma   90.30151883
_symmetry_Int_Tables_number   1
_chemical_formula_structural   Cu4Te8BrCl3
_chemical_formula_sum   'Cu4 Te8 Br1 Cl3'
_cell_volume   484.57013379
_cell_formula_units_Z   1
loop_
 _symmetry_equiv_pos_site_id
 _symmetry_equiv_pos_as_xyz
  1  'x, y, z'
loop_
 _atom_site_type_symbol
 _atom_site_label
 _atom_site_symmetry_multiplicity
 _atom_site_fract_x
 _atom_site_fract_y
 _atom_site_fract_z
 _atom_site_occupancy
  Cu  Cu0  1  0.129702  0.169742  0.251506  1
  Cu  Cu1  1  0.629502  0.829821  0.248581  1
  Cu  Cu2  1  0.880154  0.828585  0.745058  1
  Cu  Cu3  1  0.359914  0.179423  0.745859  1
  Te  Te4  1  0.025830  0.276799  0.856109  1
  Te  Te5  1  0.790488  0.410451  0.147848  1
  Te  Te6  1  0.711208  0.412817  0.645391  1
  Te  Te7  1  0.216052  0.588278  0.852882  1
  Te  Te8  1  0.535459  0.725735  0.642221  1
  Te  Te9  1  0.969069  0.723513  0.144703  1
  Te  Te10  1  0.466510  0.274074  0.357600  1
  Te  Te11  1  0.290242  0.586330  0.354431  1
  Br  Br12  1  0.618542  0.914718  0.879799  1
  Cl  Cl13  1  0.122605  0.081693  0.626386  1
  Cl  Cl14  1  0.378142  0.078102  0.130822  1
  Cl  Cl15  1  0.876580  0.919918  0.370803  1
