# generated using pymatgen
data_Dy4Al24IrPt8
_symmetry_space_group_name_H-M   'P 1'
_cell_length_a   7.52208193
_cell_length_b   7.54514615
_cell_length_c   13.18754193
_cell_angle_alpha   84.62288437
_cell_angle_beta   79.11856385
_cell_angle_gamma   59.91830372
_symmetry_Int_Tables_number   1
_chemical_formula_structural   Dy4Al24IrPt8
_chemical_formula_sum   'Dy4 Al24 Ir1 Pt8'
_cell_volume   636.00735924
_cell_formula_units_Z   1
loop_
 _symmetry_equiv_pos_site_id
 _symmetry_equiv_pos_as_xyz
  1  'x, y, z'
loop_
 _atom_site_type_symbol
 _atom_site_label
 _atom_site_symmetry_multiplicity
 _atom_site_fract_x
 _atom_site_fract_y
 _atom_site_fract_z
 _atom_site_occupancy
  Dy  Dy0  1  0.393379  0.168507  0.808709  1
  Dy  Dy1  1  0.606621  0.831493  0.191291  1
  Dy  Dy2  1  0.733936  0.498484  0.808592  1
  Dy  Dy3  1  0.266064  0.501516  0.191408  1
  Al  Al4  1  0.686875  0.830776  0.945539  1
  Al  Al5  1  0.313125  0.169224  0.054461  1
  Al  Al6  1  0.146662  0.832153  0.561697  1
  Al  Al7  1  0.853338  0.167847  0.438303  1
  Al  Al8  1  0.479949  0.166720  0.559029  1
  Al  Al9  1  0.520051  0.833280  0.440971  1
  Al  Al10  1  0.217244  0.165015  0.328919  1
  Al  Al11  1  0.782756  0.834985  0.671081  1
  Al  Al12  1  0.436863  0.506904  0.671024  1
  Al  Al13  1  0.563137  0.493096  0.328976  1
  Al  Al14  1  0.109502  0.160130  0.669312  1
  Al  Al15  1  0.890498  0.839870  0.330688  1
  Al  Al16  1  0.349818  0.499081  0.945651  1
  Al  Al17  1  0.650182  0.500919  0.054349  1
  Al  Al18  1  0.014960  0.171329  0.954529  1
  Al  Al19  1  0.985040  0.828671  0.045471  1
  Al  Al20  1  0.186418  0.499321  0.441130  1
  Al  Al21  1  0.813582  0.500679  0.558870  1
  Al  Al22  1  0.734698  0.163627  0.183165  1
  Al  Al23  1  0.265302  0.836373  0.816835  1
  Al  Al24  1  0.061172  0.629939  0.817266  1
  Al  Al25  1  0.938828  0.370061  0.182734  1
  Al  Al26  1  0.855524  0.041580  0.816387  1
  Al  Al27  1  0.144476  0.958420  0.183613  1
  Ir  Ir28  1  0.000000  0.500000  0.000000  1
  Pt  Pt29  1  0.120151  0.492294  0.638597  1
  Pt  Pt30  1  0.879849  0.507706  0.361403  1
  Pt  Pt31  1  0.657285  0.171242  0.999922  1
  Pt  Pt32  1  0.342715  0.828758  0.000078  1
  Pt  Pt33  1  0.537628  0.166816  0.361795  1
  Pt  Pt34  1  0.462372  0.833184  0.638205  1
  Pt  Pt35  1  0.779078  0.174920  0.636894  1
  Pt  Pt36  1  0.220922  0.825080  0.363106  1
