# generated using pymatgen
data_Ce2ErMg3CuIrRh
_symmetry_space_group_name_H-M   'P 1'
_cell_length_a   7.40554991
_cell_length_b   7.54163678
_cell_length_c   3.90642000
_cell_angle_alpha   90.00000000
_cell_angle_beta   90.00000000
_cell_angle_gamma   119.32250668
_symmetry_Int_Tables_number   1
_chemical_formula_structural   Ce2ErMg3CuIrRh
_chemical_formula_sum   'Ce2 Er1 Mg3 Cu1 Ir1 Rh1'
_cell_volume   190.22038899
_cell_formula_units_Z   1
loop_
 _symmetry_equiv_pos_site_id
 _symmetry_equiv_pos_as_xyz
  1  'x, y, z'
loop_
 _atom_site_type_symbol
 _atom_site_label
 _atom_site_symmetry_multiplicity
 _atom_site_fract_x
 _atom_site_fract_y
 _atom_site_fract_z
 _atom_site_occupancy
  Ce  Ce0  1  0.999801  0.574685  0.000000  1
  Ce  Ce1  1  0.426448  0.422965  0.000000  1
  Er  Er2  1  0.586147  0.003365  0.000000  1
  Mg  Mg3  1  0.250309  0.000419  0.500000  1
  Mg  Mg4  1  0.994578  0.237148  0.500000  1
  Mg  Mg5  1  0.758023  0.762209  0.500000  1
  Cu  Cu6  1  0.997430  0.999766  0.000000  1
  Ir  Ir7  1  0.667570  0.346100  0.500000  1
  Rh  Rh8  1  0.319696  0.653344  0.500000  1
