# generated using pymatgen
data_Tm16CdCo(NiAg)3
_symmetry_space_group_name_H-M   'P 1'
_cell_length_a   9.32867000
_cell_length_b   9.32603691
_cell_length_c   9.32603830
_cell_angle_alpha   59.97104930
_cell_angle_beta   59.99616674
_cell_angle_gamma   59.99616280
_symmetry_Int_Tables_number   1
_chemical_formula_structural   Tm16CdCo(NiAg)3
_chemical_formula_sum   'Tm16 Cd1 Co1 Ni3 Ag3'
_cell_volume   573.55989711
_cell_formula_units_Z   1
loop_
 _symmetry_equiv_pos_site_id
 _symmetry_equiv_pos_as_xyz
  1  'x, y, z'
loop_
 _atom_site_type_symbol
 _atom_site_label
 _atom_site_symmetry_multiplicity
 _atom_site_fract_x
 _atom_site_fract_y
 _atom_site_fract_z
 _atom_site_occupancy
  Tm  Tm0  1  0.349053  0.350271  0.350271  1
  Tm  Tm1  1  0.347489  0.347761  0.953802  1
  Tm  Tm2  1  0.347489  0.953802  0.347761  1
  Tm  Tm3  1  0.951779  0.348862  0.348862  1
  Tm  Tm4  1  0.814667  0.187746  0.187746  1
  Tm  Tm5  1  0.190017  0.810965  0.810965  1
  Tm  Tm6  1  0.189007  0.814623  0.186741  1
  Tm  Tm7  1  0.811542  0.188806  0.810805  1
  Tm  Tm8  1  0.189007  0.186741  0.814623  1
  Tm  Tm9  1  0.811542  0.810805  0.188806  1
  Tm  Tm10  1  0.932621  0.564550  0.564550  1
  Tm  Tm11  1  0.560950  0.937041  0.937041  1
  Tm  Tm12  1  0.562521  0.936592  0.563882  1
  Tm  Tm13  1  0.933132  0.562550  0.938974  1
  Tm  Tm14  1  0.562521  0.563882  0.936592  1
  Tm  Tm15  1  0.933132  0.938974  0.562550  1
  Cd  Cd16  1  0.261645  0.579467  0.579467  1
  Co  Co17  1  0.143137  0.142642  0.142642  1
  Ni  Ni18  1  0.142791  0.142829  0.571861  1
  Ni  Ni19  1  0.142791  0.571861  0.142829  1
  Ni  Ni20  1  0.571674  0.143148  0.143148  1
  Ag  Ag21  1  0.583812  0.582304  0.582304  1
  Ag  Ag22  1  0.583841  0.582854  0.250924  1
  Ag  Ag23  1  0.583841  0.250924  0.582854  1
