# generated using pymatgen
data_TbY9Si5Sn
_symmetry_space_group_name_H-M   'P 1'
_cell_length_a   8.53420808
_cell_length_b   8.56469516
_cell_length_c   6.42368408
_cell_angle_alpha   89.98341332
_cell_angle_beta   90.00263717
_cell_angle_gamma   119.89812797
_symmetry_Int_Tables_number   1
_chemical_formula_structural   TbY9Si5Sn
_chemical_formula_sum   'Tb1 Y9 Si5 Sn1'
_cell_volume   407.03787619
_cell_formula_units_Z   1
loop_
 _symmetry_equiv_pos_site_id
 _symmetry_equiv_pos_as_xyz
  1  'x, y, z'
loop_
 _atom_site_type_symbol
 _atom_site_label
 _atom_site_symmetry_multiplicity
 _atom_site_fract_x
 _atom_site_fract_y
 _atom_site_fract_z
 _atom_site_occupancy
  Tb  Tb0  1  0.331610  0.658293  0.497000  1
  Y  Y1  1  0.989643  0.748547  0.750075  1
  Y  Y2  1  0.998701  0.243029  0.249913  1
  Y  Y3  1  0.755773  0.756868  0.249916  1
  Y  Y4  1  0.764570  0.000117  0.750092  1
  Y  Y5  1  0.241261  0.251393  0.750066  1
  Y  Y6  1  0.241812  0.000107  0.249900  1
  Y  Y7  1  0.673241  0.341555  0.002879  1
  Y  Y8  1  0.673215  0.341554  0.497132  1
  Y  Y9  1  0.331663  0.658426  0.002964  1
  Si  Si10  1  0.393650  0.392148  0.249788  1
  Si  Si11  1  0.000936  0.607615  0.249822  1
  Si  Si12  1  0.998368  0.394090  0.750189  1
  Si  Si13  1  0.604593  0.605684  0.750210  1
  Si  Si14  1  0.606022  0.000241  0.249834  1
  Sn  Sn15  1  0.394943  0.000333  0.750220  1
