# generated using pymatgen
data_DyFeMo(PIr)3
_symmetry_space_group_name_H-M   'P 1'
_cell_length_a   3.92963100
_cell_length_b   10.70787200
_cell_length_c   12.38867900
_cell_angle_alpha   90.00000000
_cell_angle_beta   90.00000000
_cell_angle_gamma   90.00000000
_symmetry_Int_Tables_number   1
_chemical_formula_structural   DyFeMo(PIr)3
_chemical_formula_sum   'Dy4 Fe4 Mo4 P12 Ir12'
_cell_volume   521.29065849
_cell_formula_units_Z   4
loop_
 _symmetry_equiv_pos_site_id
 _symmetry_equiv_pos_as_xyz
  1  'x, y, z'
loop_
 _atom_site_type_symbol
 _atom_site_label
 _atom_site_symmetry_multiplicity
 _atom_site_fract_x
 _atom_site_fract_y
 _atom_site_fract_z
 _atom_site_occupancy
  Dy  Dy0  1  0.250000  0.582475  0.710191  1
  Dy  Dy1  1  0.250000  0.917525  0.210191  1
  Dy  Dy2  1  0.750000  0.417525  0.289809  1
  Dy  Dy3  1  0.750000  0.082475  0.789809  1
  Fe  Fe4  1  0.250000  0.460463  0.936805  1
  Fe  Fe5  1  0.250000  0.039537  0.436805  1
  Fe  Fe6  1  0.750000  0.539537  0.063195  1
  Fe  Fe7  1  0.750000  0.960463  0.563195  1
  Mo  Mo8  1  0.250000  0.705657  0.984819  1
  Mo  Mo9  1  0.250000  0.794343  0.484819  1
  Mo  Mo10  1  0.750000  0.294343  0.015181  1
  Mo  Mo11  1  0.750000  0.205657  0.515181  1
  P  P12  1  0.250000  0.427104  0.106561  1
  P  P13  1  0.250000  0.072896  0.606561  1
  P  P14  1  0.750000  0.572896  0.893439  1
  P  P15  1  0.750000  0.927104  0.393439  1
  P  P16  1  0.250000  0.269691  0.870809  1
  P  P17  1  0.250000  0.230309  0.370809  1
  P  P18  1  0.750000  0.730309  0.129191  1
  P  P19  1  0.750000  0.769691  0.629191  1
  P  P20  1  0.250000  0.599253  0.390789  1
  P  P21  1  0.250000  0.900747  0.890789  1
  P  P22  1  0.750000  0.400747  0.609211  1
  P  P23  1  0.750000  0.099253  0.109211  1
  Ir  Ir24  1  0.250000  0.405139  0.482290  1
  Ir  Ir25  1  0.250000  0.094861  0.982290  1
  Ir  Ir26  1  0.750000  0.594861  0.517710  1
  Ir  Ir27  1  0.750000  0.905139  0.017710  1
  Ir  Ir28  1  0.250000  0.233049  0.179667  1
  Ir  Ir29  1  0.250000  0.266951  0.679667  1
  Ir  Ir30  1  0.750000  0.766951  0.820333  1
  Ir  Ir31  1  0.750000  0.733049  0.320333  1
  Ir  Ir32  1  0.250000  0.887387  0.700742  1
  Ir  Ir33  1  0.250000  0.612613  0.200742  1
  Ir  Ir34  1  0.750000  0.112613  0.299258  1
  Ir  Ir35  1  0.750000  0.387387  0.799258  1
