# generated using pymatgen
data_Sc4InTcHg2
_symmetry_space_group_name_H-M   'P 1'
_cell_length_a   6.99085800
_cell_length_b   6.87098600
_cell_length_c   6.98997200
_cell_angle_alpha   90.00000000
_cell_angle_beta   90.00144255
_cell_angle_gamma   90.00000000
_symmetry_Int_Tables_number   1
_chemical_formula_structural   Sc4InTcHg2
_chemical_formula_sum   'Sc8 In2 Tc2 Hg4'
_cell_volume   335.75692624
_cell_formula_units_Z   2
loop_
 _symmetry_equiv_pos_site_id
 _symmetry_equiv_pos_as_xyz
  1  'x, y, z'
loop_
 _atom_site_type_symbol
 _atom_site_label
 _atom_site_symmetry_multiplicity
 _atom_site_fract_x
 _atom_site_fract_y
 _atom_site_fract_z
 _atom_site_occupancy
  Sc  Sc0  1  0.272291  0.000083  0.272294  1
  Sc  Sc1  1  0.272291  0.499916  0.272294  1
  Sc  Sc2  1  0.727685  0.500089  0.272305  1
  Sc  Sc3  1  0.727685  0.999911  0.272305  1
  Sc  Sc4  1  0.272315  0.000088  0.727696  1
  Sc  Sc5  1  0.272315  0.499911  0.727696  1
  Sc  Sc6  1  0.727709  0.500083  0.727707  1
  Sc  Sc7  1  0.727709  0.999917  0.727707  1
  In  In8  1  0.999968  0.250000  0.000027  1
  In  In9  1  0.000032  0.750000  0.999973  1
  Tc  Tc10  1  0.500030  0.250000  0.500006  1
  Tc  Tc11  1  0.499969  0.750000  0.499994  1
  Hg  Hg12  1  0.500176  0.250000  0.000006  1
  Hg  Hg13  1  0.499824  0.750000  0.999994  1
  Hg  Hg14  1  0.999853  0.250000  0.499995  1
  Hg  Hg15  1  0.000147  0.750000  0.500006  1
