# generated using pymatgen
data_MnZn(S2O7)2
_symmetry_space_group_name_H-M   'P 1'
_cell_length_a   5.03802711
_cell_length_b   7.18923651
_cell_length_c   8.49299290
_cell_angle_alpha   92.71612874
_cell_angle_beta   93.71943658
_cell_angle_gamma   106.31673809
_symmetry_Int_Tables_number   1
_chemical_formula_structural   MnZn(S2O7)2
_chemical_formula_sum   'Mn1 Zn1 S4 O14'
_cell_volume   293.90886824
_cell_formula_units_Z   1
loop_
 _symmetry_equiv_pos_site_id
 _symmetry_equiv_pos_as_xyz
  1  'x, y, z'
loop_
 _atom_site_type_symbol
 _atom_site_label
 _atom_site_symmetry_multiplicity
 _atom_site_fract_x
 _atom_site_fract_y
 _atom_site_fract_z
 _atom_site_occupancy
  Mn  Mn0  1  0.500000  0.000000  0.500000  1
  Zn  Zn1  1  0.000000  0.500000  0.000000  1
  S  S2  1  0.505305  0.643418  0.772468  1
  S  S3  1  0.494695  0.356582  0.227532  1
  S  S4  1  0.132610  0.255084  0.692668  1
  S  S5  1  0.867390  0.744916  0.307332  1
  O  O6  1  0.727283  0.559819  0.819435  1
  O  O7  1  0.272717  0.440181  0.180565  1
  O  O8  1  0.341117  0.680919  0.899713  1
  O  O9  1  0.658883  0.319081  0.100287  1
  O  O10  1  0.591126  0.804028  0.672428  1
  O  O11  1  0.408874  0.195972  0.327572  1
  O  O12  1  0.288284  0.478209  0.645487  1
  O  O13  1  0.711716  0.521791  0.354513  1
  O  O14  1  0.910283  0.199012  0.566790  1
  O  O15  1  0.089717  0.800988  0.433210  1
  O  O16  1  0.336559  0.146694  0.684964  1
  O  O17  1  0.663441  0.853306  0.315036  1
  O  O18  1  0.045263  0.271213  0.852331  1
  O  O19  1  0.954737  0.728787  0.147669  1
