# generated using pymatgen
data_DyHo5(ErC5)2
_symmetry_space_group_name_H-M   'P 1'
_cell_length_a   3.65023200
_cell_length_b   6.54283677
_cell_length_c   11.86784815
_cell_angle_alpha   88.93089249
_cell_angle_beta   90.00000000
_cell_angle_gamma   90.00000000
_symmetry_Int_Tables_number   1
_chemical_formula_structural   DyHo5(ErC5)2
_chemical_formula_sum   'Dy1 Ho5 Er2 C10'
_cell_volume   283.38895825
_cell_formula_units_Z   1
loop_
 _symmetry_equiv_pos_site_id
 _symmetry_equiv_pos_as_xyz
  1  'x, y, z'
loop_
 _atom_site_type_symbol
 _atom_site_label
 _atom_site_symmetry_multiplicity
 _atom_site_fract_x
 _atom_site_fract_y
 _atom_site_fract_z
 _atom_site_occupancy
  Dy  Dy0  1  0.500000  0.895364  0.197546  1
  Ho  Ho1  1  0.500000  0.390426  0.304790  1
  Ho  Ho2  1  0.500000  0.609312  0.695748  1
  Ho  Ho3  1  0.500000  0.104238  0.802323  1
  Ho  Ho4  1  0.000000  0.244505  0.041932  1
  Ho  Ho5  1  0.000000  0.755851  0.957529  1
  Er  Er6  1  0.000000  0.257323  0.543223  1
  Er  Er7  1  0.000000  0.742954  0.457013  1
  C  C8  1  0.500000  0.000500  0.999278  1
  C  C9  1  0.500000  0.500312  0.500261  1
  C  C10  1  0.000000  0.138207  0.235256  1
  C  C11  1  0.000000  0.862994  0.764662  1
  C  C12  1  0.000000  0.356769  0.737102  1
  C  C13  1  0.000000  0.641840  0.263156  1
  C  C14  1  0.000000  0.109641  0.347359  1
  C  C15  1  0.000000  0.891501  0.652524  1
  C  C16  1  0.000000  0.419482  0.843154  1
  C  C17  1  0.000000  0.578785  0.157143  1
