# generated using pymatgen
data_Zr3Al2GaPd3
_symmetry_space_group_name_H-M   'P 1'
_cell_length_a   7.21791700
_cell_length_b   7.24487251
_cell_length_c   7.10139106
_cell_angle_alpha   89.88093440
_cell_angle_beta   90.00000000
_cell_angle_gamma   119.87699405
_symmetry_Int_Tables_number   1
_chemical_formula_structural   Zr3Al2GaPd3
_chemical_formula_sum   'Zr6 Al4 Ga2 Pd6'
_cell_volume   321.99743672
_cell_formula_units_Z   2
loop_
 _symmetry_equiv_pos_site_id
 _symmetry_equiv_pos_as_xyz
  1  'x, y, z'
loop_
 _atom_site_type_symbol
 _atom_site_label
 _atom_site_symmetry_multiplicity
 _atom_site_fract_x
 _atom_site_fract_y
 _atom_site_fract_z
 _atom_site_occupancy
  Zr  Zr0  1  0.607756  0.588032  0.250454  1
  Zr  Zr1  1  0.019724  0.411968  0.749546  1
  Zr  Zr2  1  0.410944  0.020379  0.250533  1
  Zr  Zr3  1  0.981084  0.393119  0.250496  1
  Zr  Zr4  1  0.390566  0.979621  0.749467  1
  Zr  Zr5  1  0.587965  0.606881  0.749504  1
  Al  Al6  1  0.249294  0.250389  0.500176  1
  Al  Al7  1  0.750016  0.000000  0.500000  1
  Al  Al8  1  0.998904  0.749611  0.499824  1
  Al  Al9  1  0.731658  0.000000  0.000000  1
  Ga  Ga10  1  0.272668  0.276319  0.000114  1
  Ga  Ga11  1  0.996349  0.723681  0.999886  1
  Pd  Pd12  1  0.333306  0.666848  0.471236  1
  Pd  Pd13  1  0.999703  0.999797  0.764194  1
  Pd  Pd14  1  0.999904  0.000203  0.235806  1
  Pd  Pd15  1  0.337715  0.671729  0.030257  1
  Pd  Pd16  1  0.666460  0.333152  0.528764  1
  Pd  Pd17  1  0.665986  0.328271  0.969743  1
