# generated using pymatgen
data_Tb3Yb(Ga2Ag)4
_symmetry_space_group_name_H-M   'P 1'
_cell_length_a   4.37527300
_cell_length_b   6.99568264
_cell_length_c   10.28743604
_cell_angle_alpha   90.33633139
_cell_angle_beta   90.00000000
_cell_angle_gamma   90.00000000
_symmetry_Int_Tables_number   1
_chemical_formula_structural   Tb3Yb(Ga2Ag)4
_chemical_formula_sum   'Tb3 Yb1 Ga8 Ag4'
_cell_volume   314.87263716
_cell_formula_units_Z   1
loop_
 _symmetry_equiv_pos_site_id
 _symmetry_equiv_pos_as_xyz
  1  'x, y, z'
loop_
 _atom_site_type_symbol
 _atom_site_label
 _atom_site_symmetry_multiplicity
 _atom_site_fract_x
 _atom_site_fract_y
 _atom_site_fract_z
 _atom_site_occupancy
  Tb  Tb0  1  0.250000  0.780910  0.827099  1
  Tb  Tb1  1  0.750000  0.222079  0.171891  1
  Tb  Tb2  1  0.750000  0.720078  0.328887  1
  Yb  Yb3  1  0.250000  0.276358  0.670962  1
  Ga  Ga4  1  0.250000  0.704139  0.536481  1
  Ga  Ga5  1  0.750000  0.297073  0.464426  1
  Ga  Ga6  1  0.750000  0.793466  0.037475  1
  Ga  Ga7  1  0.250000  0.202966  0.963306  1
  Ga  Ga8  1  0.250000  0.926385  0.153991  1
  Ga  Ga9  1  0.750000  0.072978  0.849171  1
  Ga  Ga10  1  0.750000  0.571677  0.650610  1
  Ga  Ga11  1  0.250000  0.427309  0.345504  1
  Ag  Ag12  1  0.250000  0.543238  0.097659  1
  Ag  Ag13  1  0.750000  0.456877  0.901265  1
  Ag  Ag14  1  0.750000  0.959816  0.598497  1
  Ag  Ag15  1  0.250000  0.044651  0.402777  1
