# generated using pymatgen
data_TbCe2Nd(AlRu)4
_symmetry_space_group_name_H-M   'P 1'
_cell_length_a   4.00428800
_cell_length_b   7.32443630
_cell_length_c   16.15202536
_cell_angle_alpha   91.42043786
_cell_angle_beta   90.00000000
_cell_angle_gamma   90.00000000
_symmetry_Int_Tables_number   1
_chemical_formula_structural   TbCe2Nd(AlRu)4
_chemical_formula_sum   'Tb2 Ce4 Nd2 Al8 Ru8'
_cell_volume   473.57964215
_cell_formula_units_Z   2
loop_
 _symmetry_equiv_pos_site_id
 _symmetry_equiv_pos_as_xyz
  1  'x, y, z'
loop_
 _atom_site_type_symbol
 _atom_site_label
 _atom_site_symmetry_multiplicity
 _atom_site_fract_x
 _atom_site_fract_y
 _atom_site_fract_z
 _atom_site_occupancy
  Tb  Tb0  1  0.250000  0.659424  0.938875  1
  Tb  Tb1  1  0.250000  0.040983  0.782050  1
  Ce  Ce2  1  0.750000  0.825948  0.438373  1
  Ce  Ce3  1  0.750000  0.455314  0.282212  1
  Ce  Ce4  1  0.750000  0.324278  0.060798  1
  Ce  Ce5  1  0.250000  0.539983  0.723110  1
  Nd  Nd6  1  0.750000  0.960775  0.218228  1
  Nd  Nd7  1  0.250000  0.168640  0.563110  1
  Al  Al8  1  0.750000  0.505060  0.563520  1
  Al  Al9  1  0.750000  0.360521  0.854205  1
  Al  Al10  1  0.750000  0.986397  0.933671  1
  Al  Al11  1  0.750000  0.865781  0.652689  1
  Al  Al12  1  0.250000  0.496330  0.438134  1
  Al  Al13  1  0.250000  0.989883  0.061517  1
  Al  Al14  1  0.250000  0.632151  0.150759  1
  Al  Al15  1  0.250000  0.128340  0.347953  1
  Ru  Ru16  1  0.750000  0.730630  0.807161  1
  Ru  Ru17  1  0.250000  0.229845  0.940296  1
  Ru  Ru18  1  0.750000  0.277872  0.422721  1
  Ru  Ru19  1  0.250000  0.757363  0.327264  1
  Ru  Ru20  1  0.750000  0.762671  0.064655  1
  Ru  Ru21  1  0.750000  0.282267  0.690894  1
  Ru  Ru22  1  0.250000  0.275830  0.175865  1
  Ru  Ru23  1  0.250000  0.743710  0.561943  1
