# generated using pymatgen
data_NaTb4Eu3Te8
_symmetry_space_group_name_H-M   'P 1'
_cell_length_a   8.98649100
_cell_length_b   8.98649171
_cell_length_c   8.94775748
_cell_angle_alpha   59.85670100
_cell_angle_beta   59.85669756
_cell_angle_gamma   59.99999815
_symmetry_Int_Tables_number   1
_chemical_formula_structural   NaTb4Eu3Te8
_chemical_formula_sum   'Na1 Tb4 Eu3 Te8'
_cell_volume   509.84180281
_cell_formula_units_Z   1
loop_
 _symmetry_equiv_pos_site_id
 _symmetry_equiv_pos_as_xyz
  1  'x, y, z'
loop_
 _atom_site_type_symbol
 _atom_site_label
 _atom_site_symmetry_multiplicity
 _atom_site_fract_x
 _atom_site_fract_y
 _atom_site_fract_z
 _atom_site_occupancy
  Na  Na0  1  0.125000  0.125000  0.625000  1
  Tb  Tb1  1  0.625000  0.125000  0.625000  1
  Tb  Tb2  1  0.625000  0.625000  0.625000  1
  Tb  Tb3  1  0.125000  0.625000  0.625000  1
  Tb  Tb4  1  0.625000  0.625000  0.125000  1
  Eu  Eu5  1  0.125000  0.625000  0.125000  1
  Eu  Eu6  1  0.625000  0.125000  0.125000  1
  Eu  Eu7  1  0.125000  0.125000  0.125000  1
  Te  Te8  1  0.377516  0.863225  0.381741  1
  Te  Te9  1  0.872484  0.386775  0.868259  1
  Te  Te10  1  0.870859  0.870859  0.387422  1
  Te  Te11  1  0.872484  0.872484  0.868259  1
  Te  Te12  1  0.863225  0.377516  0.381741  1
  Te  Te13  1  0.379141  0.379141  0.862578  1
  Te  Te14  1  0.377516  0.377516  0.381741  1
  Te  Te15  1  0.386775  0.872484  0.868259  1
