# generated using pymatgen
data_Lu7CoI12
_symmetry_space_group_name_H-M   'P 1'
_cell_length_a   9.59429869
_cell_length_b   9.59429886
_cell_length_c   9.59429886
_cell_angle_alpha   106.87714975
_cell_angle_beta   106.87714290
_cell_angle_gamma   106.87714949
_symmetry_Int_Tables_number   1
_chemical_formula_structural   Lu7CoI12
_chemical_formula_sum   'Lu7 Co1 I12'
_cell_volume   737.95566638
_cell_formula_units_Z   1
loop_
 _symmetry_equiv_pos_site_id
 _symmetry_equiv_pos_as_xyz
  1  'x, y, z'
loop_
 _atom_site_type_symbol
 _atom_site_label
 _atom_site_symmetry_multiplicity
 _atom_site_fract_x
 _atom_site_fract_y
 _atom_site_fract_z
 _atom_site_occupancy
  Lu  Lu0  1  0.500000  0.500000  0.500000  1
  Lu  Lu1  1  0.021452  0.089934  0.282797  1
  Lu  Lu2  1  0.089934  0.282797  0.021452  1
  Lu  Lu3  1  0.282797  0.021452  0.089934  1
  Lu  Lu4  1  0.978548  0.910066  0.717203  1
  Lu  Lu5  1  0.910066  0.717203  0.978548  1
  Lu  Lu6  1  0.717203  0.978548  0.910066  1
  Co  Co7  1  0.000000  0.000000  0.000000  1
  I  I8  1  0.161862  0.464978  0.387988  1
  I  I9  1  0.464978  0.387988  0.161862  1
  I  I10  1  0.387988  0.161862  0.464978  1
  I  I11  1  0.838138  0.535022  0.612012  1
  I  I12  1  0.535022  0.612012  0.838138  1
  I  I13  1  0.612012  0.838138  0.535022  1
  I  I14  1  0.676458  0.071757  0.225164  1
  I  I15  1  0.071757  0.225164  0.676458  1
  I  I16  1  0.225164  0.676458  0.071757  1
  I  I17  1  0.323542  0.928243  0.774836  1
  I  I18  1  0.928243  0.774836  0.323542  1
  I  I19  1  0.774836  0.323542  0.928243  1
