# generated using pymatgen
data_Pr6Sn6IrRh5
_symmetry_space_group_name_H-M   'P 1'
_cell_length_a   7.54721700
_cell_length_b   7.54721669
_cell_length_c   8.37705600
_cell_angle_alpha   90.00000000
_cell_angle_beta   90.00000000
_cell_angle_gamma   120.00000575
_symmetry_Int_Tables_number   1
_chemical_formula_structural   Pr6Sn6IrRh5
_chemical_formula_sum   'Pr6 Sn6 Ir1 Rh5'
_cell_volume   413.23365209
_cell_formula_units_Z   1
loop_
 _symmetry_equiv_pos_site_id
 _symmetry_equiv_pos_as_xyz
  1  'x, y, z'
loop_
 _atom_site_type_symbol
 _atom_site_label
 _atom_site_symmetry_multiplicity
 _atom_site_fract_x
 _atom_site_fract_y
 _atom_site_fract_z
 _atom_site_occupancy
  Pr  Pr0  1  0.587631  0.001118  0.750608  1
  Pr  Pr1  1  0.413488  0.412369  0.750608  1
  Pr  Pr2  1  0.998882  0.586512  0.750608  1
  Pr  Pr3  1  0.587599  0.000750  0.249481  1
  Pr  Pr4  1  0.413150  0.412401  0.249481  1
  Pr  Pr5  1  0.999250  0.586850  0.249481  1
  Sn  Sn6  1  0.249282  0.999180  0.000442  1
  Sn  Sn7  1  0.750880  0.750495  0.499588  1
  Sn  Sn8  1  0.999614  0.249120  0.499588  1
  Sn  Sn9  1  0.000820  0.250103  0.000442  1
  Sn  Sn10  1  0.749897  0.750718  0.000442  1
  Sn  Sn11  1  0.249505  0.000386  0.499588  1
  Ir  Ir12  1  0.666667  0.333333  0.999044  1
  Rh  Rh13  1  0.666667  0.333333  0.501168  1
  Rh  Rh14  1  0.333333  0.666667  0.001165  1
  Rh  Rh15  1  0.333333  0.666667  0.498320  1
  Rh  Rh16  1  0.000000  0.000000  0.750001  1
  Rh  Rh17  1  0.000000  0.000000  0.249945  1
