# generated using pymatgen
data_Be15Nb6Cu3Ni5
_symmetry_space_group_name_H-M   'P 1'
_cell_length_a   7.59865091
_cell_length_b   7.60511309
_cell_length_c   7.60943100
_cell_angle_alpha   59.98122109
_cell_angle_beta   59.95306353
_cell_angle_gamma   59.90589554
_symmetry_Int_Tables_number   1
_chemical_formula_structural   Be15Nb6Cu3Ni5
_chemical_formula_sum   'Be15 Nb6 Cu3 Ni5'
_cell_volume   310.56600877
_cell_formula_units_Z   1
loop_
 _symmetry_equiv_pos_site_id
 _symmetry_equiv_pos_as_xyz
  1  'x, y, z'
loop_
 _atom_site_type_symbol
 _atom_site_label
 _atom_site_symmetry_multiplicity
 _atom_site_fract_x
 _atom_site_fract_y
 _atom_site_fract_z
 _atom_site_occupancy
  Be  Be0  1  0.322335  0.327339  0.327877  1
  Be  Be1  1  0.676026  0.675112  0.670209  1
  Be  Be2  1  0.322335  0.327339  0.022450  1
  Be  Be3  1  0.322147  0.021539  0.328157  1
  Be  Be4  1  0.676026  0.675112  0.978652  1
  Be  Be5  1  0.678962  0.974588  0.673225  1
  Be  Be6  1  0.025081  0.324514  0.325203  1
  Be  Be7  1  0.976631  0.677947  0.672710  1
  Be  Be8  1  0.499495  0.000303  0.000676  1
  Be  Be9  1  0.000569  0.501294  0.497323  1
  Be  Be10  1  0.000569  0.501294  0.000814  1
  Be  Be11  1  0.499495  0.000303  0.499527  1
  Be  Be12  1  0.000912  0.999948  0.499570  1
  Be  Be13  1  0.497385  0.501063  0.000776  1
  Be  Be14  1  0.001296  0.995466  0.001619  1
  Nb  Nb15  1  0.702402  0.297462  0.305439  1
  Nb  Nb16  1  0.294237  0.701716  0.701833  1
  Nb  Nb17  1  0.294237  0.701716  0.302215  1
  Nb  Nb18  1  0.702402  0.297462  0.694698  1
  Nb  Nb19  1  0.302188  0.301085  0.698364  1
  Nb  Nb20  1  0.705890  0.697319  0.298396  1
  Cu  Cu21  1  0.877815  0.366409  0.877888  1
  Cu  Cu22  1  0.632726  0.122585  0.122345  1
  Cu  Cu23  1  0.367261  0.877799  0.877470  1
  Ni  Ni24  1  0.122505  0.123069  0.122013  1
  Ni  Ni25  1  0.876927  0.877716  0.877711  1
  Ni  Ni26  1  0.122505  0.123069  0.632413  1
  Ni  Ni27  1  0.122715  0.631718  0.122784  1
  Ni  Ni28  1  0.876927  0.877716  0.367645  1
