# generated using pymatgen
data_Nd3(ErNi4)4
_symmetry_space_group_name_H-M   'P 1'
_cell_length_a   8.77748302
_cell_length_b   8.79812949
_cell_length_c   8.76345300
_cell_angle_alpha   131.56493316
_cell_angle_beta   131.50262153
_cell_angle_gamma   71.19532877
_symmetry_Int_Tables_number   1
_chemical_formula_structural   Nd3(ErNi4)4
_chemical_formula_sum   'Nd3 Er4 Ni16'
_cell_volume   370.81970987
_cell_formula_units_Z   1
loop_
 _symmetry_equiv_pos_site_id
 _symmetry_equiv_pos_as_xyz
  1  'x, y, z'
loop_
 _atom_site_type_symbol
 _atom_site_label
 _atom_site_symmetry_multiplicity
 _atom_site_fract_x
 _atom_site_fract_y
 _atom_site_fract_z
 _atom_site_occupancy
  Nd  Nd0  1  0.096659  0.096827  0.400468  1
  Nd  Nd1  1  0.696178  0.696340  0.599513  1
  Nd  Nd2  1  0.903961  0.302976  0.999987  1
  Er  Er3  1  0.748798  0.249256  0.498875  1
  Er  Er4  1  0.500030  0.501549  0.000018  1
  Er  Er5  1  0.306783  0.902072  0.000000  1
  Er  Er6  1  0.249896  0.750396  0.501115  1
  Ni  Ni7  1  0.431679  0.191391  0.000021  1
  Ni  Ni8  1  0.675289  0.931070  0.469508  1
  Ni  Ni9  1  0.936731  0.684526  0.484690  1
  Ni  Ni10  1  0.195596  0.432164  0.000005  1
  Ni  Ni11  1  0.318399  0.798258  0.247816  1
  Ni  Ni12  1  0.943153  0.656412  0.999998  1
  Ni  Ni13  1  0.805550  0.806160  0.238531  1
  Ni  Ni14  1  0.070605  0.550425  0.752198  1
  Ni  Ni15  1  0.061354  0.055890  0.721818  1
  Ni  Ni16  1  0.655782  0.942014  0.999997  1
  Ni  Ni17  1  0.567005  0.567615  0.761434  1
  Ni  Ni18  1  0.795819  0.320725  0.252298  1
  Ni  Ni19  1  0.543531  0.068430  0.747736  1
  Ni  Ni20  1  0.205717  0.461656  0.530574  1
  Ni  Ni21  1  0.339426  0.334061  0.278105  1
  Ni  Ni22  1  0.452060  0.199788  0.515294  1
