# generated using pymatgen
data_Y2Er4MnFeB14
_symmetry_space_group_name_H-M   'P 1'
_cell_length_a   7.97440803
_cell_length_b   7.97440852
_cell_length_c   9.26987900
_cell_angle_alpha   90.00000000
_cell_angle_beta   90.00000000
_cell_angle_gamma   155.23581415
_symmetry_Int_Tables_number   1
_chemical_formula_structural   Y2Er4MnFeB14
_chemical_formula_sum   'Y2 Er4 Mn1 Fe1 B14'
_cell_volume   246.92517129
_cell_formula_units_Z   1
loop_
 _symmetry_equiv_pos_site_id
 _symmetry_equiv_pos_as_xyz
  1  'x, y, z'
loop_
 _atom_site_type_symbol
 _atom_site_label
 _atom_site_symmetry_multiplicity
 _atom_site_fract_x
 _atom_site_fract_y
 _atom_site_fract_z
 _atom_site_occupancy
  Y  Y0  1  0.242819  0.757181  0.250000  1
  Y  Y1  1  0.756648  0.243352  0.750000  1
  Er  Er2  1  0.895548  0.104452  0.439578  1
  Er  Er3  1  0.104482  0.895518  0.558703  1
  Er  Er4  1  0.895548  0.104452  0.060422  1
  Er  Er5  1  0.104482  0.895518  0.941297  1
  Mn  Mn6  1  0.052819  0.947181  0.250000  1
  Fe  Fe7  1  0.946398  0.053602  0.750000  1
  B  B8  1  0.727675  0.272325  0.467636  1
  B  B9  1  0.272820  0.727180  0.533345  1
  B  B10  1  0.727675  0.272325  0.032364  1
  B  B11  1  0.272820  0.727180  0.966655  1
  B  B12  1  0.630071  0.369929  0.152866  1
  B  B13  1  0.370298  0.629702  0.847098  1
  B  B14  1  0.630071  0.369929  0.347134  1
  B  B15  1  0.370298  0.629702  0.652902  1
  B  B16  1  0.521001  0.478999  0.098061  1
  B  B17  1  0.479043  0.520957  0.901948  1
  B  B18  1  0.521001  0.478999  0.401939  1
  B  B19  1  0.479043  0.520957  0.598052  1
  B  B20  1  0.457715  0.542285  0.250000  1
  B  B21  1  0.541726  0.458274  0.750000  1
