# generated using pymatgen
data_Er8Hg3Ir
_symmetry_space_group_name_H-M   'P 1'
_cell_length_a   10.07420900
_cell_length_b   10.07420932
_cell_length_c   7.24015700
_cell_angle_alpha   90.00000000
_cell_angle_beta   90.00000000
_cell_angle_gamma   120.00000223
_symmetry_Int_Tables_number   1
_chemical_formula_structural   Er8Hg3Ir
_chemical_formula_sum   'Er16 Hg6 Ir2'
_cell_volume   636.35657051
_cell_formula_units_Z   2
loop_
 _symmetry_equiv_pos_site_id
 _symmetry_equiv_pos_as_xyz
  1  'x, y, z'
loop_
 _atom_site_type_symbol
 _atom_site_label
 _atom_site_symmetry_multiplicity
 _atom_site_fract_x
 _atom_site_fract_y
 _atom_site_fract_z
 _atom_site_occupancy
  Er  Er0  1  0.000000  0.000000  0.264055  1
  Er  Er1  1  0.000000  0.000000  0.764055  1
  Er  Er2  1  0.172784  0.827216  0.982528  1
  Er  Er3  1  0.827216  0.172784  0.482528  1
  Er  Er4  1  0.172784  0.345567  0.982528  1
  Er  Er5  1  0.654433  0.827216  0.982528  1
  Er  Er6  1  0.345567  0.172784  0.482528  1
  Er  Er7  1  0.827216  0.654433  0.482528  1
  Er  Er8  1  0.333333  0.666667  0.676766  1
  Er  Er9  1  0.666667  0.333333  0.176766  1
  Er  Er10  1  0.461693  0.538307  0.294216  1
  Er  Er11  1  0.538307  0.461693  0.794216  1
  Er  Er12  1  0.461693  0.923387  0.294216  1
  Er  Er13  1  0.076613  0.538307  0.294216  1
  Er  Er14  1  0.923387  0.461693  0.794216  1
  Er  Er15  1  0.538307  0.076613  0.794216  1
  Hg  Hg16  1  0.166733  0.833267  0.548588  1
  Hg  Hg17  1  0.833267  0.166733  0.048588  1
  Hg  Hg18  1  0.166733  0.333466  0.548588  1
  Hg  Hg19  1  0.666534  0.833267  0.548588  1
  Hg  Hg20  1  0.333466  0.166733  0.048588  1
  Hg  Hg21  1  0.833267  0.666534  0.048588  1
  Ir  Ir22  1  0.333333  0.666667  0.056243  1
  Ir  Ir23  1  0.666667  0.333333  0.556243  1
