# generated using pymatgen
data_U4Ta3NbN8
_symmetry_space_group_name_H-M   'P 1'
_cell_length_a   3.23868800
_cell_length_b   5.65436302
_cell_length_c   11.04324303
_cell_angle_alpha   90.00891480
_cell_angle_beta   90.00000000
_cell_angle_gamma   90.00000000
_symmetry_Int_Tables_number   1
_chemical_formula_structural   U4Ta3NbN8
_chemical_formula_sum   'U4 Ta3 Nb1 N8'
_cell_volume   202.23178918
_cell_formula_units_Z   1
loop_
 _symmetry_equiv_pos_site_id
 _symmetry_equiv_pos_as_xyz
  1  'x, y, z'
loop_
 _atom_site_type_symbol
 _atom_site_label
 _atom_site_symmetry_multiplicity
 _atom_site_fract_x
 _atom_site_fract_y
 _atom_site_fract_z
 _atom_site_occupancy
  U  U0  1  0.250000  0.577602  0.856977  1
  U  U1  1  0.750000  0.421462  0.143684  1
  U  U2  1  0.750000  0.923776  0.356660  1
  U  U3  1  0.250000  0.078548  0.643941  1
  Ta  Ta4  1  0.250000  0.923720  0.101076  1
  Ta  Ta5  1  0.750000  0.075397  0.897477  1
  Ta  Ta6  1  0.750000  0.575390  0.601826  1
  Nb  Nb7  1  0.250000  0.425043  0.398417  1
  N  N8  1  0.250000  0.664030  0.243341  1
  N  N9  1  0.750000  0.337711  0.755198  1
  N  N10  1  0.750000  0.836367  0.744840  1
  N  N11  1  0.250000  0.160657  0.253102  1
  N  N12  1  0.250000  0.763710  0.506088  1
  N  N13  1  0.750000  0.236965  0.498076  1
  N  N14  1  0.750000  0.739218  0.004272  1
  N  N15  1  0.250000  0.260402  0.995025  1
