# generated using pymatgen
data_La2Sc3Pt4
_symmetry_space_group_name_H-M   'P 1'
_cell_length_a   7.50601300
_cell_length_b   7.59220300
_cell_length_c   14.26756200
_cell_angle_alpha   90.00000000
_cell_angle_beta   90.00000000
_cell_angle_gamma   90.00000000
_symmetry_Int_Tables_number   1
_chemical_formula_structural   La2Sc3Pt4
_chemical_formula_sum   'La8 Sc12 Pt16'
_cell_volume   813.06804419
_cell_formula_units_Z   4
loop_
 _symmetry_equiv_pos_site_id
 _symmetry_equiv_pos_as_xyz
  1  'x, y, z'
loop_
 _atom_site_type_symbol
 _atom_site_label
 _atom_site_symmetry_multiplicity
 _atom_site_fract_x
 _atom_site_fract_y
 _atom_site_fract_z
 _atom_site_occupancy
  La  La0  1  0.012818  0.175549  0.097794  1
  La  La1  1  0.512818  0.324451  0.402206  1
  La  La2  1  0.487182  0.675549  0.902206  1
  La  La3  1  0.987182  0.824451  0.597794  1
  La  La4  1  0.987182  0.824451  0.902206  1
  La  La5  1  0.487182  0.675549  0.597794  1
  La  La6  1  0.512818  0.324451  0.097794  1
  La  La7  1  0.012818  0.175549  0.402206  1
  Sc  Sc8  1  0.855619  0.663542  0.126913  1
  Sc  Sc9  1  0.355619  0.836458  0.373087  1
  Sc  Sc10  1  0.644381  0.163542  0.873087  1
  Sc  Sc11  1  0.144381  0.336458  0.626913  1
  Sc  Sc12  1  0.144381  0.336458  0.873087  1
  Sc  Sc13  1  0.644381  0.163542  0.626913  1
  Sc  Sc14  1  0.355619  0.836458  0.126913  1
  Sc  Sc15  1  0.855619  0.663542  0.373087  1
  Sc  Sc16  1  0.690337  0.990820  0.250000  1
  Sc  Sc17  1  0.190337  0.509180  0.250000  1
  Sc  Sc18  1  0.809663  0.490820  0.750000  1
  Sc  Sc19  1  0.309663  0.009180  0.750000  1
  Pt  Pt20  1  0.054803  0.863573  0.250000  1
  Pt  Pt21  1  0.554803  0.636427  0.250000  1
  Pt  Pt22  1  0.445197  0.363573  0.750000  1
  Pt  Pt23  1  0.945197  0.136427  0.750000  1
  Pt  Pt24  1  0.819656  0.365413  0.250000  1
  Pt  Pt25  1  0.319656  0.134587  0.250000  1
  Pt  Pt26  1  0.680344  0.865413  0.750000  1
  Pt  Pt27  1  0.180344  0.634587  0.750000  1
  Pt  Pt28  1  0.822508  0.450661  0.955212  1
  Pt  Pt29  1  0.322508  0.049339  0.544788  1
  Pt  Pt30  1  0.677492  0.950661  0.044788  1
  Pt  Pt31  1  0.177492  0.549339  0.455212  1
  Pt  Pt32  1  0.177492  0.549339  0.044788  1
  Pt  Pt33  1  0.677492  0.950661  0.455212  1
  Pt  Pt34  1  0.322508  0.049339  0.955212  1
  Pt  Pt35  1  0.822508  0.450661  0.544788  1
