# generated using pymatgen
data_La2Sm3Zr3(Ni4P3)4
_symmetry_space_group_name_H-M   'P 1'
_cell_length_a   12.52758200
_cell_length_b   12.52758141
_cell_length_c   3.89069600
_cell_angle_alpha   90.00000000
_cell_angle_beta   90.00000000
_cell_angle_gamma   120.00000684
_symmetry_Int_Tables_number   1
_chemical_formula_structural   La2Sm3Zr3(Ni4P3)4
_chemical_formula_sum   'La2 Sm3 Zr3 Ni16 P12'
_cell_volume   528.80114638
_cell_formula_units_Z   1
loop_
 _symmetry_equiv_pos_site_id
 _symmetry_equiv_pos_as_xyz
  1  'x, y, z'
loop_
 _atom_site_type_symbol
 _atom_site_label
 _atom_site_symmetry_multiplicity
 _atom_site_fract_x
 _atom_site_fract_y
 _atom_site_fract_z
 _atom_site_occupancy
  La  La0  1  0.333333  0.666667  0.000000  1
  La  La1  1  0.666667  0.333333  0.000000  1
  Sm  Sm2  1  0.187638  0.187638  0.500000  1
  Sm  Sm3  1  0.812362  0.000000  0.500000  1
  Sm  Sm4  1  0.000000  0.812362  0.500000  1
  Zr  Zr5  1  0.566943  0.566943  0.000000  1
  Zr  Zr6  1  0.433057  0.000000  0.000000  1
  Zr  Zr7  1  0.000000  0.433057  0.000000  1
  Ni  Ni8  1  0.729236  0.729236  0.500000  1
  Ni  Ni9  1  0.270764  0.000000  0.500000  1
  Ni  Ni10  1  0.000000  0.270764  0.500000  1
  Ni  Ni11  1  0.187110  0.376265  0.000000  1
  Ni  Ni12  1  0.623735  0.810846  0.000000  1
  Ni  Ni13  1  0.189154  0.812890  0.000000  1
  Ni  Ni14  1  0.810846  0.623735  0.000000  1
  Ni  Ni15  1  0.812890  0.189154  0.000000  1
  Ni  Ni16  1  0.376265  0.187110  0.000000  1
  Ni  Ni17  1  0.364504  0.485114  0.500000  1
  Ni  Ni18  1  0.514886  0.879392  0.500000  1
  Ni  Ni19  1  0.120608  0.635496  0.500000  1
  Ni  Ni20  1  0.879392  0.514886  0.500000  1
  Ni  Ni21  1  0.635496  0.120608  0.500000  1
  Ni  Ni22  1  0.485114  0.364504  0.500000  1
  Ni  Ni23  1  0.000000  0.000000  0.000000  1
  P  P24  1  0.822380  0.822380  0.000000  1
  P  P25  1  0.177620  0.000000  0.000000  1
  P  P26  1  0.000000  0.177620  0.000000  1
  P  P27  1  0.168818  0.468264  0.500000  1
  P  P28  1  0.531736  0.700554  0.500000  1
  P  P29  1  0.299446  0.831182  0.500000  1
  P  P30  1  0.700554  0.531736  0.500000  1
  P  P31  1  0.831182  0.299446  0.500000  1
  P  P32  1  0.468264  0.168818  0.500000  1
  P  P33  1  0.362014  0.362014  0.000000  1
  P  P34  1  0.637986  0.000000  0.000000  1
  P  P35  1  0.000000  0.637986  0.000000  1
