# generated using pymatgen
data_CeNpB6W
_symmetry_space_group_name_H-M   'P 1'
_cell_length_a   3.70584600
_cell_length_b   9.34069900
_cell_length_c   11.41994700
_cell_angle_alpha   90.00000000
_cell_angle_beta   90.00000000
_cell_angle_gamma   90.00000000
_symmetry_Int_Tables_number   1
_chemical_formula_structural   CeNpB6W
_chemical_formula_sum   'Ce4 Np4 B24 W4'
_cell_volume   395.30365834
_cell_formula_units_Z   4
loop_
 _symmetry_equiv_pos_site_id
 _symmetry_equiv_pos_as_xyz
  1  'x, y, z'
loop_
 _atom_site_type_symbol
 _atom_site_label
 _atom_site_symmetry_multiplicity
 _atom_site_fract_x
 _atom_site_fract_y
 _atom_site_fract_z
 _atom_site_occupancy
  Ce  Ce0  1  0.000000  0.336188  0.407617  1
  Ce  Ce1  1  0.000000  0.663812  0.592383  1
  Ce  Ce2  1  0.000000  0.836188  0.092383  1
  Ce  Ce3  1  0.000000  0.163812  0.907617  1
  Np  Np4  1  0.000000  0.959257  0.400432  1
  Np  Np5  1  0.000000  0.040743  0.599568  1
  Np  Np6  1  0.000000  0.459257  0.099568  1
  Np  Np7  1  0.000000  0.540743  0.900432  1
  B  B8  1  0.500000  0.553380  0.430588  1
  B  B9  1  0.500000  0.446620  0.569412  1
  B  B10  1  0.500000  0.053380  0.069412  1
  B  B11  1  0.500000  0.946620  0.930588  1
  B  B12  1  0.500000  0.746886  0.422871  1
  B  B13  1  0.500000  0.253114  0.577129  1
  B  B14  1  0.500000  0.246886  0.077129  1
  B  B15  1  0.500000  0.753114  0.922871  1
  B  B16  1  0.500000  0.805713  0.274728  1
  B  B17  1  0.500000  0.194287  0.725272  1
  B  B18  1  0.500000  0.305713  0.225272  1
  B  B19  1  0.500000  0.694287  0.774728  1
  B  B20  1  0.500000  0.644146  0.187059  1
  B  B21  1  0.500000  0.355854  0.812941  1
  B  B22  1  0.500000  0.144146  0.312941  1
  B  B23  1  0.500000  0.855854  0.687059  1
  B  B24  1  0.500000  0.989022  0.221477  1
  B  B25  1  0.500000  0.010978  0.778523  1
  B  B26  1  0.500000  0.489022  0.278523  1
  B  B27  1  0.500000  0.510978  0.721477  1
  B  B28  1  0.500000  0.636882  0.037823  1
  B  B29  1  0.500000  0.363118  0.962177  1
  B  B30  1  0.500000  0.136882  0.462177  1
  B  B31  1  0.500000  0.863118  0.537823  1
  W  W32  1  0.000000  0.647804  0.317884  1
  W  W33  1  0.000000  0.352196  0.682116  1
  W  W34  1  0.000000  0.147804  0.182116  1
  W  W35  1  0.000000  0.852196  0.817884  1
