# generated using pymatgen
data_Cd3Ni(PbO4)2
_symmetry_space_group_name_H-M   'P 1'
_cell_length_a   6.54782305
_cell_length_b   6.69949178
_cell_length_c   6.54782298
_cell_angle_alpha   120.93860535
_cell_angle_beta   118.08668794
_cell_angle_gamma   90.17725056
_symmetry_Int_Tables_number   1
_chemical_formula_structural   Cd3Ni(PbO4)2
_chemical_formula_sum   'Cd3 Ni1 Pb2 O8'
_cell_volume   205.63120450
_cell_formula_units_Z   1
loop_
 _symmetry_equiv_pos_site_id
 _symmetry_equiv_pos_as_xyz
  1  'x, y, z'
loop_
 _atom_site_type_symbol
 _atom_site_label
 _atom_site_symmetry_multiplicity
 _atom_site_fract_x
 _atom_site_fract_y
 _atom_site_fract_z
 _atom_site_occupancy
  Cd  Cd0  1  0.891609  0.138607  0.746996  1
  Cd  Cd1  1  0.500000  0.000000  0.000000  1
  Cd  Cd2  1  0.108391  0.861393  0.253004  1
  Ni  Ni3  1  0.500000  0.500000  0.500000  1
  Pb  Pb4  1  0.500000  0.500000  0.000000  1
  Pb  Pb5  1  0.000000  0.500000  0.500000  1
  O  O6  1  0.748130  0.271839  0.023709  1
  O  O7  1  0.738037  0.721721  0.483684  1
  O  O8  1  0.740991  0.287616  0.490834  1
  O  O9  1  0.296779  0.287616  0.046624  1
  O  O10  1  0.703221  0.712384  0.953376  1
  O  O11  1  0.259009  0.712384  0.509166  1
  O  O12  1  0.261963  0.278279  0.516316  1
  O  O13  1  0.251870  0.728161  0.976291  1
