# generated using pymatgen
data_SmScB6W
_symmetry_space_group_name_H-M   'P 1'
_cell_length_a   3.54726100
_cell_length_b   9.21488400
_cell_length_c   11.64939700
_cell_angle_alpha   90.00000000
_cell_angle_beta   90.00000000
_cell_angle_gamma   90.00000000
_symmetry_Int_Tables_number   1
_chemical_formula_structural   SmScB6W
_chemical_formula_sum   'Sm4 Sc4 B24 W4'
_cell_volume   380.79081345
_cell_formula_units_Z   4
loop_
 _symmetry_equiv_pos_site_id
 _symmetry_equiv_pos_as_xyz
  1  'x, y, z'
loop_
 _atom_site_type_symbol
 _atom_site_label
 _atom_site_symmetry_multiplicity
 _atom_site_fract_x
 _atom_site_fract_y
 _atom_site_fract_z
 _atom_site_occupancy
  Sm  Sm0  1  0.000000  0.320022  0.414619  1
  Sm  Sm1  1  0.000000  0.679978  0.585381  1
  Sm  Sm2  1  0.000000  0.820022  0.085381  1
  Sm  Sm3  1  0.000000  0.179978  0.914619  1
  Sc  Sc4  1  0.000000  0.945339  0.372163  1
  Sc  Sc5  1  0.000000  0.054661  0.627837  1
  Sc  Sc6  1  0.000000  0.445339  0.127837  1
  Sc  Sc7  1  0.000000  0.554661  0.872163  1
  B  B8  1  0.500000  0.553379  0.432999  1
  B  B9  1  0.500000  0.446621  0.567001  1
  B  B10  1  0.500000  0.053379  0.067001  1
  B  B11  1  0.500000  0.946621  0.932999  1
  B  B12  1  0.500000  0.757485  0.418963  1
  B  B13  1  0.500000  0.242515  0.581037  1
  B  B14  1  0.500000  0.257485  0.081037  1
  B  B15  1  0.500000  0.742515  0.918963  1
  B  B16  1  0.500000  0.797656  0.264994  1
  B  B17  1  0.500000  0.202344  0.735006  1
  B  B18  1  0.500000  0.297656  0.235006  1
  B  B19  1  0.500000  0.702344  0.764994  1
  B  B20  1  0.500000  0.627770  0.181368  1
  B  B21  1  0.500000  0.372230  0.818632  1
  B  B22  1  0.500000  0.127770  0.318632  1
  B  B23  1  0.500000  0.872230  0.681368  1
  B  B24  1  0.500000  0.979577  0.215498  1
  B  B25  1  0.500000  0.020423  0.784502  1
  B  B26  1  0.500000  0.479577  0.284502  1
  B  B27  1  0.500000  0.520423  0.715498  1
  B  B28  1  0.500000  0.593695  0.025694  1
  B  B29  1  0.500000  0.406305  0.974306  1
  B  B30  1  0.500000  0.093695  0.474306  1
  B  B31  1  0.500000  0.906305  0.525694  1
  W  W32  1  0.000000  0.641860  0.318050  1
  W  W33  1  0.000000  0.358140  0.681950  1
  W  W34  1  0.000000  0.141860  0.181950  1
  W  W35  1  0.000000  0.858140  0.818050  1
