# generated using pymatgen
data_Nd2YCd3Pb2Au
_symmetry_space_group_name_H-M   'P 1'
_cell_length_a   7.76475100
_cell_length_b   7.71168661
_cell_length_c   4.58021800
_cell_angle_alpha   90.00000000
_cell_angle_beta   90.00000000
_cell_angle_gamma   120.22788077
_symmetry_Int_Tables_number   1
_chemical_formula_structural   Nd2YCd3Pb2Au
_chemical_formula_sum   'Nd2 Y1 Cd3 Pb2 Au1'
_cell_volume   236.96916527
_cell_formula_units_Z   1
loop_
 _symmetry_equiv_pos_site_id
 _symmetry_equiv_pos_as_xyz
  1  'x, y, z'
loop_
 _atom_site_type_symbol
 _atom_site_label
 _atom_site_symmetry_multiplicity
 _atom_site_fract_x
 _atom_site_fract_y
 _atom_site_fract_z
 _atom_site_occupancy
  Nd  Nd0  1  0.000947  0.598843  0.000000  1
  Nd  Nd1  1  0.402104  0.401157  0.000000  1
  Y  Y2  1  0.602019  0.000000  0.000000  1
  Cd  Cd3  1  0.235756  0.000000  0.500000  1
  Cd  Cd4  1  0.999149  0.236037  0.500000  1
  Cd  Cd5  1  0.763112  0.763963  0.500000  1
  Pb  Pb6  1  0.336787  0.671883  0.500000  1
  Pb  Pb7  1  0.664905  0.328117  0.500000  1
  Au  Au8  1  0.995221  0.000000  0.000000  1
