# generated using pymatgen
data_Ac2InAu3
_symmetry_space_group_name_H-M   'P 1'
_cell_length_a   3.92829100
_cell_length_b   4.95627900
_cell_length_c   8.46160800
_cell_angle_alpha   90.00000000
_cell_angle_beta   90.00000000
_cell_angle_gamma   90.00000000
_symmetry_Int_Tables_number   1
_chemical_formula_structural   Ac2InAu3
_chemical_formula_sum   'Ac2 In1 Au3'
_cell_volume   164.74502165
_cell_formula_units_Z   1
loop_
 _symmetry_equiv_pos_site_id
 _symmetry_equiv_pos_as_xyz
  1  'x, y, z'
loop_
 _atom_site_type_symbol
 _atom_site_label
 _atom_site_symmetry_multiplicity
 _atom_site_fract_x
 _atom_site_fract_y
 _atom_site_fract_z
 _atom_site_occupancy
  Ac  Ac0  1  0.000000  0.000000  0.983863  1
  Ac  Ac1  1  0.000000  0.500000  0.518993  1
  In  In2  1  0.500000  0.000000  0.326302  1
  Au  Au3  1  0.500000  0.500000  0.836204  1
  Au  Au4  1  0.500000  0.500000  0.173711  1
  Au  Au5  1  0.500000  0.000000  0.660926  1
