# generated using pymatgen
data_Tm2Be25Ni
_symmetry_space_group_name_H-M   'P 1'
_cell_length_a   7.19085918
_cell_length_b   7.20986753
_cell_length_c   7.17558803
_cell_angle_alpha   59.98223836
_cell_angle_beta   59.86372216
_cell_angle_gamma   59.77231308
_symmetry_Int_Tables_number   1
_chemical_formula_structural   Tm2Be25Ni
_chemical_formula_sum   'Tm2 Be25 Ni1'
_cell_volume   262.29615075
_cell_formula_units_Z   1
loop_
 _symmetry_equiv_pos_site_id
 _symmetry_equiv_pos_as_xyz
  1  'x, y, z'
loop_
 _atom_site_type_symbol
 _atom_site_label
 _atom_site_symmetry_multiplicity
 _atom_site_fract_x
 _atom_site_fract_y
 _atom_site_fract_z
 _atom_site_occupancy
  Tm  Tm0  1  0.249144  0.252258  0.250378  1
  Tm  Tm1  1  0.749622  0.751780  0.750856  1
  Be  Be2  1  0.500958  0.500638  0.499042  1
  Be  Be3  1  0.999554  0.001716  0.000446  1
  Be  Be4  1  0.203742  0.439508  0.796258  1
  Be  Be5  1  0.565284  0.791137  0.434716  1
  Be  Be6  1  0.435585  0.206370  0.564415  1
  Be  Be7  1  0.291448  0.935555  0.708552  1
  Be  Be8  1  0.707813  0.064132  0.292187  1
  Be  Be9  1  0.935374  0.289372  0.064626  1
  Be  Be10  1  0.066438  0.713271  0.933562  1
  Be  Be11  1  0.206508  0.795618  0.561257  1
  Be  Be12  1  0.792762  0.204588  0.439084  1
  Be  Be13  1  0.438743  0.563383  0.793492  1
  Be  Be14  1  0.560916  0.436434  0.207238  1
  Be  Be15  1  0.709893  0.286956  0.936062  1
  Be  Be16  1  0.288927  0.710598  0.064329  1
  Be  Be17  1  0.063938  0.932912  0.290107  1
  Be  Be18  1  0.935671  0.063855  0.711073  1
  Be  Be19  1  0.561206  0.208475  0.792598  1
  Be  Be20  1  0.436381  0.791701  0.208017  1
  Be  Be21  1  0.791983  0.436099  0.563619  1
  Be  Be22  1  0.207402  0.562279  0.438794  1
  Be  Be23  1  0.937142  0.710003  0.290460  1
  Be  Be24  1  0.064643  0.289786  0.709044  1
  Be  Be25  1  0.290956  0.063473  0.935357  1
  Be  Be26  1  0.709540  0.937604  0.062858  1
  Ni  Ni27  1  0.798427  0.560499  0.201573  1
