# generated using pymatgen
data_Lu4Sc2TcPb2
_symmetry_space_group_name_H-M   'P 1'
_cell_length_a   7.85996100
_cell_length_b   7.82283862
_cell_length_c   4.32034400
_cell_angle_alpha   90.00000000
_cell_angle_beta   90.00000000
_cell_angle_gamma   120.15709638
_symmetry_Int_Tables_number   1
_chemical_formula_structural   Lu4Sc2TcPb2
_chemical_formula_sum   'Lu4 Sc2 Tc1 Pb2'
_cell_volume   229.69103874
_cell_formula_units_Z   1
loop_
 _symmetry_equiv_pos_site_id
 _symmetry_equiv_pos_as_xyz
  1  'x, y, z'
loop_
 _atom_site_type_symbol
 _atom_site_label
 _atom_site_symmetry_multiplicity
 _atom_site_fract_x
 _atom_site_fract_y
 _atom_site_fract_z
 _atom_site_occupancy
  Lu  Lu0  1  0.611053  0.000000  0.500000  1
  Lu  Lu1  1  0.395683  0.398632  0.500000  1
  Lu  Lu2  1  0.997052  0.601368  0.500000  1
  Lu  Lu3  1  0.235549  0.000000  0.000000  1
  Sc  Sc4  1  0.997486  0.234409  0.000000  1
  Sc  Sc5  1  0.763077  0.765591  0.000000  1
  Tc  Tc6  1  0.992909  0.000000  0.500000  1
  Pb  Pb7  1  0.672188  0.337182  0.000000  1
  Pb  Pb8  1  0.335005  0.662818  0.000000  1
