# generated using pymatgen
data_KRb3VSe4
_symmetry_space_group_name_H-M   'P 1'
_cell_length_a   8.60527900
_cell_length_b   10.27121500
_cell_length_c   15.25771500
_cell_angle_alpha   90.00000000
_cell_angle_beta   90.00000000
_cell_angle_gamma   90.00000000
_symmetry_Int_Tables_number   1
_chemical_formula_structural   KRb3VSe4
_chemical_formula_sum   'K4 Rb12 V4 Se16'
_cell_volume   1348.57863201
_cell_formula_units_Z   4
loop_
 _symmetry_equiv_pos_site_id
 _symmetry_equiv_pos_as_xyz
  1  'x, y, z'
loop_
 _atom_site_type_symbol
 _atom_site_label
 _atom_site_symmetry_multiplicity
 _atom_site_fract_x
 _atom_site_fract_y
 _atom_site_fract_z
 _atom_site_occupancy
  K  K0  1  0.156313  0.950909  0.726211  1
  K  K1  1  0.656313  0.049091  0.773789  1
  K  K2  1  0.843687  0.450909  0.273789  1
  K  K3  1  0.343687  0.549091  0.226211  1
  Rb  Rb4  1  0.000489  0.999018  0.998476  1
  Rb  Rb5  1  0.500489  0.000982  0.501524  1
  Rb  Rb6  1  0.999511  0.499018  0.001524  1
  Rb  Rb7  1  0.499511  0.500982  0.498476  1
  Rb  Rb8  1  0.989672  0.751588  0.424868  1
  Rb  Rb9  1  0.489672  0.248412  0.075132  1
  Rb  Rb10  1  0.010328  0.251588  0.575132  1
  Rb  Rb11  1  0.510328  0.748412  0.924868  1
  Rb  Rb12  1  0.837452  0.054944  0.277265  1
  Rb  Rb13  1  0.337452  0.945056  0.222735  1
  Rb  Rb14  1  0.162548  0.554944  0.722735  1
  Rb  Rb15  1  0.662548  0.445056  0.777265  1
  V  V16  1  0.761033  0.753820  0.667849  1
  V  V17  1  0.238967  0.253820  0.332151  1
  V  V18  1  0.738967  0.746180  0.167849  1
  V  V19  1  0.261033  0.246180  0.832151  1
  Se  Se20  1  0.984766  0.243979  0.823508  1
  Se  Se21  1  0.515234  0.256021  0.323508  1
  Se  Se22  1  0.484766  0.756021  0.676492  1
  Se  Se23  1  0.015234  0.743979  0.176492  1
  Se  Se24  1  0.650979  0.558527  0.094886  1
  Se  Se25  1  0.150979  0.441473  0.405114  1
  Se  Se26  1  0.349021  0.058527  0.905114  1
  Se  Se27  1  0.849021  0.941473  0.594886  1
  Se  Se28  1  0.343726  0.433610  0.907332  1
  Se  Se29  1  0.843726  0.566390  0.592668  1
  Se  Se30  1  0.656274  0.933610  0.092668  1
  Se  Se31  1  0.156274  0.066390  0.407332  1
  Se  Se32  1  0.632012  0.745162  0.312160  1
  Se  Se33  1  0.132012  0.254838  0.187840  1
  Se  Se34  1  0.367988  0.245162  0.687840  1
  Se  Se35  1  0.867988  0.754838  0.812160  1
