# generated using pymatgen
data_TiMn4Pd15
_symmetry_space_group_name_H-M   'P 1'
_cell_length_a   3.92736900
_cell_length_b   3.92736900
_cell_length_c   19.63771800
_cell_angle_alpha   90.00000000
_cell_angle_beta   90.00000000
_cell_angle_gamma   90.00000000
_symmetry_Int_Tables_number   1
_chemical_formula_structural   TiMn4Pd15
_chemical_formula_sum   'Ti1 Mn4 Pd15'
_cell_volume   302.89662534
_cell_formula_units_Z   1
loop_
 _symmetry_equiv_pos_site_id
 _symmetry_equiv_pos_as_xyz
  1  'x, y, z'
loop_
 _atom_site_type_symbol
 _atom_site_label
 _atom_site_symmetry_multiplicity
 _atom_site_fract_x
 _atom_site_fract_y
 _atom_site_fract_z
 _atom_site_occupancy
  Ti  Ti0  1  0.000000  0.000000  0.000000  1
  Mn  Mn1  1  0.000000  0.000000  0.199601  1
  Mn  Mn2  1  0.000000  0.000000  0.397932  1
  Mn  Mn3  1  0.000000  0.000000  0.602068  1
  Mn  Mn4  1  0.000000  0.000000  0.800399  1
  Pd  Pd5  1  0.500000  0.500000  0.000000  1
  Pd  Pd6  1  0.500000  0.500000  0.198546  1
  Pd  Pd7  1  0.500000  0.500000  0.399342  1
  Pd  Pd8  1  0.500000  0.500000  0.600658  1
  Pd  Pd9  1  0.500000  0.500000  0.801454  1
  Pd  Pd10  1  0.500000  0.000000  0.097843  1
  Pd  Pd11  1  0.500000  0.000000  0.298623  1
  Pd  Pd12  1  0.500000  0.000000  0.500000  1
  Pd  Pd13  1  0.500000  0.000000  0.701377  1
  Pd  Pd14  1  0.500000  0.000000  0.902157  1
  Pd  Pd15  1  0.000000  0.500000  0.097843  1
  Pd  Pd16  1  0.000000  0.500000  0.298623  1
  Pd  Pd17  1  0.000000  0.500000  0.500000  1
  Pd  Pd18  1  0.000000  0.500000  0.701377  1
  Pd  Pd19  1  0.000000  0.500000  0.902157  1
