# generated using pymatgen
data_La4Ga10Ir5Pd
_symmetry_space_group_name_H-M   'P 1'
_cell_length_a   8.73547998
_cell_length_b   8.73941295
_cell_length_c   8.73952275
_cell_angle_alpha   140.60746187
_cell_angle_beta   107.74465273
_cell_angle_gamma   85.55559630
_symmetry_Int_Tables_number   1
_chemical_formula_structural   La4Ga10Ir5Pd
_chemical_formula_sum   'La4 Ga10 Ir5 Pd1'
_cell_volume   389.25116722
_cell_formula_units_Z   1
loop_
 _symmetry_equiv_pos_site_id
 _symmetry_equiv_pos_as_xyz
  1  'x, y, z'
loop_
 _atom_site_type_symbol
 _atom_site_label
 _atom_site_symmetry_multiplicity
 _atom_site_fract_x
 _atom_site_fract_y
 _atom_site_fract_z
 _atom_site_occupancy
  La  La0  1  0.094275  0.866324  0.228026  1
  La  La1  1  0.635143  0.364040  0.270996  1
  La  La2  1  0.904067  0.135104  0.768897  1
  La  La3  1  0.365754  0.635688  0.730134  1
  Ga  Ga4  1  0.292357  0.042431  0.753027  1
  Ga  Ga5  1  0.292335  0.539345  0.249894  1
  Ga  Ga6  1  0.000064  0.245298  0.248257  1
  Ga  Ga7  1  0.241141  0.406209  0.834919  1
  Ga  Ga8  1  0.754993  0.592974  0.162080  1
  Ga  Ga9  1  0.710603  0.461082  0.750577  1
  Ga  Ga10  1  0.571669  0.906271  0.665415  1
  Ga  Ga11  1  0.710584  0.960025  0.249483  1
  Ga  Ga12  1  0.428006  0.093417  0.334562  1
  Ga  Ga13  1  0.000027  0.751804  0.754698  1
  Ir  Ir14  1  0.754136  0.854119  0.899975  1
  Ir  Ir15  1  0.954165  0.354263  0.599978  1
  Ir  Ir16  1  0.244762  0.146171  0.098634  1
  Ir  Ir17  1  0.499860  0.750652  0.250637  1
  Ir  Ir18  1  0.499909  0.249252  0.749253  1
  Pd  Pd19  1  0.046150  0.645531  0.400557  1
