# generated using pymatgen
data_CaLa3Ni14
_symmetry_space_group_name_H-M   'P 1'
_cell_length_a   5.02407788
_cell_length_b   5.02407687
_cell_length_c   12.48769266
_cell_angle_alpha   78.39512692
_cell_angle_beta   78.39512858
_cell_angle_gamma   60.00000158
_symmetry_Int_Tables_number   1
_chemical_formula_structural   CaLa3Ni14
_chemical_formula_sum   'Ca1 La3 Ni14'
_cell_volume   265.51037904
_cell_formula_units_Z   1
loop_
 _symmetry_equiv_pos_site_id
 _symmetry_equiv_pos_as_xyz
  1  'x, y, z'
loop_
 _atom_site_type_symbol
 _atom_site_label
 _atom_site_symmetry_multiplicity
 _atom_site_fract_x
 _atom_site_fract_y
 _atom_site_fract_z
 _atom_site_occupancy
  Ca  Ca0  1  0.147582  0.147582  0.557253  1
  La  La1  1  0.948949  0.948949  0.153153  1
  La  La2  1  0.052725  0.052725  0.841827  1
  La  La3  1  0.851465  0.851465  0.445606  1
  Ni  Ni4  1  0.499332  0.499332  0.502005  1
  Ni  Ni5  1  0.721812  0.721812  0.834563  1
  Ni  Ni6  1  0.278353  0.278353  0.164943  1
  Ni  Ni7  1  0.612123  0.612123  0.163632  1
  Ni  Ni8  1  0.387755  0.387755  0.836735  1
  Ni  Ni9  1  0.999915  0.500252  0.999581  1
  Ni  Ni10  1  0.500252  0.999915  0.999581  1
  Ni  Ni11  1  0.500252  0.500252  0.999581  1
  Ni  Ni12  1  0.390992  0.390992  0.327870  1
  Ni  Ni13  1  0.890146  0.390992  0.327870  1
  Ni  Ni14  1  0.390992  0.890146  0.327870  1
  Ni  Ni15  1  0.608521  0.608521  0.672643  1
  Ni  Ni16  1  0.110315  0.608521  0.672643  1
  Ni  Ni17  1  0.608521  0.110315  0.672643  1
