# generated using pymatgen
data_Sc12Zn2MoI16
_symmetry_space_group_name_H-M   'P 1'
_cell_length_a   9.36876988
_cell_length_b   12.07610231
_cell_length_c   12.91873287
_cell_angle_alpha   117.09664494
_cell_angle_beta   101.42253101
_cell_angle_gamma   100.72311632
_symmetry_Int_Tables_number   1
_chemical_formula_structural   Sc12Zn2MoI16
_chemical_formula_sum   'Sc12 Zn2 Mo1 I16'
_cell_volume   1209.79506832
_cell_formula_units_Z   1
loop_
 _symmetry_equiv_pos_site_id
 _symmetry_equiv_pos_as_xyz
  1  'x, y, z'
loop_
 _atom_site_type_symbol
 _atom_site_label
 _atom_site_symmetry_multiplicity
 _atom_site_fract_x
 _atom_site_fract_y
 _atom_site_fract_z
 _atom_site_occupancy
  Sc  Sc0  1  0.090596  0.267933  0.357798  1
  Sc  Sc1  1  0.902041  0.724683  0.638116  1
  Sc  Sc2  1  0.776492  0.536689  0.332276  1
  Sc  Sc3  1  0.222497  0.462306  0.669281  1
  Sc  Sc4  1  0.279069  0.732322  0.641164  1
  Sc  Sc5  1  0.718925  0.274768  0.362851  1
  Sc  Sc6  1  0.148255  0.537805  0.329658  1
  Sc  Sc7  1  0.849408  0.462926  0.668942  1
  Sc  Sc8  1  0.418895  0.364606  0.280577  1
  Sc  Sc9  1  0.602929  0.635638  0.719356  1
  Sc  Sc10  1  0.471082  0.312105  0.521119  1
  Sc  Sc11  1  0.550506  0.688333  0.478797  1
  Zn  Zn12  1  0.989439  0.499693  0.500447  1
  Zn  Zn13  1  0.350340  0.500308  0.499675  1
  Mo  Mo14  1  0.661703  0.499951  0.500269  1
  I  I15  1  0.393916  0.732572  0.871240  1
  I  I16  1  0.606342  0.262189  0.120694  1
  I  I17  1  0.184258  0.955361  0.776904  1
  I  I18  1  0.815049  0.044661  0.223071  1
  I  I19  1  0.327493  0.101547  0.256769  1
  I  I20  1  0.650715  0.898647  0.743079  1
  I  I21  1  0.551143  0.434751  0.792590  1
  I  I22  1  0.423067  0.565395  0.207395  1
  I  I23  1  0.306432  0.822733  0.466496  1
  I  I24  1  0.695025  0.170775  0.534104  1
  I  I25  1  0.169363  0.177820  0.532504  1
  I  I26  1  0.836237  0.828336  0.466905  1
  I  I27  1  0.927373  0.575815  0.167667  1
  I  I28  1  0.074614  0.424141  0.832092  1
  I  I29  1  0.926481  0.737677  0.880327  1
  I  I30  1  0.080314  0.267513  0.127841  1
