# generated using pymatgen
data_Lu20(OsRh3)3
_symmetry_space_group_name_H-M   'P 1'
_cell_length_a   10.64688113
_cell_length_b   10.64688060
_cell_length_c   6.27093200
_cell_angle_alpha   90.00880945
_cell_angle_beta   90.00880945
_cell_angle_gamma   89.95371807
_symmetry_Int_Tables_number   1
_chemical_formula_structural   Lu20(OsRh3)3
_chemical_formula_sum   'Lu20 Os3 Rh9'
_cell_volume   710.84797123
_cell_formula_units_Z   1
loop_
 _symmetry_equiv_pos_site_id
 _symmetry_equiv_pos_as_xyz
  1  'x, y, z'
loop_
 _atom_site_type_symbol
 _atom_site_label
 _atom_site_symmetry_multiplicity
 _atom_site_fract_x
 _atom_site_fract_y
 _atom_site_fract_z
 _atom_site_occupancy
  Lu  Lu0  1  0.291097  0.089009  0.377201  1
  Lu  Lu1  1  0.291222  0.909671  0.877198  1
  Lu  Lu2  1  0.707865  0.085863  0.876737  1
  Lu  Lu3  1  0.707735  0.909866  0.375783  1
  Lu  Lu4  1  0.583786  0.786720  0.877122  1
  Lu  Lu5  1  0.583024  0.210294  0.375758  1
  Lu  Lu6  1  0.415248  0.787671  0.375065  1
  Lu  Lu7  1  0.411030  0.209967  0.877300  1
  Lu  Lu8  1  0.213282  0.416196  0.622902  1
  Lu  Lu9  1  0.212321  0.584718  0.124822  1
  Lu  Lu10  1  0.789766  0.416959  0.124247  1
  Lu  Lu11  1  0.790037  0.588931  0.622672  1
  Lu  Lu12  1  0.911010  0.708930  0.122636  1
  Lu  Lu13  1  0.914288  0.292199  0.623282  1
  Lu  Lu14  1  0.090340  0.708714  0.622997  1
  Lu  Lu15  1  0.090168  0.292205  0.123982  1
  Lu  Lu16  1  0.998975  0.000041  0.499608  1
  Lu  Lu17  1  0.999840  0.000922  0.000192  1
  Lu  Lu18  1  0.499115  0.499421  0.000670  1
  Lu  Lu19  1  0.500583  0.500877  0.499320  1
  Os  Os20  1  0.657065  0.653493  0.248444  1
  Os  Os21  1  0.346908  0.343464  0.251615  1
  Os  Os22  1  0.345070  0.655465  0.749951  1
  Rh  Rh23  1  0.845850  0.153865  0.250025  1
  Rh  Rh24  1  0.847632  0.849140  0.749733  1
  Rh  Rh25  1  0.150848  0.152085  0.749992  1
  Rh  Rh26  1  0.151291  0.848505  0.250048  1
  Rh  Rh27  1  0.656587  0.343295  0.750198  1
  Rh  Rh28  1  0.499734  0.000791  0.125120  1
  Rh  Rh29  1  0.499586  0.000285  0.626870  1
  Rh  Rh30  1  0.999693  0.500290  0.873588  1
  Rh  Rh31  1  0.999001  0.500150  0.374923  1
