# generated using pymatgen
data_Tm4ScInGa2
_symmetry_space_group_name_H-M   'P 1'
_cell_length_a   7.57553700
_cell_length_b   7.57553700
_cell_length_c   14.29906200
_cell_angle_alpha   90.00000000
_cell_angle_beta   90.00000000
_cell_angle_gamma   90.00000000
_symmetry_Int_Tables_number   1
_chemical_formula_structural   Tm4ScInGa2
_chemical_formula_sum   'Tm16 Sc4 In4 Ga8'
_cell_volume   820.60544933
_cell_formula_units_Z   4
loop_
 _symmetry_equiv_pos_site_id
 _symmetry_equiv_pos_as_xyz
  1  'x, y, z'
loop_
 _atom_site_type_symbol
 _atom_site_label
 _atom_site_symmetry_multiplicity
 _atom_site_fract_x
 _atom_site_fract_y
 _atom_site_fract_z
 _atom_site_occupancy
  Tm  Tm0  1  0.673043  0.662019  0.608097  1
  Tm  Tm1  1  0.673043  0.337981  0.108097  1
  Tm  Tm2  1  0.826957  0.837981  0.391903  1
  Tm  Tm3  1  0.173043  0.837981  0.891903  1
  Tm  Tm4  1  0.326957  0.337981  0.608097  1
  Tm  Tm5  1  0.326957  0.662019  0.108097  1
  Tm  Tm6  1  0.173043  0.162019  0.391903  1
  Tm  Tm7  1  0.826957  0.162019  0.891903  1
  Tm  Tm8  1  0.662019  0.326957  0.391903  1
  Tm  Tm9  1  0.337981  0.326957  0.891903  1
  Tm  Tm10  1  0.162019  0.826957  0.608097  1
  Tm  Tm11  1  0.837981  0.826957  0.108097  1
  Tm  Tm12  1  0.337981  0.673043  0.391903  1
  Tm  Tm13  1  0.662019  0.673043  0.891903  1
  Tm  Tm14  1  0.837981  0.173043  0.608097  1
  Tm  Tm15  1  0.162019  0.173043  0.108097  1
  Sc  Sc16  1  0.000000  0.500000  0.758064  1
  Sc  Sc17  1  0.000000  0.500000  0.258064  1
  Sc  Sc18  1  0.500000  0.000000  0.241936  1
  Sc  Sc19  1  0.500000  0.000000  0.741936  1
  In  In20  1  0.000000  0.500000  0.494669  1
  In  In21  1  0.000000  0.500000  0.994669  1
  In  In22  1  0.500000  0.000000  0.505331  1
  In  In23  1  0.500000  0.000000  0.005331  1
  Ga  Ga24  1  0.871775  0.871775  0.750000  1
  Ga  Ga25  1  0.871775  0.128225  0.250000  1
  Ga  Ga26  1  0.628225  0.628225  0.250000  1
  Ga  Ga27  1  0.371775  0.628225  0.750000  1
  Ga  Ga28  1  0.128225  0.128225  0.750000  1
  Ga  Ga29  1  0.128225  0.871775  0.250000  1
  Ga  Ga30  1  0.371775  0.371775  0.250000  1
  Ga  Ga31  1  0.628225  0.371775  0.750000  1
