# generated using pymatgen
data_La5Pr2Tm3Si8O3
_symmetry_space_group_name_H-M   'P 1'
_cell_length_a   10.71470700
_cell_length_b   10.73616075
_cell_length_c   4.49011300
_cell_angle_alpha   90.00000000
_cell_angle_beta   90.00000000
_cell_angle_gamma   119.93393434
_symmetry_Int_Tables_number   1
_chemical_formula_structural   La5Pr2Tm3Si8O3
_chemical_formula_sum   'La5 Pr2 Tm3 Si8 O3'
_cell_volume   447.61635012
_cell_formula_units_Z   1
loop_
 _symmetry_equiv_pos_site_id
 _symmetry_equiv_pos_as_xyz
  1  'x, y, z'
loop_
 _atom_site_type_symbol
 _atom_site_label
 _atom_site_symmetry_multiplicity
 _atom_site_fract_x
 _atom_site_fract_y
 _atom_site_fract_z
 _atom_site_occupancy
  La  La0  1  0.787932  0.575862  0.000000  1
  La  La1  1  0.999885  0.999788  0.000000  1
  La  La2  1  0.212151  0.424311  0.000000  1
  La  La3  1  0.424192  0.211721  0.000000  1
  La  La4  1  0.787546  0.211731  0.000000  1
  Pr  Pr5  1  0.212016  0.788748  0.000000  1
  Pr  Pr6  1  0.576735  0.788754  0.000000  1
  Tm  Tm7  1  0.000661  0.500903  0.500000  1
  Tm  Tm8  1  0.500244  0.500905  0.500000  1
  Tm  Tm9  1  0.499283  0.998564  0.500000  1
  Si  Si10  1  0.000081  0.775196  0.500000  1
  Si  Si11  1  0.999770  0.224150  0.500000  1
  Si  Si12  1  0.224378  0.224149  0.500000  1
  Si  Si13  1  0.774992  0.999706  0.500000  1
  Si  Si14  1  0.333595  0.667190  0.500000  1
  Si  Si15  1  0.224714  0.999706  0.500000  1
  Si  Si16  1  0.666613  0.333223  0.500000  1
  Si  Si17  1  0.775113  0.775196  0.500000  1
  O  O18  1  0.000318  0.500134  0.000000  1
  O  O19  1  0.499815  0.500133  0.000000  1
  O  O20  1  0.499966  0.999931  0.000000  1
