# generated using pymatgen
data_Ca16Al5Ga
_symmetry_space_group_name_H-M   'P 1'
_cell_length_a   9.42597596
_cell_length_b   9.53573319
_cell_length_c   9.57295016
_cell_angle_alpha   98.95771719
_cell_angle_beta   101.08615281
_cell_angle_gamma   119.77829012
_symmetry_Int_Tables_number   1
_chemical_formula_structural   Ca16Al5Ga
_chemical_formula_sum   'Ca16 Al5 Ga1'
_cell_volume   700.29678385
_cell_formula_units_Z   1
loop_
 _symmetry_equiv_pos_site_id
 _symmetry_equiv_pos_as_xyz
  1  'x, y, z'
loop_
 _atom_site_type_symbol
 _atom_site_label
 _atom_site_symmetry_multiplicity
 _atom_site_fract_x
 _atom_site_fract_y
 _atom_site_fract_z
 _atom_site_occupancy
  Ca  Ca0  1  0.531443  0.700979  0.650013  1
  Ca  Ca1  1  0.468557  0.299021  0.349987  1
  Ca  Ca2  1  0.079149  0.231376  0.105852  1
  Ca  Ca3  1  0.920851  0.768624  0.894148  1
  Ca  Ca4  1  0.879725  0.402466  0.651883  1
  Ca  Ca5  1  0.120275  0.597534  0.348117  1
  Ca  Ca6  1  0.330594  0.875656  0.108672  1
  Ca  Ca7  1  0.669406  0.124344  0.891328  1
  Ca  Ca8  1  0.958044  0.059663  0.668872  1
  Ca  Ca9  1  0.041956  0.940337  0.331128  1
  Ca  Ca10  1  0.704142  0.498668  0.108955  1
  Ca  Ca11  1  0.295858  0.501332  0.891045  1
  Ca  Ca12  1  0.774608  0.153221  0.300544  1
  Ca  Ca13  1  0.225392  0.846779  0.699456  1
  Ca  Ca14  1  0.546111  0.711793  0.298456  1
  Ca  Ca15  1  0.453889  0.288207  0.701544  1
  Al  Al16  1  0.500000  0.000000  0.500000  1
  Al  Al17  1  0.174055  0.337737  0.499223  1
  Al  Al18  1  0.825945  0.662263  0.500777  1
  Al  Al19  1  0.676747  0.840872  0.026360  1
  Al  Al20  1  0.323253  0.159128  0.973640  1
  Ga  Ga21  1  0.000000  0.500000  0.000000  1
