# generated using pymatgen
data_Y2Tm2B12OsW
_symmetry_space_group_name_H-M   'P 1'
_cell_length_a   3.61459800
_cell_length_b   9.19193582
_cell_length_c   11.59755421
_cell_angle_alpha   89.84446301
_cell_angle_beta   90.00000000
_cell_angle_gamma   90.00000000
_symmetry_Int_Tables_number   1
_chemical_formula_structural   Y2Tm2B12OsW
_chemical_formula_sum   'Y4 Tm4 B24 Os2 W2'
_cell_volume   385.32909122
_cell_formula_units_Z   2
loop_
 _symmetry_equiv_pos_site_id
 _symmetry_equiv_pos_as_xyz
  1  'x, y, z'
loop_
 _atom_site_type_symbol
 _atom_site_label
 _atom_site_symmetry_multiplicity
 _atom_site_fract_x
 _atom_site_fract_y
 _atom_site_fract_z
 _atom_site_occupancy
  Y  Y0  1  0.000000  0.321021  0.413769  1
  Y  Y1  1  0.000000  0.678979  0.586231  1
  Y  Y2  1  0.000000  0.821237  0.086316  1
  Y  Y3  1  0.000000  0.178763  0.913684  1
  Tm  Tm4  1  0.000000  0.945052  0.371513  1
  Tm  Tm5  1  0.000000  0.054948  0.628488  1
  Tm  Tm6  1  0.000000  0.442161  0.127729  1
  Tm  Tm7  1  0.000000  0.557839  0.872270  1
  B  B8  1  0.500000  0.551257  0.434318  1
  B  B9  1  0.500000  0.448743  0.565682  1
  B  B10  1  0.500000  0.053969  0.067176  1
  B  B11  1  0.500000  0.946031  0.932824  1
  B  B12  1  0.500000  0.752499  0.421037  1
  B  B13  1  0.500000  0.247501  0.578963  1
  B  B14  1  0.500000  0.249080  0.081782  1
  B  B15  1  0.500000  0.750920  0.918218  1
  B  B16  1  0.500000  0.796106  0.263493  1
  B  B17  1  0.500000  0.203894  0.736507  1
  B  B18  1  0.500000  0.290209  0.233292  1
  B  B19  1  0.500000  0.709790  0.766708  1
  B  B20  1  0.500000  0.631270  0.181324  1
  B  B21  1  0.500000  0.368730  0.818676  1
  B  B22  1  0.500000  0.130010  0.313317  1
  B  B23  1  0.500000  0.869990  0.686683  1
  B  B24  1  0.500000  0.983536  0.212013  1
  B  B25  1  0.500000  0.016464  0.787987  1
  B  B26  1  0.500000  0.477595  0.285583  1
  B  B27  1  0.500000  0.522405  0.714417  1
  B  B28  1  0.500000  0.601744  0.027404  1
  B  B29  1  0.500000  0.398256  0.972596  1
  B  B30  1  0.500000  0.101536  0.470930  1
  B  B31  1  0.500000  0.898464  0.529070  1
  Os  Os32  1  0.000000  0.138006  0.178341  1
  Os  Os33  1  0.000000  0.861994  0.821659  1
  W  W34  1  0.000000  0.639054  0.319192  1
  W  W35  1  0.000000  0.360946  0.680808  1
