# generated using pymatgen
data_Y3Np5(B6Ru)4
_symmetry_space_group_name_H-M   'P 1'
_cell_length_a   3.56547900
_cell_length_b   9.35448517
_cell_length_c   11.41406021
_cell_angle_alpha   90.02168172
_cell_angle_beta   90.00000000
_cell_angle_gamma   90.00000000
_symmetry_Int_Tables_number   1
_chemical_formula_structural   Y3Np5(B6Ru)4
_chemical_formula_sum   'Y3 Np5 B24 Ru4'
_cell_volume   380.69563863
_cell_formula_units_Z   1
loop_
 _symmetry_equiv_pos_site_id
 _symmetry_equiv_pos_as_xyz
  1  'x, y, z'
loop_
 _atom_site_type_symbol
 _atom_site_label
 _atom_site_symmetry_multiplicity
 _atom_site_fract_x
 _atom_site_fract_y
 _atom_site_fract_z
 _atom_site_occupancy
  Y  Y0  1  0.000000  0.338991  0.406821  1
  Y  Y1  1  0.000000  0.661535  0.593248  1
  Y  Y2  1  0.000000  0.838981  0.093638  1
  Np  Np3  1  0.000000  0.160529  0.905300  1
  Np  Np4  1  0.000000  0.959226  0.401211  1
  Np  Np5  1  0.000000  0.040801  0.599471  1
  Np  Np6  1  0.000000  0.459362  0.099353  1
  Np  Np7  1  0.000000  0.540118  0.901688  1
  B  B8  1  0.500000  0.552827  0.431251  1
  B  B9  1  0.500000  0.447367  0.568841  1
  B  B10  1  0.500000  0.052712  0.067978  1
  B  B11  1  0.500000  0.948301  0.930966  1
  B  B12  1  0.500000  0.743766  0.423340  1
  B  B13  1  0.500000  0.256747  0.576709  1
  B  B14  1  0.500000  0.242708  0.076166  1
  B  B15  1  0.500000  0.755856  0.923093  1
  B  B16  1  0.500000  0.804659  0.275201  1
  B  B17  1  0.500000  0.195039  0.725333  1
  B  B18  1  0.500000  0.304598  0.224777  1
  B  B19  1  0.500000  0.695279  0.775097  1
  B  B20  1  0.500000  0.645835  0.188813  1
  B  B21  1  0.500000  0.353525  0.811198  1
  B  B22  1  0.500000  0.145418  0.311382  1
  B  B23  1  0.500000  0.854072  0.688722  1
  B  B24  1  0.500000  0.989469  0.220516  1
  B  B25  1  0.500000  0.011325  0.779178  1
  B  B26  1  0.500000  0.489648  0.279364  1
  B  B27  1  0.500000  0.510709  0.720639  1
  B  B28  1  0.500000  0.644719  0.040302  1
  B  B29  1  0.500000  0.353653  0.959188  1
  B  B30  1  0.500000  0.145004  0.459840  1
  B  B31  1  0.500000  0.855330  0.540497  1
  Ru  Ru32  1  0.000000  0.645962  0.319495  1
  Ru  Ru33  1  0.000000  0.354732  0.681270  1
  Ru  Ru34  1  0.000000  0.146628  0.180398  1
  Ru  Ru35  1  0.000000  0.854572  0.819715  1
