# generated using pymatgen
data_Cs2Cu(PS3)3
_symmetry_space_group_name_H-M   'P 1'
_cell_length_a   24.34122500
_cell_length_b   6.90597437
_cell_length_c   10.99058600
_cell_angle_alpha   61.12564802
_cell_angle_beta   90.00000000
_cell_angle_gamma   90.00000000
_symmetry_Int_Tables_number   1
_chemical_formula_structural   Cs2Cu(PS3)3
_chemical_formula_sum   'Cs8 Cu4 P12 S36'
_cell_volume   1617.83437154
_cell_formula_units_Z   4
loop_
 _symmetry_equiv_pos_site_id
 _symmetry_equiv_pos_as_xyz
  1  'x, y, z'
loop_
 _atom_site_type_symbol
 _atom_site_label
 _atom_site_symmetry_multiplicity
 _atom_site_fract_x
 _atom_site_fract_y
 _atom_site_fract_z
 _atom_site_occupancy
  Cs  Cs0  1  0.548361  0.500066  0.738548  1
  Cs  Cs1  1  0.802920  0.798369  0.368588  1
  Cs  Cs2  1  0.197080  0.201631  0.631412  1
  Cs  Cs3  1  0.697080  0.798369  0.868588  1
  Cs  Cs4  1  0.302920  0.201631  0.131412  1
  Cs  Cs5  1  0.951639  0.500066  0.238548  1
  Cs  Cs6  1  0.048361  0.499934  0.761452  1
  Cs  Cs7  1  0.451639  0.499934  0.261452  1
  Cu  Cu8  1  0.892704  0.734754  0.689931  1
  Cu  Cu9  1  0.392704  0.265246  0.810069  1
  Cu  Cu10  1  0.107296  0.265246  0.310069  1
  Cu  Cu11  1  0.607296  0.734754  0.189931  1
  P  P12  1  0.599359  0.271735  0.162758  1
  P  P13  1  0.900641  0.271735  0.662758  1
  P  P14  1  0.898270  0.250194  0.987751  1
  P  P15  1  0.280158  0.593882  0.718657  1
  P  P16  1  0.400641  0.728265  0.837242  1
  P  P17  1  0.780158  0.406118  0.781343  1
  P  P18  1  0.219842  0.593882  0.218657  1
  P  P19  1  0.101730  0.749806  0.012249  1
  P  P20  1  0.099359  0.728265  0.337242  1
  P  P21  1  0.398270  0.749806  0.512249  1
  P  P22  1  0.719842  0.406118  0.281343  1
  P  P23  1  0.601730  0.250194  0.487751  1
  S  S24  1  0.421842  0.959163  0.320931  1
  S  S25  1  0.299646  0.273548  0.805662  1
  S  S26  1  0.922712  0.562359  0.914266  1
  S  S27  1  0.573733  0.086236  0.078922  1
  S  S28  1  0.812873  0.247794  0.669857  1
  S  S29  1  0.188837  0.787562  0.012675  1
  S  S30  1  0.073733  0.913764  0.421078  1
  S  S31  1  0.687127  0.247794  0.169857  1
  S  S32  1  0.429642  0.900559  0.628916  1
  S  S33  1  0.577288  0.562359  0.414266  1
  S  S34  1  0.572608  0.585033  0.058073  1
  S  S35  1  0.811163  0.212438  0.987325  1
  S  S36  1  0.187127  0.752206  0.330143  1
  S  S37  1  0.422712  0.437641  0.585734  1
  S  S38  1  0.311163  0.787562  0.512675  1
  S  S39  1  0.578158  0.040837  0.679069  1
  S  S40  1  0.570358  0.099441  0.371084  1
  S  S41  1  0.926267  0.086236  0.578922  1
  S  S42  1  0.200354  0.273548  0.305662  1
  S  S43  1  0.427392  0.414967  0.941927  1
  S  S44  1  0.701026  0.340370  0.797773  1
  S  S45  1  0.927392  0.585033  0.558073  1
  S  S46  1  0.078158  0.959163  0.820931  1
  S  S47  1  0.201026  0.659630  0.702227  1
  S  S48  1  0.798974  0.340370  0.297773  1
  S  S49  1  0.072608  0.414967  0.441927  1
  S  S50  1  0.298974  0.659630  0.202227  1
  S  S51  1  0.921842  0.040837  0.179069  1
  S  S52  1  0.929642  0.099441  0.871084  1
  S  S53  1  0.426267  0.913764  0.921078  1
  S  S54  1  0.688837  0.212438  0.487325  1
  S  S55  1  0.070358  0.900559  0.128916  1
  S  S56  1  0.312873  0.752206  0.830143  1
  S  S57  1  0.799646  0.726452  0.694338  1
  S  S58  1  0.077288  0.437641  0.085734  1
  S  S59  1  0.700354  0.726452  0.194338  1
