# generated using pymatgen
data_Sc4Ge5P3Rh16
_symmetry_space_group_name_H-M   'P 1'
_cell_length_a   4.10402000
_cell_length_b   8.99695880
_cell_length_c   11.30547931
_cell_angle_alpha   89.92714440
_cell_angle_beta   90.00000000
_cell_angle_gamma   90.00000000
_symmetry_Int_Tables_number   1
_chemical_formula_structural   Sc4Ge5P3Rh16
_chemical_formula_sum   'Sc4 Ge5 P3 Rh16'
_cell_volume   417.43977590
_cell_formula_units_Z   1
loop_
 _symmetry_equiv_pos_site_id
 _symmetry_equiv_pos_as_xyz
  1  'x, y, z'
loop_
 _atom_site_type_symbol
 _atom_site_label
 _atom_site_symmetry_multiplicity
 _atom_site_fract_x
 _atom_site_fract_y
 _atom_site_fract_z
 _atom_site_occupancy
  Sc  Sc0  1  0.250000  0.145847  0.822579  1
  Sc  Sc1  1  0.250000  0.360184  0.322032  1
  Sc  Sc2  1  0.750000  0.859504  0.178004  1
  Sc  Sc3  1  0.750000  0.638682  0.679934  1
  Ge  Ge4  1  0.750000  0.917318  0.858186  1
  Ge  Ge5  1  0.250000  0.623738  0.061044  1
  Ge  Ge6  1  0.250000  0.876992  0.556927  1
  Ge  Ge7  1  0.750000  0.378063  0.940072  1
  Ge  Ge8  1  0.750000  0.122359  0.442472  1
  P  P9  1  0.250000  0.416616  0.642029  1
  P  P10  1  0.250000  0.086138  0.141225  1
  P  P11  1  0.750000  0.583443  0.357683  1
  Rh  Rh12  1  0.250000  0.606024  0.507491  1
  Rh  Rh13  1  0.250000  0.894969  0.005101  1
  Rh  Rh14  1  0.750000  0.394845  0.492827  1
  Rh  Rh15  1  0.750000  0.113494  0.003450  1
  Rh  Rh16  1  0.250000  0.688539  0.273685  1
  Rh  Rh17  1  0.250000  0.800600  0.766943  1
  Rh  Rh18  1  0.750000  0.309037  0.726306  1
  Rh  Rh19  1  0.750000  0.192320  0.233085  1
  Rh  Rh20  1  0.250000  0.186897  0.563819  1
  Rh  Rh21  1  0.250000  0.321081  0.065688  1
  Rh  Rh22  1  0.750000  0.815684  0.432084  1
  Rh  Rh23  1  0.750000  0.669076  0.939375  1
  Rh  Rh24  1  0.250000  0.008191  0.337281  1
  Rh  Rh25  1  0.250000  0.489948  0.836213  1
  Rh  Rh26  1  0.750000  0.993733  0.649871  1
  Rh  Rh27  1  0.750000  0.506680  0.164595  1
