# generated using pymatgen
data_SmY5ScCo17P12
_symmetry_space_group_name_H-M   'P 1'
_cell_length_a   3.72132100
_cell_length_b   10.60663700
_cell_length_c   12.30632500
_cell_angle_alpha   90.00000000
_cell_angle_beta   90.00000000
_cell_angle_gamma   90.00000000
_symmetry_Int_Tables_number   1
_chemical_formula_structural   SmY5ScCo17P12
_chemical_formula_sum   'Sm1 Y5 Sc1 Co17 P12'
_cell_volume   485.73927458
_cell_formula_units_Z   1
loop_
 _symmetry_equiv_pos_site_id
 _symmetry_equiv_pos_as_xyz
  1  'x, y, z'
loop_
 _atom_site_type_symbol
 _atom_site_label
 _atom_site_symmetry_multiplicity
 _atom_site_fract_x
 _atom_site_fract_y
 _atom_site_fract_z
 _atom_site_occupancy
  Sm  Sm0  1  0.500000  0.000000  0.477514  1
  Y  Y1  1  0.000000  0.500000  0.527455  1
  Y  Y2  1  0.500000  0.821038  0.207066  1
  Y  Y3  1  0.500000  0.178962  0.207066  1
  Y  Y4  1  0.000000  0.682638  0.795610  1
  Y  Y5  1  0.000000  0.317362  0.795610  1
  Sc  Sc6  1  0.500000  0.500000  0.152415  1
  Co  Co7  1  0.000000  0.000000  0.837695  1
  Co  Co8  1  0.500000  0.500000  0.703679  1
  Co  Co9  1  0.000000  0.000000  0.294642  1
  Co  Co10  1  0.000000  0.500000  0.984560  1
  Co  Co11  1  0.500000  0.000000  0.012969  1
  Co  Co12  1  0.500000  0.326695  0.989828  1
  Co  Co13  1  0.500000  0.673305  0.989828  1
  Co  Co14  1  0.000000  0.162080  0.001486  1
  Co  Co15  1  0.000000  0.837920  0.001486  1
  Co  Co16  1  0.500000  0.295366  0.434042  1
  Co  Co17  1  0.500000  0.704634  0.434042  1
  Co  Co18  1  0.000000  0.203003  0.570984  1
  Co  Co19  1  0.000000  0.796997  0.570984  1
  Co  Co20  1  0.500000  0.880383  0.708571  1
  Co  Co21  1  0.500000  0.119617  0.708571  1
  Co  Co22  1  0.000000  0.622120  0.296426  1
  Co  Co23  1  0.000000  0.377880  0.296426  1
  P  P24  1  0.500000  0.500000  0.883294  1
  P  P25  1  0.000000  0.000000  0.115640  1
  P  P26  1  0.500000  0.500000  0.357530  1
  P  P27  1  0.000000  0.000000  0.656929  1
  P  P28  1  0.500000  0.308791  0.617783  1
  P  P29  1  0.500000  0.691209  0.617783  1
  P  P30  1  0.000000  0.190716  0.385890  1
  P  P31  1  0.000000  0.809284  0.385890  1
  P  P32  1  0.500000  0.851885  0.889293  1
  P  P33  1  0.500000  0.148115  0.889293  1
  P  P34  1  0.000000  0.663174  0.100859  1
  P  P35  1  0.000000  0.336826  0.100859  1
