# generated using pymatgen
data_CaEr2Zn11
_symmetry_space_group_name_H-M   'P 1'
_cell_length_a   4.39398913
_cell_length_b   8.16882536
_cell_length_c   8.16882581
_cell_angle_alpha   65.95433224
_cell_angle_beta   74.39827433
_cell_angle_gamma   74.39828173
_symmetry_Int_Tables_number   1
_chemical_formula_structural   CaEr2Zn11
_chemical_formula_sum   'Ca1 Er2 Zn11'
_cell_volume   253.63095608
_cell_formula_units_Z   1
loop_
 _symmetry_equiv_pos_site_id
 _symmetry_equiv_pos_as_xyz
  1  'x, y, z'
loop_
 _atom_site_type_symbol
 _atom_site_label
 _atom_site_symmetry_multiplicity
 _atom_site_fract_x
 _atom_site_fract_y
 _atom_site_fract_z
 _atom_site_occupancy
  Ca  Ca0  1  0.000000  0.000000  0.000000  1
  Er  Er1  1  0.703647  0.296353  0.296353  1
  Er  Er2  1  0.296353  0.703647  0.703647  1
  Zn  Zn3  1  0.000000  0.500000  0.500000  1
  Zn  Zn4  1  0.500000  0.684419  0.315581  1
  Zn  Zn5  1  0.500000  0.315581  0.684419  1
  Zn  Zn6  1  0.663343  0.693858  0.979456  1
  Zn  Zn7  1  0.336657  0.306142  0.020544  1
  Zn  Zn8  1  0.663343  0.979456  0.693858  1
  Zn  Zn9  1  0.336657  0.020544  0.306142  1
  Zn  Zn10  1  0.864235  0.421018  0.850512  1
  Zn  Zn11  1  0.135765  0.578982  0.149488  1
  Zn  Zn12  1  0.864235  0.850512  0.421018  1
  Zn  Zn13  1  0.135765  0.149488  0.578982  1
