# generated using pymatgen
data_DyY2Hf(Co4P3)2
_symmetry_space_group_name_H-M   'P 1'
_cell_length_a   3.72188700
_cell_length_b   10.68448700
_cell_length_c   12.40136300
_cell_angle_alpha   90.00000000
_cell_angle_beta   90.00000000
_cell_angle_gamma   90.00000000
_symmetry_Int_Tables_number   1
_chemical_formula_structural   DyY2Hf(Co4P3)2
_chemical_formula_sum   'Dy2 Y4 Hf2 Co16 P12'
_cell_volume   493.15822219
_cell_formula_units_Z   2
loop_
 _symmetry_equiv_pos_site_id
 _symmetry_equiv_pos_as_xyz
  1  'x, y, z'
loop_
 _atom_site_type_symbol
 _atom_site_label
 _atom_site_symmetry_multiplicity
 _atom_site_fract_x
 _atom_site_fract_y
 _atom_site_fract_z
 _atom_site_occupancy
  Dy  Dy0  1  0.000000  0.678127  0.795374  1
  Dy  Dy1  1  0.000000  0.321873  0.795374  1
  Y  Y2  1  0.000000  0.500000  0.528505  1
  Y  Y3  1  0.500000  0.000000  0.471596  1
  Y  Y4  1  0.500000  0.821733  0.204570  1
  Y  Y5  1  0.500000  0.178267  0.204570  1
  Hf  Hf6  1  0.500000  0.500000  0.157223  1
  Hf  Hf7  1  0.000000  0.000000  0.842717  1
  Co  Co8  1  0.500000  0.500000  0.703603  1
  Co  Co9  1  0.000000  0.000000  0.296694  1
  Co  Co10  1  0.000000  0.500000  0.986828  1
  Co  Co11  1  0.500000  0.000000  0.012881  1
  Co  Co12  1  0.500000  0.332103  0.993310  1
  Co  Co13  1  0.500000  0.667897  0.993310  1
  Co  Co14  1  0.000000  0.167995  0.006390  1
  Co  Co15  1  0.000000  0.832005  0.006390  1
  Co  Co16  1  0.500000  0.295311  0.433074  1
  Co  Co17  1  0.500000  0.704689  0.433074  1
  Co  Co18  1  0.000000  0.204796  0.567141  1
  Co  Co19  1  0.000000  0.795204  0.567141  1
  Co  Co20  1  0.500000  0.877939  0.703179  1
  Co  Co21  1  0.500000  0.122061  0.703179  1
  Co  Co22  1  0.000000  0.621957  0.296977  1
  Co  Co23  1  0.000000  0.378043  0.296977  1
  P  P24  1  0.500000  0.500000  0.883641  1
  P  P25  1  0.000000  0.000000  0.116242  1
  P  P26  1  0.500000  0.500000  0.361396  1
  P  P27  1  0.000000  0.000000  0.638656  1
  P  P28  1  0.500000  0.309862  0.615825  1
  P  P29  1  0.500000  0.690138  0.615825  1
  P  P30  1  0.000000  0.190094  0.384435  1
  P  P31  1  0.000000  0.809906  0.384435  1
  P  P32  1  0.500000  0.838558  0.893203  1
  P  P33  1  0.500000  0.161442  0.893203  1
  P  P34  1  0.000000  0.661204  0.106531  1
  P  P35  1  0.000000  0.338796  0.106531  1
