# generated using pymatgen
data_Sc8SiSe3
_symmetry_space_group_name_H-M   'P 1'
_cell_length_a   3.80697600
_cell_length_b   10.30756470
_cell_length_c   19.12214500
_cell_angle_alpha   89.86479213
_cell_angle_beta   90.00000000
_cell_angle_gamma   90.00000000
_symmetry_Int_Tables_number   1
_chemical_formula_structural   Sc8SiSe3
_chemical_formula_sum   'Sc24 Si3 Se9'
_cell_volume   750.36333728
_cell_formula_units_Z   3
loop_
 _symmetry_equiv_pos_site_id
 _symmetry_equiv_pos_as_xyz
  1  'x, y, z'
loop_
 _atom_site_type_symbol
 _atom_site_label
 _atom_site_symmetry_multiplicity
 _atom_site_fract_x
 _atom_site_fract_y
 _atom_site_fract_z
 _atom_site_occupancy
  Sc  Sc0  1  0.250000  0.387246  0.992781  1
  Sc  Sc1  1  0.750000  0.613161  0.007602  1
  Sc  Sc2  1  0.750000  0.886577  0.507945  1
  Sc  Sc3  1  0.250000  0.108450  0.490760  1
  Sc  Sc4  1  0.250000  0.925998  0.644400  1
  Sc  Sc5  1  0.750000  0.074248  0.354696  1
  Sc  Sc6  1  0.750000  0.424481  0.856529  1
  Sc  Sc7  1  0.250000  0.575971  0.144407  1
  Sc  Sc8  1  0.250000  0.876863  0.027587  1
  Sc  Sc9  1  0.750000  0.123135  0.972850  1
  Sc  Sc10  1  0.750000  0.378761  0.467904  1
  Sc  Sc11  1  0.250000  0.623319  0.527785  1
  Sc  Sc12  1  0.250000  0.831007  0.389509  1
  Sc  Sc13  1  0.750000  0.166768  0.610896  1
  Sc  Sc14  1  0.750000  0.330520  0.110162  1
  Sc  Sc15  1  0.250000  0.670329  0.890019  1
  Sc  Sc16  1  0.250000  0.528479  0.340902  1
  Sc  Sc17  1  0.750000  0.474480  0.661405  1
  Sc  Sc18  1  0.750000  0.028789  0.158708  1
  Sc  Sc19  1  0.250000  0.971426  0.841354  1
  Sc  Sc20  1  0.250000  0.250983  0.231249  1
  Sc  Sc21  1  0.750000  0.748565  0.768165  1
  Sc  Sc22  1  0.750000  0.751504  0.267844  1
  Sc  Sc23  1  0.250000  0.248274  0.735035  1
  Si  Si24  1  0.250000  0.142204  0.077724  1
  Si  Si25  1  0.750000  0.858655  0.922633  1
  Si  Si26  1  0.750000  0.641291  0.422903  1
  Se  Se27  1  0.250000  0.362105  0.574984  1
  Se  Se28  1  0.250000  0.225993  0.877800  1
  Se  Se29  1  0.750000  0.773791  0.123448  1
  Se  Se30  1  0.750000  0.725388  0.623450  1
  Se  Se31  1  0.250000  0.272902  0.376436  1
  Se  Se32  1  0.250000  0.533622  0.763167  1
  Se  Se33  1  0.750000  0.465674  0.236755  1
  Se  Se34  1  0.750000  0.033600  0.737586  1
  Se  Se35  1  0.250000  0.965443  0.262622  1
