# generated using pymatgen
data_ErTm2Ni7B2
_symmetry_space_group_name_H-M   'P 1'
_cell_length_a   5.02925300
_cell_length_b   5.03093825
_cell_length_c   14.27653800
_cell_angle_alpha   90.00000000
_cell_angle_beta   90.00000000
_cell_angle_gamma   119.98891308
_symmetry_Int_Tables_number   1
_chemical_formula_structural   ErTm2Ni7B2
_chemical_formula_sum   'Er2 Tm4 Ni14 B4'
_cell_volume   312.86322379
_cell_formula_units_Z   2
loop_
 _symmetry_equiv_pos_site_id
 _symmetry_equiv_pos_as_xyz
  1  'x, y, z'
loop_
 _atom_site_type_symbol
 _atom_site_label
 _atom_site_symmetry_multiplicity
 _atom_site_fract_x
 _atom_site_fract_y
 _atom_site_fract_z
 _atom_site_occupancy
  Er  Er0  1  0.666665  0.333330  0.250000  1
  Er  Er1  1  0.333334  0.666668  0.750000  1
  Tm  Tm2  1  0.666638  0.333276  0.032737  1
  Tm  Tm3  1  0.666638  0.333276  0.467262  1
  Tm  Tm4  1  0.333362  0.666723  0.532737  1
  Tm  Tm5  1  0.333362  0.666723  0.967262  1
  Ni  Ni6  1  0.000000  0.000000  0.000000  1
  Ni  Ni7  1  0.165740  0.834255  0.148261  1
  Ni  Ni8  1  0.668515  0.834255  0.148261  1
  Ni  Ni9  1  0.165736  0.331471  0.148287  1
  Ni  Ni10  1  0.165736  0.331471  0.351713  1
  Ni  Ni11  1  0.165740  0.834255  0.351739  1
  Ni  Ni12  1  0.668515  0.834255  0.351739  1
  Ni  Ni13  1  0.000000  0.000000  0.500000  1
  Ni  Ni14  1  0.331486  0.165745  0.648261  1
  Ni  Ni15  1  0.834260  0.165745  0.648261  1
  Ni  Ni16  1  0.834263  0.668527  0.648287  1
  Ni  Ni17  1  0.834263  0.668527  0.851713  1
  Ni  Ni18  1  0.331486  0.165745  0.851739  1
  Ni  Ni19  1  0.834260  0.165745  0.851739  1
  B  B20  1  0.000001  0.000002  0.250000  1
  B  B21  1  0.333344  0.666689  0.250000  1
  B  B22  1  0.999999  0.999998  0.750000  1
  B  B23  1  0.666655  0.333309  0.750000  1
