# generated using pymatgen
data_YHo2Lu5In3Co
_symmetry_space_group_name_H-M   'P 1'
_cell_length_a   10.17281311
_cell_length_b   10.17281524
_cell_length_c   7.01356419
_cell_angle_alpha   90.03334878
_cell_angle_beta   89.96665178
_cell_angle_gamma   120.04602717
_symmetry_Int_Tables_number   1
_chemical_formula_structural   YHo2Lu5In3Co
_chemical_formula_sum   'Y2 Ho4 Lu10 In6 Co2'
_cell_volume   628.27520344
_cell_formula_units_Z   2
loop_
 _symmetry_equiv_pos_site_id
 _symmetry_equiv_pos_as_xyz
  1  'x, y, z'
loop_
 _atom_site_type_symbol
 _atom_site_label
 _atom_site_symmetry_multiplicity
 _atom_site_fract_x
 _atom_site_fract_y
 _atom_site_fract_z
 _atom_site_occupancy
  Y  Y0  1  0.999950  0.000050  0.495031  1
  Y  Y1  1  0.999973  0.000027  0.994688  1
  Ho  Ho2  1  0.465233  0.534767  0.483898  1
  Ho  Ho3  1  0.068664  0.534405  0.483139  1
  Ho  Ho4  1  0.465595  0.931336  0.483139  1
  Ho  Ho5  1  0.535131  0.464869  0.983250  1
  Lu  Lu6  1  0.928258  0.464140  0.982146  1
  Lu  Lu7  1  0.535860  0.071742  0.982146  1
  Lu  Lu8  1  0.820020  0.179980  0.275849  1
  Lu  Lu9  1  0.359863  0.179266  0.277219  1
  Lu  Lu10  1  0.820734  0.640137  0.277219  1
  Lu  Lu11  1  0.179974  0.820026  0.780052  1
  Lu  Lu12  1  0.640557  0.821235  0.779324  1
  Lu  Lu13  1  0.178765  0.359443  0.779324  1
  Lu  Lu14  1  0.332807  0.667193  0.089108  1
  Lu  Lu15  1  0.667075  0.332925  0.589373  1
  In  In16  1  0.163693  0.836307  0.231061  1
  In  In17  1  0.672489  0.835367  0.231524  1
  In  In18  1  0.164633  0.327511  0.231524  1
  In  In19  1  0.836200  0.163800  0.733141  1
  In  In20  1  0.327678  0.163904  0.731857  1
  In  In21  1  0.836096  0.672322  0.731857  1
  Co  Co22  1  0.333310  0.666690  0.710077  1
  Co  Co23  1  0.667445  0.332555  0.208603  1
