# generated using pymatgen
data_ErSc2Pa(ReB6)2
_symmetry_space_group_name_H-M   'P 1'
_cell_length_a   3.61428600
_cell_length_b   8.99144278
_cell_length_c   11.36341447
_cell_angle_alpha   90.17031633
_cell_angle_beta   90.00000000
_cell_angle_gamma   90.00000000
_symmetry_Int_Tables_number   1
_chemical_formula_structural   ErSc2Pa(ReB6)2
_chemical_formula_sum   'Er2 Sc4 Pa2 Re4 B24'
_cell_volume   369.28258644
_cell_formula_units_Z   2
loop_
 _symmetry_equiv_pos_site_id
 _symmetry_equiv_pos_as_xyz
  1  'x, y, z'
loop_
 _atom_site_type_symbol
 _atom_site_label
 _atom_site_symmetry_multiplicity
 _atom_site_fract_x
 _atom_site_fract_y
 _atom_site_fract_z
 _atom_site_occupancy
  Er  Er0  1  0.000000  0.821709  0.085587  1
  Er  Er1  1  0.000000  0.178291  0.914413  1
  Sc  Sc2  1  0.000000  0.945812  0.372531  1
  Sc  Sc3  1  0.000000  0.054188  0.627469  1
  Sc  Sc4  1  0.000000  0.444460  0.125424  1
  Sc  Sc5  1  0.000000  0.555540  0.874576  1
  Pa  Pa6  1  0.000000  0.319642  0.413684  1
  Pa  Pa7  1  0.000000  0.680358  0.586316  1
  Re  Re8  1  0.000000  0.637926  0.320983  1
  Re  Re9  1  0.000000  0.362074  0.679017  1
  Re  Re10  1  0.000000  0.142065  0.182669  1
  Re  Re11  1  0.000000  0.857935  0.817331  1
  B  B12  1  0.500000  0.554799  0.432309  1
  B  B13  1  0.500000  0.445201  0.567691  1
  B  B14  1  0.500000  0.054214  0.066703  1
  B  B15  1  0.500000  0.945786  0.933297  1
  B  B16  1  0.500000  0.753697  0.418151  1
  B  B17  1  0.500000  0.246303  0.581849  1
  B  B18  1  0.500000  0.252550  0.079858  1
  B  B19  1  0.500000  0.747450  0.920142  1
  B  B20  1  0.500000  0.794307  0.263546  1
  B  B21  1  0.500000  0.205693  0.736454  1
  B  B22  1  0.500000  0.294085  0.233783  1
  B  B23  1  0.500000  0.705915  0.766217  1
  B  B24  1  0.500000  0.629710  0.182234  1
  B  B25  1  0.500000  0.370290  0.817766  1
  B  B26  1  0.500000  0.129106  0.315992  1
  B  B27  1  0.500000  0.870894  0.684008  1
  B  B28  1  0.500000  0.980746  0.212660  1
  B  B29  1  0.500000  0.019254  0.787340  1
  B  B30  1  0.500000  0.481884  0.284458  1
  B  B31  1  0.500000  0.518116  0.715542  1
  B  B32  1  0.500000  0.598198  0.026886  1
  B  B33  1  0.500000  0.401802  0.973114  1
  B  B34  1  0.500000  0.100158  0.472608  1
  B  B35  1  0.500000  0.899842  0.527392  1
