# generated using pymatgen
data_Ho8SiHgPd23
_symmetry_space_group_name_H-M   'P 1'
_cell_length_a   8.30463600
_cell_length_b   8.38439500
_cell_length_c   8.38439500
_cell_angle_alpha   90.00000000
_cell_angle_beta   90.00000000
_cell_angle_gamma   90.00000000
_symmetry_Int_Tables_number   1
_chemical_formula_structural   Ho8SiHgPd23
_chemical_formula_sum   'Ho8 Si1 Hg1 Pd23'
_cell_volume   583.79996188
_cell_formula_units_Z   1
loop_
 _symmetry_equiv_pos_site_id
 _symmetry_equiv_pos_as_xyz
  1  'x, y, z'
loop_
 _atom_site_type_symbol
 _atom_site_label
 _atom_site_symmetry_multiplicity
 _atom_site_fract_x
 _atom_site_fract_y
 _atom_site_fract_z
 _atom_site_occupancy
  Ho  Ho0  1  0.253462  0.244546  0.244546  1
  Ho  Ho1  1  0.746326  0.745487  0.745487  1
  Ho  Ho2  1  0.746326  0.745487  0.254513  1
  Ho  Ho3  1  0.746326  0.254513  0.745487  1
  Ho  Ho4  1  0.253462  0.244546  0.755454  1
  Ho  Ho5  1  0.253462  0.755454  0.244546  1
  Ho  Ho6  1  0.253462  0.755454  0.755454  1
  Ho  Ho7  1  0.746326  0.254513  0.254513  1
  Si  Si8  1  0.999010  0.000000  0.000000  1
  Hg  Hg9  1  0.253687  0.500000  0.500000  1
  Pd  Pd10  1  0.255904  0.500000  0.000000  1
  Pd  Pd11  1  0.743352  0.500000  0.000000  1
  Pd  Pd12  1  0.002031  0.255058  0.500000  1
  Pd  Pd13  1  0.501654  0.258592  0.000000  1
  Pd  Pd14  1  0.002031  0.744942  0.500000  1
  Pd  Pd15  1  0.501654  0.741408  0.000000  1
  Pd  Pd16  1  0.501654  0.000000  0.258592  1
  Pd  Pd17  1  0.255904  0.000000  0.500000  1
  Pd  Pd18  1  0.501654  0.000000  0.741408  1
  Pd  Pd19  1  0.743352  0.000000  0.500000  1
  Pd  Pd20  1  0.002031  0.500000  0.255058  1
  Pd  Pd21  1  0.002031  0.500000  0.744942  1
  Pd  Pd22  1  0.747706  0.500000  0.500000  1
  Pd  Pd23  1  0.498062  0.250137  0.500000  1
  Pd  Pd24  1  0.498062  0.749863  0.500000  1
  Pd  Pd25  1  0.498062  0.500000  0.250137  1
  Pd  Pd26  1  0.498062  0.500000  0.749863  1
  Pd  Pd27  1  0.282937  0.000000  0.000000  1
  Pd  Pd28  1  0.718676  0.000000  0.000000  1
  Pd  Pd29  1  0.998334  0.279032  0.000000  1
  Pd  Pd30  1  0.998334  0.720968  0.000000  1
  Pd  Pd31  1  0.998334  0.000000  0.279032  1
  Pd  Pd32  1  0.998334  0.000000  0.720968  1
