# generated using pymatgen
data_Y2Ho4B14MoOs
_symmetry_space_group_name_H-M   'P 1'
_cell_length_a   8.08471516
_cell_length_b   8.08471688
_cell_length_c   9.37823700
_cell_angle_alpha   90.00000000
_cell_angle_beta   90.00000000
_cell_angle_gamma   155.00286525
_symmetry_Int_Tables_number   1
_chemical_formula_structural   Y2Ho4B14MoOs
_chemical_formula_sum   'Y2 Ho4 B14 Mo1 Os1'
_cell_volume   259.03140684
_cell_formula_units_Z   1
loop_
 _symmetry_equiv_pos_site_id
 _symmetry_equiv_pos_as_xyz
  1  'x, y, z'
loop_
 _atom_site_type_symbol
 _atom_site_label
 _atom_site_symmetry_multiplicity
 _atom_site_fract_x
 _atom_site_fract_y
 _atom_site_fract_z
 _atom_site_occupancy
  Y  Y0  1  0.256045  0.743955  0.250000  1
  Y  Y1  1  0.745009  0.254991  0.750000  1
  Ho  Ho2  1  0.605733  0.394267  0.061643  1
  Ho  Ho3  1  0.393345  0.606655  0.941258  1
  Ho  Ho4  1  0.393345  0.606655  0.558742  1
  Ho  Ho5  1  0.605733  0.394267  0.438357  1
  B  B6  1  0.979013  0.020987  0.096362  1
  B  B7  1  0.019488  0.980512  0.908831  1
  B  B8  1  0.019488  0.980512  0.591169  1
  B  B9  1  0.979013  0.020987  0.403638  1
  B  B10  1  0.773427  0.226573  0.034957  1
  B  B11  1  0.228082  0.771918  0.967938  1
  B  B12  1  0.228082  0.771918  0.532062  1
  B  B13  1  0.773427  0.226573  0.465043  1
  B  B14  1  0.868404  0.131596  0.150764  1
  B  B15  1  0.134414  0.865586  0.852892  1
  B  B16  1  0.134414  0.865586  0.647108  1
  B  B17  1  0.868404  0.131596  0.349236  1
  B  B18  1  0.042482  0.957518  0.250000  1
  B  B19  1  0.954227  0.045773  0.750000  1
  Mo  Mo20  1  0.552444  0.447556  0.750000  1
  Os  Os21  1  0.445982  0.554018  0.250000  1
