# generated using pymatgen
data_BaIn2SnPt
_symmetry_space_group_name_H-M   'P 1'
_cell_length_a   6.72319746
_cell_length_b   6.72319692
_cell_length_c   6.72319634
_cell_angle_alpha   136.97853187
_cell_angle_beta   136.97852999
_cell_angle_gamma   62.47108373
_symmetry_Int_Tables_number   1
_chemical_formula_structural   BaIn2SnPt
_chemical_formula_sum   'Ba1 In2 Sn1 Pt1'
_cell_volume   139.74593615
_cell_formula_units_Z   1
loop_
 _symmetry_equiv_pos_site_id
 _symmetry_equiv_pos_as_xyz
  1  'x, y, z'
loop_
 _atom_site_type_symbol
 _atom_site_label
 _atom_site_symmetry_multiplicity
 _atom_site_fract_x
 _atom_site_fract_y
 _atom_site_fract_z
 _atom_site_occupancy
  Ba  Ba0  1  0.007490  0.007490  0.000000  1
  In  In1  1  0.250754  0.750754  0.500000  1
  In  In2  1  0.750754  0.250754  0.500000  1
  Sn  Sn3  1  0.419739  0.419739  0.000000  1
  Pt  Pt4  1  0.650363  0.650363  0.000000  1
