# generated using pymatgen
data_TlCuIr4(PbO7)2
_symmetry_space_group_name_H-M   'P 1'
_cell_length_a   7.35440689
_cell_length_b   7.29907343
_cell_length_c   7.25715652
_cell_angle_alpha   59.44425252
_cell_angle_beta   59.55571883
_cell_angle_gamma   59.74891319
_symmetry_Int_Tables_number   1
_chemical_formula_structural   TlCuIr4(PbO7)2
_chemical_formula_sum   'Tl1 Cu1 Ir4 Pb2 O14'
_cell_volume   272.84993142
_cell_formula_units_Z   1
loop_
 _symmetry_equiv_pos_site_id
 _symmetry_equiv_pos_as_xyz
  1  'x, y, z'
loop_
 _atom_site_type_symbol
 _atom_site_label
 _atom_site_symmetry_multiplicity
 _atom_site_fract_x
 _atom_site_fract_y
 _atom_site_fract_z
 _atom_site_occupancy
  Tl  Tl0  1  0.125000  0.625000  0.125000  1
  Cu  Cu1  1  0.125000  0.125000  0.625000  1
  Ir  Ir2  1  0.125000  0.625000  0.625000  1
  Ir  Ir3  1  0.625000  0.125000  0.625000  1
  Ir  Ir4  1  0.625000  0.625000  0.125000  1
  Ir  Ir5  1  0.625000  0.625000  0.625000  1
  Pb  Pb6  1  0.625000  0.125000  0.125000  1
  Pb  Pb7  1  0.125000  0.125000  0.125000  1
  O  O8  1  0.704665  0.707056  0.292285  1
  O  O9  1  0.302372  0.301392  0.704452  1
  O  O10  1  0.691785  0.301392  0.704452  1
  O  O11  1  0.295993  0.707056  0.292285  1
  O  O12  1  0.303080  0.692583  0.701257  1
  O  O13  1  0.706743  0.294533  0.291980  1
  O  O14  1  0.545335  0.542944  0.957715  1
  O  O15  1  0.947628  0.948608  0.545548  1
  O  O16  1  0.558215  0.948608  0.545548  1
  O  O17  1  0.954007  0.542944  0.957715  1
  O  O18  1  0.946920  0.557417  0.548743  1
  O  O19  1  0.543257  0.955467  0.958020  1
  O  O20  1  0.231119  0.232500  0.305264  1
  O  O21  1  0.018881  0.017500  0.944736  1
