# generated using pymatgen
data_Er10In8Cu2PdPt
_symmetry_space_group_name_H-M   'P 1'
_cell_length_a   3.61153500
_cell_length_b   8.05442310
_cell_length_c   18.06401639
_cell_angle_alpha   89.99709880
_cell_angle_beta   90.00000000
_cell_angle_gamma   90.00000000
_symmetry_Int_Tables_number   1
_chemical_formula_structural   Er10In8Cu2PdPt
_chemical_formula_sum   'Er10 In8 Cu2 Pd1 Pt1'
_cell_volume   525.46111790
_cell_formula_units_Z   1
loop_
 _symmetry_equiv_pos_site_id
 _symmetry_equiv_pos_as_xyz
  1  'x, y, z'
loop_
 _atom_site_type_symbol
 _atom_site_label
 _atom_site_symmetry_multiplicity
 _atom_site_fract_x
 _atom_site_fract_y
 _atom_site_fract_z
 _atom_site_occupancy
  Er  Er0  1  0.000000  0.116895  0.415660  1
  Er  Er1  1  0.000000  0.882892  0.584305  1
  Er  Er2  1  0.000000  0.382234  0.916749  1
  Er  Er3  1  0.000000  0.617283  0.084288  1
  Er  Er4  1  0.000000  0.247523  0.219541  1
  Er  Er5  1  0.000000  0.756873  0.780446  1
  Er  Er6  1  0.000000  0.256852  0.719201  1
  Er  Er7  1  0.000000  0.739085  0.279575  1
  Er  Er8  1  0.000000  0.999861  0.000109  1
  Er  Er9  1  0.000000  0.500401  0.499858  1
  In  In10  1  0.500000  0.420073  0.352511  1
  In  In11  1  0.500000  0.578276  0.648720  1
  In  In12  1  0.500000  0.076861  0.849472  1
  In  In13  1  0.500000  0.924958  0.150484  1
  In  In14  1  0.500000  0.291157  0.066224  1
  In  In15  1  0.500000  0.707502  0.932294  1
  In  In16  1  0.500000  0.208102  0.568432  1
  In  In17  1  0.500000  0.793090  0.431462  1
  Cu  Cu18  1  0.500000  0.027314  0.302923  1
  Cu  Cu19  1  0.500000  0.972309  0.697523  1
  Pd  Pd20  1  0.500000  0.472377  0.803065  1
  Pt  Pt21  1  0.500000  0.528083  0.197157  1
