# generated using pymatgen
data_Pm5Sn7
_symmetry_space_group_name_H-M   'P 1'
_cell_length_a   6.46959048
_cell_length_b   6.45605061
_cell_length_c   9.81008350
_cell_angle_alpha   103.46078092
_cell_angle_beta   59.10662067
_cell_angle_gamma   98.12089373
_symmetry_Int_Tables_number   1
_chemical_formula_structural   Pm5Sn7
_chemical_formula_sum   'Pm5 Sn7'
_cell_volume   341.83924288
_cell_formula_units_Z   1
loop_
 _symmetry_equiv_pos_site_id
 _symmetry_equiv_pos_as_xyz
  1  'x, y, z'
loop_
 _atom_site_type_symbol
 _atom_site_label
 _atom_site_symmetry_multiplicity
 _atom_site_fract_x
 _atom_site_fract_y
 _atom_site_fract_z
 _atom_site_occupancy
  Pm  Pm0  1  0.718335  0.345698  0.155769  1
  Pm  Pm1  1  0.894685  0.271828  0.455660  1
  Pm  Pm2  1  0.269451  0.790510  0.153806  1
  Pm  Pm3  1  0.815562  0.950627  0.749190  1
  Pm  Pm4  1  0.280219  0.483031  0.748288  1
  Sn  Sn5  1  0.272714  0.264434  0.074147  1
  Sn  Sn6  1  0.273099  0.642613  0.450767  1
  Sn  Sn7  1  0.742176  0.726792  0.450037  1
  Sn  Sn8  1  0.353621  0.110182  0.449753  1
  Sn  Sn9  1  0.840891  0.829732  0.066896  1
  Sn  Sn10  1  0.712856  0.475912  0.842302  1
  Sn  Sn11  1  0.298285  0.991241  0.776383  1
