# generated using pymatgen
data_Cs4CdCl6
_symmetry_space_group_name_H-M   'P 1'
_cell_length_a   9.42141317
_cell_length_b   9.42141343
_cell_length_c   9.42141381
_cell_angle_alpha   88.88042905
_cell_angle_beta   88.88043186
_cell_angle_gamma   88.88042368
_symmetry_Int_Tables_number   1
_chemical_formula_structural   Cs4CdCl6
_chemical_formula_sum   'Cs8 Cd2 Cl12'
_cell_volume   835.80043009
_cell_formula_units_Z   2
loop_
 _symmetry_equiv_pos_site_id
 _symmetry_equiv_pos_as_xyz
  1  'x, y, z'
loop_
 _atom_site_type_symbol
 _atom_site_label
 _atom_site_symmetry_multiplicity
 _atom_site_fract_x
 _atom_site_fract_y
 _atom_site_fract_z
 _atom_site_occupancy
  Cs  Cs0  1  0.377294  0.750000  0.122706  1
  Cs  Cs1  1  0.250000  0.250000  0.250000  1
  Cs  Cs2  1  0.877294  0.622706  0.250001  1
  Cs  Cs3  1  0.750000  0.122706  0.377293  1
  Cs  Cs4  1  0.250000  0.877294  0.622707  1
  Cs  Cs5  1  0.122706  0.377294  0.750000  1
  Cs  Cs6  1  0.750000  0.750000  0.750000  1
  Cs  Cs7  1  0.622706  0.250000  0.877294  1
  Cd  Cd8  1  0.000000  0.000000  0.000000  1
  Cd  Cd9  1  0.500000  0.500000  0.500000  1
  Cl  Cl10  1  0.725531  0.931986  0.059426  1
  Cl  Cl11  1  0.940575  0.274469  0.068014  1
  Cl  Cl12  1  0.559426  0.431986  0.225532  1
  Cl  Cl13  1  0.068015  0.940574  0.274469  1
  Cl  Cl14  1  0.225532  0.559425  0.431986  1
  Cl  Cl15  1  0.568014  0.774468  0.440575  1
  Cl  Cl16  1  0.431986  0.225532  0.559425  1
  Cl  Cl17  1  0.774469  0.440575  0.568014  1
  Cl  Cl18  1  0.931986  0.059426  0.725531  1
  Cl  Cl19  1  0.440575  0.568014  0.774468  1
  Cl  Cl20  1  0.059426  0.725531  0.931986  1
  Cl  Cl21  1  0.274469  0.068014  0.940575  1
