# generated using pymatgen
data_Er2B2SbRh5
_symmetry_space_group_name_H-M   'P 1'
_cell_length_a   9.53140100
_cell_length_b   9.53140100
_cell_length_c   3.30294800
_cell_angle_alpha   90.00000000
_cell_angle_beta   90.00000000
_cell_angle_gamma   90.00000000
_symmetry_Int_Tables_number   1
_chemical_formula_structural   Er2B2SbRh5
_chemical_formula_sum   'Er4 B4 Sb2 Rh10'
_cell_volume   300.06491531
_cell_formula_units_Z   2
loop_
 _symmetry_equiv_pos_site_id
 _symmetry_equiv_pos_as_xyz
  1  'x, y, z'
loop_
 _atom_site_type_symbol
 _atom_site_label
 _atom_site_symmetry_multiplicity
 _atom_site_fract_x
 _atom_site_fract_y
 _atom_site_fract_z
 _atom_site_occupancy
  Er  Er0  1  0.825054  0.325054  0.000000  1
  Er  Er1  1  0.325054  0.174946  0.000000  1
  Er  Er2  1  0.674946  0.825054  0.000000  1
  Er  Er3  1  0.174946  0.674946  0.000000  1
  B  B4  1  0.619799  0.119799  0.000000  1
  B  B5  1  0.119799  0.380201  0.000000  1
  B  B6  1  0.880201  0.619799  0.000000  1
  B  B7  1  0.380201  0.880201  0.000000  1
  Sb  Sb8  1  0.000000  0.000000  0.000000  1
  Sb  Sb9  1  0.500000  0.500000  0.000000  1
  Rh  Rh10  1  0.071255  0.223902  0.500000  1
  Rh  Rh11  1  0.223902  0.928745  0.500000  1
  Rh  Rh12  1  0.776098  0.071255  0.500000  1
  Rh  Rh13  1  0.928745  0.776098  0.500000  1
  Rh  Rh14  1  0.428745  0.723902  0.500000  1
  Rh  Rh15  1  0.571255  0.276098  0.500000  1
  Rh  Rh16  1  0.723902  0.571255  0.500000  1
  Rh  Rh17  1  0.276098  0.428745  0.500000  1
  Rh  Rh18  1  0.500000  0.000000  0.500000  1
  Rh  Rh19  1  0.000000  0.500000  0.500000  1
