# generated using pymatgen
data_CaAc8Yb11Sn16
_symmetry_space_group_name_H-M   'P 1'
_cell_length_a   8.17003300
_cell_length_b   8.73192503
_cell_length_c   16.49732600
_cell_angle_alpha   90.00000000
_cell_angle_beta   90.00000000
_cell_angle_gamma   90.00448160
_symmetry_Int_Tables_number   1
_chemical_formula_structural   CaAc8Yb11Sn16
_chemical_formula_sum   'Ca1 Ac8 Yb11 Sn16'
_cell_volume   1176.92114069
_cell_formula_units_Z   1
loop_
 _symmetry_equiv_pos_site_id
 _symmetry_equiv_pos_as_xyz
  1  'x, y, z'
loop_
 _atom_site_type_symbol
 _atom_site_label
 _atom_site_symmetry_multiplicity
 _atom_site_fract_x
 _atom_site_fract_y
 _atom_site_fract_z
 _atom_site_occupancy
  Ca  Ca0  1  0.161471  0.504543  0.750000  1
  Ac  Ac1  1  0.494425  0.317397  0.904621  1
  Ac  Ac2  1  0.994284  0.182501  0.595305  1
  Ac  Ac3  1  0.505803  0.682698  0.404447  1
  Ac  Ac4  1  0.005728  0.817471  0.095617  1
  Ac  Ac5  1  0.505803  0.682698  0.095553  1
  Ac  Ac6  1  0.005728  0.817471  0.404383  1
  Ac  Ac7  1  0.494425  0.317397  0.595379  1
  Ac  Ac8  1  0.994284  0.182501  0.904695  1
  Yb  Yb9  1  0.330981  0.828736  0.876203  1
  Yb  Yb10  1  0.830508  0.671534  0.623716  1
  Yb  Yb11  1  0.669076  0.171379  0.376076  1
  Yb  Yb12  1  0.169071  0.328480  0.123963  1
  Yb  Yb13  1  0.669076  0.171379  0.123924  1
  Yb  Yb14  1  0.169071  0.328480  0.376037  1
  Yb  Yb15  1  0.330981  0.828736  0.623797  1
  Yb  Yb16  1  0.830508  0.671534  0.876284  1
  Yb  Yb17  1  0.661254  0.994516  0.750000  1
  Yb  Yb18  1  0.838694  0.494503  0.250000  1
  Yb  Yb19  1  0.338761  0.005454  0.250000  1
  Sn  Sn20  1  0.335797  0.037800  0.039410  1
  Sn  Sn21  1  0.835735  0.462239  0.460602  1
  Sn  Sn22  1  0.664045  0.962341  0.539270  1
  Sn  Sn23  1  0.164303  0.537936  0.961060  1
  Sn  Sn24  1  0.664045  0.962341  0.960730  1
  Sn  Sn25  1  0.164303  0.537936  0.538940  1
  Sn  Sn26  1  0.335797  0.037800  0.460590  1
  Sn  Sn27  1  0.835735  0.462239  0.039398  1
  Sn  Sn28  1  0.533941  0.609290  0.750000  1
  Sn  Sn29  1  0.032597  0.892073  0.750000  1
  Sn  Sn30  1  0.467055  0.391600  0.250000  1
  Sn  Sn31  1  0.967006  0.108321  0.250000  1
  Sn  Sn32  1  0.288103  0.132413  0.750000  1
  Sn  Sn33  1  0.786846  0.366381  0.750000  1
  Sn  Sn34  1  0.712320  0.866950  0.250000  1
  Sn  Sn35  1  0.212439  0.632927  0.250000  1
