# generated using pymatgen
data_Sc4USn3Ru8
_symmetry_space_group_name_H-M   'P 1'
_cell_length_a   6.43584838
_cell_length_b   6.53094900
_cell_length_c   6.43654127
_cell_angle_alpha   89.99969964
_cell_angle_beta   89.96389283
_cell_angle_gamma   89.99709185
_symmetry_Int_Tables_number   1
_chemical_formula_structural   Sc4USn3Ru8
_chemical_formula_sum   'Sc4 U1 Sn3 Ru8'
_cell_volume   270.54191999
_cell_formula_units_Z   1
loop_
 _symmetry_equiv_pos_site_id
 _symmetry_equiv_pos_as_xyz
  1  'x, y, z'
loop_
 _atom_site_type_symbol
 _atom_site_label
 _atom_site_symmetry_multiplicity
 _atom_site_fract_x
 _atom_site_fract_y
 _atom_site_fract_z
 _atom_site_occupancy
  Sc  Sc0  1  0.000004  0.249998  0.000017  1
  Sc  Sc1  1  0.999998  0.750005  0.000003  1
  Sc  Sc2  1  0.499997  0.750008  0.500003  1
  Sc  Sc3  1  0.500009  0.250017  0.499993  1
  U  U4  1  0.500013  0.249990  0.999997  1
  Sn  Sn5  1  0.499971  0.750001  0.000019  1
  Sn  Sn6  1  0.999974  0.250000  0.500023  1
  Sn  Sn7  1  0.000025  0.750019  0.499939  1
  Ru  Ru8  1  0.251988  0.494380  0.248025  1
  Ru  Ru9  1  0.251956  0.005565  0.248048  1
  Ru  Ru10  1  0.748058  0.494428  0.248046  1
  Ru  Ru11  1  0.748037  0.005581  0.248041  1
  Ru  Ru12  1  0.251957  0.494395  0.751954  1
  Ru  Ru13  1  0.251948  0.005583  0.751946  1
  Ru  Ru14  1  0.748048  0.494443  0.751963  1
  Ru  Ru15  1  0.748017  0.005595  0.751984  1
