# generated using pymatgen
data_Nb13V3Ni8C3N
_symmetry_space_group_name_H-M   'P 1'
_cell_length_a   8.15200912
_cell_length_b   8.18547499
_cell_length_c   8.18547500
_cell_angle_alpha   60.00000401
_cell_angle_beta   59.86411093
_cell_angle_gamma   59.86410896
_symmetry_Int_Tables_number   1
_chemical_formula_structural   Nb13V3Ni8C3N
_chemical_formula_sum   'Nb13 V3 Ni8 C3 N1'
_cell_volume   385.42719376
_cell_formula_units_Z   1
loop_
 _symmetry_equiv_pos_site_id
 _symmetry_equiv_pos_as_xyz
  1  'x, y, z'
loop_
 _atom_site_type_symbol
 _atom_site_label
 _atom_site_symmetry_multiplicity
 _atom_site_fract_x
 _atom_site_fract_y
 _atom_site_fract_z
 _atom_site_occupancy
  Nb  Nb0  1  0.436265  0.063907  0.063907  1
  Nb  Nb1  1  0.060107  0.437499  0.437499  1
  Nb  Nb2  1  0.060107  0.437499  0.064897  1
  Nb  Nb3  1  0.060107  0.064897  0.437499  1
  Nb  Nb4  1  0.436265  0.063907  0.435922  1
  Nb  Nb5  1  0.436265  0.435922  0.063907  1
  Nb  Nb6  1  0.189893  0.812501  0.185103  1
  Nb  Nb7  1  0.813735  0.186093  0.814078  1
  Nb  Nb8  1  0.813735  0.186093  0.186093  1
  Nb  Nb9  1  0.189893  0.185103  0.812501  1
  Nb  Nb10  1  0.189893  0.812501  0.812501  1
  Nb  Nb11  1  0.813735  0.814078  0.186093  1
  Nb  Nb12  1  0.125000  0.625000  0.625000  1
  V  V13  1  0.625000  0.625000  0.625000  1
  V  V14  1  0.625000  0.625000  0.125000  1
  V  V15  1  0.625000  0.125000  0.625000  1
  Ni  Ni16  1  0.816432  0.834075  0.834075  1
  Ni  Ni17  1  0.816432  0.834075  0.515418  1
  Ni  Ni18  1  0.518049  0.827317  0.827317  1
  Ni  Ni19  1  0.816432  0.515418  0.834075  1
  Ni  Ni20  1  0.433568  0.415925  0.415925  1
  Ni  Ni21  1  0.433568  0.415925  0.734582  1
  Ni  Ni22  1  0.433568  0.734582  0.415925  1
  Ni  Ni23  1  0.731951  0.422683  0.422683  1
  C  C24  1  0.125000  0.625000  0.125000  1
  C  C25  1  0.125000  0.125000  0.625000  1
  C  C26  1  0.125000  0.125000  0.125000  1
  N  N27  1  0.625000  0.125000  0.125000  1
