# generated using pymatgen
data_Y4ScP12Ir11Ru8
_symmetry_space_group_name_H-M   'P 1'
_cell_length_a   12.66275226
_cell_length_b   12.60329089
_cell_length_c   3.95077800
_cell_angle_alpha   90.00000000
_cell_angle_beta   90.00000000
_cell_angle_gamma   120.03836835
_symmetry_Int_Tables_number   1
_chemical_formula_structural   Y4ScP12Ir11Ru8
_chemical_formula_sum   'Y4 Sc1 P12 Ir11 Ru8'
_cell_volume   545.82985921
_cell_formula_units_Z   1
loop_
 _symmetry_equiv_pos_site_id
 _symmetry_equiv_pos_as_xyz
  1  'x, y, z'
loop_
 _atom_site_type_symbol
 _atom_site_label
 _atom_site_symmetry_multiplicity
 _atom_site_fract_x
 _atom_site_fract_y
 _atom_site_fract_z
 _atom_site_occupancy
  Y  Y0  1  0.333349  0.666777  0.000000  1
  Y  Y1  1  0.812678  0.999419  0.500000  1
  Y  Y2  1  0.998550  0.811914  0.500000  1
  Y  Y3  1  0.184428  0.186044  0.500000  1
  Sc  Sc4  1  0.669590  0.334713  0.000000  1
  P  P5  1  0.178510  0.998152  0.000000  1
  P  P6  1  0.998121  0.180678  0.000000  1
  P  P7  1  0.817795  0.817613  0.000000  1
  P  P8  1  0.172912  0.481107  0.500000  1
  P  P9  1  0.519070  0.691642  0.500000  1
  P  P10  1  0.308278  0.827880  0.500000  1
  P  P11  1  0.693021  0.516676  0.500000  1
  P  P12  1  0.826036  0.308496  0.500000  1
  P  P13  1  0.486207  0.173981  0.500000  1
  P  P14  1  0.637215  0.999704  0.000000  1
  P  P15  1  0.000306  0.637353  0.000000  1
  P  P16  1  0.360959  0.365424  0.000000  1
  Ir  Ir17  1  0.364147  0.491215  0.500000  1
  Ir  Ir18  1  0.506575  0.870963  0.500000  1
  Ir  Ir19  1  0.129562  0.636971  0.500000  1
  Ir  Ir20  1  0.868784  0.504622  0.500000  1
  Ir  Ir21  1  0.637979  0.132074  0.500000  1
  Ir  Ir22  1  0.497537  0.362049  0.500000  1
  Ir  Ir23  1  0.376972  0.184441  0.000000  1
  Ir  Ir24  1  0.289605  0.003509  0.500000  1
  Ir  Ir25  1  0.999095  0.287241  0.500000  1
  Ir  Ir26  1  0.712235  0.711173  0.500000  1
  Ir  Ir27  1  0.999306  0.999447  0.000000  1
  Ru  Ru28  1  0.454948  0.002897  0.000000  1
  Ru  Ru29  1  0.999984  0.453354  0.000000  1
  Ru  Ru30  1  0.547104  0.544402  0.000000  1
  Ru  Ru31  1  0.180699  0.378178  0.000000  1
  Ru  Ru32  1  0.621056  0.802444  0.000000  1
  Ru  Ru33  1  0.197512  0.820567  0.000000  1
  Ru  Ru34  1  0.802586  0.619483  0.000000  1
  Ru  Ru35  1  0.817286  0.197392  0.000000  1
