# generated using pymatgen
data_Sm3DySc2(Si3Ru)8
_symmetry_space_group_name_H-M   'P 1'
_cell_length_a   10.09214540
_cell_length_b   10.09214479
_cell_length_c   8.15127130
_cell_angle_alpha   90.09870499
_cell_angle_beta   89.90130239
_cell_angle_gamma   132.39042821
_symmetry_Int_Tables_number   1
_chemical_formula_structural   Sm3DySc2(Si3Ru)8
_chemical_formula_sum   'Sm3 Dy1 Sc2 Si24 Ru8'
_cell_volume   613.17158955
_cell_formula_units_Z   1
loop_
 _symmetry_equiv_pos_site_id
 _symmetry_equiv_pos_as_xyz
  1  'x, y, z'
loop_
 _atom_site_type_symbol
 _atom_site_label
 _atom_site_symmetry_multiplicity
 _atom_site_fract_x
 _atom_site_fract_y
 _atom_site_fract_z
 _atom_site_occupancy
  Sm  Sm0  1  0.502435  0.002435  0.750000  1
  Sm  Sm1  1  0.997586  0.497586  0.250000  1
  Sm  Sm2  1  0.497150  0.997150  0.250000  1
  Dy  Dy3  1  0.002227  0.502227  0.750000  1
  Sc  Sc4  1  0.499963  0.499943  0.500085  1
  Sc  Sc5  1  0.999943  0.999963  0.999915  1
  Si  Si6  1  0.795488  0.205862  0.501241  1
  Si  Si7  1  0.294053  0.704321  0.999007  1
  Si  Si8  1  0.204321  0.794053  0.500993  1
  Si  Si9  1  0.705862  0.295488  0.998759  1
  Si  Si10  1  0.331351  0.330942  0.832228  1
  Si  Si11  1  0.668758  0.668878  0.167935  1
  Si  Si12  1  0.168878  0.168758  0.332065  1
  Si  Si13  1  0.830942  0.831351  0.667772  1
  Si  Si14  1  0.119854  0.888700  0.729125  1
  Si  Si15  1  0.112362  0.880963  0.269865  1
  Si  Si16  1  0.610475  0.378724  0.229611  1
  Si  Si17  1  0.620143  0.388720  0.770261  1
  Si  Si18  1  0.878724  0.110475  0.270389  1
  Si  Si19  1  0.888720  0.120143  0.729739  1
  Si  Si20  1  0.388700  0.619854  0.770875  1
  Si  Si21  1  0.380963  0.612362  0.230135  1
  Si  Si22  1  0.346233  0.115060  0.504528  1
  Si  Si23  1  0.886029  0.656199  0.496881  1
  Si  Si24  1  0.384855  0.153762  0.004632  1
  Si  Si25  1  0.844246  0.614030  0.994767  1
  Si  Si26  1  0.653762  0.884855  0.495368  1
  Si  Si27  1  0.114030  0.344246  0.505233  1
  Si  Si28  1  0.615060  0.846233  0.995472  1
  Si  Si29  1  0.156199  0.386029  0.003119  1
  Ru  Ru30  1  0.669377  0.335549  0.500337  1
  Ru  Ru31  1  0.164676  0.830700  0.998338  1
  Ru  Ru32  1  0.330700  0.664676  0.501662  1
  Ru  Ru33  1  0.835549  0.169377  0.999663  1
  Ru  Ru34  1  0.126254  0.126078  0.627053  1
  Ru  Ru35  1  0.873919  0.874136  0.372716  1
  Ru  Ru36  1  0.374136  0.373919  0.127284  1
  Ru  Ru37  1  0.626078  0.626254  0.872947  1
