# generated using pymatgen
data_La5CeNpO12
_symmetry_space_group_name_H-M   'P 1'
_cell_length_a   6.87870537
_cell_length_b   6.90868449
_cell_length_c   6.84892600
_cell_angle_alpha   99.30210253
_cell_angle_beta   98.48424799
_cell_angle_gamma   98.63659170
_symmetry_Int_Tables_number   1
_chemical_formula_structural   La5CeNpO12
_chemical_formula_sum   'La5 Ce1 Np1 O12'
_cell_volume   312.59533204
_cell_formula_units_Z   1
loop_
 _symmetry_equiv_pos_site_id
 _symmetry_equiv_pos_as_xyz
  1  'x, y, z'
loop_
 _atom_site_type_symbol
 _atom_site_label
 _atom_site_symmetry_multiplicity
 _atom_site_fract_x
 _atom_site_fract_y
 _atom_site_fract_z
 _atom_site_occupancy
  La  La0  1  0.602822  0.141972  0.304868  1
  La  La1  1  0.395554  0.858976  0.692835  1
  La  La2  1  0.693643  0.395176  0.858913  1
  La  La3  1  0.856220  0.692933  0.391812  1
  La  La4  1  0.142181  0.306716  0.607519  1
  Ce  Ce5  1  0.307389  0.603895  0.141628  1
  Np  Np6  1  0.003240  0.999366  0.002394  1
  O  O7  1  0.439277  0.179176  0.595252  1
  O  O8  1  0.934546  0.696948  0.047424  1
  O  O9  1  0.184357  0.588526  0.423903  1
  O  O10  1  0.824620  0.412621  0.561683  1
  O  O11  1  0.555353  0.818893  0.395897  1
  O  O12  1  0.574970  0.439072  0.177353  1
  O  O13  1  0.401992  0.568045  0.834786  1
  O  O14  1  0.953289  0.064615  0.301273  1
  O  O15  1  0.048549  0.934095  0.699652  1
  O  O16  1  0.703107  0.048306  0.931700  1
  O  O17  1  0.078058  0.305340  0.963008  1
  O  O18  1  0.300831  0.945328  0.068100  1
