# generated using pymatgen
data_Nd6MgCd22P
_symmetry_space_group_name_H-M   'P 1'
_cell_length_a   10.04854864
_cell_length_b   10.04854873
_cell_length_c   10.04854700
_cell_angle_alpha   59.99999583
_cell_angle_beta   59.99999552
_cell_angle_gamma   59.99999163
_symmetry_Int_Tables_number   1
_chemical_formula_structural   Nd6MgCd22P
_chemical_formula_sum   'Nd6 Mg1 Cd22 P1'
_cell_volume   717.45538008
_cell_formula_units_Z   1
loop_
 _symmetry_equiv_pos_site_id
 _symmetry_equiv_pos_as_xyz
  1  'x, y, z'
loop_
 _atom_site_type_symbol
 _atom_site_label
 _atom_site_symmetry_multiplicity
 _atom_site_fract_x
 _atom_site_fract_y
 _atom_site_fract_z
 _atom_site_occupancy
  Nd  Nd0  1  0.797304  0.797304  0.202696  1
  Nd  Nd1  1  0.202696  0.797304  0.202696  1
  Nd  Nd2  1  0.797304  0.202696  0.202696  1
  Nd  Nd3  1  0.202696  0.202696  0.797304  1
  Nd  Nd4  1  0.797304  0.202696  0.797304  1
  Nd  Nd5  1  0.202696  0.797304  0.797304  1
  Mg  Mg6  1  0.500000  0.500000  0.500000  1
  Cd  Cd7  1  0.833146  0.833146  0.500560  1
  Cd  Cd8  1  0.833146  0.500560  0.833146  1
  Cd  Cd9  1  0.500560  0.833146  0.833146  1
  Cd  Cd10  1  0.833146  0.833146  0.833146  1
  Cd  Cd11  1  0.166854  0.166854  0.499440  1
  Cd  Cd12  1  0.166854  0.499440  0.166854  1
  Cd  Cd13  1  0.499440  0.166854  0.166854  1
  Cd  Cd14  1  0.166854  0.166854  0.166854  1
  Cd  Cd15  1  0.620675  0.620675  0.137975  1
  Cd  Cd16  1  0.620675  0.137975  0.620675  1
  Cd  Cd17  1  0.137975  0.620675  0.620675  1
  Cd  Cd18  1  0.620675  0.620675  0.620675  1
  Cd  Cd19  1  0.379325  0.379325  0.862025  1
  Cd  Cd20  1  0.379325  0.862025  0.379325  1
  Cd  Cd21  1  0.862025  0.379325  0.379325  1
  Cd  Cd22  1  0.379325  0.379325  0.379325  1
  Cd  Cd23  1  0.000000  0.000000  0.500000  1
  Cd  Cd24  1  0.500000  0.000000  0.500000  1
  Cd  Cd25  1  0.000000  0.500000  0.500000  1
  Cd  Cd26  1  0.500000  0.500000  0.000000  1
  Cd  Cd27  1  0.000000  0.500000  0.000000  1
  Cd  Cd28  1  0.500000  0.000000  0.000000  1
  P  P29  1  0.000000  0.000000  0.000000  1
