# generated using pymatgen
data_NaAl2InSe5
_symmetry_space_group_name_H-M   'P 1'
_cell_length_a   9.94862820
_cell_length_b   10.03822267
_cell_length_c   9.96852450
_cell_angle_alpha   91.50906666
_cell_angle_beta   91.05010851
_cell_angle_gamma   91.36814317
_symmetry_Int_Tables_number   1
_chemical_formula_structural   NaAl2InSe5
_chemical_formula_sum   'Na4 Al8 In4 Se20'
_cell_volume   994.71413780
_cell_formula_units_Z   4
loop_
 _symmetry_equiv_pos_site_id
 _symmetry_equiv_pos_as_xyz
  1  'x, y, z'
loop_
 _atom_site_type_symbol
 _atom_site_label
 _atom_site_symmetry_multiplicity
 _atom_site_fract_x
 _atom_site_fract_y
 _atom_site_fract_z
 _atom_site_occupancy
  Na  Na0  1  0.255553  0.001597  0.741966  1
  Na  Na1  1  0.739568  0.255873  0.999559  1
  Na  Na2  1  0.000990  0.744494  0.256511  1
  Na  Na3  1  0.498865  0.498486  0.498156  1
  Al  Al4  1  0.123684  0.159723  0.427866  1
  Al  Al5  1  0.429393  0.119905  0.167214  1
  Al  Al6  1  0.740983  0.159975  0.348016  1
  Al  Al7  1  0.349866  0.743540  0.164655  1
  Al  Al8  1  0.163523  0.349925  0.737574  1
  Al  Al9  1  0.259502  0.648203  0.832208  1
  Al  Al10  1  0.835711  0.257248  0.647962  1
  Al  Al11  1  0.650979  0.834276  0.256544  1
  In  In12  1  0.845237  0.881471  0.571134  1
  In  In13  1  0.570268  0.847750  0.880989  1
  In  In14  1  0.876299  0.572601  0.844907  1
  In  In15  1  0.161535  0.425333  0.126110  1
  Se  Se16  1  0.188206  0.805857  0.998885  1
  Se  Se17  1  0.812181  0.997184  0.186971  1
  Se  Se18  1  0.185460  0.167303  0.186732  1
  Se  Se19  1  0.833874  0.835064  0.833633  1
  Se  Se20  1  0.998389  0.192179  0.811678  1
  Se  Se21  1  0.912037  0.496358  0.091264  1
  Se  Se22  1  0.090036  0.930613  0.490577  1
  Se  Se23  1  0.487109  0.088936  0.933760  1
  Se  Se24  1  0.742367  0.689324  0.417712  1
  Se  Se25  1  0.418674  0.745693  0.686448  1
  Se  Se26  1  0.687226  0.417477  0.737390  1
  Se  Se27  1  0.259530  0.586953  0.315420  1
  Se  Se28  1  0.301166  0.255524  0.569321  1
  Se  Se29  1  0.572824  0.298860  0.257355  1
  Se  Se30  1  0.674408  0.081411  0.569651  1
  Se  Se31  1  0.569110  0.675427  0.079875  1
  Se  Se32  1  0.079705  0.569039  0.674787  1
  Se  Se33  1  0.323837  0.428852  0.915368  1
  Se  Se34  1  0.929893  0.309164  0.426461  1
  Se  Se35  1  0.432011  0.928378  0.315342  1
