# generated using pymatgen
data_Sm10C4I15
_symmetry_space_group_name_H-M   'P 1'
_cell_length_a   9.69428132
_cell_length_b   10.53166927
_cell_length_c   11.68284818
_cell_angle_alpha   93.64222089
_cell_angle_beta   114.26741595
_cell_angle_gamma   109.49182862
_symmetry_Int_Tables_number   1
_chemical_formula_structural   Sm10C4I15
_chemical_formula_sum   'Sm10 C4 I15'
_cell_volume   996.73149057
_cell_formula_units_Z   1
loop_
 _symmetry_equiv_pos_site_id
 _symmetry_equiv_pos_as_xyz
  1  'x, y, z'
loop_
 _atom_site_type_symbol
 _atom_site_label
 _atom_site_symmetry_multiplicity
 _atom_site_fract_x
 _atom_site_fract_y
 _atom_site_fract_z
 _atom_site_occupancy
  Sm  Sm0  1  0.594866  0.540590  0.339488  1
  Sm  Sm1  1  0.345502  0.741673  0.161398  1
  Sm  Sm2  1  0.770732  0.879380  0.253191  1
  Sm  Sm3  1  0.527855  0.185783  0.101410  1
  Sm  Sm4  1  0.229268  0.120620  0.746809  1
  Sm  Sm5  1  0.405134  0.459410  0.660512  1
  Sm  Sm6  1  0.472145  0.814217  0.898590  1
  Sm  Sm7  1  0.701351  0.567238  0.044064  1
  Sm  Sm8  1  0.298649  0.432762  0.955936  1
  Sm  Sm9  1  0.654498  0.258327  0.838602  1
  C  C10  1  0.483930  0.302464  0.941123  1
  C  C11  1  0.516070  0.697536  0.058877  1
  C  C12  1  0.454540  0.365996  0.835728  1
  C  C13  1  0.545460  0.634004  0.164272  1
  I  I14  1  0.208919  0.905560  0.937747  1
  I  I15  1  0.106860  0.189160  0.471775  1
  I  I16  1  0.154788  0.556516  0.703566  1
  I  I17  1  0.409586  0.972952  0.652407  1
  I  I18  1  0.712922  0.735912  0.821876  1
  I  I19  1  0.287078  0.264088  0.178124  1
  I  I20  1  0.845212  0.443484  0.296434  1
  I  I21  1  0.893140  0.810840  0.528225  1
  I  I22  1  0.359538  0.630326  0.411256  1
  I  I23  1  0.048223  0.832085  0.218774  1
  I  I24  1  0.791081  0.094440  0.062253  1
  I  I25  1  0.640462  0.369674  0.588744  1
  I  I26  1  0.951777  0.167915  0.781226  1
  I  I27  1  0.590414  0.027048  0.347593  1
  I  I28  1  0.000000  0.500000  0.000000  1
