# generated using pymatgen
data_Yb2MgPt3
_symmetry_space_group_name_H-M   'P 1'
_cell_length_a   5.64054006
_cell_length_b   5.64054041
_cell_length_c   5.26471747
_cell_angle_alpha   57.60910367
_cell_angle_beta   57.60910900
_cell_angle_gamma   59.99999890
_symmetry_Int_Tables_number   1
_chemical_formula_structural   Yb2MgPt3
_chemical_formula_sum   'Yb2 Mg1 Pt3'
_cell_volume   113.97842450
_cell_formula_units_Z   1
loop_
 _symmetry_equiv_pos_site_id
 _symmetry_equiv_pos_as_xyz
  1  'x, y, z'
loop_
 _atom_site_type_symbol
 _atom_site_label
 _atom_site_symmetry_multiplicity
 _atom_site_fract_x
 _atom_site_fract_y
 _atom_site_fract_z
 _atom_site_occupancy
  Yb  Yb0  1  0.748582  0.748582  0.754253  1
  Yb  Yb1  1  0.501418  0.501418  0.495747  1
  Mg  Mg2  1  0.125000  0.125000  0.625000  1
  Pt  Pt3  1  0.125000  0.625000  0.125000  1
  Pt  Pt4  1  0.625000  0.125000  0.125000  1
  Pt  Pt5  1  0.125000  0.125000  0.125000  1
