# generated using pymatgen
data_Pr4GaI5
_symmetry_space_group_name_H-M   'P 1'
_cell_length_a   4.37824800
_cell_length_b   9.16437800
_cell_length_c   19.35977500
_cell_angle_alpha   90.00000000
_cell_angle_beta   90.00000000
_cell_angle_gamma   90.00000000
_symmetry_Int_Tables_number   1
_chemical_formula_structural   Pr4GaI5
_chemical_formula_sum   'Pr8 Ga2 I10'
_cell_volume   776.79005654
_cell_formula_units_Z   2
loop_
 _symmetry_equiv_pos_site_id
 _symmetry_equiv_pos_as_xyz
  1  'x, y, z'
loop_
 _atom_site_type_symbol
 _atom_site_label
 _atom_site_symmetry_multiplicity
 _atom_site_fract_x
 _atom_site_fract_y
 _atom_site_fract_z
 _atom_site_occupancy
  Pr  Pr0  1  0.000000  0.370947  0.850415  1
  Pr  Pr1  1  0.500000  0.592237  0.000000  1
  Pr  Pr2  1  0.000000  0.370947  0.149585  1
  Pr  Pr3  1  0.000000  0.846495  0.500000  1
  Pr  Pr4  1  0.500000  0.629053  0.350415  1
  Pr  Pr5  1  0.000000  0.407763  0.500000  1
  Pr  Pr6  1  0.500000  0.629053  0.649585  1
  Pr  Pr7  1  0.500000  0.153505  0.000000  1
  Ga  Ga8  1  0.500000  0.626327  0.500000  1
  Ga  Ga9  1  0.000000  0.373673  0.000000  1
  I  I10  1  0.500000  0.116556  0.167967  1
  I  I11  1  0.000000  0.368988  0.670444  1
  I  I12  1  0.000000  0.871454  0.000000  1
  I  I13  1  0.000000  0.883444  0.332033  1
  I  I14  1  0.500000  0.116556  0.832033  1
  I  I15  1  0.500000  0.631012  0.829556  1
  I  I16  1  0.000000  0.883444  0.667967  1
  I  I17  1  0.000000  0.368988  0.329556  1
  I  I18  1  0.500000  0.631012  0.170444  1
  I  I19  1  0.500000  0.128546  0.500000  1
