# generated using pymatgen
data_Ti5NbS8
_symmetry_space_group_name_H-M   'P 1'
_cell_length_a   9.53100777
_cell_length_b   9.52123812
_cell_length_c   3.39751100
_cell_angle_alpha   90.00000000
_cell_angle_beta   90.00000000
_cell_angle_gamma   119.55111894
_symmetry_Int_Tables_number   1
_chemical_formula_structural   Ti5NbS8
_chemical_formula_sum   'Ti5 Nb1 S8'
_cell_volume   268.20720879
_cell_formula_units_Z   1
loop_
 _symmetry_equiv_pos_site_id
 _symmetry_equiv_pos_as_xyz
  1  'x, y, z'
loop_
 _atom_site_type_symbol
 _atom_site_label
 _atom_site_symmetry_multiplicity
 _atom_site_fract_x
 _atom_site_fract_y
 _atom_site_fract_z
 _atom_site_occupancy
  Ti  Ti0  1  0.487537  0.127001  0.250001  1
  Ti  Ti1  1  0.868814  0.356243  0.250001  1
  Ti  Ti2  1  0.645663  0.510822  0.250001  1
  Ti  Ti3  1  0.355087  0.487681  0.750000  1
  Ti  Ti4  1  0.132150  0.646323  0.750000  1
  Nb  Nb5  1  0.511412  0.869922  0.750000  1
  S  S6  1  0.700619  0.055688  0.250001  1
  S  S7  1  0.360399  0.308278  0.250001  1
  S  S8  1  0.948408  0.642598  0.250001  1
  S  S9  1  0.327325  0.661716  0.250001  1
  S  S10  1  0.666627  0.331320  0.750000  1
  S  S11  1  0.051671  0.359371  0.750000  1
  S  S12  1  0.642990  0.690369  0.750000  1
  S  S13  1  0.301299  0.952669  0.750000  1
