# generated using pymatgen
data_PuAsO5
_symmetry_space_group_name_H-M   'P 1'
_cell_length_a   5.82594800
_cell_length_b   12.43043300
_cell_length_c   7.26698700
_cell_angle_alpha   90.00000000
_cell_angle_beta   90.00000000
_cell_angle_gamma   90.00000000
_symmetry_Int_Tables_number   1
_chemical_formula_structural   PuAsO5
_chemical_formula_sum   'Pu4 As4 O20'
_cell_volume   526.26834051
_cell_formula_units_Z   4
loop_
 _symmetry_equiv_pos_site_id
 _symmetry_equiv_pos_as_xyz
  1  'x, y, z'
loop_
 _atom_site_type_symbol
 _atom_site_label
 _atom_site_symmetry_multiplicity
 _atom_site_fract_x
 _atom_site_fract_y
 _atom_site_fract_z
 _atom_site_occupancy
  Pu  Pu0  1  0.750000  0.939531  0.830306  1
  Pu  Pu1  1  0.250000  0.060469  0.169694  1
  Pu  Pu2  1  0.250000  0.560469  0.330306  1
  Pu  Pu3  1  0.750000  0.439531  0.669694  1
  As  As4  1  0.750000  0.157367  0.473001  1
  As  As5  1  0.250000  0.842633  0.526999  1
  As  As6  1  0.250000  0.342633  0.973001  1
  As  As7  1  0.750000  0.657367  0.026999  1
  O  O8  1  0.750000  0.793450  0.999710  1
  O  O9  1  0.250000  0.206550  0.000290  1
  O  O10  1  0.250000  0.706550  0.499710  1
  O  O11  1  0.750000  0.293450  0.500290  1
  O  O12  1  0.493394  0.877101  0.647884  1
  O  O13  1  0.506606  0.122899  0.352116  1
  O  O14  1  0.506606  0.622899  0.147884  1
  O  O15  1  0.993394  0.122899  0.352116  1
  O  O16  1  0.493394  0.377101  0.852116  1
  O  O17  1  0.006606  0.877101  0.647884  1
  O  O18  1  0.006606  0.377101  0.852116  1
  O  O19  1  0.993394  0.622899  0.147884  1
  O  O20  1  0.750000  0.593880  0.818411  1
  O  O21  1  0.250000  0.406120  0.181589  1
  O  O22  1  0.250000  0.906120  0.318411  1
  O  O23  1  0.750000  0.093880  0.681589  1
  O  O24  1  0.000000  0.000000  0.000000  1
  O  O25  1  0.000000  0.500000  0.500000  1
  O  O26  1  0.500000  0.000000  0.000000  1
  O  O27  1  0.500000  0.500000  0.500000  1
