# generated using pymatgen
data_Ta4Co2RhS12
_symmetry_space_group_name_H-M   'P 1'
_cell_length_a   6.92388662
_cell_length_b   6.92388602
_cell_length_c   18.69462691
_cell_angle_alpha   69.77924041
_cell_angle_beta   69.77924259
_cell_angle_gamma   27.29776322
_symmetry_Int_Tables_number   1
_chemical_formula_structural   Ta4Co2RhS12
_chemical_formula_sum   'Ta4 Co2 Rh1 S12'
_cell_volume   384.14370051
_cell_formula_units_Z   1
loop_
 _symmetry_equiv_pos_site_id
 _symmetry_equiv_pos_as_xyz
  1  'x, y, z'
loop_
 _atom_site_type_symbol
 _atom_site_label
 _atom_site_symmetry_multiplicity
 _atom_site_fract_x
 _atom_site_fract_y
 _atom_site_fract_z
 _atom_site_occupancy
  Ta  Ta0  1  0.622989  0.622989  0.850132  1
  Ta  Ta1  1  0.377011  0.377011  0.149868  1
  Ta  Ta2  1  0.744965  0.744965  0.589845  1
  Ta  Ta3  1  0.255035  0.255035  0.410155  1
  Co  Co4  1  0.231817  0.231817  0.717162  1
  Co  Co5  1  0.768183  0.768183  0.282838  1
  Rh  Rh6  1  0.000000  0.000000  0.000000  1
  S  S7  1  0.974404  0.974404  0.882529  1
  S  S8  1  0.025596  0.025596  0.117471  1
  S  S9  1  0.630577  0.630577  0.394328  1
  S  S10  1  0.369423  0.369423  0.605672  1
  S  S11  1  0.135317  0.135317  0.550092  1
  S  S12  1  0.864683  0.864683  0.449908  1
  S  S13  1  0.804951  0.804951  0.764531  1
  S  S14  1  0.195049  0.195049  0.235469  1
  S  S15  1  0.182456  0.182456  0.926465  1
  S  S16  1  0.817544  0.817544  0.073535  1
  S  S17  1  0.612047  0.612047  0.718805  1
  S  S18  1  0.387953  0.387953  0.281195  1
