# generated using pymatgen
data_Yb4Y3Er3Ru4
_symmetry_space_group_name_H-M   'P 1'
_cell_length_a   6.39575235
_cell_length_b   7.24062065
_cell_length_c   8.49361924
_cell_angle_alpha   97.11106281
_cell_angle_beta   111.94114766
_cell_angle_gamma   89.90301094
_symmetry_Int_Tables_number   1
_chemical_formula_structural   Yb4Y3Er3Ru4
_chemical_formula_sum   'Yb4 Y3 Er3 Ru4'
_cell_volume   361.61211084
_cell_formula_units_Z   1
loop_
 _symmetry_equiv_pos_site_id
 _symmetry_equiv_pos_as_xyz
  1  'x, y, z'
loop_
 _atom_site_type_symbol
 _atom_site_label
 _atom_site_symmetry_multiplicity
 _atom_site_fract_x
 _atom_site_fract_y
 _atom_site_fract_z
 _atom_site_occupancy
  Yb  Yb0  1  0.795326  0.581469  0.817945  1
  Yb  Yb1  1  0.978078  0.918014  0.182410  1
  Yb  Yb2  1  0.204106  0.417573  0.182570  1
  Yb  Yb3  1  0.022511  0.082343  0.817912  1
  Y  Y4  1  0.204825  0.682508  0.567447  1
  Y  Y5  1  0.636281  0.817827  0.432996  1
  Y  Y6  1  0.796456  0.317191  0.432571  1
  Er  Er7  1  0.363495  0.181986  0.567912  1
  Er  Er8  1  0.429397  0.750808  0.000430  1
  Er  Er9  1  0.570279  0.249111  0.999358  1
  Ru  Ru10  1  0.590193  0.928241  0.773727  1
  Ru  Ru11  1  0.815528  0.573878  0.223666  1
  Ru  Ru12  1  0.407274  0.074325  0.226958  1
  Ru  Ru13  1  0.186251  0.424725  0.774099  1
