# generated using pymatgen
data_Pr4Ga9Si(Pt2Rh)2
_symmetry_space_group_name_H-M   'P 1'
_cell_length_a   8.62939164
_cell_length_b   8.69406153
_cell_length_c   8.69406097
_cell_angle_alpha   140.04040402
_cell_angle_beta   107.24925542
_cell_angle_gamma   86.48689083
_symmetry_Int_Tables_number   1
_chemical_formula_structural   Pr4Ga9Si(Pt2Rh)2
_chemical_formula_sum   'Pr4 Ga9 Si1 Pt4 Rh2'
_cell_volume   385.14281687
_cell_formula_units_Z   1
loop_
 _symmetry_equiv_pos_site_id
 _symmetry_equiv_pos_as_xyz
  1  'x, y, z'
loop_
 _atom_site_type_symbol
 _atom_site_label
 _atom_site_symmetry_multiplicity
 _atom_site_fract_x
 _atom_site_fract_y
 _atom_site_fract_z
 _atom_site_occupancy
  Pr  Pr0  1  0.862726  0.635294  0.227432  1
  Pr  Pr1  1  0.139865  0.368099  0.771765  1
  Pr  Pr2  1  0.401573  0.132590  0.268984  1
  Pr  Pr3  1  0.589738  0.864303  0.725435  1
  Ga  Ga4  1  0.502805  0.751951  0.249625  1
  Ga  Ga5  1  0.502805  0.253180  0.750855  1
  Ga  Ga6  1  0.216128  0.961119  0.748225  1
  Ga  Ga7  1  0.781176  0.535918  0.749877  1
  Ga  Ga8  1  0.781176  0.031300  0.245258  1
  Ga  Ga9  1  0.216128  0.467903  0.255009  1
  Ga  Ga10  1  0.056164  0.898534  0.157630  1
  Ga  Ga11  1  0.940181  0.094127  0.846053  1
  Ga  Ga12  1  0.748219  0.403405  0.344813  1
  Si  Si13  1  0.249350  0.597158  0.652192  1
  Pt  Pt14  1  0.254982  0.858060  0.396922  1
  Pt  Pt15  1  0.753344  0.144729  0.608614  1
  Pt  Pt16  1  0.462309  0.358033  0.104277  1
  Pt  Pt17  1  0.521139  0.640221  0.880918  1
  Rh  Rh18  1  0.010095  0.748821  0.754841  1
  Rh  Rh19  1  0.010095  0.255254  0.261274  1
