# generated using pymatgen
data_MgTa3(NbN2)6
_symmetry_space_group_name_H-M   'P 1'
_cell_length_a   5.26256100
_cell_length_b   5.26256030
_cell_length_c   10.36884600
_cell_angle_alpha   90.00000000
_cell_angle_beta   90.00000000
_cell_angle_gamma   119.99999809
_symmetry_Int_Tables_number   1
_chemical_formula_structural   MgTa3(NbN2)6
_chemical_formula_sum   'Mg1 Ta3 Nb6 N12'
_cell_volume   248.68826518
_cell_formula_units_Z   1
loop_
 _symmetry_equiv_pos_site_id
 _symmetry_equiv_pos_as_xyz
  1  'x, y, z'
loop_
 _atom_site_type_symbol
 _atom_site_label
 _atom_site_symmetry_multiplicity
 _atom_site_fract_x
 _atom_site_fract_y
 _atom_site_fract_z
 _atom_site_occupancy
  Mg  Mg0  1  0.666667  0.333333  0.000000  1
  Ta  Ta1  1  0.333333  0.666667  0.000000  1
  Ta  Ta2  1  0.333333  0.666667  0.500000  1
  Ta  Ta3  1  0.666667  0.333333  0.500000  1
  Nb  Nb4  1  0.679771  0.676549  0.749835  1
  Nb  Nb5  1  0.323451  0.003222  0.749835  1
  Nb  Nb6  1  0.996778  0.320229  0.749835  1
  Nb  Nb7  1  0.323451  0.320229  0.250165  1
  Nb  Nb8  1  0.679771  0.003222  0.250165  1
  Nb  Nb9  1  0.996778  0.676549  0.250165  1
  N  N10  1  0.658107  0.658632  0.381421  1
  N  N11  1  0.341368  0.999475  0.381421  1
  N  N12  1  0.000525  0.341893  0.381421  1
  N  N13  1  0.341368  0.341893  0.618579  1
  N  N14  1  0.658107  0.999475  0.618579  1
  N  N15  1  0.000525  0.658632  0.618579  1
  N  N16  1  0.343662  0.351561  0.875578  1
  N  N17  1  0.648439  0.992101  0.875578  1
  N  N18  1  0.007899  0.656338  0.875578  1
  N  N19  1  0.648439  0.656338  0.124422  1
  N  N20  1  0.343662  0.992101  0.124422  1
  N  N21  1  0.007899  0.351561  0.124422  1
