# generated using pymatgen
data_TbAlCdPt3
_symmetry_space_group_name_H-M   'P 1'
_cell_length_a   5.19332319
_cell_length_b   5.19332289
_cell_length_c   5.19332280
_cell_angle_alpha   64.38424858
_cell_angle_beta   64.38424830
_cell_angle_gamma   64.38423547
_symmetry_Int_Tables_number   1
_chemical_formula_structural   TbAlCdPt3
_chemical_formula_sum   'Tb1 Al1 Cd1 Pt3'
_cell_volume   108.57498545
_cell_formula_units_Z   1
loop_
 _symmetry_equiv_pos_site_id
 _symmetry_equiv_pos_as_xyz
  1  'x, y, z'
loop_
 _atom_site_type_symbol
 _atom_site_label
 _atom_site_symmetry_multiplicity
 _atom_site_fract_x
 _atom_site_fract_y
 _atom_site_fract_z
 _atom_site_occupancy
  Tb  Tb0  1  0.246613  0.246613  0.246613  1
  Al  Al1  1  0.627137  0.627137  0.627137  1
  Cd  Cd2  1  0.996541  0.996541  0.996541  1
  Pt  Pt3  1  0.627243  0.627243  0.125227  1
  Pt  Pt4  1  0.627243  0.125227  0.627243  1
  Pt  Pt5  1  0.125227  0.627243  0.627243  1
