# generated using pymatgen
data_NaV(S2O7)2
_symmetry_space_group_name_H-M   'P 1'
_cell_length_a   4.88689782
_cell_length_b   7.32166756
_cell_length_c   8.62583556
_cell_angle_alpha   91.24959233
_cell_angle_beta   92.92592653
_cell_angle_gamma   103.77809274
_symmetry_Int_Tables_number   1
_chemical_formula_structural   NaV(S2O7)2
_chemical_formula_sum   'Na1 V1 S4 O14'
_cell_volume   299.17928642
_cell_formula_units_Z   1
loop_
 _symmetry_equiv_pos_site_id
 _symmetry_equiv_pos_as_xyz
  1  'x, y, z'
loop_
 _atom_site_type_symbol
 _atom_site_label
 _atom_site_symmetry_multiplicity
 _atom_site_fract_x
 _atom_site_fract_y
 _atom_site_fract_z
 _atom_site_occupancy
  Na  Na0  1  0.500000  0.000000  0.500000  1
  V  V1  1  0.000000  0.500000  0.000000  1
  S  S2  1  0.491338  0.636003  0.772369  1
  S  S3  1  0.508662  0.363997  0.227631  1
  S  S4  1  0.139299  0.258805  0.702750  1
  S  S5  1  0.860701  0.741195  0.297250  1
  O  O6  1  0.684207  0.540701  0.855620  1
  O  O7  1  0.315793  0.459299  0.144380  1
  O  O8  1  0.286972  0.684822  0.877406  1
  O  O9  1  0.713028  0.315178  0.122594  1
  O  O10  1  0.623597  0.787258  0.679379  1
  O  O11  1  0.376403  0.212742  0.320621  1
  O  O12  1  0.308919  0.478297  0.650329  1
  O  O13  1  0.691081  0.521703  0.349671  1
  O  O14  1  0.919562  0.213979  0.582038  1
  O  O15  1  0.080438  0.786021  0.417962  1
  O  O16  1  0.347107  0.149612  0.711291  1
  O  O17  1  0.652893  0.850388  0.288709  1
  O  O18  1  0.039795  0.289181  0.859908  1
  O  O19  1  0.960205  0.710819  0.140092  1
