# generated using pymatgen
data_La2Pr5Y(MoO6)4
_symmetry_space_group_name_H-M   'P 1'
_cell_length_a   10.29408879
_cell_length_b   10.29408903
_cell_length_c   5.60440680
_cell_angle_alpha   75.20752523
_cell_angle_beta   75.20752548
_cell_angle_gamma   68.74163326
_symmetry_Int_Tables_number   1
_chemical_formula_structural   La2Pr5Y(MoO6)4
_chemical_formula_sum   'La2 Pr5 Y1 Mo4 O24'
_cell_volume   526.33313380
_cell_formula_units_Z   1
loop_
 _symmetry_equiv_pos_site_id
 _symmetry_equiv_pos_as_xyz
  1  'x, y, z'
loop_
 _atom_site_type_symbol
 _atom_site_label
 _atom_site_symmetry_multiplicity
 _atom_site_fract_x
 _atom_site_fract_y
 _atom_site_fract_z
 _atom_site_occupancy
  La  La0  1  0.634681  0.365319  0.750000  1
  La  La1  1  0.362077  0.637923  0.250000  1
  Pr  Pr2  1  0.891627  0.108373  0.250000  1
  Pr  Pr3  1  0.712751  0.942367  0.883245  1
  Pr  Pr4  1  0.287421  0.052896  0.120984  1
  Pr  Pr5  1  0.057633  0.287249  0.616755  1
  Pr  Pr6  1  0.947104  0.712579  0.379016  1
  Y  Y7  1  0.102515  0.897485  0.750000  1
  Mo  Mo8  1  0.506082  0.799348  0.563916  1
  Mo  Mo9  1  0.492059  0.200858  0.441358  1
  Mo  Mo10  1  0.200652  0.493918  0.936084  1
  Mo  Mo11  1  0.799142  0.507941  0.058642  1
  O  O12  1  0.686444  0.162129  0.584594  1
  O  O13  1  0.306286  0.837986  0.437497  1
  O  O14  1  0.837871  0.313556  0.915406  1
  O  O15  1  0.162014  0.693714  0.062503  1
  O  O16  1  0.388530  0.829803  0.868578  1
  O  O17  1  0.615889  0.168106  0.142951  1
  O  O18  1  0.170197  0.611470  0.631422  1
  O  O19  1  0.831894  0.384111  0.357049  1
  O  O20  1  0.674838  0.790487  0.632296  1
  O  O21  1  0.325763  0.210588  0.363936  1
  O  O22  1  0.209513  0.325162  0.867704  1
  O  O23  1  0.789412  0.674237  0.136064  1
  O  O24  1  0.473831  0.071428  0.735576  1
  O  O25  1  0.523309  0.925836  0.264380  1
  O  O26  1  0.928572  0.526169  0.764424  1
  O  O27  1  0.074164  0.476691  0.235620  1
  O  O28  1  0.543294  0.619932  0.520289  1
  O  O29  1  0.455322  0.381357  0.479959  1
  O  O30  1  0.380068  0.456706  0.979711  1
  O  O31  1  0.618643  0.544678  0.020041  1
  O  O32  1  0.895610  0.923739  0.071984  1
  O  O33  1  0.109355  0.070825  0.919749  1
  O  O34  1  0.076261  0.104390  0.428016  1
  O  O35  1  0.929175  0.890645  0.580251  1
