# generated using pymatgen
data_DyTm6Sn23Rh6
_symmetry_space_group_name_H-M   'P 1'
_cell_length_a   9.82701600
_cell_length_b   9.82701607
_cell_length_c   10.08148600
_cell_angle_alpha   90.00000000
_cell_angle_beta   90.00000000
_cell_angle_gamma   120.00000651
_symmetry_Int_Tables_number   1
_chemical_formula_structural   DyTm6Sn23Rh6
_chemical_formula_sum   'Dy1 Tm6 Sn23 Rh6'
_cell_volume   843.13765172
_cell_formula_units_Z   1
loop_
 _symmetry_equiv_pos_site_id
 _symmetry_equiv_pos_as_xyz
  1  'x, y, z'
loop_
 _atom_site_type_symbol
 _atom_site_label
 _atom_site_symmetry_multiplicity
 _atom_site_fract_x
 _atom_site_fract_y
 _atom_site_fract_z
 _atom_site_occupancy
  Dy  Dy0  1  0.000000  0.000000  0.000000  1
  Tm  Tm1  1  0.480621  0.519379  0.307873  1
  Tm  Tm2  1  0.519379  0.480621  0.692127  1
  Tm  Tm3  1  0.480621  0.961243  0.307873  1
  Tm  Tm4  1  0.519379  0.038757  0.692127  1
  Tm  Tm5  1  0.038757  0.519379  0.307873  1
  Tm  Tm6  1  0.961243  0.480621  0.692127  1
  Sn  Sn7  1  0.351278  0.000000  0.000000  1
  Sn  Sn8  1  0.648722  0.000000  0.000000  1
  Sn  Sn9  1  0.000000  0.351278  0.000000  1
  Sn  Sn10  1  0.000000  0.648722  0.000000  1
  Sn  Sn11  1  0.648722  0.648722  0.000000  1
  Sn  Sn12  1  0.351278  0.351278  0.000000  1
  Sn  Sn13  1  0.333333  0.666667  0.821113  1
  Sn  Sn14  1  0.666667  0.333333  0.178887  1
  Sn  Sn15  1  0.000000  0.000000  0.500000  1
  Sn  Sn16  1  0.777416  0.222584  0.456472  1
  Sn  Sn17  1  0.222584  0.777416  0.543528  1
  Sn  Sn18  1  0.777416  0.554832  0.456472  1
  Sn  Sn19  1  0.222584  0.445168  0.543528  1
  Sn  Sn20  1  0.445168  0.222584  0.456472  1
  Sn  Sn21  1  0.554832  0.777416  0.543528  1
  Sn  Sn22  1  0.333333  0.666667  0.126998  1
  Sn  Sn23  1  0.666667  0.333333  0.873002  1
  Sn  Sn24  1  0.120296  0.879704  0.282047  1
  Sn  Sn25  1  0.879704  0.120296  0.717953  1
  Sn  Sn26  1  0.120296  0.240594  0.282047  1
  Sn  Sn27  1  0.879704  0.759406  0.717953  1
  Sn  Sn28  1  0.759406  0.879704  0.282047  1
  Sn  Sn29  1  0.240594  0.120296  0.717953  1
  Rh  Rh30  1  0.830736  0.169264  0.199209  1
  Rh  Rh31  1  0.169264  0.830736  0.800791  1
  Rh  Rh32  1  0.830736  0.661471  0.199209  1
  Rh  Rh33  1  0.169264  0.338529  0.800791  1
  Rh  Rh34  1  0.338529  0.169264  0.199209  1
  Rh  Rh35  1  0.661471  0.830736  0.800791  1
