# generated using pymatgen
data_PuCr2O6
_symmetry_space_group_name_H-M   'P 1'
_cell_length_a   4.65301800
_cell_length_b   4.65300531
_cell_length_c   9.43143700
_cell_angle_alpha   89.99679843
_cell_angle_beta   90.00061568
_cell_angle_gamma   89.97943613
_symmetry_Int_Tables_number   1
_chemical_formula_structural   PuCr2O6
_chemical_formula_sum   'Pu2 Cr4 O12'
_cell_volume   204.19547785
_cell_formula_units_Z   2
loop_
 _symmetry_equiv_pos_site_id
 _symmetry_equiv_pos_as_xyz
  1  'x, y, z'
loop_
 _atom_site_type_symbol
 _atom_site_label
 _atom_site_symmetry_multiplicity
 _atom_site_fract_x
 _atom_site_fract_y
 _atom_site_fract_z
 _atom_site_occupancy
  Pu  Pu0  1  0.999970  0.000027  0.999959  1
  Pu  Pu1  1  0.500038  0.499990  0.500002  1
  Cr  Cr2  1  0.500014  0.499978  0.166520  1
  Cr  Cr3  1  0.000030  0.000003  0.666699  1
  Cr  Cr4  1  0.000026  0.999995  0.333305  1
  Cr  Cr5  1  0.499952  0.500023  0.833487  1
  O  O6  1  0.314508  0.314559  0.000019  1
  O  O7  1  0.185444  0.814570  0.499991  1
  O  O8  1  0.814627  0.185382  0.499976  1
  O  O9  1  0.685408  0.685460  0.000012  1
  O  O10  1  0.302883  0.302838  0.328934  1
  O  O11  1  0.197100  0.802875  0.170890  1
  O  O12  1  0.197050  0.802916  0.829109  1
  O  O13  1  0.302881  0.302871  0.671065  1
  O  O14  1  0.802857  0.197120  0.170941  1
  O  O15  1  0.697189  0.697139  0.328923  1
  O  O16  1  0.697163  0.697147  0.671066  1
  O  O17  1  0.802863  0.197108  0.829103  1
