# generated using pymatgen
data_Rb8Er5TmBeBr20
_symmetry_space_group_name_H-M   'P 1'
_cell_length_a   12.29829694
_cell_length_b   12.29825517
_cell_length_c   12.29948701
_cell_angle_alpha   60.00667111
_cell_angle_beta   60.00673316
_cell_angle_gamma   60.01763143
_symmetry_Int_Tables_number   1
_chemical_formula_structural   Rb8Er5TmBeBr20
_chemical_formula_sum   'Rb8 Er5 Tm1 Be1 Br20'
_cell_volume   1315.71646838
_cell_formula_units_Z   1
loop_
 _symmetry_equiv_pos_site_id
 _symmetry_equiv_pos_as_xyz
  1  'x, y, z'
loop_
 _atom_site_type_symbol
 _atom_site_label
 _atom_site_symmetry_multiplicity
 _atom_site_fract_x
 _atom_site_fract_y
 _atom_site_fract_z
 _atom_site_occupancy
  Rb  Rb0  1  0.358931  0.358933  0.358954  1
  Rb  Rb1  1  0.641061  0.641053  0.641072  1
  Rb  Rb2  1  0.358910  0.358937  0.923221  1
  Rb  Rb3  1  0.358927  0.923205  0.358935  1
  Rb  Rb4  1  0.641076  0.641073  0.076780  1
  Rb  Rb5  1  0.641070  0.076795  0.641075  1
  Rb  Rb6  1  0.923218  0.358921  0.358921  1
  Rb  Rb7  1  0.076787  0.641060  0.641083  1
  Er  Er8  1  0.846362  0.153619  0.153653  1
  Er  Er9  1  0.153598  0.846358  0.846371  1
  Er  Er10  1  0.153606  0.846360  0.153663  1
  Er  Er11  1  0.846356  0.153599  0.846383  1
  Er  Er12  1  0.153594  0.153587  0.846414  1
  Tm  Tm13  1  0.846426  0.846427  0.153562  1
  Be  Be14  1  0.999919  0.999921  0.000080  1
  Br  Br15  1  0.329305  0.999996  0.000007  1
  Br  Br16  1  0.670863  0.999805  0.000188  1
  Br  Br17  1  0.999996  0.329287  0.670714  1
  Br  Br18  1  0.999811  0.670878  0.329119  1
  Br  Br19  1  0.000000  0.329303  0.000006  1
  Br  Br20  1  0.670880  0.999812  0.329119  1
  Br  Br21  1  0.999803  0.670866  0.000186  1
  Br  Br22  1  0.329287  0.999994  0.670714  1
  Br  Br23  1  0.999999  0.999997  0.329304  1
  Br  Br24  1  0.999995  0.999991  0.670706  1
  Br  Br25  1  0.670706  0.329281  0.000008  1
  Br  Br26  1  0.329280  0.670711  0.000004  1
  Br  Br27  1  0.681751  0.318263  0.318260  1
  Br  Br28  1  0.318247  0.681740  0.681738  1
  Br  Br29  1  0.318269  0.681744  0.318266  1
  Br  Br30  1  0.681733  0.318254  0.681731  1
  Br  Br31  1  0.318258  0.318260  0.681753  1
  Br  Br32  1  0.681974  0.681975  0.318014  1
  Br  Br33  1  0.249999  0.249994  0.249998  1
  Br  Br34  1  0.750002  0.750002  0.749999  1
