# generated using pymatgen
data_Sc12Si12Pt2RhAu
_symmetry_space_group_name_H-M   'P 1'
_cell_length_a   4.04390200
_cell_length_b   10.31461155
_cell_length_c   11.74895200
_cell_angle_alpha   90.03903511
_cell_angle_beta   90.00000000
_cell_angle_gamma   90.00000000
_symmetry_Int_Tables_number   1
_chemical_formula_structural   Sc12Si12Pt2RhAu
_chemical_formula_sum   'Sc12 Si12 Pt2 Rh1 Au1'
_cell_volume   490.06369268
_cell_formula_units_Z   1
loop_
 _symmetry_equiv_pos_site_id
 _symmetry_equiv_pos_as_xyz
  1  'x, y, z'
loop_
 _atom_site_type_symbol
 _atom_site_label
 _atom_site_symmetry_multiplicity
 _atom_site_fract_x
 _atom_site_fract_y
 _atom_site_fract_z
 _atom_site_occupancy
  Sc  Sc0  1  0.250000  0.875979  0.020892  1
  Sc  Sc1  1  0.250000  0.626291  0.520509  1
  Sc  Sc2  1  0.750000  0.122898  0.979364  1
  Sc  Sc3  1  0.750000  0.375221  0.477548  1
  Sc  Sc4  1  0.250000  0.920447  0.598039  1
  Sc  Sc5  1  0.250000  0.579734  0.099499  1
  Sc  Sc6  1  0.750000  0.079291  0.399191  1
  Sc  Sc7  1  0.750000  0.420242  0.902008  1
  Sc  Sc8  1  0.250000  0.664638  0.801436  1
  Sc  Sc9  1  0.250000  0.841955  0.300409  1
  Sc  Sc10  1  0.750000  0.342349  0.199718  1
  Sc  Sc11  1  0.750000  0.153416  0.700177  1
  Si  Si12  1  0.250000  0.012020  0.823532  1
  Si  Si13  1  0.250000  0.482443  0.325766  1
  Si  Si14  1  0.750000  0.982253  0.176192  1
  Si  Si15  1  0.750000  0.526107  0.674020  1
  Si  Si16  1  0.250000  0.242351  0.849356  1
  Si  Si17  1  0.250000  0.252535  0.343795  1
  Si  Si18  1  0.750000  0.752620  0.155626  1
  Si  Si19  1  0.750000  0.753931  0.657454  1
  Si  Si20  1  0.250000  0.180750  0.538978  1
  Si  Si21  1  0.250000  0.310818  0.044705  1
  Si  Si22  1  0.750000  0.809832  0.456169  1
  Si  Si23  1  0.750000  0.692947  0.956328  1
  Pt  Pt24  1  0.250000  0.111908  0.177882  1
  Pt  Pt25  1  0.750000  0.612478  0.320588  1
  Rh  Rh26  1  0.750000  0.888926  0.822376  1
  Au  Au27  1  0.250000  0.385619  0.678444  1
