# generated using pymatgen
data_Hf3Zr(Co5As3)4
_symmetry_space_group_name_H-M   'P 1'
_cell_length_a   3.70186900
_cell_length_b   12.08799290
_cell_length_c   10.56562776
_cell_angle_alpha   89.95625321
_cell_angle_beta   90.00000000
_cell_angle_gamma   90.00000000
_symmetry_Int_Tables_number   1
_chemical_formula_structural   Hf3Zr(Co5As3)4
_chemical_formula_sum   'Hf3 Zr1 Co20 As12'
_cell_volume   472.79232878
_cell_formula_units_Z   1
loop_
 _symmetry_equiv_pos_site_id
 _symmetry_equiv_pos_as_xyz
  1  'x, y, z'
loop_
 _atom_site_type_symbol
 _atom_site_label
 _atom_site_symmetry_multiplicity
 _atom_site_fract_x
 _atom_site_fract_y
 _atom_site_fract_z
 _atom_site_occupancy
  Hf  Hf0  1  0.750000  0.701836  0.077258  1
  Hf  Hf1  1  0.250000  0.298133  0.922905  1
  Hf  Hf2  1  0.250000  0.798307  0.577203  1
  Zr  Zr3  1  0.750000  0.202529  0.421533  1
  Co  Co4  1  0.750000  0.698775  0.387328  1
  Co  Co5  1  0.250000  0.302192  0.614290  1
  Co  Co6  1  0.250000  0.801258  0.887512  1
  Co  Co7  1  0.750000  0.198640  0.112034  1
  Co  Co8  1  0.750000  0.994645  0.216524  1
  Co  Co9  1  0.250000  0.005156  0.782981  1
  Co  Co10  1  0.250000  0.505672  0.716655  1
  Co  Co11  1  0.750000  0.494644  0.283592  1
  Co  Co12  1  0.750000  0.681245  0.784103  1
  Co  Co13  1  0.250000  0.318943  0.215635  1
  Co  Co14  1  0.250000  0.818433  0.283296  1
  Co  Co15  1  0.750000  0.180913  0.716570  1
  Co  Co16  1  0.750000  0.929583  0.969766  1
  Co  Co17  1  0.250000  0.070162  0.029891  1
  Co  Co18  1  0.250000  0.570951  0.469784  1
  Co  Co19  1  0.750000  0.430812  0.530884  1
  Co  Co20  1  0.750000  0.984010  0.590037  1
  Co  Co21  1  0.250000  0.013544  0.410197  1
  Co  Co22  1  0.250000  0.515792  0.089700  1
  Co  Co23  1  0.750000  0.484001  0.910290  1
  As  As24  1  0.750000  0.615801  0.587371  1
  As  As25  1  0.250000  0.385447  0.413177  1
  As  As26  1  0.250000  0.884679  0.087041  1
  As  As27  1  0.750000  0.115030  0.912783  1
  As  As28  1  0.750000  0.888638  0.400162  1
  As  As29  1  0.250000  0.111231  0.599633  1
  As  As30  1  0.250000  0.611200  0.900358  1
  As  As31  1  0.750000  0.388752  0.099940  1
  As  As32  1  0.750000  0.870859  0.765321  1
  As  As33  1  0.250000  0.128476  0.234283  1
  As  As34  1  0.250000  0.628926  0.265009  1
  As  As35  1  0.750000  0.370785  0.734954  1
