# generated using pymatgen
data_Mn2NiS4
_symmetry_space_group_name_H-M   'P 1'
_cell_length_a   6.81973186
_cell_length_b   6.81973210
_cell_length_c   6.81973200
_cell_angle_alpha   60.00000048
_cell_angle_beta   59.99999933
_cell_angle_gamma   60.00000070
_symmetry_Int_Tables_number   1
_chemical_formula_structural   Mn2NiS4
_chemical_formula_sum   'Mn4 Ni2 S8'
_cell_volume   224.27812979
_cell_formula_units_Z   2
loop_
 _symmetry_equiv_pos_site_id
 _symmetry_equiv_pos_as_xyz
  1  'x, y, z'
loop_
 _atom_site_type_symbol
 _atom_site_label
 _atom_site_symmetry_multiplicity
 _atom_site_fract_x
 _atom_site_fract_y
 _atom_site_fract_z
 _atom_site_occupancy
  Mn  Mn0  1  0.000000  0.000000  0.500000  1
  Mn  Mn1  1  0.000000  0.500000  0.000000  1
  Mn  Mn2  1  0.500000  0.000000  0.000000  1
  Mn  Mn3  1  0.000000  0.000000  0.000000  1
  Ni  Ni4  1  0.375000  0.375000  0.375000  1
  Ni  Ni5  1  0.625000  0.625000  0.625000  1
  S  S6  1  0.244220  0.244220  0.767339  1
  S  S7  1  0.244220  0.767339  0.244220  1
  S  S8  1  0.767339  0.244220  0.244220  1
  S  S9  1  0.244220  0.244220  0.244220  1
  S  S10  1  0.755780  0.755780  0.232661  1
  S  S11  1  0.755780  0.232661  0.755780  1
  S  S12  1  0.232661  0.755780  0.755780  1
  S  S13  1  0.755780  0.755780  0.755780  1
