# generated using pymatgen
data_Nd2B4Ir4Rh
_symmetry_space_group_name_H-M   'P 1'
_cell_length_a   7.60023309
_cell_length_b   6.34035690
_cell_length_c   5.73635303
_cell_angle_alpha   77.82390565
_cell_angle_beta   54.63336997
_cell_angle_gamma   47.52144503
_symmetry_Int_Tables_number   1
_chemical_formula_structural   Nd2B4Ir4Rh
_chemical_formula_sum   'Nd2 B4 Ir4 Rh1'
_cell_volume   158.63316340
_cell_formula_units_Z   1
loop_
 _symmetry_equiv_pos_site_id
 _symmetry_equiv_pos_as_xyz
  1  'x, y, z'
loop_
 _atom_site_type_symbol
 _atom_site_label
 _atom_site_symmetry_multiplicity
 _atom_site_fract_x
 _atom_site_fract_y
 _atom_site_fract_z
 _atom_site_occupancy
  Nd  Nd0  1  0.857153  0.857153  0.142847  1
  Nd  Nd1  1  0.142847  0.142847  0.857153  1
  B  B2  1  0.210037  0.526262  0.473973  1
  B  B3  1  0.789963  0.473738  0.526027  1
  B  B4  1  0.526262  0.210037  0.789730  1
  B  B5  1  0.473738  0.789963  0.210270  1
  Ir  Ir6  1  0.749765  0.749765  0.750235  1
  Ir  Ir7  1  0.250235  0.250235  0.249765  1
  Ir  Ir8  1  0.000000  0.000000  0.500000  1
  Ir  Ir9  1  0.500000  0.500000  0.500000  1
  Rh  Rh10  1  0.500000  0.500000  0.000000  1
