# generated using pymatgen
data_Be(NbCo)6
_symmetry_space_group_name_H-M   'P 1'
_cell_length_a   8.95919331
_cell_length_b   8.95919376
_cell_length_c   8.95919292
_cell_angle_alpha   31.74614476
_cell_angle_beta   31.74614140
_cell_angle_gamma   31.74614966
_symmetry_Int_Tables_number   1
_chemical_formula_structural   Be(NbCo)6
_chemical_formula_sum   'Be1 Nb6 Co6'
_cell_volume   176.81473853
_cell_formula_units_Z   1
loop_
 _symmetry_equiv_pos_site_id
 _symmetry_equiv_pos_as_xyz
  1  'x, y, z'
loop_
 _atom_site_type_symbol
 _atom_site_label
 _atom_site_symmetry_multiplicity
 _atom_site_fract_x
 _atom_site_fract_y
 _atom_site_fract_z
 _atom_site_occupancy
  Be  Be0  1  0.000000  0.000000  0.000000  1
  Nb  Nb1  1  0.830556  0.830556  0.830556  1
  Nb  Nb2  1  0.169444  0.169444  0.169444  1
  Nb  Nb3  1  0.655949  0.655949  0.655949  1
  Nb  Nb4  1  0.344051  0.344051  0.344051  1
  Nb  Nb5  1  0.550876  0.550876  0.550876  1
  Nb  Nb6  1  0.449124  0.449124  0.449124  1
  Co  Co7  1  0.910669  0.401338  0.910669  1
  Co  Co8  1  0.910669  0.910669  0.401338  1
  Co  Co9  1  0.401338  0.910669  0.910669  1
  Co  Co10  1  0.089331  0.598662  0.089331  1
  Co  Co11  1  0.089331  0.089331  0.598662  1
  Co  Co12  1  0.598662  0.089331  0.089331  1
