# generated using pymatgen
data_NaSrLiFe2N3
_symmetry_space_group_name_H-M   'P 1'
_cell_length_a   6.65529853
_cell_length_b   6.51436087
_cell_length_c   6.44459153
_cell_angle_alpha   92.18225207
_cell_angle_beta   94.04178040
_cell_angle_gamma   59.22061669
_symmetry_Int_Tables_number   1
_chemical_formula_structural   NaSrLiFe2N3
_chemical_formula_sum   'Na2 Sr2 Li2 Fe4 N6'
_cell_volume   239.45179186
_cell_formula_units_Z   2
loop_
 _symmetry_equiv_pos_site_id
 _symmetry_equiv_pos_as_xyz
  1  'x, y, z'
loop_
 _atom_site_type_symbol
 _atom_site_label
 _atom_site_symmetry_multiplicity
 _atom_site_fract_x
 _atom_site_fract_y
 _atom_site_fract_z
 _atom_site_occupancy
  Na  Na0  1  0.692458  0.148210  0.095538  1
  Na  Na1  1  0.162045  0.148142  0.404288  1
  Sr  Sr2  1  0.808150  0.869944  0.590541  1
  Sr  Sr3  1  0.322473  0.870099  0.909143  1
  Li  Li4  1  0.201689  0.596706  0.250394  1
  Li  Li5  1  0.813373  0.373187  0.749326  1
  Fe  Fe6  1  0.854945  0.599878  0.096139  1
  Fe  Fe7  1  0.545515  0.599717  0.403339  1
  Fe  Fe8  1  0.418118  0.412189  0.614397  1
  Fe  Fe9  1  0.168576  0.411958  0.885915  1
  N  N10  1  0.010716  0.293245  0.016494  1
  N  N11  1  0.616013  0.769913  0.249621  1
  N  N12  1  0.695411  0.291848  0.483210  1
  N  N13  1  0.270336  0.724287  0.521730  1
  N  N14  1  0.414869  0.169301  0.750695  1
  N  N15  1  0.005315  0.721372  0.979230  1
