# generated using pymatgen
data_Sc5Cr4(P4Ir5)3
_symmetry_space_group_name_H-M   'P 1'
_cell_length_a   12.58159045
_cell_length_b   12.53500000
_cell_length_c   3.88507400
_cell_angle_alpha   90.00000000
_cell_angle_beta   90.00000000
_cell_angle_gamma   120.09221763
_symmetry_Int_Tables_number   1
_chemical_formula_structural   Sc5Cr4(P4Ir5)3
_chemical_formula_sum   'Sc5 Cr4 P12 Ir15'
_cell_volume   530.13379734
_cell_formula_units_Z   1
loop_
 _symmetry_equiv_pos_site_id
 _symmetry_equiv_pos_as_xyz
  1  'x, y, z'
loop_
 _atom_site_type_symbol
 _atom_site_label
 _atom_site_symmetry_multiplicity
 _atom_site_fract_x
 _atom_site_fract_y
 _atom_site_fract_z
 _atom_site_occupancy
  Sc  Sc0  1  0.327897  0.663474  0.000000  1
  Sc  Sc1  1  0.667110  0.332061  0.000000  1
  Sc  Sc2  1  0.813514  0.003768  0.500000  1
  Sc  Sc3  1  0.001116  0.810873  0.500000  1
  Sc  Sc4  1  0.186745  0.187968  0.500000  1
  Cr  Cr5  1  0.452455  0.999016  0.000000  1
  Cr  Cr6  1  0.004841  0.455188  0.000000  1
  Cr  Cr7  1  0.548606  0.544240  0.000000  1
  Cr  Cr8  1  0.179385  0.380760  0.000000  1
  P  P9  1  0.175417  0.001585  0.000000  1
  P  P10  1  0.010173  0.185004  0.000000  1
  P  P11  1  0.823334  0.824778  0.000000  1
  P  P12  1  0.169593  0.482757  0.500000  1
  P  P13  1  0.513453  0.681629  0.500000  1
  P  P14  1  0.314835  0.831594  0.500000  1
  P  P15  1  0.688896  0.515909  0.500000  1
  P  P16  1  0.831322  0.313679  0.500000  1
  P  P17  1  0.483880  0.168393  0.500000  1
  P  P18  1  0.633331  0.999835  0.000000  1
  P  P19  1  0.001181  0.634250  0.000000  1
  P  P20  1  0.351830  0.360034  0.000000  1
  Ir  Ir21  1  0.357458  0.484628  0.500000  1
  Ir  Ir22  1  0.505669  0.864294  0.500000  1
  Ir  Ir23  1  0.133626  0.641439  0.500000  1
  Ir  Ir24  1  0.869756  0.507500  0.500000  1
  Ir  Ir25  1  0.639313  0.130939  0.500000  1
  Ir  Ir26  1  0.497047  0.359734  0.500000  1
  Ir  Ir27  1  0.627142  0.807704  0.000000  1
  Ir  Ir28  1  0.191532  0.821476  0.000000  1
  Ir  Ir29  1  0.809305  0.628239  0.000000  1
  Ir  Ir30  1  0.818990  0.193768  0.000000  1
  Ir  Ir31  1  0.371579  0.181577  0.000000  1
  Ir  Ir32  1  0.284681  0.000727  0.500000  1
  Ir  Ir33  1  0.000234  0.284188  0.500000  1
  Ir  Ir34  1  0.715607  0.715368  0.500000  1
  Ir  Ir35  1  0.999146  0.001625  0.000000  1
