# generated using pymatgen
data_Sc17(Si4Tc)3
_symmetry_space_group_name_H-M   'P 1'
_cell_length_a   7.85424669
_cell_length_b   7.85424554
_cell_length_c   14.79629500
_cell_angle_alpha   90.00000000
_cell_angle_beta   90.00000000
_cell_angle_gamma   141.15491367
_symmetry_Int_Tables_number   1
_chemical_formula_structural   Sc17(Si4Tc)3
_chemical_formula_sum   'Sc17 Si12 Tc3'
_cell_volume   572.50559103
_cell_formula_units_Z   1
loop_
 _symmetry_equiv_pos_site_id
 _symmetry_equiv_pos_as_xyz
  1  'x, y, z'
loop_
 _atom_site_type_symbol
 _atom_site_label
 _atom_site_symmetry_multiplicity
 _atom_site_fract_x
 _atom_site_fract_y
 _atom_site_fract_z
 _atom_site_occupancy
  Sc  Sc0  1  0.069566  0.433724  0.400747  1
  Sc  Sc1  1  0.569095  0.931705  0.902790  1
  Sc  Sc2  1  0.433724  0.069566  0.599253  1
  Sc  Sc3  1  0.931705  0.569095  0.097210  1
  Sc  Sc4  1  0.845286  0.648596  0.684043  1
  Sc  Sc5  1  0.350150  0.153115  0.178058  1
  Sc  Sc6  1  0.648596  0.845286  0.315957  1
  Sc  Sc7  1  0.153115  0.350150  0.821942  1
  Sc  Sc8  1  0.648596  0.845286  0.684043  1
  Sc  Sc9  1  0.153115  0.350150  0.178058  1
  Sc  Sc10  1  0.845286  0.648596  0.315957  1
  Sc  Sc11  1  0.350150  0.153115  0.821942  1
  Sc  Sc12  1  0.433724  0.069566  0.400747  1
  Sc  Sc13  1  0.931705  0.569095  0.902790  1
  Sc  Sc14  1  0.069566  0.433724  0.599253  1
  Sc  Sc15  1  0.569095  0.931705  0.097210  1
  Sc  Sc16  1  0.999300  0.999300  0.500000  1
  Si  Si17  1  0.249706  0.750066  0.750956  1
  Si  Si18  1  0.750066  0.249706  0.249044  1
  Si  Si19  1  0.750066  0.249706  0.750956  1
  Si  Si20  1  0.249706  0.750066  0.249044  1
  Si  Si21  1  0.264671  0.264671  0.657282  1
  Si  Si22  1  0.751028  0.751028  0.146840  1
  Si  Si23  1  0.264671  0.264671  0.342718  1
  Si  Si24  1  0.751028  0.751028  0.853160  1
  Si  Si25  1  0.576410  0.885713  0.500000  1
  Si  Si26  1  0.100926  0.403641  0.000000  1
  Si  Si27  1  0.885713  0.576410  0.500000  1
  Si  Si28  1  0.403641  0.100926  0.000000  1
  Tc  Tc29  1  0.496280  0.496280  0.000000  1
  Tc  Tc30  1  0.497312  0.497312  0.500000  1
  Tc  Tc31  1  0.006998  0.006998  0.000000  1
