# generated using pymatgen
data_YHo3Ga18(PdRu)3
_symmetry_space_group_name_H-M   'P 1'
_cell_length_a   7.59387844
_cell_length_b   7.59406726
_cell_length_c   9.57455999
_cell_angle_alpha   89.91327296
_cell_angle_beta   89.91381717
_cell_angle_gamma   119.60949180
_symmetry_Int_Tables_number   1
_chemical_formula_structural   YHo3Ga18(PdRu)3
_chemical_formula_sum   'Y1 Ho3 Ga18 Pd3 Ru3'
_cell_volume   480.04408690
_cell_formula_units_Z   1
loop_
 _symmetry_equiv_pos_site_id
 _symmetry_equiv_pos_as_xyz
  1  'x, y, z'
loop_
 _atom_site_type_symbol
 _atom_site_label
 _atom_site_symmetry_multiplicity
 _atom_site_fract_x
 _atom_site_fract_y
 _atom_site_fract_z
 _atom_site_occupancy
  Y  Y0  1  0.329611  0.003791  0.749007  1
  Ho  Ho1  1  0.996336  0.670370  0.251040  1
  Ho  Ho2  1  0.002176  0.328961  0.748683  1
  Ho  Ho3  1  0.671062  0.997802  0.251319  1
  Ga  Ga4  1  0.131589  0.129299  0.249940  1
  Ga  Ga5  1  0.870486  0.868356  0.750059  1
  Ga  Ga6  1  0.006656  0.339589  0.081083  1
  Ga  Ga7  1  0.001422  0.663907  0.919140  1
  Ga  Ga8  1  0.998144  0.659934  0.578666  1
  Ga  Ga9  1  0.339877  0.001678  0.421097  1
  Ga  Ga10  1  0.003011  0.340239  0.419942  1
  Ga  Ga11  1  0.659952  0.996981  0.579939  1
  Ga  Ga12  1  0.660590  0.993322  0.919031  1
  Ga  Ga13  1  0.335879  0.998365  0.081107  1
  Ga  Ga14  1  0.339649  0.339406  0.563230  1
  Ga  Ga15  1  0.660775  0.660374  0.436655  1
  Ga  Ga16  1  0.660536  0.665656  0.066941  1
  Ga  Ga17  1  0.334344  0.339655  0.933185  1
  Ga  Ga18  1  0.337502  0.551915  0.250499  1
  Ga  Ga19  1  0.664437  0.452870  0.746653  1
  Ga  Ga20  1  0.547362  0.335750  0.253328  1
  Ga  Ga21  1  0.448130  0.662356  0.749506  1
  Pd  Pd22  1  0.672492  0.327565  0.000034  1
  Pd  Pd23  1  0.000373  0.999563  0.000044  1
  Pd  Pd24  1  0.999526  0.000395  0.499950  1
  Ru  Ru25  1  0.327219  0.672703  0.000090  1
  Ru  Ru26  1  0.327068  0.672856  0.499914  1
  Ru  Ru27  1  0.673798  0.326340  0.499919  1
