# generated using pymatgen
data_TbPr9(Tl3Br)2
_symmetry_space_group_name_H-M   'P 1'
_cell_length_a   9.56630200
_cell_length_b   9.56630289
_cell_length_c   6.86005700
_cell_angle_alpha   90.00000000
_cell_angle_beta   90.00000000
_cell_angle_gamma   120.00000385
_symmetry_Int_Tables_number   1
_chemical_formula_structural   TbPr9(Tl3Br)2
_chemical_formula_sum   'Tb1 Pr9 Tl6 Br2'
_cell_volume   543.68400144
_cell_formula_units_Z   1
loop_
 _symmetry_equiv_pos_site_id
 _symmetry_equiv_pos_as_xyz
  1  'x, y, z'
loop_
 _atom_site_type_symbol
 _atom_site_label
 _atom_site_symmetry_multiplicity
 _atom_site_fract_x
 _atom_site_fract_y
 _atom_site_fract_z
 _atom_site_occupancy
  Tb  Tb0  1  0.666667  0.333333  0.000000  1
  Pr  Pr1  1  0.267017  0.265946  0.751470  1
  Pr  Pr2  1  0.998930  0.732983  0.751470  1
  Pr  Pr3  1  0.734054  0.001070  0.751470  1
  Pr  Pr4  1  0.998930  0.265946  0.248530  1
  Pr  Pr5  1  0.333333  0.666667  0.500000  1
  Pr  Pr6  1  0.734054  0.732983  0.248530  1
  Pr  Pr7  1  0.666667  0.333333  0.500000  1
  Pr  Pr8  1  0.267017  0.001070  0.248530  1
  Pr  Pr9  1  0.333333  0.666667  0.000000  1
  Tl  Tl10  1  0.610782  0.003855  0.247171  1
  Tl  Tl11  1  0.996145  0.389218  0.752829  1
  Tl  Tl12  1  0.393073  0.003855  0.752829  1
  Tl  Tl13  1  0.610782  0.606927  0.752829  1
  Tl  Tl14  1  0.996145  0.606927  0.247171  1
  Tl  Tl15  1  0.393073  0.389218  0.247171  1
  Br  Br16  1  0.000000  0.000000  0.000000  1
  Br  Br17  1  0.000000  0.000000  0.500000  1
