# generated using pymatgen
data_La5Zr3Ge3P9Ir16
_symmetry_space_group_name_H-M   'P 1'
_cell_length_a   13.17793600
_cell_length_b   13.17793570
_cell_length_c   4.04599400
_cell_angle_alpha   90.00000000
_cell_angle_beta   90.00000000
_cell_angle_gamma   120.00000075
_symmetry_Int_Tables_number   1
_chemical_formula_structural   La5Zr3Ge3P9Ir16
_chemical_formula_sum   'La5 Zr3 Ge3 P9 Ir16'
_cell_volume   608.48607079
_cell_formula_units_Z   1
loop_
 _symmetry_equiv_pos_site_id
 _symmetry_equiv_pos_as_xyz
  1  'x, y, z'
loop_
 _atom_site_type_symbol
 _atom_site_label
 _atom_site_symmetry_multiplicity
 _atom_site_fract_x
 _atom_site_fract_y
 _atom_site_fract_z
 _atom_site_occupancy
  La  La0  1  0.333333  0.666667  0.500000  1
  La  La1  1  0.666667  0.333333  0.500000  1
  La  La2  1  0.000000  0.816798  0.000000  1
  La  La3  1  0.183202  0.183202  0.000000  1
  La  La4  1  0.816798  0.000000  0.000000  1
  Zr  Zr5  1  0.000000  0.442181  0.500000  1
  Zr  Zr6  1  0.557819  0.557819  0.500000  1
  Zr  Zr7  1  0.442181  0.000000  0.500000  1
  Ge  Ge8  1  0.000000  0.646436  0.500000  1
  Ge  Ge9  1  0.353564  0.353564  0.500000  1
  Ge  Ge10  1  0.646436  0.000000  0.500000  1
  P  P11  1  0.521349  0.691549  0.000000  1
  P  P12  1  0.308451  0.829799  0.000000  1
  P  P13  1  0.170201  0.478651  0.000000  1
  P  P14  1  0.478651  0.170201  0.000000  1
  P  P15  1  0.691549  0.521349  0.000000  1
  P  P16  1  0.829799  0.308451  0.000000  1
  P  P17  1  0.000000  0.180496  0.500000  1
  P  P18  1  0.819504  0.819504  0.500000  1
  P  P19  1  0.180496  0.000000  0.500000  1
  Ir  Ir20  1  0.507475  0.868693  0.000000  1
  Ir  Ir21  1  0.131307  0.638783  0.000000  1
  Ir  Ir22  1  0.361217  0.492525  0.000000  1
  Ir  Ir23  1  0.492525  0.361217  0.000000  1
  Ir  Ir24  1  0.868693  0.507475  0.000000  1
  Ir  Ir25  1  0.638783  0.131307  0.000000  1
  Ir  Ir26  1  0.000000  0.278500  0.000000  1
  Ir  Ir27  1  0.721500  0.721500  0.000000  1
  Ir  Ir28  1  0.278500  0.000000  0.000000  1
  Ir  Ir29  1  0.623628  0.797946  0.500000  1
  Ir  Ir30  1  0.202054  0.825682  0.500000  1
  Ir  Ir31  1  0.174318  0.376372  0.500000  1
  Ir  Ir32  1  0.376372  0.174318  0.500000  1
  Ir  Ir33  1  0.797946  0.623628  0.500000  1
  Ir  Ir34  1  0.825682  0.202054  0.500000  1
  Ir  Ir35  1  0.000000  0.000000  0.500000  1
