# generated using pymatgen
data_Zr5Sc(GaPt)6
_symmetry_space_group_name_H-M   'P 1'
_cell_length_a   7.21098819
_cell_length_b   7.22523022
_cell_length_c   7.12229400
_cell_angle_alpha   90.00000000
_cell_angle_beta   90.00000000
_cell_angle_gamma   119.78483438
_symmetry_Int_Tables_number   1
_chemical_formula_structural   Zr5Sc(GaPt)6
_chemical_formula_sum   'Zr5 Sc1 Ga6 Pt6'
_cell_volume   322.05833352
_cell_formula_units_Z   1
loop_
 _symmetry_equiv_pos_site_id
 _symmetry_equiv_pos_as_xyz
  1  'x, y, z'
loop_
 _atom_site_type_symbol
 _atom_site_label
 _atom_site_symmetry_multiplicity
 _atom_site_fract_x
 _atom_site_fract_y
 _atom_site_fract_z
 _atom_site_occupancy
  Zr  Zr0  1  0.021326  0.611626  0.750000  1
  Zr  Zr1  1  0.590392  0.979173  0.750000  1
  Zr  Zr2  1  0.613533  0.020198  0.250000  1
  Zr  Zr3  1  0.979365  0.592158  0.250000  1
  Zr  Zr4  1  0.407646  0.386756  0.250000  1
  Sc  Sc5  1  0.387783  0.406959  0.750000  1
  Ga  Ga6  1  0.267226  0.001015  0.999012  1
  Ga  Ga7  1  0.732205  0.732069  0.000338  1
  Ga  Ga8  1  0.001784  0.267722  0.998935  1
  Ga  Ga9  1  0.732205  0.732069  0.499662  1
  Ga  Ga10  1  0.267226  0.001015  0.500988  1
  Ga  Ga11  1  0.001784  0.267722  0.501065  1
  Pt  Pt12  1  0.665821  0.333544  0.970955  1
  Pt  Pt13  1  0.998104  0.997953  0.750000  1
  Pt  Pt14  1  0.665821  0.333544  0.529045  1
  Pt  Pt15  1  0.333314  0.667718  0.469979  1
  Pt  Pt16  1  0.333314  0.667718  0.030021  1
  Pt  Pt17  1  0.001150  0.001044  0.250000  1
