# generated using pymatgen
data_Ac2Th(RhPb)3
_symmetry_space_group_name_H-M   'P 1'
_cell_length_a   7.93077400
_cell_length_b   7.97438877
_cell_length_c   4.14476500
_cell_angle_alpha   90.00000000
_cell_angle_beta   90.00000000
_cell_angle_gamma   120.18207307
_symmetry_Int_Tables_number   1
_chemical_formula_structural   Ac2Th(RhPb)3
_chemical_formula_sum   'Ac2 Th1 Rh3 Pb3'
_cell_volume   226.59159672
_cell_formula_units_Z   1
loop_
 _symmetry_equiv_pos_site_id
 _symmetry_equiv_pos_as_xyz
  1  'x, y, z'
loop_
 _atom_site_type_symbol
 _atom_site_label
 _atom_site_symmetry_multiplicity
 _atom_site_fract_x
 _atom_site_fract_y
 _atom_site_fract_z
 _atom_site_occupancy
  Ac  Ac0  1  0.412034  0.411028  0.500000  1
  Ac  Ac1  1  0.587966  0.998994  0.500000  1
  Th  Th2  1  0.000000  0.586445  0.500000  1
  Rh  Rh3  1  0.000000  0.985126  0.500000  1
  Rh  Rh4  1  0.701324  0.361861  0.000000  1
  Rh  Rh5  1  0.298676  0.660538  0.000000  1
  Pb  Pb6  1  0.749218  0.747885  0.000000  1
  Pb  Pb7  1  0.250782  0.998667  0.000000  1
  Pb  Pb8  1  0.000000  0.249459  0.000000  1
