# generated using pymatgen
data_Ho13Er3In3HgRh4
_symmetry_space_group_name_H-M   'P 1'
_cell_length_a   9.60436936
_cell_length_b   9.58780713
_cell_length_c   9.60609350
_cell_angle_alpha   60.01648112
_cell_angle_beta   59.99969696
_cell_angle_gamma   60.03541274
_symmetry_Int_Tables_number   1
_chemical_formula_structural   Ho13Er3In3HgRh4
_chemical_formula_sum   'Ho13 Er3 In3 Hg1 Rh4'
_cell_volume   625.73312865
_cell_formula_units_Z   1
loop_
 _symmetry_equiv_pos_site_id
 _symmetry_equiv_pos_as_xyz
  1  'x, y, z'
loop_
 _atom_site_type_symbol
 _atom_site_label
 _atom_site_symmetry_multiplicity
 _atom_site_fract_x
 _atom_site_fract_y
 _atom_site_fract_z
 _atom_site_occupancy
  Ho  Ho0  1  0.189907  0.189982  0.811941  1
  Ho  Ho1  1  0.438750  0.058780  0.063380  1
  Ho  Ho2  1  0.436364  0.060000  0.436047  1
  Ho  Ho3  1  0.062736  0.437016  0.062374  1
  Ho  Ho4  1  0.648338  0.051198  0.648501  1
  Ho  Ho5  1  0.189925  0.810024  0.811847  1
  Ho  Ho6  1  0.063304  0.058347  0.438865  1
  Ho  Ho7  1  0.811646  0.190106  0.189996  1
  Ho  Ho8  1  0.811734  0.810234  0.189901  1
  Ho  Ho9  1  0.647927  0.648002  0.051601  1
  Ho  Ho10  1  0.652387  0.649998  0.652207  1
  Ho  Ho11  1  0.064353  0.433702  0.437092  1
  Ho  Ho12  1  0.051530  0.647825  0.647999  1
  Er  Er13  1  0.810026  0.190343  0.810658  1
  Er  Er14  1  0.437828  0.434123  0.063666  1
  Er  Er15  1  0.188638  0.812427  0.188545  1
  In  In16  1  0.417058  0.419963  0.747255  1
  In  In17  1  0.746899  0.420042  0.417101  1
  In  In18  1  0.416688  0.419777  0.416670  1
  Hg  Hg19  1  0.414253  0.758591  0.414235  1
  Rh  Rh20  1  0.857455  0.426716  0.857894  1
  Rh  Rh21  1  0.858178  0.857824  0.427137  1
  Rh  Rh22  1  0.427232  0.857488  0.858302  1
  Rh  Rh23  1  0.856845  0.857493  0.856785  1
