# generated using pymatgen
data_Ca2Mn12P7
_symmetry_space_group_name_H-M   'P 1'
_cell_length_a   9.41636100
_cell_length_b   9.41636176
_cell_length_c   3.51672300
_cell_angle_alpha   90.00000000
_cell_angle_beta   90.00000000
_cell_angle_gamma   119.99999383
_symmetry_Int_Tables_number   1
_chemical_formula_structural   Ca2Mn12P7
_chemical_formula_sum   'Ca2 Mn12 P7'
_cell_volume   270.04432519
_cell_formula_units_Z   1
loop_
 _symmetry_equiv_pos_site_id
 _symmetry_equiv_pos_as_xyz
  1  'x, y, z'
loop_
 _atom_site_type_symbol
 _atom_site_label
 _atom_site_symmetry_multiplicity
 _atom_site_fract_x
 _atom_site_fract_y
 _atom_site_fract_z
 _atom_site_occupancy
  Ca  Ca0  1  0.333333  0.666667  0.000000  1
  Ca  Ca1  1  0.666667  0.333333  0.500000  1
  Mn  Mn2  1  0.622550  0.571996  0.000000  1
  Mn  Mn3  1  0.949446  0.377450  0.000000  1
  Mn  Mn4  1  0.428004  0.050554  0.000000  1
  Mn  Mn5  1  0.118149  0.843134  0.000000  1
  Mn  Mn6  1  0.724985  0.881851  0.000000  1
  Mn  Mn7  1  0.156866  0.275015  0.000000  1
  Mn  Mn8  1  0.047949  0.616032  0.500000  1
  Mn  Mn9  1  0.568084  0.952051  0.500000  1
  Mn  Mn10  1  0.383968  0.431916  0.500000  1
  Mn  Mn11  1  0.868674  0.769495  0.500000  1
  Mn  Mn12  1  0.900821  0.131326  0.500000  1
  Mn  Mn13  1  0.230505  0.099179  0.500000  1
  P  P14  1  0.878453  0.589124  0.000000  1
  P  P15  1  0.710671  0.121547  0.000000  1
  P  P16  1  0.410876  0.289329  0.000000  1
  P  P17  1  0.290054  0.876020  0.500000  1
  P  P18  1  0.585966  0.709946  0.500000  1
  P  P19  1  0.123980  0.414034  0.500000  1
  P  P20  1  0.000000  0.000000  0.000000  1
