# generated using pymatgen
data_LaTb3Ho4(CdNi)2
_symmetry_space_group_name_H-M   'P 1'
_cell_length_a   9.62226086
_cell_length_b   9.62226168
_cell_length_c   9.61975900
_cell_angle_alpha   60.00859999
_cell_angle_beta   60.00859716
_cell_angle_gamma   60.28036789
_symmetry_Int_Tables_number   1
_chemical_formula_structural   LaTb3Ho4(CdNi)2
_chemical_formula_sum   'La2 Tb6 Ho8 Cd4 Ni4'
_cell_volume   631.20718243
_cell_formula_units_Z   2
loop_
 _symmetry_equiv_pos_site_id
 _symmetry_equiv_pos_as_xyz
  1  'x, y, z'
loop_
 _atom_site_type_symbol
 _atom_site_label
 _atom_site_symmetry_multiplicity
 _atom_site_fract_x
 _atom_site_fract_y
 _atom_site_fract_z
 _atom_site_occupancy
  La  La0  1  0.344838  0.344838  0.352563  1
  La  La1  1  0.344838  0.344838  0.957761  1
  Tb  Tb2  1  0.936957  0.565708  0.564315  1
  Tb  Tb3  1  0.565708  0.936957  0.933021  1
  Tb  Tb4  1  0.565708  0.936957  0.564315  1
  Tb  Tb5  1  0.936957  0.565708  0.933021  1
  Tb  Tb6  1  0.564585  0.564585  0.935415  1
  Tb  Tb7  1  0.939274  0.939274  0.560726  1
  Ho  Ho8  1  0.351529  0.946354  0.351058  1
  Ho  Ho9  1  0.946354  0.351529  0.351058  1
  Ho  Ho10  1  0.815259  0.188461  0.184634  1
  Ho  Ho11  1  0.188461  0.815259  0.811645  1
  Ho  Ho12  1  0.188461  0.815259  0.184634  1
  Ho  Ho13  1  0.815259  0.188461  0.811645  1
  Ho  Ho14  1  0.186278  0.186278  0.813722  1
  Ho  Ho15  1  0.813734  0.813734  0.186266  1
  Cd  Cd16  1  0.582597  0.582597  0.578142  1
  Cd  Cd17  1  0.582597  0.582597  0.256664  1
  Cd  Cd18  1  0.584043  0.255127  0.580414  1
  Cd  Cd19  1  0.255127  0.584043  0.580414  1
  Ni  Ni20  1  0.138385  0.138385  0.150397  1
  Ni  Ni21  1  0.138385  0.138385  0.572831  1
  Ni  Ni22  1  0.137347  0.577316  0.142669  1
  Ni  Ni23  1  0.577316  0.137347  0.142669  1
