# generated using pymatgen
data_YHo7Al8
_symmetry_space_group_name_H-M   'P 1'
_cell_length_a   5.60328900
_cell_length_b   5.83509002
_cell_length_c   11.38288404
_cell_angle_alpha   89.99084881
_cell_angle_beta   90.00000000
_cell_angle_gamma   90.00000000
_symmetry_Int_Tables_number   1
_chemical_formula_structural   YHo7Al8
_chemical_formula_sum   'Y1 Ho7 Al8'
_cell_volume   372.17130807
_cell_formula_units_Z   1
loop_
 _symmetry_equiv_pos_site_id
 _symmetry_equiv_pos_as_xyz
  1  'x, y, z'
loop_
 _atom_site_type_symbol
 _atom_site_label
 _atom_site_symmetry_multiplicity
 _atom_site_fract_x
 _atom_site_fract_y
 _atom_site_fract_z
 _atom_site_occupancy
  Y  Y0  1  0.750000  0.161183  0.483959  1
  Ho  Ho1  1  0.250000  0.838233  0.516129  1
  Ho  Ho2  1  0.250000  0.161011  0.015966  1
  Ho  Ho3  1  0.750000  0.838989  0.983959  1
  Ho  Ho4  1  0.750000  0.396989  0.168213  1
  Ho  Ho5  1  0.250000  0.603134  0.831735  1
  Ho  Ho6  1  0.250000  0.397107  0.331317  1
  Ho  Ho7  1  0.750000  0.603451  0.668711  1
  Al  Al8  1  0.499959  0.928426  0.249884  1
  Al  Al9  1  0.000074  0.071414  0.750107  1
  Al  Al10  1  0.499926  0.071414  0.750107  1
  Al  Al11  1  0.000041  0.928426  0.249884  1
  Al  Al12  1  0.750000  0.659237  0.401756  1
  Al  Al13  1  0.250000  0.341003  0.598270  1
  Al  Al14  1  0.250000  0.659124  0.098059  1
  Al  Al15  1  0.750000  0.340859  0.901943  1
