# generated using pymatgen
data_Tm6Sc4InSn5
_symmetry_space_group_name_H-M   'P 1'
_cell_length_a   6.25339800
_cell_length_b   8.72479283
_cell_length_c   8.73477078
_cell_angle_alpha   119.96221886
_cell_angle_beta   89.99963329
_cell_angle_gamma   90.00073709
_symmetry_Int_Tables_number   1
_chemical_formula_structural   Tm6Sc4InSn5
_chemical_formula_sum   'Tm6 Sc4 In1 Sn5'
_cell_volume   412.87496640
_cell_formula_units_Z   1
loop_
 _symmetry_equiv_pos_site_id
 _symmetry_equiv_pos_as_xyz
  1  'x, y, z'
loop_
 _atom_site_type_symbol
 _atom_site_label
 _atom_site_symmetry_multiplicity
 _atom_site_fract_x
 _atom_site_fract_y
 _atom_site_fract_z
 _atom_site_occupancy
  Tm  Tm0  1  0.750000  0.237920  0.000000  1
  Tm  Tm1  1  0.750000  0.761878  0.763337  1
  Tm  Tm2  1  0.750000  0.998541  0.236663  1
  Tm  Tm3  1  0.249996  0.762919  0.000000  1
  Tm  Tm4  1  0.250000  0.238100  0.237804  1
  Tm  Tm5  1  0.250000  0.000296  0.762196  1
  Sc  Sc6  1  0.501220  0.333665  0.667183  1
  Sc  Sc7  1  0.501220  0.666482  0.332817  1
  Sc  Sc8  1  0.998777  0.666484  0.332819  1
  Sc  Sc9  1  0.998777  0.333666  0.667181  1
  In  In10  1  0.749976  0.598259  0.000000  1
  Sn  Sn11  1  0.750000  0.399567  0.399484  1
  Sn  Sn12  1  0.750000  0.000083  0.600516  1
  Sn  Sn13  1  0.250020  0.400861  0.000000  1
  Sn  Sn14  1  0.250005  0.600579  0.599880  1
  Sn  Sn15  1  0.250005  0.000699  0.400120  1
