# generated using pymatgen
data_HfZr9Sn2Sb5
_symmetry_space_group_name_H-M   'P 1'
_cell_length_a   5.90733744
_cell_length_b   8.66646377
_cell_length_c   8.65619503
_cell_angle_alpha   120.04525821
_cell_angle_beta   89.93292021
_cell_angle_gamma   90.15692283
_symmetry_Int_Tables_number   1
_chemical_formula_structural   HfZr9Sn2Sb5
_chemical_formula_sum   'Hf1 Zr9 Sn2 Sb5'
_cell_volume   383.61138542
_cell_formula_units_Z   1
loop_
 _symmetry_equiv_pos_site_id
 _symmetry_equiv_pos_as_xyz
  1  'x, y, z'
loop_
 _atom_site_type_symbol
 _atom_site_label
 _atom_site_symmetry_multiplicity
 _atom_site_fract_x
 _atom_site_fract_y
 _atom_site_fract_z
 _atom_site_occupancy
  Hf  Hf0  1  0.499528  0.333590  0.667717  1
  Zr  Zr1  1  0.499886  0.665745  0.332147  1
  Zr  Zr2  1  0.001500  0.666139  0.332620  1
  Zr  Zr3  1  0.001426  0.333534  0.667464  1
  Zr  Zr4  1  0.770973  0.268558  0.999738  1
  Zr  Zr5  1  0.773210  0.733123  0.732925  1
  Zr  Zr6  1  0.773240  0.000670  0.267322  1
  Zr  Zr7  1  0.226744  0.729650  0.999846  1
  Zr  Zr8  1  0.226692  0.268217  0.268460  1
  Zr  Zr9  1  0.226706  0.000076  0.731753  1
  Sn  Sn10  1  0.257720  0.614041  0.614340  1
  Sn  Sn11  1  0.257730  0.000436  0.386039  1
  Sb  Sb12  1  0.743780  0.613532  0.999616  1
  Sb  Sb13  1  0.744239  0.388035  0.389019  1
  Sb  Sb14  1  0.744181  0.999763  0.611354  1
  Sb  Sb15  1  0.254913  0.385556  0.999639  1
  Sb  Sb16  1  0.497527  0.999337  0.000001  1
