# generated using pymatgen
data_CeErTh(RhPb)3
_symmetry_space_group_name_H-M   'P 1'
_cell_length_a   7.71090489
_cell_length_b   7.72428699
_cell_length_c   3.97816000
_cell_angle_alpha   90.00000000
_cell_angle_beta   90.00000000
_cell_angle_gamma   119.39467619
_symmetry_Int_Tables_number   1
_chemical_formula_structural   CeErTh(RhPb)3
_chemical_formula_sum   'Ce1 Er1 Th1 Rh3 Pb3'
_cell_volume   206.43982446
_cell_formula_units_Z   1
loop_
 _symmetry_equiv_pos_site_id
 _symmetry_equiv_pos_as_xyz
  1  'x, y, z'
loop_
 _atom_site_type_symbol
 _atom_site_label
 _atom_site_symmetry_multiplicity
 _atom_site_fract_x
 _atom_site_fract_y
 _atom_site_fract_z
 _atom_site_occupancy
  Ce  Ce0  1  0.000072  0.590604  0.500000  1
  Er  Er1  1  0.594835  0.999995  0.500000  1
  Th  Th2  1  0.411146  0.410713  0.500000  1
  Rh  Rh3  1  0.006772  0.006741  0.500000  1
  Rh  Rh4  1  0.659717  0.339100  0.000000  1
  Rh  Rh5  1  0.327985  0.652250  0.000000  1
  Pb  Pb6  1  0.746602  0.751914  0.000000  1
  Pb  Pb7  1  0.264345  0.993146  0.000000  1
  Pb  Pb8  1  0.988526  0.255538  0.000000  1
