# generated using pymatgen
data_TbHo3PdPt3
_symmetry_space_group_name_H-M   'P 1'
_cell_length_a   4.50992800
_cell_length_b   5.59942996
_cell_length_c   7.02590873
_cell_angle_alpha   89.71436435
_cell_angle_beta   90.00000000
_cell_angle_gamma   90.00000000
_symmetry_Int_Tables_number   1
_chemical_formula_structural   TbHo3PdPt3
_chemical_formula_sum   'Tb1 Ho3 Pd1 Pt3'
_cell_volume   177.42325075
_cell_formula_units_Z   1
loop_
 _symmetry_equiv_pos_site_id
 _symmetry_equiv_pos_as_xyz
  1  'x, y, z'
loop_
 _atom_site_type_symbol
 _atom_site_label
 _atom_site_symmetry_multiplicity
 _atom_site_fract_x
 _atom_site_fract_y
 _atom_site_fract_z
 _atom_site_occupancy
  Tb  Tb0  1  0.250000  0.357559  0.682373  1
  Ho  Ho1  1  0.250000  0.142826  0.181315  1
  Ho  Ho2  1  0.750000  0.639157  0.314452  1
  Ho  Ho3  1  0.750000  0.860655  0.822320  1
  Pd  Pd4  1  0.250000  0.846017  0.543121  1
  Pt  Pt5  1  0.250000  0.658481  0.044819  1
  Pt  Pt6  1  0.750000  0.150597  0.456174  1
  Pt  Pt7  1  0.750000  0.344708  0.955427  1
