# generated using pymatgen
data_Er8ReRuBr8
_symmetry_space_group_name_H-M   'P 1'
_cell_length_a   8.88106726
_cell_length_b   8.88106805
_cell_length_c   6.54430300
_cell_angle_alpha   89.49216509
_cell_angle_beta   89.49216358
_cell_angle_gamma   89.40926326
_symmetry_Int_Tables_number   1
_chemical_formula_structural   Er8ReRuBr8
_chemical_formula_sum   'Er8 Re1 Ru1 Br8'
_cell_volume   516.10361413
_cell_formula_units_Z   1
loop_
 _symmetry_equiv_pos_site_id
 _symmetry_equiv_pos_as_xyz
  1  'x, y, z'
loop_
 _atom_site_type_symbol
 _atom_site_label
 _atom_site_symmetry_multiplicity
 _atom_site_fract_x
 _atom_site_fract_y
 _atom_site_fract_z
 _atom_site_occupancy
  Er  Er0  1  0.248314  0.901446  0.011756  1
  Er  Er1  1  0.750561  0.099127  0.990234  1
  Er  Er2  1  0.098554  0.751686  0.488244  1
  Er  Er3  1  0.900873  0.249439  0.509766  1
  Er  Er4  1  0.752064  0.902593  0.507888  1
  Er  Er5  1  0.247826  0.097260  0.490077  1
  Er  Er6  1  0.097407  0.247936  0.992112  1
  Er  Er7  1  0.902740  0.752174  0.009923  1
  Re  Re8  1  0.994493  0.005507  0.250000  1
  Ru  Ru9  1  0.006081  0.993919  0.750000  1
  Br  Br10  1  0.422153  0.816071  0.404641  1
  Br  Br11  1  0.578352  0.183860  0.595851  1
  Br  Br12  1  0.183929  0.577847  0.095359  1
  Br  Br13  1  0.816140  0.421648  0.904149  1
  Br  Br14  1  0.417749  0.193260  0.097493  1
  Br  Br15  1  0.582857  0.806832  0.902295  1
  Br  Br16  1  0.806740  0.582251  0.402507  1
  Br  Br17  1  0.193168  0.417143  0.597705  1
