# generated using pymatgen
data_Tm6Hf2Fe(Co5P4)3
_symmetry_space_group_name_H-M   'P 1'
_cell_length_a   3.69519500
_cell_length_b   10.63315000
_cell_length_c   12.27755000
_cell_angle_alpha   90.00000000
_cell_angle_beta   90.00000000
_cell_angle_gamma   90.00000000
_symmetry_Int_Tables_number   1
_chemical_formula_structural   Tm6Hf2Fe(Co5P4)3
_chemical_formula_sum   'Tm6 Hf2 Fe1 Co15 P12'
_cell_volume   482.40412580
_cell_formula_units_Z   1
loop_
 _symmetry_equiv_pos_site_id
 _symmetry_equiv_pos_as_xyz
  1  'x, y, z'
loop_
 _atom_site_type_symbol
 _atom_site_label
 _atom_site_symmetry_multiplicity
 _atom_site_fract_x
 _atom_site_fract_y
 _atom_site_fract_z
 _atom_site_occupancy
  Tm  Tm0  1  0.000000  0.500000  0.529105  1
  Tm  Tm1  1  0.500000  0.000000  0.470698  1
  Tm  Tm2  1  0.500000  0.822230  0.204427  1
  Tm  Tm3  1  0.500000  0.177770  0.204427  1
  Tm  Tm4  1  0.000000  0.676657  0.795536  1
  Tm  Tm5  1  0.000000  0.323343  0.795536  1
  Hf  Hf6  1  0.500000  0.500000  0.157893  1
  Hf  Hf7  1  0.000000  0.000000  0.841870  1
  Fe  Fe8  1  0.000000  0.500000  0.987275  1
  Co  Co9  1  0.500000  0.500000  0.703035  1
  Co  Co10  1  0.000000  0.000000  0.296915  1
  Co  Co11  1  0.500000  0.000000  0.013127  1
  Co  Co12  1  0.500000  0.329513  0.994332  1
  Co  Co13  1  0.500000  0.670487  0.994332  1
  Co  Co14  1  0.000000  0.167054  0.006610  1
  Co  Co15  1  0.000000  0.832946  0.006610  1
  Co  Co16  1  0.500000  0.295335  0.433481  1
  Co  Co17  1  0.500000  0.704665  0.433481  1
  Co  Co18  1  0.000000  0.204778  0.566962  1
  Co  Co19  1  0.000000  0.795222  0.566962  1
  Co  Co20  1  0.500000  0.877596  0.702103  1
  Co  Co21  1  0.500000  0.122404  0.702103  1
  Co  Co22  1  0.000000  0.623013  0.297660  1
  Co  Co23  1  0.000000  0.376987  0.297660  1
  P  P24  1  0.500000  0.500000  0.885293  1
  P  P25  1  0.000000  0.000000  0.117179  1
  P  P26  1  0.500000  0.500000  0.363301  1
  P  P27  1  0.000000  0.000000  0.636477  1
  P  P28  1  0.500000  0.311065  0.616468  1
  P  P29  1  0.500000  0.688935  0.616468  1
  P  P30  1  0.000000  0.188952  0.383675  1
  P  P31  1  0.000000  0.811048  0.383675  1
  P  P32  1  0.500000  0.838047  0.891769  1
  P  P33  1  0.500000  0.161953  0.891769  1
  P  P34  1  0.000000  0.661196  0.105894  1
  P  P35  1  0.000000  0.338804  0.105894  1
