# generated using pymatgen
data_Sm2Dy2Y(CoB3)2
_symmetry_space_group_name_H-M   'P 1'
_cell_length_a   5.42211307
_cell_length_b   5.42211156
_cell_length_c   8.52732654
_cell_angle_alpha   71.46247220
_cell_angle_beta   71.46247635
_cell_angle_gamma   59.99999043
_symmetry_Int_Tables_number   1
_chemical_formula_structural   Sm2Dy2Y(CoB3)2
_chemical_formula_sum   'Sm2 Dy2 Y1 Co2 B6'
_cell_volume   201.95124881
_cell_formula_units_Z   1
loop_
 _symmetry_equiv_pos_site_id
 _symmetry_equiv_pos_as_xyz
  1  'x, y, z'
loop_
 _atom_site_type_symbol
 _atom_site_label
 _atom_site_symmetry_multiplicity
 _atom_site_fract_x
 _atom_site_fract_y
 _atom_site_fract_z
 _atom_site_occupancy
  Sm  Sm0  1  0.252540  0.252540  0.242380  1
  Sm  Sm1  1  0.747460  0.747460  0.757620  1
  Dy  Dy2  1  0.418517  0.418517  0.744446  1
  Dy  Dy3  1  0.581483  0.581483  0.255554  1
  Y  Y4  1  0.000000  0.000000  0.000000  1
  Co  Co5  1  0.120685  0.120685  0.637945  1
  Co  Co6  1  0.879315  0.879315  0.362055  1
  B  B7  1  0.168004  0.831996  0.500000  1
  B  B8  1  0.831996  0.500000  0.500000  1
  B  B9  1  0.500000  0.168004  0.500000  1
  B  B10  1  0.168004  0.500000  0.500000  1
  B  B11  1  0.500000  0.831996  0.500000  1
  B  B12  1  0.831996  0.168004  0.500000  1
