# generated using pymatgen
data_LuSc2(CuSi)4
_symmetry_space_group_name_H-M   'P 1'
_cell_length_a   3.97176860
_cell_length_b   6.48919667
_cell_length_c   7.60546115
_cell_angle_alpha   115.25287714
_cell_angle_beta   105.13610871
_cell_angle_gamma   90.00000220
_symmetry_Int_Tables_number   1
_chemical_formula_structural   LuSc2(CuSi)4
_chemical_formula_sum   'Lu1 Sc2 Cu4 Si4'
_cell_volume   169.73798909
_cell_formula_units_Z   1
loop_
 _symmetry_equiv_pos_site_id
 _symmetry_equiv_pos_as_xyz
  1  'x, y, z'
loop_
 _atom_site_type_symbol
 _atom_site_label
 _atom_site_symmetry_multiplicity
 _atom_site_fract_x
 _atom_site_fract_y
 _atom_site_fract_z
 _atom_site_occupancy
  Lu  Lu0  1  0.000000  0.500000  0.000000  1
  Sc  Sc1  1  0.874522  0.874522  0.749045  1
  Sc  Sc2  1  0.125478  0.125478  0.250955  1
  Cu  Cu3  1  0.671225  0.864263  0.342451  1
  Cu  Cu4  1  0.671225  0.478188  0.342451  1
  Cu  Cu5  1  0.328775  0.521812  0.657549  1
  Cu  Cu6  1  0.328775  0.135737  0.657549  1
  Si  Si7  1  0.780128  0.280128  0.560257  1
  Si  Si8  1  0.219872  0.719872  0.439743  1
  Si  Si9  1  0.500000  0.182879  0.000000  1
  Si  Si10  1  0.500000  0.817121  0.000000  1
