# generated using pymatgen
data_Tb18DyScPb16
_symmetry_space_group_name_H-M   'P 1'
_cell_length_a   8.20833558
_cell_length_b   15.69515500
_cell_length_c   8.30001400
_cell_angle_alpha   90.00000000
_cell_angle_beta   89.96440101
_cell_angle_gamma   90.00000000
_symmetry_Int_Tables_number   1
_chemical_formula_structural   Tb18DyScPb16
_chemical_formula_sum   'Tb18 Dy1 Sc1 Pb16'
_cell_volume   1069.29972134
_cell_formula_units_Z   1
loop_
 _symmetry_equiv_pos_site_id
 _symmetry_equiv_pos_as_xyz
  1  'x, y, z'
loop_
 _atom_site_type_symbol
 _atom_site_label
 _atom_site_symmetry_multiplicity
 _atom_site_fract_x
 _atom_site_fract_y
 _atom_site_fract_z
 _atom_site_occupancy
  Tb  Tb0  1  0.623766  0.620809  0.159481  1
  Tb  Tb1  1  0.121617  0.878864  0.342090  1
  Tb  Tb2  1  0.377082  0.120464  0.841161  1
  Tb  Tb3  1  0.876877  0.379977  0.659056  1
  Tb  Tb4  1  0.377082  0.379536  0.841161  1
  Tb  Tb5  1  0.876877  0.120023  0.659056  1
  Tb  Tb6  1  0.623766  0.879191  0.159481  1
  Tb  Tb7  1  0.121617  0.621136  0.342090  1
  Tb  Tb8  1  0.466677  0.600284  0.675744  1
  Tb  Tb9  1  0.965187  0.899798  0.822248  1
  Tb  Tb10  1  0.534016  0.099600  0.323125  1
  Tb  Tb11  1  0.034015  0.399983  0.176388  1
  Tb  Tb12  1  0.534016  0.400400  0.323125  1
  Tb  Tb13  1  0.034015  0.100017  0.176388  1
  Tb  Tb14  1  0.466677  0.899716  0.675744  1
  Tb  Tb15  1  0.965187  0.600202  0.822248  1
  Tb  Tb16  1  0.291460  0.750000  0.003451  1
  Tb  Tb17  1  0.208891  0.250000  0.503572  1
  Dy  Dy18  1  0.709012  0.250000  0.996108  1
  Sc  Sc19  1  0.790265  0.750000  0.495910  1
  Pb  Pb20  1  0.718560  0.457135  0.966864  1
  Pb  Pb21  1  0.218535  0.042540  0.533630  1
  Pb  Pb22  1  0.281246  0.956982  0.033665  1
  Pb  Pb23  1  0.781416  0.545166  0.467568  1
  Pb  Pb24  1  0.281246  0.543018  0.033665  1
  Pb  Pb25  1  0.781416  0.954834  0.467568  1
  Pb  Pb26  1  0.718560  0.042865  0.966864  1
  Pb  Pb27  1  0.218535  0.457460  0.533630  1
  Pb  Pb28  1  0.432262  0.750000  0.377123  1
  Pb  Pb29  1  0.925498  0.750000  0.129000  1
  Pb  Pb30  1  0.573370  0.250000  0.625832  1
  Pb  Pb31  1  0.072408  0.250000  0.874483  1
  Pb  Pb32  1  0.656959  0.750000  0.842125  1
  Pb  Pb33  1  0.151004  0.750000  0.650489  1
  Pb  Pb34  1  0.345867  0.250000  0.152220  1
  Pb  Pb35  1  0.845013  0.250000  0.347642  1
