# generated using pymatgen
data_Ti3Si3MoPIr4
_symmetry_space_group_name_H-M   'P 1'
_cell_length_a   3.80962200
_cell_length_b   6.31420009
_cell_length_c   7.21527705
_cell_angle_alpha   89.78686702
_cell_angle_beta   90.00000000
_cell_angle_gamma   90.00000000
_symmetry_Int_Tables_number   1
_chemical_formula_structural   Ti3Si3MoPIr4
_chemical_formula_sum   'Ti3 Si3 Mo1 P1 Ir4'
_cell_volume   173.56023636
_cell_formula_units_Z   1
loop_
 _symmetry_equiv_pos_site_id
 _symmetry_equiv_pos_as_xyz
  1  'x, y, z'
loop_
 _atom_site_type_symbol
 _atom_site_label
 _atom_site_symmetry_multiplicity
 _atom_site_fract_x
 _atom_site_fract_y
 _atom_site_fract_z
 _atom_site_occupancy
  Ti  Ti0  1  0.250000  0.526955  0.678411  1
  Ti  Ti1  1  0.750000  0.975048  0.175241  1
  Ti  Ti2  1  0.750000  0.474133  0.324098  1
  Si  Si3  1  0.250000  0.264100  0.118049  1
  Si  Si4  1  0.750000  0.228260  0.628044  1
  Si  Si5  1  0.750000  0.738437  0.875526  1
  Mo  Mo6  1  0.250000  0.025248  0.825676  1
  P  P7  1  0.250000  0.762725  0.377739  1
  Ir  Ir8  1  0.250000  0.148432  0.435895  1
  Ir  Ir9  1  0.250000  0.652787  0.069237  1
  Ir  Ir10  1  0.750000  0.845261  0.555559  1
  Ir  Ir11  1  0.750000  0.358614  0.936526  1
