# generated using pymatgen
data_CaFe2(Sb6Rh)2
_symmetry_space_group_name_H-M   'P 1'
_cell_length_a   8.04311996
_cell_length_b   8.04312069
_cell_length_c   8.06478411
_cell_angle_alpha   109.45320388
_cell_angle_beta   109.41772219
_cell_angle_gamma   109.43381849
_symmetry_Int_Tables_number   1
_chemical_formula_structural   CaFe2(Sb6Rh)2
_chemical_formula_sum   'Ca1 Fe2 Sb12 Rh2'
_cell_volume   402.16322794
_cell_formula_units_Z   1
loop_
 _symmetry_equiv_pos_site_id
 _symmetry_equiv_pos_as_xyz
  1  'x, y, z'
loop_
 _atom_site_type_symbol
 _atom_site_label
 _atom_site_symmetry_multiplicity
 _atom_site_fract_x
 _atom_site_fract_y
 _atom_site_fract_z
 _atom_site_occupancy
  Ca  Ca0  1  0.000000  0.000000  0.000000  1
  Fe  Fe1  1  0.000000  0.000000  0.500000  1
  Fe  Fe2  1  0.500000  0.500000  0.500000  1
  Sb  Sb3  1  0.330347  0.177883  0.834415  1
  Sb  Sb4  1  0.162899  0.330947  0.493847  1
  Sb  Sb5  1  0.669653  0.822117  0.165585  1
  Sb  Sb6  1  0.343467  0.495932  0.165585  1
  Sb  Sb7  1  0.656533  0.504068  0.834415  1
  Sb  Sb8  1  0.503280  0.834019  0.656112  1
  Sb  Sb9  1  0.837101  0.669053  0.506153  1
  Sb  Sb10  1  0.845472  0.344005  0.189477  1
  Sb  Sb11  1  0.177907  0.847168  0.343888  1
  Sb  Sb12  1  0.496720  0.165981  0.343888  1
  Sb  Sb13  1  0.822093  0.152832  0.656112  1
  Sb  Sb14  1  0.154528  0.655995  0.810523  1
  Rh  Rh15  1  0.000000  0.500000  0.000000  1
  Rh  Rh16  1  0.500000  0.000000  0.000000  1
