# generated using pymatgen
data_Ca2NdPd12
_symmetry_space_group_name_H-M   'P 1'
_cell_length_a   5.35036885
_cell_length_b   5.35036771
_cell_length_c   11.36990076
_cell_angle_alpha   94.71408336
_cell_angle_beta   94.71408466
_cell_angle_gamma   120.21248286
_symmetry_Int_Tables_number   1
_chemical_formula_structural   Ca2NdPd12
_chemical_formula_sum   'Ca2 Nd1 Pd12'
_cell_volume   277.41797099
_cell_formula_units_Z   1
loop_
 _symmetry_equiv_pos_site_id
 _symmetry_equiv_pos_as_xyz
  1  'x, y, z'
loop_
 _atom_site_type_symbol
 _atom_site_label
 _atom_site_symmetry_multiplicity
 _atom_site_fract_x
 _atom_site_fract_y
 _atom_site_fract_z
 _atom_site_occupancy
  Ca  Ca0  1  0.998708  0.998708  0.995012  1
  Ca  Ca1  1  0.870852  0.870852  0.649912  1
  Nd  Nd2  1  0.130950  0.130950  0.357304  1
  Pd  Pd3  1  0.670367  0.329324  0.999616  1
  Pd  Pd4  1  0.329324  0.670367  0.999616  1
  Pd  Pd5  1  0.572705  0.071188  0.202947  1
  Pd  Pd6  1  0.071188  0.572705  0.202947  1
  Pd  Pd7  1  0.568638  0.568638  0.200638  1
  Pd  Pd8  1  0.810574  0.483348  0.409662  1
  Pd  Pd9  1  0.483348  0.810574  0.409662  1
  Pd  Pd10  1  0.516257  0.189118  0.590416  1
  Pd  Pd11  1  0.189118  0.516257  0.590416  1
  Pd  Pd12  1  0.432822  0.432822  0.798906  1
  Pd  Pd13  1  0.928926  0.426223  0.796473  1
  Pd  Pd14  1  0.426223  0.928926  0.796473  1
