# generated using pymatgen
data_Dy3Ho9Ga2(NiRu)2
_symmetry_space_group_name_H-M   'P 1'
_cell_length_a   8.31418518
_cell_length_b   8.31215286
_cell_length_c   8.31214971
_cell_angle_alpha   112.95762133
_cell_angle_beta   110.23717831
_cell_angle_gamma   105.30131655
_symmetry_Int_Tables_number   1
_chemical_formula_structural   Dy3Ho9Ga2(NiRu)2
_chemical_formula_sum   'Dy3 Ho9 Ga2 Ni2 Ru2'
_cell_volume   440.24877473
_cell_formula_units_Z   1
loop_
 _symmetry_equiv_pos_site_id
 _symmetry_equiv_pos_as_xyz
  1  'x, y, z'
loop_
 _atom_site_type_symbol
 _atom_site_label
 _atom_site_symmetry_multiplicity
 _atom_site_fract_x
 _atom_site_fract_y
 _atom_site_fract_z
 _atom_site_occupancy
  Dy  Dy0  1  0.435307  0.242029  0.193278  1
  Dy  Dy1  1  0.564420  0.757742  0.806677  1
  Dy  Dy2  1  0.048795  0.242158  0.806636  1
  Ho  Ho3  1  0.951388  0.757982  0.193406  1
  Ho  Ho4  1  0.179344  0.278548  0.458272  1
  Ho  Ho5  1  0.820229  0.721011  0.541037  1
  Ho  Ho6  1  0.179343  0.721071  0.900795  1
  Ho  Ho7  1  0.820228  0.279193  0.099217  1
  Ho  Ho8  1  0.329082  0.641237  0.311529  1
  Ho  Ho9  1  0.670676  0.359017  0.688517  1
  Ho  Ho10  1  0.329082  0.017553  0.687843  1
  Ho  Ho11  1  0.670675  0.982157  0.311660  1
  Ga  Ga12  1  0.500774  0.500290  0.000484  1
  Ga  Ga13  1  0.999518  0.999555  0.999962  1
  Ni  Ni14  1  0.118928  0.618166  0.500762  1
  Ni  Ni15  1  0.882696  0.382432  0.500264  1
  Ru  Ru16  1  0.329217  0.999849  0.329368  1
  Ru  Ru17  1  0.670298  0.000008  0.670291  1
