# generated using pymatgen
data_CdRe2Hg3O10
_symmetry_space_group_name_H-M   'P 1'
_cell_length_a   8.46391878
_cell_length_b   9.49954076
_cell_length_c   9.37501849
_cell_angle_alpha   119.45840401
_cell_angle_beta   101.73568297
_cell_angle_gamma   86.01630941
_symmetry_Int_Tables_number   1
_chemical_formula_structural   CdRe2Hg3O10
_chemical_formula_sum   'Cd2 Re4 Hg6 O20'
_cell_volume   642.19587311
_cell_formula_units_Z   2
loop_
 _symmetry_equiv_pos_site_id
 _symmetry_equiv_pos_as_xyz
  1  'x, y, z'
loop_
 _atom_site_type_symbol
 _atom_site_label
 _atom_site_symmetry_multiplicity
 _atom_site_fract_x
 _atom_site_fract_y
 _atom_site_fract_z
 _atom_site_occupancy
  Cd  Cd0  1  0.000000  0.000000  0.000000  1
  Cd  Cd1  1  0.500000  0.000000  0.500000  1
  Re  Re2  1  0.890179  0.756969  0.481368  1
  Re  Re3  1  0.717612  0.324187  0.978741  1
  Re  Re4  1  0.282388  0.675813  0.021259  1
  Re  Re5  1  0.109821  0.243031  0.518632  1
  Hg  Hg6  1  0.370052  0.613696  0.424014  1
  Hg  Hg7  1  0.698255  0.680662  0.812631  1
  Hg  Hg8  1  0.629948  0.386304  0.575986  1
  Hg  Hg9  1  0.345038  0.963906  0.807656  1
  Hg  Hg10  1  0.301745  0.319338  0.187369  1
  Hg  Hg11  1  0.654962  0.036094  0.192344  1
  O  O12  1  0.246297  0.116179  0.568045  1
  O  O13  1  0.464388  0.851202  0.614299  1
  O  O14  1  0.086970  0.741253  0.978600  1
  O  O15  1  0.245603  0.069681  0.015077  1
  O  O16  1  0.030697  0.144639  0.301214  1
  O  O17  1  0.969303  0.855361  0.698786  1
  O  O18  1  0.361853  0.780436  0.238563  1
  O  O19  1  0.754397  0.930319  0.984923  1
  O  O20  1  0.913030  0.258747  0.021400  1
  O  O21  1  0.724648  0.530828  0.046554  1
  O  O22  1  0.049715  0.713788  0.375724  1
  O  O23  1  0.275352  0.469172  0.953446  1
  O  O24  1  0.753703  0.883821  0.431955  1
  O  O25  1  0.789686  0.577335  0.424323  1
  O  O26  1  0.210314  0.422665  0.575677  1
  O  O27  1  0.638147  0.219564  0.761437  1
  O  O28  1  0.535612  0.148798  0.385701  1
  O  O29  1  0.591541  0.282906  0.081461  1
  O  O30  1  0.950285  0.286212  0.624276  1
  O  O31  1  0.408459  0.717094  0.918539  1
