# generated using pymatgen
data_Ba3NaPt2O9
_symmetry_space_group_name_H-M   'P 1'
_cell_length_a   5.95058000
_cell_length_b   5.95057948
_cell_length_c   14.95471000
_cell_angle_alpha   90.00000000
_cell_angle_beta   90.00000000
_cell_angle_gamma   119.99998066
_symmetry_Int_Tables_number   1
_chemical_formula_structural   Ba3NaPt2O9
_chemical_formula_sum   'Ba6 Na2 Pt4 O18'
_cell_volume   458.59284066
_cell_formula_units_Z   2
loop_
 _symmetry_equiv_pos_site_id
 _symmetry_equiv_pos_as_xyz
  1  'x, y, z'
loop_
 _atom_site_type_symbol
 _atom_site_label
 _atom_site_symmetry_multiplicity
 _atom_site_fract_x
 _atom_site_fract_y
 _atom_site_fract_z
 _atom_site_occupancy
  Ba  Ba0  1  0.666667  0.333333  0.080923  1
  Ba  Ba1  1  0.333333  0.666667  0.580923  1
  Ba  Ba2  1  0.333333  0.666667  0.919077  1
  Ba  Ba3  1  0.666667  0.333333  0.419077  1
  Ba  Ba4  1  0.000000  0.000000  0.250000  1
  Ba  Ba5  1  0.000000  0.000000  0.750000  1
  Na  Na6  1  0.000000  0.000000  0.000000  1
  Na  Na7  1  0.000000  0.000000  0.500000  1
  Pt  Pt8  1  0.333333  0.666667  0.157596  1
  Pt  Pt9  1  0.666667  0.333333  0.657596  1
  Pt  Pt10  1  0.666667  0.333333  0.842404  1
  Pt  Pt11  1  0.333333  0.666667  0.342404  1
  O  O12  1  0.176084  0.352169  0.086374  1
  O  O13  1  0.823916  0.176084  0.586374  1
  O  O14  1  0.352169  0.176084  0.586374  1
  O  O15  1  0.647831  0.823916  0.086374  1
  O  O16  1  0.176084  0.823916  0.086374  1
  O  O17  1  0.823916  0.647831  0.913626  1
  O  O18  1  0.823916  0.176084  0.913626  1
  O  O19  1  0.823916  0.647831  0.586374  1
  O  O20  1  0.352169  0.176084  0.913626  1
  O  O21  1  0.647831  0.823916  0.413626  1
  O  O22  1  0.176084  0.352169  0.413626  1
  O  O23  1  0.176084  0.823916  0.413626  1
  O  O24  1  0.034398  0.517199  0.250000  1
  O  O25  1  0.517199  0.034398  0.750000  1
  O  O26  1  0.517199  0.482801  0.750000  1
  O  O27  1  0.482801  0.517199  0.250000  1
  O  O28  1  0.482801  0.965602  0.250000  1
  O  O29  1  0.965602  0.482801  0.750000  1
