# generated using pymatgen
data_Sr2Ca2Nd3Ni4Sn13
_symmetry_space_group_name_H-M   'P 1'
_cell_length_a   11.38385080
_cell_length_b   11.38341477
_cell_length_c   4.65306300
_cell_angle_alpha   90.00000000
_cell_angle_beta   90.00000000
_cell_angle_gamma   90.06420817
_symmetry_Int_Tables_number   1
_chemical_formula_structural   Sr2Ca2Nd3Ni4Sn13
_chemical_formula_sum   'Sr2 Ca2 Nd3 Ni4 Sn13'
_cell_volume   602.97654018
_cell_formula_units_Z   1
loop_
 _symmetry_equiv_pos_site_id
 _symmetry_equiv_pos_as_xyz
  1  'x, y, z'
loop_
 _atom_site_type_symbol
 _atom_site_label
 _atom_site_symmetry_multiplicity
 _atom_site_fract_x
 _atom_site_fract_y
 _atom_site_fract_z
 _atom_site_occupancy
  Sr  Sr0  1  0.001419  0.499553  0.000000  1
  Sr  Sr1  1  0.498363  0.998375  0.000000  1
  Ca  Ca2  1  0.162498  0.827326  0.000000  1
  Ca  Ca3  1  0.174525  0.162334  0.000000  1
  Nd  Nd4  1  0.837019  0.175207  0.000000  1
  Nd  Nd5  1  0.826736  0.837616  0.000000  1
  Nd  Nd6  1  0.499363  0.499169  0.500000  1
  Ni  Ni7  1  0.776039  0.618657  0.500000  1
  Ni  Ni8  1  0.381424  0.776266  0.500000  1
  Ni  Ni9  1  0.620346  0.225375  0.500000  1
  Ni  Ni10  1  0.225089  0.379623  0.500000  1
  Sn  Sn11  1  0.021464  0.278382  0.500000  1
  Sn  Sn12  1  0.979266  0.720913  0.500000  1
  Sn  Sn13  1  0.216876  0.611473  0.500000  1
  Sn  Sn14  1  0.576263  0.308160  0.000000  1
  Sn  Sn15  1  0.690125  0.578620  0.000000  1
  Sn  Sn16  1  0.786023  0.388340  0.500000  1
  Sn  Sn17  1  0.720418  0.021236  0.500000  1
  Sn  Sn18  1  0.997075  0.000754  0.500000  1
  Sn  Sn19  1  0.279611  0.979463  0.500000  1
  Sn  Sn20  1  0.420699  0.690279  0.000000  1
  Sn  Sn21  1  0.612445  0.784546  0.500000  1
  Sn  Sn22  1  0.308076  0.422679  0.000000  1
  Sn  Sn23  1  0.388839  0.215653  0.500000  1
