# generated using pymatgen
data_Th2GaSi4Rh3
_symmetry_space_group_name_H-M   'P 1'
_cell_length_a   8.31143799
_cell_length_b   8.31143845
_cell_length_c   5.84858014
_cell_angle_alpha   70.63656953
_cell_angle_beta   70.63656392
_cell_angle_gamma   93.77551393
_symmetry_Int_Tables_number   1
_chemical_formula_structural   Th2GaSi4Rh3
_chemical_formula_sum   'Th4 Ga2 Si8 Rh6'
_cell_volume   352.52305163
_cell_formula_units_Z   2
loop_
 _symmetry_equiv_pos_site_id
 _symmetry_equiv_pos_as_xyz
  1  'x, y, z'
loop_
 _atom_site_type_symbol
 _atom_site_label
 _atom_site_symmetry_multiplicity
 _atom_site_fract_x
 _atom_site_fract_y
 _atom_site_fract_z
 _atom_site_occupancy
  Th  Th0  1  0.866948  0.600317  0.762852  1
  Th  Th1  1  0.133052  0.399683  0.237148  1
  Th  Th2  1  0.399683  0.133052  0.737148  1
  Th  Th3  1  0.600317  0.866948  0.262852  1
  Ga  Ga4  1  0.774422  0.225578  0.750000  1
  Ga  Ga5  1  0.225578  0.774422  0.250000  1
  Si  Si6  1  0.514286  0.485714  0.750000  1
  Si  Si7  1  0.485714  0.514286  0.250000  1
  Si  Si8  1  0.215151  0.784849  0.750000  1
  Si  Si9  1  0.784849  0.215151  0.250000  1
  Si  Si10  1  0.261858  0.051538  0.340932  1
  Si  Si11  1  0.738142  0.948462  0.659068  1
  Si  Si12  1  0.948462  0.738142  0.159068  1
  Si  Si13  1  0.051538  0.261858  0.840932  1
  Rh  Rh14  1  0.531275  0.262529  0.136725  1
  Rh  Rh15  1  0.737471  0.468725  0.363275  1
  Rh  Rh16  1  0.468725  0.737471  0.863275  1
  Rh  Rh17  1  0.262529  0.531275  0.636725  1
  Rh  Rh18  1  0.992617  0.007383  0.250000  1
  Rh  Rh19  1  0.007383  0.992617  0.750000  1
