# generated using pymatgen
data_OsRu6W
_symmetry_space_group_name_H-M   'P 1'
_cell_length_a   5.49154300
_cell_length_b   5.49154211
_cell_length_c   4.35713600
_cell_angle_alpha   90.00000000
_cell_angle_beta   90.00000000
_cell_angle_gamma   119.99999936
_symmetry_Int_Tables_number   1
_chemical_formula_structural   OsRu6W
_chemical_formula_sum   'Os1 Ru6 W1'
_cell_volume   113.79428641
_cell_formula_units_Z   1
loop_
 _symmetry_equiv_pos_site_id
 _symmetry_equiv_pos_as_xyz
  1  'x, y, z'
loop_
 _atom_site_type_symbol
 _atom_site_label
 _atom_site_symmetry_multiplicity
 _atom_site_fract_x
 _atom_site_fract_y
 _atom_site_fract_z
 _atom_site_occupancy
  Os  Os0  1  0.333333  0.666667  0.750000  1
  Ru  Ru1  1  0.835396  0.164604  0.750000  1
  Ru  Ru2  1  0.329206  0.164604  0.750000  1
  Ru  Ru3  1  0.835396  0.670794  0.750000  1
  Ru  Ru4  1  0.169511  0.830489  0.250000  1
  Ru  Ru5  1  0.660980  0.830489  0.250000  1
  Ru  Ru6  1  0.169511  0.339020  0.250000  1
  W  W7  1  0.666667  0.333333  0.250000  1
