# generated using pymatgen
data_YHo2VB7
_symmetry_space_group_name_H-M   'P 1'
_cell_length_a   8.11274726
_cell_length_b   8.11274767
_cell_length_c   9.41711100
_cell_angle_alpha   90.00000000
_cell_angle_beta   90.00000000
_cell_angle_gamma   155.56826839
_symmetry_Int_Tables_number   1
_chemical_formula_structural   YHo2VB7
_chemical_formula_sum   'Y2 Ho4 V2 B14'
_cell_volume   256.35588579
_cell_formula_units_Z   2
loop_
 _symmetry_equiv_pos_site_id
 _symmetry_equiv_pos_as_xyz
  1  'x, y, z'
loop_
 _atom_site_type_symbol
 _atom_site_label
 _atom_site_symmetry_multiplicity
 _atom_site_fract_x
 _atom_site_fract_y
 _atom_site_fract_z
 _atom_site_occupancy
  Y  Y0  1  0.242997  0.757003  0.250000  1
  Y  Y1  1  0.757003  0.242997  0.750000  1
  Ho  Ho2  1  0.894473  0.105527  0.441355  1
  Ho  Ho3  1  0.105527  0.894473  0.558645  1
  Ho  Ho4  1  0.894473  0.105527  0.058645  1
  Ho  Ho5  1  0.105527  0.894473  0.941355  1
  V  V6  1  0.052554  0.947446  0.250000  1
  V  V7  1  0.947446  0.052554  0.750000  1
  B  B8  1  0.727084  0.272916  0.468475  1
  B  B9  1  0.272916  0.727084  0.531525  1
  B  B10  1  0.727084  0.272916  0.031525  1
  B  B11  1  0.272916  0.727084  0.968475  1
  B  B12  1  0.632087  0.367913  0.149503  1
  B  B13  1  0.367913  0.632087  0.850497  1
  B  B14  1  0.632087  0.367913  0.350497  1
  B  B15  1  0.367913  0.632087  0.649503  1
  B  B16  1  0.520719  0.479281  0.094902  1
  B  B17  1  0.479281  0.520719  0.905098  1
  B  B18  1  0.520719  0.479281  0.405098  1
  B  B19  1  0.479281  0.520719  0.594902  1
  B  B20  1  0.457892  0.542108  0.250000  1
  B  B21  1  0.542108  0.457892  0.750000  1
