# generated using pymatgen
data_Eu4Mn(CuSb4)2
_symmetry_space_group_name_H-M   'P 1'
_cell_length_a   11.12678722
_cell_length_b   11.12678732
_cell_length_c   11.12678779
_cell_angle_alpha   147.14711153
_cell_angle_beta   147.14711329
_cell_angle_gamma   47.14600767
_symmetry_Int_Tables_number   1
_chemical_formula_structural   Eu4Mn(CuSb4)2
_chemical_formula_sum   'Eu4 Mn1 Cu2 Sb8'
_cell_volume   403.86511900
_cell_formula_units_Z   1
loop_
 _symmetry_equiv_pos_site_id
 _symmetry_equiv_pos_as_xyz
  1  'x, y, z'
loop_
 _atom_site_type_symbol
 _atom_site_label
 _atom_site_symmetry_multiplicity
 _atom_site_fract_x
 _atom_site_fract_y
 _atom_site_fract_z
 _atom_site_occupancy
  Eu  Eu0  1  0.625690  0.625690  0.495523  1
  Eu  Eu1  1  0.130167  0.130167  0.504477  1
  Eu  Eu2  1  0.374310  0.869833  0.000000  1
  Eu  Eu3  1  0.869833  0.374310  0.000000  1
  Mn  Mn4  1  0.000000  0.000000  0.000000  1
  Cu  Cu5  1  0.000000  0.500000  0.500000  1
  Cu  Cu6  1  0.500000  0.000000  0.500000  1
  Sb  Sb7  1  0.321440  0.321440  0.507008  1
  Sb  Sb8  1  0.814432  0.814432  0.492992  1
  Sb  Sb9  1  0.678560  0.185568  0.000000  1
  Sb  Sb10  1  0.185568  0.678560  0.000000  1
  Sb  Sb11  1  0.249388  0.249388  0.000000  1
  Sb  Sb12  1  0.750612  0.750612  0.000000  1
  Sb  Sb13  1  0.750000  0.250000  0.500000  1
  Sb  Sb14  1  0.250000  0.750000  0.500000  1
