# generated using pymatgen
data_La2Er2(Ga8Pd3)3
_symmetry_space_group_name_H-M   'P 1'
_cell_length_a   7.57462329
_cell_length_b   7.62571655
_cell_length_c   13.53654462
_cell_angle_alpha   84.84393773
_cell_angle_beta   79.76522329
_cell_angle_gamma   60.06814267
_symmetry_Int_Tables_number   1
_chemical_formula_structural   La2Er2(Ga8Pd3)3
_chemical_formula_sum   'La2 Er2 Ga24 Pd9'
_cell_volume   666.82430303
_cell_formula_units_Z   1
loop_
 _symmetry_equiv_pos_site_id
 _symmetry_equiv_pos_as_xyz
  1  'x, y, z'
loop_
 _atom_site_type_symbol
 _atom_site_label
 _atom_site_symmetry_multiplicity
 _atom_site_fract_x
 _atom_site_fract_y
 _atom_site_fract_z
 _atom_site_occupancy
  La  La0  1  0.729688  0.497229  0.810946  1
  La  La1  1  0.270312  0.502771  0.189054  1
  Er  Er2  1  0.394009  0.170178  0.810929  1
  Er  Er3  1  0.605991  0.829822  0.189071  1
  Ga  Ga4  1  0.684478  0.836772  0.942776  1
  Ga  Ga5  1  0.315522  0.163228  0.057224  1
  Ga  Ga6  1  0.143183  0.835385  0.557704  1
  Ga  Ga7  1  0.856817  0.164615  0.442296  1
  Ga  Ga8  1  0.477757  0.167000  0.556945  1
  Ga  Ga9  1  0.522243  0.833000  0.443055  1
  Ga  Ga10  1  0.223096  0.160834  0.327826  1
  Ga  Ga11  1  0.776904  0.839166  0.672174  1
  Ga  Ga12  1  0.433543  0.503738  0.669509  1
  Ga  Ga13  1  0.566457  0.496262  0.330491  1
  Ga  Ga14  1  0.110727  0.160823  0.670293  1
  Ga  Ga15  1  0.889273  0.839177  0.329707  1
  Ga  Ga16  1  0.350708  0.499248  0.941189  1
  Ga  Ga17  1  0.649292  0.500752  0.058811  1
  Ga  Ga18  1  0.021926  0.164851  0.947866  1
  Ga  Ga19  1  0.978074  0.835149  0.052134  1
  Ga  Ga20  1  0.187978  0.499587  0.443888  1
  Ga  Ga21  1  0.812022  0.500413  0.556112  1
  Ga  Ga22  1  0.741234  0.153057  0.182822  1
  Ga  Ga23  1  0.258766  0.846943  0.817178  1
  Ga  Ga24  1  0.069190  0.627307  0.816483  1
  Ga  Ga25  1  0.930810  0.372693  0.183517  1
  Ga  Ga26  1  0.853984  0.031414  0.817007  1
  Ga  Ga27  1  0.146016  0.968586  0.182993  1
  Pd  Pd28  1  0.113754  0.499437  0.637678  1
  Pd  Pd29  1  0.886246  0.500563  0.362322  1
  Pd  Pd30  1  0.659684  0.171772  0.999072  1
  Pd  Pd31  1  0.340316  0.828228  0.000928  1
  Pd  Pd32  1  0.543763  0.167199  0.362191  1
  Pd  Pd33  1  0.456237  0.832801  0.637809  1
  Pd  Pd34  1  0.780166  0.171417  0.637798  1
  Pd  Pd35  1  0.219834  0.828583  0.362202  1
  Pd  Pd36  1  0.000000  0.500000  0.000000  1
