# generated using pymatgen
data_DyCoNi(PRu)3
_symmetry_space_group_name_H-M   'P 1'
_cell_length_a   3.79557100
_cell_length_b   10.68056400
_cell_length_c   12.10686200
_cell_angle_alpha   90.00000000
_cell_angle_beta   90.00000000
_cell_angle_gamma   90.00000000
_symmetry_Int_Tables_number   1
_chemical_formula_structural   DyCoNi(PRu)3
_chemical_formula_sum   'Dy4 Co4 Ni4 P12 Ru12'
_cell_volume   490.79812920
_cell_formula_units_Z   4
loop_
 _symmetry_equiv_pos_site_id
 _symmetry_equiv_pos_as_xyz
  1  'x, y, z'
loop_
 _atom_site_type_symbol
 _atom_site_label
 _atom_site_symmetry_multiplicity
 _atom_site_fract_x
 _atom_site_fract_y
 _atom_site_fract_z
 _atom_site_occupancy
  Dy  Dy0  1  0.250000  0.586864  0.706983  1
  Dy  Dy1  1  0.250000  0.913136  0.206983  1
  Dy  Dy2  1  0.750000  0.413136  0.293017  1
  Dy  Dy3  1  0.750000  0.086864  0.793017  1
  Co  Co4  1  0.250000  0.462466  0.932055  1
  Co  Co5  1  0.250000  0.037534  0.432055  1
  Co  Co6  1  0.750000  0.537534  0.067945  1
  Co  Co7  1  0.750000  0.962466  0.567945  1
  Ni  Ni8  1  0.250000  0.889927  0.698040  1
  Ni  Ni9  1  0.250000  0.610073  0.198040  1
  Ni  Ni10  1  0.750000  0.110073  0.301960  1
  Ni  Ni11  1  0.750000  0.389927  0.801960  1
  P  P12  1  0.250000  0.422311  0.109596  1
  P  P13  1  0.250000  0.077689  0.609596  1
  P  P14  1  0.750000  0.577689  0.890404  1
  P  P15  1  0.750000  0.922311  0.390404  1
  P  P16  1  0.250000  0.270252  0.874050  1
  P  P17  1  0.250000  0.229748  0.374050  1
  P  P18  1  0.750000  0.729748  0.125950  1
  P  P19  1  0.750000  0.770252  0.625950  1
  P  P20  1  0.250000  0.601162  0.389651  1
  P  P21  1  0.250000  0.898838  0.889651  1
  P  P22  1  0.750000  0.398838  0.610349  1
  P  P23  1  0.750000  0.101162  0.110349  1
  Ru  Ru24  1  0.250000  0.707607  0.987023  1
  Ru  Ru25  1  0.250000  0.792393  0.487023  1
  Ru  Ru26  1  0.750000  0.292393  0.012977  1
  Ru  Ru27  1  0.750000  0.207607  0.512977  1
  Ru  Ru28  1  0.250000  0.405914  0.486349  1
  Ru  Ru29  1  0.250000  0.094086  0.986349  1
  Ru  Ru30  1  0.750000  0.594086  0.513651  1
  Ru  Ru31  1  0.750000  0.905914  0.013651  1
  Ru  Ru32  1  0.250000  0.222356  0.181829  1
  Ru  Ru33  1  0.250000  0.277644  0.681829  1
  Ru  Ru34  1  0.750000  0.777644  0.818171  1
  Ru  Ru35  1  0.750000  0.722356  0.318171  1
