# generated using pymatgen
data_Sm4Er4Re(B8Os)3
_symmetry_space_group_name_H-M   'P 1'
_cell_length_a   3.67990400
_cell_length_b   9.18498068
_cell_length_c   11.60450900
_cell_angle_alpha   90.08260850
_cell_angle_beta   90.00000000
_cell_angle_gamma   90.00000000
_symmetry_Int_Tables_number   1
_chemical_formula_structural   Sm4Er4Re(B8Os)3
_chemical_formula_sum   'Sm4 Er4 Re1 B24 Os3'
_cell_volume   392.23022285
_cell_formula_units_Z   1
loop_
 _symmetry_equiv_pos_site_id
 _symmetry_equiv_pos_as_xyz
  1  'x, y, z'
loop_
 _atom_site_type_symbol
 _atom_site_label
 _atom_site_symmetry_multiplicity
 _atom_site_fract_x
 _atom_site_fract_y
 _atom_site_fract_z
 _atom_site_occupancy
  Sm  Sm0  1  0.000000  0.322684  0.414740  1
  Sm  Sm1  1  0.000000  0.679639  0.587639  1
  Sm  Sm2  1  0.000000  0.822403  0.083994  1
  Sm  Sm3  1  0.000000  0.176718  0.913124  1
  Er  Er4  1  0.000000  0.943422  0.371685  1
  Er  Er5  1  0.000000  0.055742  0.628025  1
  Er  Er6  1  0.000000  0.442988  0.127861  1
  Er  Er7  1  0.000000  0.556606  0.872654  1
  Re  Re8  1  0.000000  0.861572  0.820287  1
  B  B9  1  0.500000  0.555072  0.431719  1
  B  B10  1  0.500000  0.445028  0.568650  1
  B  B11  1  0.500000  0.054795  0.068799  1
  B  B12  1  0.500000  0.946054  0.931562  1
  B  B13  1  0.500000  0.749332  0.418005  1
  B  B14  1  0.500000  0.250749  0.581797  1
  B  B15  1  0.500000  0.249272  0.082233  1
  B  B16  1  0.500000  0.750469  0.917828  1
  B  B17  1  0.500000  0.790280  0.266554  1
  B  B18  1  0.500000  0.209245  0.732637  1
  B  B19  1  0.500000  0.290757  0.233490  1
  B  B20  1  0.500000  0.708673  0.766578  1
  B  B21  1  0.500000  0.630167  0.185585  1
  B  B22  1  0.500000  0.369356  0.814076  1
  B  B23  1  0.500000  0.130842  0.314628  1
  B  B24  1  0.500000  0.869413  0.685724  1
  B  B25  1  0.500000  0.984292  0.213699  1
  B  B26  1  0.500000  0.016797  0.786198  1
  B  B27  1  0.500000  0.484051  0.286856  1
  B  B28  1  0.500000  0.515935  0.713831  1
  B  B29  1  0.500000  0.601963  0.028840  1
  B  B30  1  0.500000  0.396391  0.971937  1
  B  B31  1  0.500000  0.103314  0.471142  1
  B  B32  1  0.500000  0.897216  0.527713  1
  Os  Os33  1  0.000000  0.638471  0.320028  1
  Os  Os34  1  0.000000  0.361673  0.679495  1
  Os  Os35  1  0.000000  0.138617  0.180389  1
