# generated using pymatgen
data_Ho9Lu(Zn2Bi)2
_symmetry_space_group_name_H-M   'P 1'
_cell_length_a   8.59719936
_cell_length_b   8.59719995
_cell_length_c   8.59720099
_cell_angle_alpha   123.57724394
_cell_angle_beta   123.57724766
_cell_angle_gamma   83.90821650
_symmetry_Int_Tables_number   1
_chemical_formula_structural   Ho9Lu(Zn2Bi)2
_chemical_formula_sum   'Ho9 Lu1 Zn4 Bi2'
_cell_volume   422.41179637
_cell_formula_units_Z   1
loop_
 _symmetry_equiv_pos_site_id
 _symmetry_equiv_pos_as_xyz
  1  'x, y, z'
loop_
 _atom_site_type_symbol
 _atom_site_label
 _atom_site_symmetry_multiplicity
 _atom_site_fract_x
 _atom_site_fract_y
 _atom_site_fract_z
 _atom_site_occupancy
  Ho  Ho0  1  0.500000  0.500000  0.000000  1
  Ho  Ho1  1  0.011846  0.512740  0.807020  1
  Ho  Ho2  1  0.705720  0.204827  0.192980  1
  Ho  Ho3  1  0.512740  0.705720  0.500892  1
  Ho  Ho4  1  0.204827  0.011846  0.499108  1
  Ho  Ho5  1  0.988154  0.487260  0.192980  1
  Ho  Ho6  1  0.294280  0.795173  0.807020  1
  Ho  Ho7  1  0.487260  0.294280  0.499108  1
  Ho  Ho8  1  0.795173  0.988154  0.500892  1
  Lu  Lu9  1  0.000000  0.000000  0.000000  1
  Zn  Zn10  1  0.639606  0.137994  0.777599  1
  Zn  Zn11  1  0.360394  0.862006  0.222401  1
  Zn  Zn12  1  0.137994  0.360394  0.498390  1
  Zn  Zn13  1  0.862006  0.639606  0.501610  1
  Bi  Bi14  1  0.750757  0.750757  0.000000  1
  Bi  Bi15  1  0.249243  0.249243  0.000000  1
