# generated using pymatgen
data_YMo5(PO4)6
_symmetry_space_group_name_H-M   'P 1'
_cell_length_a   9.55809273
_cell_length_b   9.55818471
_cell_length_c   6.77206003
_cell_angle_alpha   110.74147408
_cell_angle_beta   110.74241826
_cell_angle_gamma   70.87506419
_symmetry_Int_Tables_number   1
_chemical_formula_structural   YMo5(PO4)6
_chemical_formula_sum   'Y1 Mo5 P6 O24'
_cell_volume   526.42147740
_cell_formula_units_Z   1
loop_
 _symmetry_equiv_pos_site_id
 _symmetry_equiv_pos_as_xyz
  1  'x, y, z'
loop_
 _atom_site_type_symbol
 _atom_site_label
 _atom_site_symmetry_multiplicity
 _atom_site_fract_x
 _atom_site_fract_y
 _atom_site_fract_z
 _atom_site_occupancy
  Y  Y0  1  0.386623  0.886639  0.886504  1
  Mo  Mo1  1  0.497273  0.498859  0.994076  1
  Mo  Mo2  1  0.623358  0.123367  0.123425  1
  Mo  Mo3  1  0.117545  0.617541  0.117583  1
  Mo  Mo4  1  0.998842  0.997282  0.502051  1
  Mo  Mo5  1  0.880813  0.380816  0.880789  1
  P  P6  1  0.752673  0.751853  0.144055  1
  P  P7  1  0.826702  0.326714  0.326707  1
  P  P8  1  0.321655  0.821687  0.321578  1
  P  P9  1  0.675882  0.175854  0.675956  1
  P  P10  1  0.171306  0.671299  0.671312  1
  P  P11  1  0.251874  0.252664  0.860499  1
  O  O12  1  0.373583  0.146967  0.009063  1
  O  O13  1  0.127828  0.371083  0.983221  1
  O  O14  1  0.643836  0.665360  0.147229  1
  O  O15  1  0.903464  0.366054  0.199231  1
  O  O16  1  0.351389  0.908238  0.198741  1
  O  O17  1  0.643125  0.359594  0.221124  1
  O  O18  1  0.353017  0.639497  0.209395  1
  O  O19  1  0.859590  0.143131  0.281626  1
  O  O20  1  0.139470  0.853026  0.283035  1
  O  O21  1  0.845789  0.840073  0.359689  1
  O  O22  1  0.599940  0.135076  0.432071  1
  O  O23  1  0.135976  0.590934  0.427820  1
  O  O24  1  0.866058  0.403469  0.570255  1
  O  O25  1  0.408214  0.851435  0.560671  1
  O  O26  1  0.165400  0.143838  0.661982  1
  O  O27  1  0.859292  0.143859  0.723622  1
  O  O28  1  0.138342  0.853056  0.712705  1
  O  O29  1  0.643874  0.359261  0.779608  1
  O  O30  1  0.353059  0.638352  0.778666  1
  O  O31  1  0.635102  0.099889  0.803108  1
  O  O32  1  0.090950  0.635985  0.799170  1
  O  O33  1  0.340090  0.345798  0.826191  1
  O  O34  1  0.871094  0.627840  0.015712  1
  O  O35  1  0.646964  0.873598  0.011537  1
