# generated using pymatgen
data_Gd2NiTe2(SO7)2
_symmetry_space_group_name_H-M   'P 1'
_cell_length_a   5.33598968
_cell_length_b   7.95362919
_cell_length_c   8.16567670
_cell_angle_alpha   115.75654764
_cell_angle_beta   106.99632926
_cell_angle_gamma   86.09138237
_symmetry_Int_Tables_number   1
_chemical_formula_structural   Gd2NiTe2(SO7)2
_chemical_formula_sum   'Gd2 Ni1 Te2 S2 O14'
_cell_volume   297.79425576
_cell_formula_units_Z   1
loop_
 _symmetry_equiv_pos_site_id
 _symmetry_equiv_pos_as_xyz
  1  'x, y, z'
loop_
 _atom_site_type_symbol
 _atom_site_label
 _atom_site_symmetry_multiplicity
 _atom_site_fract_x
 _atom_site_fract_y
 _atom_site_fract_z
 _atom_site_occupancy
  Gd  Gd0  1  0.084517  0.252484  0.983051  1
  Gd  Gd1  1  0.915483  0.747516  0.016949  1
  Ni  Ni2  1  0.000000  0.000000  0.500000  1
  Te  Te3  1  0.517014  0.265748  0.654109  1
  Te  Te4  1  0.482986  0.734252  0.345891  1
  S  S5  1  0.767600  0.244641  0.251494  1
  S  S6  1  0.232400  0.755359  0.748506  1
  O  O7  1  0.905762  0.405127  0.259659  1
  O  O8  1  0.094238  0.594873  0.740341  1
  O  O9  1  0.870750  0.222818  0.430244  1
  O  O10  1  0.129250  0.777182  0.569756  1
  O  O11  1  0.481853  0.270033  0.218311  1
  O  O12  1  0.518147  0.729967  0.781689  1
  O  O13  1  0.819748  0.076147  0.086761  1
  O  O14  1  0.180252  0.923853  0.913239  1
  O  O15  1  0.749000  0.434907  0.891327  1
  O  O16  1  0.251000  0.565093  0.108673  1
  O  O17  1  0.276456  0.190018  0.745543  1
  O  O18  1  0.723544  0.809982  0.254457  1
  O  O19  1  0.749536  0.072496  0.663689  1
  O  O20  1  0.250464  0.927504  0.336311  1
