# generated using pymatgen
data_Li4DyP12Ir17Ru2
_symmetry_space_group_name_H-M   'P 1'
_cell_length_a   12.52436200
_cell_length_b   12.58917449
_cell_length_c   3.91211900
_cell_angle_alpha   90.00000000
_cell_angle_beta   90.00000000
_cell_angle_gamma   119.82984741
_symmetry_Int_Tables_number   1
_chemical_formula_structural   Li4DyP12Ir17Ru2
_chemical_formula_sum   'Li4 Dy1 P12 Ir17 Ru2'
_cell_volume   535.10330260
_cell_formula_units_Z   1
loop_
 _symmetry_equiv_pos_site_id
 _symmetry_equiv_pos_as_xyz
  1  'x, y, z'
loop_
 _atom_site_type_symbol
 _atom_site_label
 _atom_site_symmetry_multiplicity
 _atom_site_fract_x
 _atom_site_fract_y
 _atom_site_fract_z
 _atom_site_occupancy
  Li  Li0  1  0.334295  0.667457  0.500000  1
  Li  Li1  1  0.666839  0.332543  0.500000  1
  Li  Li2  1  0.001510  0.824025  0.000000  1
  Li  Li3  1  0.177485  0.175975  0.000000  1
  Dy  Dy4  1  0.823158  0.000000  0.000000  1
  P  P5  1  0.999090  0.636605  0.500000  1
  P  P6  1  0.362486  0.363395  0.500000  1
  P  P7  1  0.640623  0.000000  0.500000  1
  P  P8  1  0.510830  0.684723  0.000000  1
  P  P9  1  0.309946  0.821857  0.000000  1
  P  P10  1  0.171510  0.488081  0.000000  1
  P  P11  1  0.488089  0.178143  0.000000  1
  P  P12  1  0.683428  0.511919  0.000000  1
  P  P13  1  0.826107  0.315277  0.000000  1
  P  P14  1  0.008262  0.182398  0.500000  1
  P  P15  1  0.825863  0.817602  0.500000  1
  P  P16  1  0.181342  0.000000  0.500000  1
  Ir  Ir17  1  0.507927  0.866638  0.000000  1
  Ir  Ir18  1  0.125171  0.639355  0.000000  1
  Ir  Ir19  1  0.356811  0.491468  0.000000  1
  Ir  Ir20  1  0.485818  0.360645  0.000000  1
  Ir  Ir21  1  0.865345  0.508532  0.000000  1
  Ir  Ir22  1  0.641290  0.133362  0.000000  1
  Ir  Ir23  1  0.458732  0.000000  0.500000  1
  Ir  Ir24  1  0.998849  0.288711  0.000000  1
  Ir  Ir25  1  0.710138  0.711289  0.000000  1
  Ir  Ir26  1  0.291408  0.000000  0.000000  1
  Ir  Ir27  1  0.627660  0.807363  0.500000  1
  Ir  Ir28  1  0.195911  0.817613  0.500000  1
  Ir  Ir29  1  0.182245  0.378008  0.500000  1
  Ir  Ir30  1  0.378297  0.182387  0.500000  1
  Ir  Ir31  1  0.804235  0.621992  0.500000  1
  Ir  Ir32  1  0.820296  0.192637  0.500000  1
  Ir  Ir33  1  0.001259  0.000000  0.500000  1
  Ru  Ru34  1  0.994615  0.451485  0.500000  1
  Ru  Ru35  1  0.543130  0.548515  0.500000  1
