# generated using pymatgen
data_Pr6Cd3InPb6
_symmetry_space_group_name_H-M   'P 1'
_cell_length_a   6.75690741
_cell_length_b   6.75690822
_cell_length_c   10.61565633
_cell_angle_alpha   90.33406717
_cell_angle_beta   90.33406437
_cell_angle_gamma   103.55574266
_symmetry_Int_Tables_number   1
_chemical_formula_structural   Pr6Cd3InPb6
_chemical_formula_sum   'Pr6 Cd3 In1 Pb6'
_cell_volume   471.14372737
_cell_formula_units_Z   1
loop_
 _symmetry_equiv_pos_site_id
 _symmetry_equiv_pos_as_xyz
  1  'x, y, z'
loop_
 _atom_site_type_symbol
 _atom_site_label
 _atom_site_symmetry_multiplicity
 _atom_site_fract_x
 _atom_site_fract_y
 _atom_site_fract_z
 _atom_site_occupancy
  Pr  Pr0  1  0.627079  0.627079  0.251246  1
  Pr  Pr1  1  0.372540  0.372540  0.748861  1
  Pr  Pr2  1  0.203498  0.796253  0.499556  1
  Pr  Pr3  1  0.204718  0.795615  0.000574  1
  Pr  Pr4  1  0.796253  0.203498  0.499556  1
  Pr  Pr5  1  0.795615  0.204718  0.000574  1
  Cd  Cd6  1  0.315570  0.315570  0.044107  1
  Cd  Cd7  1  0.684946  0.684946  0.956522  1
  Cd  Cd8  1  0.312804  0.312804  0.456074  1
  In  In9  1  0.685656  0.685656  0.543418  1
  Pb  Pb10  1  0.016165  0.016165  0.248723  1
  Pb  Pb11  1  0.984459  0.984459  0.750497  1
  Pb  Pb12  1  0.501570  0.074771  0.249192  1
  Pb  Pb13  1  0.926250  0.498106  0.750954  1
  Pb  Pb14  1  0.498106  0.926250  0.750954  1
  Pb  Pb15  1  0.074771  0.501570  0.249192  1
