# generated using pymatgen
data_TbDy9(Bi2P)2
_symmetry_space_group_name_H-M   'P 1'
_cell_length_a   8.00802486
_cell_length_b   8.98608845
_cell_length_c   12.19224808
_cell_angle_alpha   90.02045269
_cell_angle_beta   90.04362465
_cell_angle_gamma   90.03013448
_symmetry_Int_Tables_number   1
_chemical_formula_structural   TbDy9(Bi2P)2
_chemical_formula_sum   'Tb2 Dy18 Bi8 P4'
_cell_volume   877.36373411
_cell_formula_units_Z   2
loop_
 _symmetry_equiv_pos_site_id
 _symmetry_equiv_pos_as_xyz
  1  'x, y, z'
loop_
 _atom_site_type_symbol
 _atom_site_label
 _atom_site_symmetry_multiplicity
 _atom_site_fract_x
 _atom_site_fract_y
 _atom_site_fract_z
 _atom_site_occupancy
  Tb  Tb0  1  0.815842  0.452223  0.064070  1
  Tb  Tb1  1  0.184158  0.547777  0.935930  1
  Dy  Dy2  1  0.852510  0.750039  0.794656  1
  Dy  Dy3  1  0.147490  0.249961  0.205344  1
  Dy  Dy4  1  0.352309  0.249645  0.705145  1
  Dy  Dy5  1  0.647691  0.750355  0.294855  1
  Dy  Dy6  1  0.377097  0.750289  0.699303  1
  Dy  Dy7  1  0.622903  0.249711  0.300697  1
  Dy  Dy8  1  0.877122  0.250070  0.800121  1
  Dy  Dy9  1  0.122878  0.749930  0.199879  1
  Dy  Dy10  1  0.958840  0.750241  0.502071  1
  Dy  Dy11  1  0.041160  0.249759  0.497929  1
  Dy  Dy12  1  0.459055  0.250054  0.997807  1
  Dy  Dy13  1  0.540945  0.749946  0.002193  1
  Dy  Dy14  1  0.683439  0.048794  0.564072  1
  Dy  Dy15  1  0.316561  0.951206  0.435928  1
  Dy  Dy16  1  0.184147  0.951789  0.936006  1
  Dy  Dy17  1  0.316436  0.548812  0.436082  1
  Dy  Dy18  1  0.815853  0.048211  0.063994  1
  Dy  Dy19  1  0.683564  0.451188  0.563918  1
  Bi  Bi20  1  0.578056  0.490853  0.825989  1
  Bi  Bi21  1  0.421944  0.509147  0.174011  1
  Bi  Bi22  1  0.077761  0.509122  0.673201  1
  Bi  Bi23  1  0.422000  0.990900  0.173629  1
  Bi  Bi24  1  0.922239  0.490878  0.326799  1
  Bi  Bi25  1  0.578000  0.009100  0.826371  1
  Bi  Bi26  1  0.922123  0.009213  0.326405  1
  Bi  Bi27  1  0.077877  0.990787  0.673595  1
  P  P28  1  0.571703  0.749952  0.512095  1
  P  P29  1  0.428297  0.250048  0.487905  1
  P  P30  1  0.071424  0.247485  0.987997  1
  P  P31  1  0.928576  0.752515  0.012003  1
