# generated using pymatgen
data_YTa8CdS16
_symmetry_space_group_name_H-M   'P 1'
_cell_length_a   6.70419400
_cell_length_b   6.70419286
_cell_length_c   13.75567100
_cell_angle_alpha   90.00000000
_cell_angle_beta   90.00000000
_cell_angle_gamma   120.00000562
_symmetry_Int_Tables_number   1
_chemical_formula_structural   YTa8CdS16
_chemical_formula_sum   'Y1 Ta8 Cd1 S16'
_cell_volume   535.43340085
_cell_formula_units_Z   1
loop_
 _symmetry_equiv_pos_site_id
 _symmetry_equiv_pos_as_xyz
  1  'x, y, z'
loop_
 _atom_site_type_symbol
 _atom_site_label
 _atom_site_symmetry_multiplicity
 _atom_site_fract_x
 _atom_site_fract_y
 _atom_site_fract_z
 _atom_site_occupancy
  Y  Y0  1  0.000000  0.000000  0.500000  1
  Ta  Ta1  1  0.506043  0.493957  0.752516  1
  Ta  Ta2  1  0.012084  0.506043  0.247484  1
  Ta  Ta3  1  0.493957  0.987916  0.247484  1
  Ta  Ta4  1  0.506043  0.012084  0.752516  1
  Ta  Ta5  1  0.987916  0.493957  0.752516  1
  Ta  Ta6  1  0.493957  0.506043  0.247484  1
  Ta  Ta7  1  0.000000  0.000000  0.750145  1
  Ta  Ta8  1  0.000000  0.000000  0.249855  1
  Cd  Cd9  1  0.000000  0.000000  0.000000  1
  S  S10  1  0.830704  0.169296  0.361300  1
  S  S11  1  0.830704  0.661407  0.361300  1
  S  S12  1  0.338593  0.169296  0.361300  1
  S  S13  1  0.663492  0.831746  0.863912  1
  S  S14  1  0.169296  0.338593  0.638700  1
  S  S15  1  0.168254  0.831746  0.863912  1
  S  S16  1  0.168254  0.336508  0.863912  1
  S  S17  1  0.831746  0.168254  0.136088  1
  S  S18  1  0.336508  0.168254  0.136088  1
  S  S19  1  0.661407  0.830704  0.638700  1
  S  S20  1  0.333333  0.666667  0.131308  1
  S  S21  1  0.666667  0.333333  0.635538  1
  S  S22  1  0.666667  0.333333  0.868692  1
  S  S23  1  0.333333  0.666667  0.364462  1
  S  S24  1  0.831746  0.663492  0.136088  1
  S  S25  1  0.169296  0.830704  0.638700  1
