# generated using pymatgen
data_Pu8Cu(Si4Rh)3
_symmetry_space_group_name_H-M   'P 1'
_cell_length_a   8.22823500
_cell_length_b   8.22823478
_cell_length_c   7.94909600
_cell_angle_alpha   90.00000000
_cell_angle_beta   90.00000000
_cell_angle_gamma   120.00000489
_symmetry_Int_Tables_number   1
_chemical_formula_structural   Pu8Cu(Si4Rh)3
_chemical_formula_sum   'Pu8 Cu1 Si12 Rh3'
_cell_volume   466.08133827
_cell_formula_units_Z   1
loop_
 _symmetry_equiv_pos_site_id
 _symmetry_equiv_pos_as_xyz
  1  'x, y, z'
loop_
 _atom_site_type_symbol
 _atom_site_label
 _atom_site_symmetry_multiplicity
 _atom_site_fract_x
 _atom_site_fract_y
 _atom_site_fract_z
 _atom_site_occupancy
  Pu  Pu0  1  0.000000  0.000000  0.251286  1
  Pu  Pu1  1  0.000000  0.000000  0.748658  1
  Pu  Pu2  1  0.504506  0.495494  0.247256  1
  Pu  Pu3  1  0.504506  0.009012  0.247256  1
  Pu  Pu4  1  0.990988  0.495494  0.247256  1
  Pu  Pu5  1  0.501012  0.498988  0.752251  1
  Pu  Pu6  1  0.501012  0.002026  0.752251  1
  Pu  Pu7  1  0.997974  0.498988  0.752251  1
  Cu  Cu8  1  0.333333  0.666667  0.492720  1
  Si  Si9  1  0.166575  0.833425  0.497898  1
  Si  Si10  1  0.166575  0.333148  0.497898  1
  Si  Si11  1  0.666852  0.833425  0.497898  1
  Si  Si12  1  0.835671  0.164329  0.505044  1
  Si  Si13  1  0.835671  0.671344  0.505044  1
  Si  Si14  1  0.328656  0.164329  0.505044  1
  Si  Si15  1  0.836245  0.163755  0.997797  1
  Si  Si16  1  0.836245  0.672490  0.997797  1
  Si  Si17  1  0.327510  0.163755  0.997797  1
  Si  Si18  1  0.165617  0.834383  0.998136  1
  Si  Si19  1  0.165617  0.331232  0.998136  1
  Si  Si20  1  0.668768  0.834383  0.998136  1
  Rh  Rh21  1  0.666667  0.333333  0.490070  1
  Rh  Rh22  1  0.666667  0.333333  0.002933  1
  Rh  Rh23  1  0.333333  0.666667  0.019193  1
