# generated using pymatgen
data_Nd2Y3HoGa17Pd5
_symmetry_space_group_name_H-M   'P 1'
_cell_length_a   8.21583165
_cell_length_b   8.21583229
_cell_length_c   15.84381947
_cell_angle_alpha   76.29688870
_cell_angle_beta   76.29688806
_cell_angle_gamma   30.37995541
_symmetry_Int_Tables_number   1
_chemical_formula_structural   Nd2Y3HoGa17Pd5
_chemical_formula_sum   'Nd2 Y3 Ho1 Ga17 Pd5'
_cell_volume   524.31060735
_cell_formula_units_Z   1
loop_
 _symmetry_equiv_pos_site_id
 _symmetry_equiv_pos_as_xyz
  1  'x, y, z'
loop_
 _atom_site_type_symbol
 _atom_site_label
 _atom_site_symmetry_multiplicity
 _atom_site_fract_x
 _atom_site_fract_y
 _atom_site_fract_z
 _atom_site_occupancy
  Nd  Nd0  1  0.745316  0.745316  0.749758  1
  Nd  Nd1  1  0.254621  0.254621  0.250197  1
  Y  Y2  1  0.099920  0.099920  0.096581  1
  Y  Y3  1  0.900132  0.900132  0.903395  1
  Y  Y4  1  0.409241  0.409241  0.406699  1
  Ho  Ho5  1  0.590267  0.590267  0.592861  1
  Ga  Ga6  1  0.827509  0.827509  0.543438  1
  Ga  Ga7  1  0.322160  0.322160  0.039757  1
  Ga  Ga8  1  0.677824  0.677824  0.960229  1
  Ga  Ga9  1  0.172440  0.172440  0.456821  1
  Ga  Ga10  1  0.537856  0.537856  0.823099  1
  Ga  Ga11  1  0.046593  0.046593  0.326721  1
  Ga  Ga12  1  0.953652  0.953652  0.673274  1
  Ga  Ga13  1  0.462168  0.462168  0.176793  1
  Ga  Ga14  1  0.261441  0.261441  0.896200  1
  Ga  Ga15  1  0.769594  0.769594  0.399572  1
  Ga  Ga16  1  0.230195  0.230195  0.600356  1
  Ga  Ga17  1  0.738569  0.738569  0.103797  1
  Ga  Ga18  1  0.393309  0.393309  0.766745  1
  Ga  Ga19  1  0.902317  0.902317  0.265315  1
  Ga  Ga20  1  0.097565  0.097565  0.734448  1
  Ga  Ga21  1  0.606684  0.606684  0.233295  1
  Ga  Ga22  1  0.499991  0.499991  0.999983  1
  Pd  Pd23  1  0.094803  0.094803  0.902617  1
  Pd  Pd24  1  0.606840  0.606840  0.396111  1
  Pd  Pd25  1  0.393512  0.393512  0.604277  1
  Pd  Pd26  1  0.905208  0.905208  0.097368  1
  Pd  Pd27  1  0.000272  0.000272  0.500291  1
