# generated using pymatgen
data_TbTh3(InNi2)2
_symmetry_space_group_name_H-M   'P 1'
_cell_length_a   7.60740702
_cell_length_b   7.60740702
_cell_length_c   3.69851700
_cell_angle_alpha   90.00000000
_cell_angle_beta   90.00000000
_cell_angle_gamma   91.24781132
_symmetry_Int_Tables_number   1
_chemical_formula_structural   TbTh3(InNi2)2
_chemical_formula_sum   'Tb1 Th3 In2 Ni4'
_cell_volume   213.99219041
_cell_formula_units_Z   1
loop_
 _symmetry_equiv_pos_site_id
 _symmetry_equiv_pos_as_xyz
  1  'x, y, z'
loop_
 _atom_site_type_symbol
 _atom_site_label
 _atom_site_symmetry_multiplicity
 _atom_site_fract_x
 _atom_site_fract_y
 _atom_site_fract_z
 _atom_site_occupancy
  Tb  Tb0  1  0.825243  0.674757  0.500000  1
  Th  Th1  1  0.675847  0.172760  0.500000  1
  Th  Th2  1  0.327240  0.824153  0.500000  1
  Th  Th3  1  0.171581  0.328419  0.500000  1
  In  In4  1  0.507945  0.502824  0.000000  1
  In  In5  1  0.997176  0.992055  0.000000  1
  Ni  Ni6  1  0.127896  0.621722  0.000000  1
  Ni  Ni7  1  0.878278  0.372104  0.000000  1
  Ni  Ni8  1  0.616734  0.883266  0.000000  1
  Ni  Ni9  1  0.372059  0.127941  0.000000  1
