# generated using pymatgen
data_NaLiCe2F8
_symmetry_space_group_name_H-M   'P 1'
_cell_length_a   7.05568635
_cell_length_b   7.05568710
_cell_length_c   7.41596700
_cell_angle_alpha   90.00000000
_cell_angle_beta   90.00000000
_cell_angle_gamma   103.56119568
_symmetry_Int_Tables_number   1
_chemical_formula_structural   NaLiCe2F8
_chemical_formula_sum   'Na2 Li2 Ce4 F16'
_cell_volume   358.89405162
_cell_formula_units_Z   2
loop_
 _symmetry_equiv_pos_site_id
 _symmetry_equiv_pos_as_xyz
  1  'x, y, z'
loop_
 _atom_site_type_symbol
 _atom_site_label
 _atom_site_symmetry_multiplicity
 _atom_site_fract_x
 _atom_site_fract_y
 _atom_site_fract_z
 _atom_site_occupancy
  Na  Na0  1  0.662183  0.662183  0.250000  1
  Na  Na1  1  0.337817  0.337817  0.750000  1
  Li  Li2  1  0.000000  0.000000  0.000000  1
  Li  Li3  1  0.000000  0.000000  0.500000  1
  Ce  Ce4  1  0.921580  0.550404  0.750000  1
  Ce  Ce5  1  0.550404  0.921580  0.750000  1
  Ce  Ce6  1  0.078420  0.449596  0.250000  1
  Ce  Ce7  1  0.449596  0.078420  0.250000  1
  F  F8  1  0.254510  0.686827  0.750000  1
  F  F9  1  0.313173  0.745490  0.250000  1
  F  F10  1  0.066609  0.336204  0.552492  1
  F  F11  1  0.933391  0.663796  0.447508  1
  F  F12  1  0.745490  0.313173  0.250000  1
  F  F13  1  0.336204  0.066609  0.552492  1
  F  F14  1  0.933391  0.663796  0.052492  1
  F  F15  1  0.686827  0.254510  0.750000  1
  F  F16  1  0.083615  0.083615  0.250000  1
  F  F17  1  0.601836  0.601836  0.750000  1
  F  F18  1  0.336204  0.066609  0.947508  1
  F  F19  1  0.916385  0.916385  0.750000  1
  F  F20  1  0.663796  0.933391  0.447508  1
  F  F21  1  0.398164  0.398164  0.250000  1
  F  F22  1  0.066609  0.336204  0.947508  1
  F  F23  1  0.663796  0.933391  0.052492  1
