# generated using pymatgen
data_CeEr4Zn2Ru3
_symmetry_space_group_name_H-M   'P 1'
_cell_length_a   8.42053095
_cell_length_b   8.27784396
_cell_length_c   8.24279797
_cell_angle_alpha   109.86521804
_cell_angle_beta   109.52850368
_cell_angle_gamma   110.38450303
_symmetry_Int_Tables_number   1
_chemical_formula_structural   CeEr4Zn2Ru3
_chemical_formula_sum   'Ce2 Er8 Zn4 Ru6'
_cell_volume   434.66613405
_cell_formula_units_Z   2
loop_
 _symmetry_equiv_pos_site_id
 _symmetry_equiv_pos_as_xyz
  1  'x, y, z'
loop_
 _atom_site_type_symbol
 _atom_site_label
 _atom_site_symmetry_multiplicity
 _atom_site_fract_x
 _atom_site_fract_y
 _atom_site_fract_z
 _atom_site_occupancy
  Ce  Ce0  1  0.943093  0.251362  0.193803  1
  Ce  Ce1  1  0.198107  0.943442  0.250973  1
  Er  Er2  1  0.774933  0.778976  0.773747  1
  Er  Er3  1  0.319094  0.567347  0.753595  1
  Er  Er4  1  0.750972  0.317915  0.568772  1
  Er  Er5  1  0.571021  0.749753  0.316847  1
  Er  Er6  1  0.723720  0.503443  0.998281  1
  Er  Er7  1  0.998978  0.725506  0.505785  1
  Er  Er8  1  0.501075  0.992911  0.721411  1
  Er  Er9  1  0.253102  0.186004  0.932008  1
  Zn  Zn10  1  0.420136  0.416686  0.413061  1
  Zn  Zn11  1  0.089973  0.493151  0.996735  1
  Zn  Zn12  1  0.999519  0.089097  0.503772  1
  Zn  Zn13  1  0.502554  0.007730  0.090575  1
  Ru  Ru14  1  0.859195  0.108822  0.738304  1
  Ru  Ru15  1  0.751851  0.891597  0.114317  1
  Ru  Ru16  1  0.120517  0.764828  0.899656  1
  Ru  Ru17  1  0.223570  0.596443  0.373883  1
  Ru  Ru18  1  0.367061  0.223310  0.603379  1
  Ru  Ru19  1  0.631528  0.391676  0.251094  1
