# generated using pymatgen
data_NdThSi2(Ru2C)2
_symmetry_space_group_name_H-M   'P 1'
_cell_length_a   5.92506713
_cell_length_b   5.92506814
_cell_length_c   7.20166000
_cell_angle_alpha   90.00000000
_cell_angle_beta   90.00000000
_cell_angle_gamma   141.01249212
_symmetry_Int_Tables_number   1
_chemical_formula_structural   NdThSi2(Ru2C)2
_chemical_formula_sum   'Nd1 Th1 Si2 Ru4 C2'
_cell_volume   159.06480077
_cell_formula_units_Z   1
loop_
 _symmetry_equiv_pos_site_id
 _symmetry_equiv_pos_as_xyz
  1  'x, y, z'
loop_
 _atom_site_type_symbol
 _atom_site_label
 _atom_site_symmetry_multiplicity
 _atom_site_fract_x
 _atom_site_fract_y
 _atom_site_fract_z
 _atom_site_occupancy
  Nd  Nd0  1  0.551456  0.448544  0.250000  1
  Th  Th1  1  0.446875  0.553125  0.750000  1
  Si  Si2  1  0.271415  0.728585  0.250000  1
  Si  Si3  1  0.726226  0.273774  0.750000  1
  Ru  Ru4  1  0.835545  0.164455  0.056767  1
  Ru  Ru5  1  0.165603  0.834397  0.942116  1
  Ru  Ru6  1  0.165603  0.834397  0.557884  1
  Ru  Ru7  1  0.835545  0.164455  0.443233  1
  C  C8  1  0.000867  0.999133  0.999492  1
  C  C9  1  0.000867  0.999133  0.500508  1
