# generated using pymatgen
data_Ba4Sr2Sn8BiAs
_symmetry_space_group_name_H-M   'P 1'
_cell_length_a   9.19075940
_cell_length_b   9.19075940
_cell_length_c   9.21180468
_cell_angle_alpha   119.92446346
_cell_angle_beta   119.92446137
_cell_angle_gamma   90.00000277
_symmetry_Int_Tables_number   1
_chemical_formula_structural   Ba4Sr2Sn8BiAs
_chemical_formula_sum   'Ba4 Sr2 Sn8 Bi1 As1'
_cell_volume   551.46913218
_cell_formula_units_Z   1
loop_
 _symmetry_equiv_pos_site_id
 _symmetry_equiv_pos_as_xyz
  1  'x, y, z'
loop_
 _atom_site_type_symbol
 _atom_site_label
 _atom_site_symmetry_multiplicity
 _atom_site_fract_x
 _atom_site_fract_y
 _atom_site_fract_z
 _atom_site_occupancy
  Ba  Ba0  1  0.675187  0.154231  0.000000  1
  Ba  Ba1  1  0.324813  0.845769  0.000000  1
  Ba  Ba2  1  0.845769  0.675187  0.000000  1
  Ba  Ba3  1  0.154231  0.324813  0.000000  1
  Sr  Sr4  1  0.237506  0.237506  0.475011  1
  Sr  Sr5  1  0.762494  0.762494  0.524989  1
  Sn  Sn6  1  0.341381  0.835892  0.389774  1
  Sn  Sn7  1  0.658619  0.164108  0.610226  1
  Sn  Sn8  1  0.048394  0.553883  0.389774  1
  Sn  Sn9  1  0.553883  0.341381  0.389774  1
  Sn  Sn10  1  0.164108  0.951606  0.610226  1
  Sn  Sn11  1  0.951606  0.446117  0.610226  1
  Sn  Sn12  1  0.446117  0.658619  0.610226  1
  Sn  Sn13  1  0.835892  0.048394  0.389774  1
  Bi  Bi14  1  0.500000  0.500000  0.000000  1
  As  As15  1  0.000000  0.000000  0.000000  1
