# generated using pymatgen
data_Zr4TaSn3N
_symmetry_space_group_name_H-M   'P 1'
_cell_length_a   8.40937600
_cell_length_b   8.40937529
_cell_length_c   5.71878700
_cell_angle_alpha   90.00000000
_cell_angle_beta   90.00000000
_cell_angle_gamma   119.99999494
_symmetry_Int_Tables_number   1
_chemical_formula_structural   Zr4TaSn3N
_chemical_formula_sum   'Zr8 Ta2 Sn6 N2'
_cell_volume   350.23704535
_cell_formula_units_Z   2
loop_
 _symmetry_equiv_pos_site_id
 _symmetry_equiv_pos_as_xyz
  1  'x, y, z'
loop_
 _atom_site_type_symbol
 _atom_site_label
 _atom_site_symmetry_multiplicity
 _atom_site_fract_x
 _atom_site_fract_y
 _atom_site_fract_z
 _atom_site_occupancy
  Zr  Zr0  1  0.333333  0.666667  0.500000  1
  Zr  Zr1  1  0.666667  0.333333  0.500000  1
  Zr  Zr2  1  0.777856  0.777856  0.749942  1
  Zr  Zr3  1  0.222144  0.000000  0.749942  1
  Zr  Zr4  1  0.000000  0.222144  0.749942  1
  Zr  Zr5  1  0.222144  0.222144  0.250058  1
  Zr  Zr6  1  0.777856  0.000000  0.250058  1
  Zr  Zr7  1  0.000000  0.777856  0.250058  1
  Ta  Ta8  1  0.666667  0.333333  0.000000  1
  Ta  Ta9  1  0.333333  0.666667  0.000000  1
  Sn  Sn10  1  0.407367  0.407367  0.757476  1
  Sn  Sn11  1  0.592633  0.000000  0.757476  1
  Sn  Sn12  1  0.000000  0.592633  0.757476  1
  Sn  Sn13  1  0.592633  0.592633  0.242524  1
  Sn  Sn14  1  0.407367  0.000000  0.242524  1
  Sn  Sn15  1  0.000000  0.407367  0.242524  1
  N  N16  1  0.000000  0.000000  0.000000  1
  N  N17  1  0.000000  0.000000  0.500000  1
