# generated using pymatgen
data_Tb2Yb2Mn3CrB16
_symmetry_space_group_name_H-M   'P 1'
_cell_length_a   3.39037200
_cell_length_b   5.92042151
_cell_length_c   11.45214806
_cell_angle_alpha   89.97014723
_cell_angle_beta   90.00000000
_cell_angle_gamma   90.00000000
_symmetry_Int_Tables_number   1
_chemical_formula_structural   Tb2Yb2Mn3CrB16
_chemical_formula_sum   'Tb2 Yb2 Mn3 Cr1 B16'
_cell_volume   229.87242438
_cell_formula_units_Z   1
loop_
 _symmetry_equiv_pos_site_id
 _symmetry_equiv_pos_as_xyz
  1  'x, y, z'
loop_
 _atom_site_type_symbol
 _atom_site_label
 _atom_site_symmetry_multiplicity
 _atom_site_fract_x
 _atom_site_fract_y
 _atom_site_fract_z
 _atom_site_occupancy
  Tb  Tb0  1  0.500000  0.374020  0.151197  1
  Tb  Tb1  1  0.500000  0.626193  0.849032  1
  Yb  Yb2  1  0.500000  0.123975  0.651180  1
  Yb  Yb3  1  0.500000  0.876205  0.349100  1
  Mn  Mn4  1  0.500000  0.623529  0.581134  1
  Mn  Mn5  1  0.500000  0.125963  0.917211  1
  Mn  Mn6  1  0.500000  0.873799  0.081850  1
  Cr  Cr7  1  0.500000  0.376786  0.419577  1
  B  B8  1  0.000000  0.111381  0.046370  1
  B  B9  1  0.000000  0.888559  0.953251  1
  B  B10  1  0.000000  0.386366  0.547340  1
  B  B11  1  0.000000  0.615047  0.454261  1
  B  B12  1  0.000000  0.136891  0.467471  1
  B  B13  1  0.000000  0.862744  0.532971  1
  B  B14  1  0.000000  0.360700  0.967457  1
  B  B15  1  0.000000  0.639213  0.032361  1
  B  B16  1  0.000000  0.023820  0.190853  1
  B  B17  1  0.000000  0.975659  0.808928  1
  B  B18  1  0.000000  0.475240  0.690419  1
  B  B19  1  0.000000  0.525039  0.309366  1
  B  B20  1  0.000000  0.217659  0.316364  1
  B  B21  1  0.000000  0.781059  0.682656  1
  B  B22  1  0.000000  0.278482  0.816218  1
  B  B23  1  0.000000  0.721671  0.183432  1
