# generated using pymatgen
data_Ho3Th3(SiIr)4
_symmetry_space_group_name_H-M   'P 1'
_cell_length_a   5.72945937
_cell_length_b   5.72946046
_cell_length_c   13.40321301
_cell_angle_alpha   90.00706604
_cell_angle_beta   89.99293467
_cell_angle_gamma   138.56669427
_symmetry_Int_Tables_number   1
_chemical_formula_structural   Ho3Th3(SiIr)4
_chemical_formula_sum   'Ho3 Th3 Si4 Ir4'
_cell_volume   291.15803890
_cell_formula_units_Z   1
loop_
 _symmetry_equiv_pos_site_id
 _symmetry_equiv_pos_as_xyz
  1  'x, y, z'
loop_
 _atom_site_type_symbol
 _atom_site_label
 _atom_site_symmetry_multiplicity
 _atom_site_fract_x
 _atom_site_fract_y
 _atom_site_fract_z
 _atom_site_occupancy
  Ho  Ho0  1  0.780619  0.219381  0.606134  1
  Ho  Ho1  1  0.507584  0.492416  0.251024  1
  Ho  Ho2  1  0.489884  0.510116  0.745652  1
  Th  Th3  1  0.220237  0.779763  0.398740  1
  Th  Th4  1  0.776675  0.223325  0.896282  1
  Th  Th5  1  0.222600  0.777400  0.101190  1
  Si  Si6  1  0.064230  0.935770  0.593416  1
  Si  Si7  1  0.062234  0.937766  0.905479  1
  Si  Si8  1  0.932825  0.067175  0.412968  1
  Si  Si9  1  0.937133  0.062867  0.091680  1
  Ir  Ir10  1  0.799566  0.200434  0.251008  1
  Ir  Ir11  1  0.199890  0.800110  0.749030  1
  Ir  Ir12  1  0.500652  0.499348  0.999169  1
  Ir  Ir13  1  0.505872  0.494128  0.498228  1
