# generated using pymatgen
data_Cs4Mg5MnTe8
_symmetry_space_group_name_H-M   'P 1'
_cell_length_a   10.84000135
_cell_length_b   10.85309786
_cell_length_c   10.84000199
_cell_angle_alpha   144.01019625
_cell_angle_beta   105.11829806
_cell_angle_gamma   85.93853929
_symmetry_Int_Tables_number   1
_chemical_formula_structural   Cs4Mg5MnTe8
_chemical_formula_sum   'Cs4 Mg5 Mn1 Te8'
_cell_volume   701.03874831
_cell_formula_units_Z   1
loop_
 _symmetry_equiv_pos_site_id
 _symmetry_equiv_pos_as_xyz
  1  'x, y, z'
loop_
 _atom_site_type_symbol
 _atom_site_label
 _atom_site_symmetry_multiplicity
 _atom_site_fract_x
 _atom_site_fract_y
 _atom_site_fract_z
 _atom_site_occupancy
  Cs  Cs0  1  0.123081  0.235511  0.359220  1
  Cs  Cs1  1  0.375859  0.734975  0.112253  1
  Cs  Cs2  1  0.623709  0.264489  0.887570  1
  Cs  Cs3  1  0.877278  0.765025  0.640883  1
  Mg  Mg4  1  0.514815  0.750000  0.764815  1
  Mg  Mg5  1  0.985833  0.750000  0.235833  1
  Mg  Mg6  1  0.485029  0.250000  0.235029  1
  Mg  Mg7  1  0.750555  0.250000  0.500555  1
  Mg  Mg8  1  0.248900  0.750000  0.498900  1
  Mn  Mn9  1  0.012495  0.250000  0.762495  1
  Te  Te10  1  0.218246  0.085800  0.602854  1
  Te  Te11  1  0.277607  0.874423  0.858605  1
  Te  Te12  1  0.017055  0.414200  0.132447  1
  Te  Te13  1  0.484182  0.625577  0.403182  1
  Te  Te14  1  0.781337  0.925451  0.411122  1
  Te  Te15  1  0.722393  0.125164  0.141122  1
  Te  Te16  1  0.985671  0.574549  0.855885  1
  Te  Te17  1  0.515958  0.374836  0.597229  1
