# generated using pymatgen
data_DyY2Ho3(FeB7)2
_symmetry_space_group_name_H-M   'P 1'
_cell_length_a   8.00198547
_cell_length_b   8.00198523
_cell_length_c   9.28720846
_cell_angle_alpha   89.96464561
_cell_angle_beta   90.03535306
_cell_angle_gamma   155.35206844
_symmetry_Int_Tables_number   1
_chemical_formula_structural   DyY2Ho3(FeB7)2
_chemical_formula_sum   'Dy1 Y2 Ho3 Fe2 B14'
_cell_volume   248.00455449
_cell_formula_units_Z   1
loop_
 _symmetry_equiv_pos_site_id
 _symmetry_equiv_pos_as_xyz
  1  'x, y, z'
loop_
 _atom_site_type_symbol
 _atom_site_label
 _atom_site_symmetry_multiplicity
 _atom_site_fract_x
 _atom_site_fract_y
 _atom_site_fract_z
 _atom_site_occupancy
  Dy  Dy0  1  0.894977  0.105023  0.440069  1
  Y  Y1  1  0.243618  0.756382  0.249962  1
  Y  Y2  1  0.756249  0.243751  0.750027  1
  Ho  Ho3  1  0.104893  0.895107  0.559629  1
  Ho  Ho4  1  0.895108  0.104892  0.059509  1
  Ho  Ho5  1  0.104906  0.895094  0.940444  1
  Fe  Fe6  1  0.054207  0.945793  0.249875  1
  Fe  Fe7  1  0.945886  0.054114  0.750171  1
  B  B8  1  0.727426  0.272574  0.466931  1
  B  B9  1  0.272179  0.727821  0.533271  1
  B  B10  1  0.727632  0.272368  0.033185  1
  B  B11  1  0.272369  0.727631  0.966823  1
  B  B12  1  0.629759  0.370241  0.152651  1
  B  B13  1  0.370250  0.629750  0.847368  1
  B  B14  1  0.629772  0.370228  0.347350  1
  B  B15  1  0.370244  0.629756  0.652973  1
  B  B16  1  0.521692  0.478308  0.098554  1
  B  B17  1  0.478375  0.521625  0.901345  1
  B  B18  1  0.521805  0.478195  0.401162  1
  B  B19  1  0.478416  0.521584  0.598903  1
  B  B20  1  0.459582  0.540418  0.249702  1
  B  B21  1  0.540655  0.459345  0.750096  1
