# generated using pymatgen
data_Tl3RhO6
_symmetry_space_group_name_H-M   'P 1'
_cell_length_a   6.63328473
_cell_length_b   6.63328418
_cell_length_c   6.63328479
_cell_angle_alpha   90.63175255
_cell_angle_beta   90.63175349
_cell_angle_gamma   90.63176001
_symmetry_Int_Tables_number   1
_chemical_formula_structural   Tl3RhO6
_chemical_formula_sum   'Tl6 Rh2 O12'
_cell_volume   291.81397925
_cell_formula_units_Z   2
loop_
 _symmetry_equiv_pos_site_id
 _symmetry_equiv_pos_as_xyz
  1  'x, y, z'
loop_
 _atom_site_type_symbol
 _atom_site_label
 _atom_site_symmetry_multiplicity
 _atom_site_fract_x
 _atom_site_fract_y
 _atom_site_fract_z
 _atom_site_occupancy
  Tl  Tl0  1  0.931527  0.445867  0.751484  1
  Tl  Tl1  1  0.751484  0.931527  0.445867  1
  Tl  Tl2  1  0.554133  0.248516  0.068473  1
  Tl  Tl3  1  0.445867  0.751484  0.931527  1
  Tl  Tl4  1  0.248516  0.068473  0.554133  1
  Tl  Tl5  1  0.068473  0.554133  0.248516  1
  Rh  Rh6  1  0.000000  0.000000  0.000000  1
  Rh  Rh7  1  0.500000  0.500000  0.500000  1
  O  O8  1  0.922916  0.290632  0.057783  1
  O  O9  1  0.942217  0.077084  0.709368  1
  O  O10  1  0.793270  0.576334  0.464881  1
  O  O11  1  0.709368  0.942217  0.077084  1
  O  O12  1  0.576334  0.464881  0.793270  1
  O  O13  1  0.535119  0.206730  0.423666  1
  O  O14  1  0.464881  0.793270  0.576334  1
  O  O15  1  0.423666  0.535119  0.206730  1
  O  O16  1  0.290632  0.057783  0.922916  1
  O  O17  1  0.206730  0.423666  0.535119  1
  O  O18  1  0.057783  0.922916  0.290632  1
  O  O19  1  0.077084  0.709368  0.942217  1
