# generated using pymatgen
data_Li(Np5Se8)2
_symmetry_space_group_name_H-M   'P 1'
_cell_length_a   8.71418900
_cell_length_b   8.71418900
_cell_length_c   8.73667800
_cell_angle_alpha   90.00000000
_cell_angle_beta   90.00000000
_cell_angle_gamma   90.00000000
_symmetry_Int_Tables_number   1
_chemical_formula_structural   Li(Np5Se8)2
_chemical_formula_sum   'Li1 Np10 Se16'
_cell_volume   663.43790296
_cell_formula_units_Z   1
loop_
 _symmetry_equiv_pos_site_id
 _symmetry_equiv_pos_as_xyz
  1  'x, y, z'
loop_
 _atom_site_type_symbol
 _atom_site_label
 _atom_site_symmetry_multiplicity
 _atom_site_fract_x
 _atom_site_fract_y
 _atom_site_fract_z
 _atom_site_occupancy
  Li  Li0  1  0.000000  0.000000  0.500000  1
  Np  Np1  1  0.249801  0.627916  0.366455  1
  Np  Np2  1  0.000000  0.500000  0.748870  1
  Np  Np3  1  0.372084  0.249801  0.633545  1
  Np  Np4  1  0.750199  0.372084  0.366455  1
  Np  Np5  1  0.128131  0.254585  0.127080  1
  Np  Np6  1  0.745415  0.128131  0.872920  1
  Np  Np7  1  0.500000  0.000000  0.251130  1
  Np  Np8  1  0.871869  0.745415  0.127080  1
  Np  Np9  1  0.254585  0.871869  0.872920  1
  Np  Np10  1  0.627916  0.750199  0.633545  1
  Se  Se11  1  0.578378  0.679780  0.312102  1
  Se  Se12  1  0.172852  0.577315  0.045651  1
  Se  Se13  1  0.927623  0.676767  0.451869  1
  Se  Se14  1  0.072377  0.323233  0.451869  1
  Se  Se15  1  0.421622  0.320220  0.312102  1
  Se  Se16  1  0.320220  0.578378  0.687898  1
  Se  Se17  1  0.827148  0.422685  0.045651  1
  Se  Se18  1  0.075075  0.177502  0.807818  1
  Se  Se19  1  0.679780  0.421622  0.687898  1
  Se  Se20  1  0.676767  0.072377  0.548131  1
  Se  Se21  1  0.422685  0.172852  0.954349  1
  Se  Se22  1  0.577315  0.827148  0.954349  1
  Se  Se23  1  0.924925  0.822498  0.807818  1
  Se  Se24  1  0.822498  0.075075  0.192182  1
  Se  Se25  1  0.323233  0.927623  0.548131  1
  Se  Se26  1  0.177502  0.924925  0.192182  1
