# generated using pymatgen
data_Th3Ga2GeIr2Rh
_symmetry_space_group_name_H-M   'P 1'
_cell_length_a   7.32352109
_cell_length_b   7.32492260
_cell_length_c   4.03709300
_cell_angle_alpha   90.00000000
_cell_angle_beta   90.00000000
_cell_angle_gamma   120.00634050
_symmetry_Int_Tables_number   1
_chemical_formula_structural   Th3Ga2GeIr2Rh
_chemical_formula_sum   'Th3 Ga2 Ge1 Ir2 Rh1'
_cell_volume   187.54030212
_cell_formula_units_Z   1
loop_
 _symmetry_equiv_pos_site_id
 _symmetry_equiv_pos_as_xyz
  1  'x, y, z'
loop_
 _atom_site_type_symbol
 _atom_site_label
 _atom_site_symmetry_multiplicity
 _atom_site_fract_x
 _atom_site_fract_y
 _atom_site_fract_z
 _atom_site_occupancy
  Th  Th0  1  0.000000  0.412873  0.500000  1
  Th  Th1  1  0.586756  0.587534  0.500000  1
  Th  Th2  1  0.413244  0.000777  0.500000  1
  Ga  Ga3  1  0.240862  0.242535  0.000000  1
  Ga  Ga4  1  0.759138  0.001674  0.000000  1
  Ge  Ge5  1  0.000000  0.758099  0.000000  1
  Ir  Ir6  1  0.332666  0.666373  0.000000  1
  Ir  Ir7  1  0.667334  0.333704  0.000000  1
  Rh  Rh8  1  0.000000  0.996431  0.500000  1
