# generated using pymatgen
data_Tm3Lu2Si3
_symmetry_space_group_name_H-M   'P 1'
_cell_length_a   8.28753100
_cell_length_b   8.28753092
_cell_length_c   6.19066400
_cell_angle_alpha   90.00000000
_cell_angle_beta   90.00000000
_cell_angle_gamma   120.00000431
_symmetry_Int_Tables_number   1
_chemical_formula_structural   Tm3Lu2Si3
_chemical_formula_sum   'Tm6 Lu4 Si6'
_cell_volume   368.22915701
_cell_formula_units_Z   2
loop_
 _symmetry_equiv_pos_site_id
 _symmetry_equiv_pos_as_xyz
  1  'x, y, z'
loop_
 _atom_site_type_symbol
 _atom_site_label
 _atom_site_symmetry_multiplicity
 _atom_site_fract_x
 _atom_site_fract_y
 _atom_site_fract_z
 _atom_site_occupancy
  Tm  Tm0  1  0.757958  0.000000  0.750000  1
  Tm  Tm1  1  0.757958  0.757958  0.250000  1
  Tm  Tm2  1  0.000000  0.242042  0.250000  1
  Tm  Tm3  1  0.000000  0.757958  0.750000  1
  Tm  Tm4  1  0.242042  0.242042  0.750000  1
  Tm  Tm5  1  0.242042  0.000000  0.250000  1
  Lu  Lu6  1  0.666667  0.333333  0.000000  1
  Lu  Lu7  1  0.333333  0.666667  0.500000  1
  Lu  Lu8  1  0.333333  0.666667  0.000000  1
  Lu  Lu9  1  0.666667  0.333333  0.500000  1
  Si  Si10  1  0.395136  0.000000  0.750000  1
  Si  Si11  1  0.395136  0.395136  0.250000  1
  Si  Si12  1  0.000000  0.604864  0.250000  1
  Si  Si13  1  0.000000  0.395136  0.750000  1
  Si  Si14  1  0.604864  0.604864  0.750000  1
  Si  Si15  1  0.604864  0.000000  0.250000  1
