# generated using pymatgen
data_DyCd2Ga2Ni
_symmetry_space_group_name_H-M   'P 1'
_cell_length_a   8.48113800
_cell_length_b   8.48113921
_cell_length_c   6.72405300
_cell_angle_alpha   90.00000000
_cell_angle_beta   90.00000000
_cell_angle_gamma   151.98699437
_symmetry_Int_Tables_number   1
_chemical_formula_structural   DyCd2Ga2Ni
_chemical_formula_sum   'Dy2 Cd4 Ga4 Ni2'
_cell_volume   227.16116831
_cell_formula_units_Z   2
loop_
 _symmetry_equiv_pos_site_id
 _symmetry_equiv_pos_as_xyz
  1  'x, y, z'
loop_
 _atom_site_type_symbol
 _atom_site_label
 _atom_site_symmetry_multiplicity
 _atom_site_fract_x
 _atom_site_fract_y
 _atom_site_fract_z
 _atom_site_occupancy
  Dy  Dy0  1  0.368284  0.631716  0.750000  1
  Dy  Dy1  1  0.631716  0.368284  0.250000  1
  Cd  Cd2  1  0.000000  0.000000  0.000000  1
  Cd  Cd3  1  0.000000  0.000000  0.500000  1
  Cd  Cd4  1  0.573835  0.426165  0.750000  1
  Cd  Cd5  1  0.426165  0.573835  0.250000  1
  Ga  Ga6  1  0.189572  0.810428  0.945668  1
  Ga  Ga7  1  0.810428  0.189572  0.054332  1
  Ga  Ga8  1  0.189572  0.810428  0.554332  1
  Ga  Ga9  1  0.810428  0.189572  0.445668  1
  Ni  Ni10  1  0.732852  0.267148  0.750000  1
  Ni  Ni11  1  0.267148  0.732852  0.250000  1
