# generated using pymatgen
data_Hf3Zr3NiBiTe
_symmetry_space_group_name_H-M   'P 1'
_cell_length_a   3.68431900
_cell_length_b   7.81624858
_cell_length_c   7.81624900
_cell_angle_alpha   119.99999755
_cell_angle_beta   90.00000000
_cell_angle_gamma   90.00000000
_symmetry_Int_Tables_number   1
_chemical_formula_structural   Hf3Zr3NiBiTe
_chemical_formula_sum   'Hf3 Zr3 Ni1 Bi1 Te1'
_cell_volume   194.93266359
_cell_formula_units_Z   1
loop_
 _symmetry_equiv_pos_site_id
 _symmetry_equiv_pos_as_xyz
  1  'x, y, z'
loop_
 _atom_site_type_symbol
 _atom_site_label
 _atom_site_symmetry_multiplicity
 _atom_site_fract_x
 _atom_site_fract_y
 _atom_site_fract_z
 _atom_site_occupancy
  Hf  Hf0  1  0.500000  0.765267  0.764701  1
  Hf  Hf1  1  0.500000  0.999434  0.234733  1
  Hf  Hf2  1  0.500000  0.235299  0.000566  1
  Zr  Zr3  1  0.000000  0.402939  0.395428  1
  Zr  Zr4  1  0.000000  0.992489  0.597061  1
  Zr  Zr5  1  0.000000  0.604572  0.007511  1
  Ni  Ni6  1  0.000000  0.000000  0.000000  1
  Bi  Bi7  1  0.500000  0.333333  0.666667  1
  Te  Te8  1  0.500000  0.666667  0.333333  1
