# generated using pymatgen
data_TbNdY3(MnB3)2
_symmetry_space_group_name_H-M   'P 1'
_cell_length_a   5.44538924
_cell_length_b   5.44538834
_cell_length_c   8.32577903
_cell_angle_alpha   70.91200722
_cell_angle_beta   70.91200927
_cell_angle_gamma   60.00001482
_symmetry_Int_Tables_number   1
_chemical_formula_structural   TbNdY3(MnB3)2
_chemical_formula_sum   'Tb1 Nd1 Y3 Mn2 B6'
_cell_volume   197.97383932
_cell_formula_units_Z   1
loop_
 _symmetry_equiv_pos_site_id
 _symmetry_equiv_pos_as_xyz
  1  'x, y, z'
loop_
 _atom_site_type_symbol
 _atom_site_label
 _atom_site_symmetry_multiplicity
 _atom_site_fract_x
 _atom_site_fract_y
 _atom_site_fract_z
 _atom_site_occupancy
  Tb  Tb0  1  0.250561  0.250561  0.248315  1
  Nd  Nd1  1  0.000056  0.000056  0.999832  1
  Y  Y2  1  0.749731  0.749731  0.750807  1
  Y  Y3  1  0.417361  0.417361  0.747918  1
  Y  Y4  1  0.582575  0.582575  0.252276  1
  Mn  Mn5  1  0.115307  0.115307  0.654079  1
  Mn  Mn6  1  0.884709  0.884709  0.345872  1
  B  B7  1  0.165630  0.834160  0.500150  1
  B  B8  1  0.834160  0.500061  0.500150  1
  B  B9  1  0.500061  0.165630  0.500150  1
  B  B10  1  0.165630  0.500061  0.500150  1
  B  B11  1  0.500061  0.834160  0.500150  1
  B  B12  1  0.834160  0.165630  0.500150  1
