# generated using pymatgen
data_SrGa2NiPt2
_symmetry_space_group_name_H-M   'P 1'
_cell_length_a   5.75489000
_cell_length_b   5.51980774
_cell_length_c   3.95217400
_cell_angle_alpha   90.00000000
_cell_angle_beta   90.00000000
_cell_angle_gamma   121.41910686
_symmetry_Int_Tables_number   1
_chemical_formula_structural   SrGa2NiPt2
_chemical_formula_sum   'Sr1 Ga2 Ni1 Pt2'
_cell_volume   107.13662748
_cell_formula_units_Z   1
loop_
 _symmetry_equiv_pos_site_id
 _symmetry_equiv_pos_as_xyz
  1  'x, y, z'
loop_
 _atom_site_type_symbol
 _atom_site_label
 _atom_site_symmetry_multiplicity
 _atom_site_fract_x
 _atom_site_fract_y
 _atom_site_fract_z
 _atom_site_occupancy
  Sr  Sr0  1  0.000000  0.000000  0.000000  1
  Ga  Ga1  1  0.344866  0.689732  0.000000  1
  Ga  Ga2  1  0.655134  0.310268  0.000000  1
  Ni  Ni3  1  0.500000  0.000000  0.500000  1
  Pt  Pt4  1  0.000000  0.500000  0.500000  1
  Pt  Pt5  1  0.500000  0.500000  0.500000  1
