# generated using pymatgen
data_Sm3Y(Sc3Sn4)2
_symmetry_space_group_name_H-M   'P 1'
_cell_length_a   7.75912726
_cell_length_b   7.99244555
_cell_length_c   14.94273600
_cell_angle_alpha   90.06795969
_cell_angle_beta   89.85093282
_cell_angle_gamma   90.09493296
_symmetry_Int_Tables_number   1
_chemical_formula_structural   Sm3Y(Sc3Sn4)2
_chemical_formula_sum   'Sm6 Y2 Sc12 Sn16'
_cell_volume   926.65978434
_cell_formula_units_Z   2
loop_
 _symmetry_equiv_pos_site_id
 _symmetry_equiv_pos_as_xyz
  1  'x, y, z'
loop_
 _atom_site_type_symbol
 _atom_site_label
 _atom_site_symmetry_multiplicity
 _atom_site_fract_x
 _atom_site_fract_y
 _atom_site_fract_z
 _atom_site_occupancy
  Sm  Sm0  1  0.993159  0.174894  0.095854  1
  Sm  Sm1  1  0.006841  0.825106  0.904146  1
  Sm  Sm2  1  0.505713  0.674947  0.905666  1
  Sm  Sm3  1  0.005811  0.823749  0.593523  1
  Sm  Sm4  1  0.494287  0.325053  0.094334  1
  Sm  Sm5  1  0.994189  0.176251  0.406477  1
  Y  Y6  1  0.490660  0.324455  0.405590  1
  Y  Y7  1  0.509340  0.675545  0.594410  1
  Sc  Sc8  1  0.169721  0.496072  0.749005  1
  Sc  Sc9  1  0.830279  0.503928  0.250995  1
  Sc  Sc10  1  0.330890  0.994960  0.250595  1
  Sc  Sc11  1  0.669110  0.005040  0.749405  1
  Sc  Sc12  1  0.340216  0.162798  0.627371  1
  Sc  Sc13  1  0.659784  0.837202  0.372629  1
  Sc  Sc14  1  0.159833  0.660314  0.374098  1
  Sc  Sc15  1  0.660575  0.838928  0.128266  1
  Sc  Sc16  1  0.840167  0.339686  0.625902  1
  Sc  Sc17  1  0.339425  0.161072  0.871734  1
  Sc  Sc18  1  0.838729  0.338001  0.872420  1
  Sc  Sc19  1  0.161271  0.661999  0.127580  1
  Sn  Sn20  1  0.031435  0.127888  0.748781  1
  Sn  Sn21  1  0.968565  0.872112  0.251219  1
  Sn  Sn22  1  0.467359  0.626185  0.250148  1
  Sn  Sn23  1  0.532641  0.373815  0.749852  1
  Sn  Sn24  1  0.312077  0.851923  0.748430  1
  Sn  Sn25  1  0.687923  0.148077  0.251570  1
  Sn  Sn26  1  0.190475  0.353266  0.251082  1
  Sn  Sn27  1  0.809525  0.646734  0.748918  1
  Sn  Sn28  1  0.185818  0.457212  0.542854  1
  Sn  Sn29  1  0.814182  0.542788  0.457146  1
  Sn  Sn30  1  0.323035  0.956857  0.457170  1
  Sn  Sn31  1  0.822268  0.544709  0.043108  1
  Sn  Sn32  1  0.676965  0.043143  0.542830  1
  Sn  Sn33  1  0.177732  0.455291  0.956892  1
  Sn  Sn34  1  0.678994  0.043340  0.957171  1
  Sn  Sn35  1  0.321006  0.956660  0.042829  1
