# generated using pymatgen
data_Cs4PuWCl12
_symmetry_space_group_name_H-M   'P 1'
_cell_length_a   7.64228900
_cell_length_b   7.64228900
_cell_length_c   10.66963500
_cell_angle_alpha   90.00000000
_cell_angle_beta   90.00000000
_cell_angle_gamma   90.00000000
_symmetry_Int_Tables_number   1
_chemical_formula_structural   Cs4PuWCl12
_chemical_formula_sum   'Cs4 Pu1 W1 Cl12'
_cell_volume   623.15556330
_cell_formula_units_Z   1
loop_
 _symmetry_equiv_pos_site_id
 _symmetry_equiv_pos_as_xyz
  1  'x, y, z'
loop_
 _atom_site_type_symbol
 _atom_site_label
 _atom_site_symmetry_multiplicity
 _atom_site_fract_x
 _atom_site_fract_y
 _atom_site_fract_z
 _atom_site_occupancy
  Cs  Cs0  1  0.500000  0.000000  0.742742  1
  Cs  Cs1  1  0.000000  0.500000  0.257258  1
  Cs  Cs2  1  0.500000  0.000000  0.257258  1
  Cs  Cs3  1  0.000000  0.500000  0.742742  1
  Pu  Pu4  1  0.500000  0.500000  0.500000  1
  W  W5  1  0.000000  0.000000  0.000000  1
  Cl  Cl6  1  0.000000  0.000000  0.776811  1
  Cl  Cl7  1  0.500000  0.500000  0.254037  1
  Cl  Cl8  1  0.742774  0.742774  0.500000  1
  Cl  Cl9  1  0.220959  0.220959  0.000000  1
  Cl  Cl10  1  0.742774  0.257226  0.500000  1
  Cl  Cl11  1  0.220959  0.779041  0.000000  1
  Cl  Cl12  1  0.000000  0.000000  0.223189  1
  Cl  Cl13  1  0.500000  0.500000  0.745963  1
  Cl  Cl14  1  0.257226  0.257226  0.500000  1
  Cl  Cl15  1  0.779041  0.779041  0.000000  1
  Cl  Cl16  1  0.257226  0.742774  0.500000  1
  Cl  Cl17  1  0.779041  0.220959  0.000000  1
