# generated using pymatgen
data_Tb7Ho3(Hg2Pd)4
_symmetry_space_group_name_H-M   'P 1'
_cell_length_a   3.66021300
_cell_length_b   7.98782933
_cell_length_c   18.14791076
_cell_angle_alpha   90.03310486
_cell_angle_beta   90.00000000
_cell_angle_gamma   90.00000000
_symmetry_Int_Tables_number   1
_chemical_formula_structural   Tb7Ho3(Hg2Pd)4
_chemical_formula_sum   'Tb7 Ho3 Hg8 Pd4'
_cell_volume   530.59322325
_cell_formula_units_Z   1
loop_
 _symmetry_equiv_pos_site_id
 _symmetry_equiv_pos_as_xyz
  1  'x, y, z'
loop_
 _atom_site_type_symbol
 _atom_site_label
 _atom_site_symmetry_multiplicity
 _atom_site_fract_x
 _atom_site_fract_y
 _atom_site_fract_z
 _atom_site_occupancy
  Tb  Tb0  1  0.000000  0.500116  0.500020  1
  Tb  Tb1  1  0.000000  0.000315  0.999885  1
  Tb  Tb2  1  0.000000  0.734386  0.284869  1
  Tb  Tb3  1  0.000000  0.265806  0.715278  1
  Tb  Tb4  1  0.000000  0.765592  0.784460  1
  Tb  Tb5  1  0.000000  0.234194  0.215563  1
  Tb  Tb6  1  0.000000  0.614344  0.084008  1
  Ho  Ho7  1  0.000000  0.386105  0.915187  1
  Ho  Ho8  1  0.000000  0.886307  0.584494  1
  Ho  Ho9  1  0.000000  0.113556  0.415576  1
  Hg  Hg10  1  0.500000  0.710733  0.935056  1
  Hg  Hg11  1  0.500000  0.288450  0.064488  1
  Hg  Hg12  1  0.500000  0.789737  0.435751  1
  Hg  Hg13  1  0.500000  0.210393  0.564287  1
  Hg  Hg14  1  0.500000  0.583047  0.647610  1
  Hg  Hg15  1  0.500000  0.416773  0.352547  1
  Hg  Hg16  1  0.500000  0.917961  0.147936  1
  Hg  Hg17  1  0.500000  0.083196  0.852278  1
  Pd  Pd18  1  0.500000  0.523699  0.196184  1
  Pd  Pd19  1  0.500000  0.475360  0.804473  1
  Pd  Pd20  1  0.500000  0.975492  0.695433  1
  Pd  Pd21  1  0.500000  0.024438  0.304616  1
