# generated using pymatgen
data_Yb(Zn2Rh)4
_symmetry_space_group_name_H-M   'P 1'
_cell_length_a   6.67556103
_cell_length_b   6.67556094
_cell_length_c   6.67556111
_cell_angle_alpha   100.47224138
_cell_angle_beta   100.47224175
_cell_angle_gamma   129.52995848
_symmetry_Int_Tables_number   1
_chemical_formula_structural   Yb(Zn2Rh)4
_chemical_formula_sum   'Yb1 Zn8 Rh4'
_cell_volume   207.54996912
_cell_formula_units_Z   1
loop_
 _symmetry_equiv_pos_site_id
 _symmetry_equiv_pos_as_xyz
  1  'x, y, z'
loop_
 _atom_site_type_symbol
 _atom_site_label
 _atom_site_symmetry_multiplicity
 _atom_site_fract_x
 _atom_site_fract_y
 _atom_site_fract_z
 _atom_site_occupancy
  Yb  Yb0  1  0.000000  0.000000  0.000000  1
  Zn  Zn1  1  0.729950  0.500000  0.229950  1
  Zn  Zn2  1  0.500000  0.729950  0.229950  1
  Zn  Zn3  1  0.000000  0.328450  0.328450  1
  Zn  Zn4  1  0.328450  0.000000  0.328450  1
  Zn  Zn5  1  0.000000  0.671550  0.671550  1
  Zn  Zn6  1  0.671550  0.000000  0.671550  1
  Zn  Zn7  1  0.500000  0.270050  0.770050  1
  Zn  Zn8  1  0.270050  0.500000  0.770050  1
  Rh  Rh9  1  0.500000  0.000000  0.000000  1
  Rh  Rh10  1  0.000000  0.500000  0.000000  1
  Rh  Rh11  1  0.000000  0.000000  0.500000  1
  Rh  Rh12  1  0.500000  0.500000  0.500000  1
