# generated using pymatgen
data_TbTm2Zn2In3Rh
_symmetry_space_group_name_H-M   'P 1'
_cell_length_a   7.72973548
_cell_length_b   7.69150956
_cell_length_c   3.84351600
_cell_angle_alpha   90.00000000
_cell_angle_beta   90.00000000
_cell_angle_gamma   119.95009104
_symmetry_Int_Tables_number   1
_chemical_formula_structural   TbTm2Zn2In3Rh
_chemical_formula_sum   'Tb1 Tm2 Zn2 In3 Rh1'
_cell_volume   197.99477760
_cell_formula_units_Z   1
loop_
 _symmetry_equiv_pos_site_id
 _symmetry_equiv_pos_as_xyz
  1  'x, y, z'
loop_
 _atom_site_type_symbol
 _atom_site_label
 _atom_site_symmetry_multiplicity
 _atom_site_fract_x
 _atom_site_fract_y
 _atom_site_fract_z
 _atom_site_occupancy
  Tb  Tb0  1  0.974643  0.390545  0.500000  1
  Tm  Tm1  1  0.611151  0.582152  0.500000  1
  Tm  Tm2  1  0.417327  0.029506  0.500000  1
  Zn  Zn3  1  0.335471  0.667804  0.000000  1
  Zn  Zn4  1  0.000073  0.999512  0.500000  1
  In  In5  1  0.263607  0.271239  0.000000  1
  In  In6  1  0.008711  0.738190  0.000000  1
  In  In7  1  0.727145  0.989486  0.000000  1
  Rh  Rh8  1  0.661872  0.331566  0.000000  1
