# generated using pymatgen
data_Ho8Si12IrPdRh2
_symmetry_space_group_name_H-M   'P 1'
_cell_length_a   8.16898300
_cell_length_b   8.16898342
_cell_length_c   7.87317900
_cell_angle_alpha   90.00000000
_cell_angle_beta   90.00000000
_cell_angle_gamma   120.00000234
_symmetry_Int_Tables_number   1
_chemical_formula_structural   Ho8Si12IrPdRh2
_chemical_formula_sum   'Ho8 Si12 Ir1 Pd1 Rh2'
_cell_volume   455.00561267
_cell_formula_units_Z   1
loop_
 _symmetry_equiv_pos_site_id
 _symmetry_equiv_pos_as_xyz
  1  'x, y, z'
loop_
 _atom_site_type_symbol
 _atom_site_label
 _atom_site_symmetry_multiplicity
 _atom_site_fract_x
 _atom_site_fract_y
 _atom_site_fract_z
 _atom_site_occupancy
  Ho  Ho0  1  0.000000  0.000000  0.249956  1
  Ho  Ho1  1  0.000000  0.000000  0.751685  1
  Ho  Ho2  1  0.510910  0.489090  0.247458  1
  Ho  Ho3  1  0.510910  0.021820  0.247458  1
  Ho  Ho4  1  0.978180  0.489090  0.247458  1
  Ho  Ho5  1  0.492087  0.507913  0.751881  1
  Ho  Ho6  1  0.492087  0.984174  0.751881  1
  Ho  Ho7  1  0.015826  0.507913  0.751881  1
  Si  Si8  1  0.164527  0.835473  0.500963  1
  Si  Si9  1  0.164527  0.329052  0.500963  1
  Si  Si10  1  0.670948  0.835473  0.500963  1
  Si  Si11  1  0.832781  0.167219  0.500064  1
  Si  Si12  1  0.832781  0.665564  0.500064  1
  Si  Si13  1  0.334436  0.167219  0.500064  1
  Si  Si14  1  0.833415  0.166585  0.999714  1
  Si  Si15  1  0.833415  0.666830  0.999714  1
  Si  Si16  1  0.333170  0.166585  0.999714  1
  Si  Si17  1  0.166997  0.833003  0.001090  1
  Si  Si18  1  0.166997  0.333992  0.001090  1
  Si  Si19  1  0.666008  0.833003  0.001090  1
  Ir  Ir20  1  0.666667  0.333333  0.535486  1
  Pd  Pd21  1  0.333333  0.666667  0.464311  1
  Rh  Rh22  1  0.666667  0.333333  0.962651  1
  Rh  Rh23  1  0.333333  0.666667  0.032403  1
