# generated using pymatgen
data_Yb3Co7NiMoAs6
_symmetry_space_group_name_H-M   'P 1'
_cell_length_a   3.84010500
_cell_length_b   10.83436700
_cell_length_c   12.59097800
_cell_angle_alpha   90.00000000
_cell_angle_beta   90.00000000
_cell_angle_gamma   90.00000000
_symmetry_Int_Tables_number   1
_chemical_formula_structural   Yb3Co7NiMoAs6
_chemical_formula_sum   'Yb6 Co14 Ni2 Mo2 As12'
_cell_volume   523.84898552
_cell_formula_units_Z   2
loop_
 _symmetry_equiv_pos_site_id
 _symmetry_equiv_pos_as_xyz
  1  'x, y, z'
loop_
 _atom_site_type_symbol
 _atom_site_label
 _atom_site_symmetry_multiplicity
 _atom_site_fract_x
 _atom_site_fract_y
 _atom_site_fract_z
 _atom_site_occupancy
  Yb  Yb0  1  0.000000  0.500000  0.525631  1
  Yb  Yb1  1  0.500000  0.000000  0.474369  1
  Yb  Yb2  1  0.500000  0.821121  0.205773  1
  Yb  Yb3  1  0.500000  0.178879  0.205773  1
  Yb  Yb4  1  0.000000  0.678879  0.794227  1
  Yb  Yb5  1  0.000000  0.321121  0.794227  1
  Co  Co6  1  0.000000  0.500000  0.987356  1
  Co  Co7  1  0.500000  0.000000  0.012644  1
  Co  Co8  1  0.500000  0.332054  0.995265  1
  Co  Co9  1  0.500000  0.667946  0.995265  1
  Co  Co10  1  0.000000  0.167946  0.004735  1
  Co  Co11  1  0.000000  0.832054  0.004735  1
  Co  Co12  1  0.500000  0.297524  0.431512  1
  Co  Co13  1  0.500000  0.702476  0.431512  1
  Co  Co14  1  0.000000  0.202476  0.568488  1
  Co  Co15  1  0.000000  0.797524  0.568488  1
  Co  Co16  1  0.500000  0.880511  0.705290  1
  Co  Co17  1  0.500000  0.119489  0.705290  1
  Co  Co18  1  0.000000  0.619489  0.294710  1
  Co  Co19  1  0.000000  0.380511  0.294710  1
  Ni  Ni20  1  0.500000  0.500000  0.699813  1
  Ni  Ni21  1  0.000000  0.000000  0.300187  1
  Mo  Mo22  1  0.500000  0.500000  0.153755  1
  Mo  Mo23  1  0.000000  0.000000  0.846245  1
  As  As24  1  0.500000  0.500000  0.882166  1
  As  As25  1  0.000000  0.000000  0.117834  1
  As  As26  1  0.500000  0.500000  0.351406  1
  As  As27  1  0.000000  0.000000  0.648594  1
  As  As28  1  0.500000  0.309132  0.616409  1
  As  As29  1  0.500000  0.690868  0.616409  1
  As  As30  1  0.000000  0.190868  0.383591  1
  As  As31  1  0.000000  0.809132  0.383591  1
  As  As32  1  0.500000  0.841726  0.888668  1
  As  As33  1  0.500000  0.158274  0.888668  1
  As  As34  1  0.000000  0.658274  0.111332  1
  As  As35  1  0.000000  0.341726  0.111332  1
