# generated using pymatgen
data_Ho2MgGa7Ni2
_symmetry_space_group_name_H-M   'P 1'
_cell_length_a   8.01147033
_cell_length_b   8.01147028
_cell_length_c   6.51235592
_cell_angle_alpha   88.83831880
_cell_angle_beta   91.16168174
_cell_angle_gamma   149.92187568
_symmetry_Int_Tables_number   1
_chemical_formula_structural   Ho2MgGa7Ni2
_chemical_formula_sum   'Ho2 Mg1 Ga7 Ni2'
_cell_volume   209.44062692
_cell_formula_units_Z   1
loop_
 _symmetry_equiv_pos_site_id
 _symmetry_equiv_pos_as_xyz
  1  'x, y, z'
loop_
 _atom_site_type_symbol
 _atom_site_label
 _atom_site_symmetry_multiplicity
 _atom_site_fract_x
 _atom_site_fract_y
 _atom_site_fract_z
 _atom_site_occupancy
  Ho  Ho0  1  0.875641  0.124359  0.261413  1
  Ho  Ho1  1  0.124359  0.875641  0.738587  1
  Mg  Mg2  1  0.500000  0.500000  0.000000  1
  Ga  Ga3  1  0.315441  0.684559  0.554833  1
  Ga  Ga4  1  0.068574  0.931426  0.254104  1
  Ga  Ga5  1  0.684559  0.315441  0.445167  1
  Ga  Ga6  1  0.500000  0.500000  0.500000  1
  Ga  Ga7  1  0.685877  0.314123  0.042402  1
  Ga  Ga8  1  0.314123  0.685877  0.957598  1
  Ga  Ga9  1  0.931426  0.068574  0.745896  1
  Ni  Ni10  1  0.779184  0.220816  0.745934  1
  Ni  Ni11  1  0.220816  0.779184  0.254066  1
