# generated using pymatgen
data_CeNd3Dy4(B6Os)4
_symmetry_space_group_name_H-M   'P 1'
_cell_length_a   3.70282300
_cell_length_b   9.23248650
_cell_length_c   11.62816464
_cell_angle_alpha   90.03786605
_cell_angle_beta   90.00000000
_cell_angle_gamma   90.00000000
_symmetry_Int_Tables_number   1
_chemical_formula_structural   CeNd3Dy4(B6Os)4
_chemical_formula_sum   'Ce1 Nd3 Dy4 B24 Os4'
_cell_volume   397.52341195
_cell_formula_units_Z   1
loop_
 _symmetry_equiv_pos_site_id
 _symmetry_equiv_pos_as_xyz
  1  'x, y, z'
loop_
 _atom_site_type_symbol
 _atom_site_label
 _atom_site_symmetry_multiplicity
 _atom_site_fract_x
 _atom_site_fract_y
 _atom_site_fract_z
 _atom_site_occupancy
  Ce  Ce0  1  0.000000  0.323026  0.413957  1
  Nd  Nd1  1  0.000000  0.678142  0.586443  1
  Nd  Nd2  1  0.000000  0.822251  0.085772  1
  Nd  Nd3  1  0.000000  0.177460  0.913874  1
  Dy  Dy4  1  0.000000  0.944217  0.373195  1
  Dy  Dy5  1  0.000000  0.055074  0.626882  1
  Dy  Dy6  1  0.000000  0.444451  0.126819  1
  Dy  Dy7  1  0.000000  0.555886  0.873004  1
  B  B8  1  0.500000  0.554621  0.430476  1
  B  B9  1  0.500000  0.443638  0.568384  1
  B  B10  1  0.500000  0.056249  0.069918  1
  B  B11  1  0.500000  0.944001  0.930654  1
  B  B12  1  0.500000  0.749186  0.417791  1
  B  B13  1  0.500000  0.251083  0.580972  1
  B  B14  1  0.500000  0.249379  0.082293  1
  B  B15  1  0.500000  0.750765  0.917873  1
  B  B16  1  0.500000  0.790215  0.267178  1
  B  B17  1  0.500000  0.209561  0.732884  1
  B  B18  1  0.500000  0.291192  0.233903  1
  B  B19  1  0.500000  0.709561  0.767123  1
  B  B20  1  0.500000  0.630970  0.185445  1
  B  B21  1  0.500000  0.368659  0.814371  1
  B  B22  1  0.500000  0.132260  0.315179  1
  B  B23  1  0.500000  0.868764  0.685508  1
  B  B24  1  0.500000  0.985909  0.214146  1
  B  B25  1  0.500000  0.014304  0.785878  1
  B  B26  1  0.500000  0.484889  0.286520  1
  B  B27  1  0.500000  0.513767  0.713945  1
  B  B28  1  0.500000  0.604904  0.028793  1
  B  B29  1  0.500000  0.394923  0.971165  1
  B  B30  1  0.500000  0.106887  0.470706  1
  B  B31  1  0.500000  0.894222  0.528712  1
  Os  Os32  1  0.000000  0.637526  0.320702  1
  Os  Os33  1  0.000000  0.360675  0.677907  1
  Os  Os34  1  0.000000  0.140318  0.181821  1
  Os  Os35  1  0.000000  0.861062  0.819809  1
