# generated using pymatgen
data_DyEr4Cr3(P3Ir4)4
_symmetry_space_group_name_H-M   'P 1'
_cell_length_a   12.61811500
_cell_length_b   12.61690914
_cell_length_c   3.94962600
_cell_angle_alpha   90.00000000
_cell_angle_beta   90.00000000
_cell_angle_gamma   120.00315901
_symmetry_Int_Tables_number   1
_chemical_formula_structural   DyEr4Cr3(P3Ir4)4
_chemical_formula_sum   'Dy1 Er4 Cr3 P12 Ir16'
_cell_volume   544.52802479
_cell_formula_units_Z   1
loop_
 _symmetry_equiv_pos_site_id
 _symmetry_equiv_pos_as_xyz
  1  'x, y, z'
loop_
 _atom_site_type_symbol
 _atom_site_label
 _atom_site_symmetry_multiplicity
 _atom_site_fract_x
 _atom_site_fract_y
 _atom_site_fract_z
 _atom_site_occupancy
  Dy  Dy0  1  0.810659  0.000000  0.000000  1
  Er  Er1  1  0.333336  0.666645  0.500000  1
  Er  Er2  1  0.666692  0.333355  0.500000  1
  Er  Er3  1  0.999995  0.810605  0.000000  1
  Er  Er4  1  0.189390  0.189395  0.000000  1
  Cr  Cr5  1  0.000018  0.453452  0.500000  1
  Cr  Cr6  1  0.546566  0.546548  0.500000  1
  Cr  Cr7  1  0.453429  0.000000  0.500000  1
  P  P8  1  0.999992  0.632773  0.500000  1
  P  P9  1  0.367219  0.367227  0.500000  1
  P  P10  1  0.632485  0.000000  0.500000  1
  P  P11  1  0.515986  0.684190  0.000000  1
  P  P12  1  0.315803  0.831785  0.000000  1
  P  P13  1  0.168240  0.484105  0.000000  1
  P  P14  1  0.484019  0.168215  0.000000  1
  P  P15  1  0.684135  0.515895  0.000000  1
  P  P16  1  0.831796  0.315810  0.000000  1
  P  P17  1  0.000229  0.177585  0.500000  1
  P  P18  1  0.822644  0.822415  0.500000  1
  P  P19  1  0.177515  0.000000  0.500000  1
  Ir  Ir20  1  0.508996  0.868178  0.000000  1
  Ir  Ir21  1  0.131829  0.640925  0.000000  1
  Ir  Ir22  1  0.359112  0.490965  0.000000  1
  Ir  Ir23  1  0.490905  0.359075  0.000000  1
  Ir  Ir24  1  0.868148  0.509035  0.000000  1
  Ir  Ir25  1  0.640820  0.131822  0.000000  1
  Ir  Ir26  1  0.000144  0.287177  0.000000  1
  Ir  Ir27  1  0.712967  0.712823  0.000000  1
  Ir  Ir28  1  0.286934  0.000000  0.000000  1
  Ir  Ir29  1  0.623580  0.802641  0.500000  1
  Ir  Ir30  1  0.196753  0.820855  0.500000  1
  Ir  Ir31  1  0.179161  0.375901  0.500000  1
  Ir  Ir32  1  0.375898  0.179145  0.500000  1
  Ir  Ir33  1  0.803260  0.624099  0.500000  1
  Ir  Ir34  1  0.820939  0.197359  0.500000  1
  Ir  Ir35  1  0.000407  0.000000  0.500000  1
