# generated using pymatgen
data_Th2GeI2
_symmetry_space_group_name_H-M   'P 1'
_cell_length_a   11.36308006
_cell_length_b   11.36308017
_cell_length_c   11.36308056
_cell_angle_alpha   22.06171245
_cell_angle_beta   22.06171243
_cell_angle_gamma   22.06170987
_symmetry_Int_Tables_number   1
_chemical_formula_structural   Th2GeI2
_chemical_formula_sum   'Th2 Ge1 I2'
_cell_volume   181.47315128
_cell_formula_units_Z   1
loop_
 _symmetry_equiv_pos_site_id
 _symmetry_equiv_pos_as_xyz
  1  'x, y, z'
loop_
 _atom_site_type_symbol
 _atom_site_label
 _atom_site_symmetry_multiplicity
 _atom_site_fract_x
 _atom_site_fract_y
 _atom_site_fract_z
 _atom_site_occupancy
  Th  Th0  1  0.620377  0.620377  0.620377  1
  Th  Th1  1  0.379623  0.379624  0.379623  1
  Ge  Ge2  1  0.000000  0.000000  0.000000  1
  I  I3  1  0.222136  0.222136  0.222136  1
  I  I4  1  0.777864  0.777864  0.777864  1
