# generated using pymatgen
data_Tb2Y3Co19(SiP3)3
_symmetry_space_group_name_H-M   'P 1'
_cell_length_a   12.05077700
_cell_length_b   12.05077723
_cell_length_c   3.69153800
_cell_angle_alpha   90.00000000
_cell_angle_beta   90.00000000
_cell_angle_gamma   120.00000210
_symmetry_Int_Tables_number   1
_chemical_formula_structural   Tb2Y3Co19(SiP3)3
_chemical_formula_sum   'Tb2 Y3 Co19 Si3 P9'
_cell_volume   464.26727675
_cell_formula_units_Z   1
loop_
 _symmetry_equiv_pos_site_id
 _symmetry_equiv_pos_as_xyz
  1  'x, y, z'
loop_
 _atom_site_type_symbol
 _atom_site_label
 _atom_site_symmetry_multiplicity
 _atom_site_fract_x
 _atom_site_fract_y
 _atom_site_fract_z
 _atom_site_occupancy
  Tb  Tb0  1  0.333333  0.666667  0.000000  1
  Tb  Tb1  1  0.666667  0.333333  0.000000  1
  Y  Y2  1  0.185095  0.000000  0.500000  1
  Y  Y3  1  0.000000  0.185095  0.500000  1
  Y  Y4  1  0.814905  0.814905  0.500000  1
  Co  Co5  1  0.202856  0.378037  0.000000  1
  Co  Co6  1  0.621963  0.824819  0.000000  1
  Co  Co7  1  0.175181  0.797144  0.000000  1
  Co  Co8  1  0.824819  0.621963  0.000000  1
  Co  Co9  1  0.797144  0.175181  0.000000  1
  Co  Co10  1  0.378037  0.202856  0.000000  1
  Co  Co11  1  0.556808  0.000000  0.000000  1
  Co  Co12  1  0.000000  0.556808  0.000000  1
  Co  Co13  1  0.443192  0.443192  0.000000  1
  Co  Co14  1  0.126750  0.485189  0.500000  1
  Co  Co15  1  0.514811  0.641561  0.500000  1
  Co  Co16  1  0.358439  0.873250  0.500000  1
  Co  Co17  1  0.641561  0.514811  0.500000  1
  Co  Co18  1  0.873250  0.358439  0.500000  1
  Co  Co19  1  0.485189  0.126750  0.500000  1
  Co  Co20  1  0.715378  0.000000  0.500000  1
  Co  Co21  1  0.000000  0.715378  0.500000  1
  Co  Co22  1  0.284622  0.284622  0.500000  1
  Co  Co23  1  0.000000  0.000000  0.000000  1
  Si  Si24  1  0.369642  0.000000  0.000000  1
  Si  Si25  1  0.000000  0.369642  0.000000  1
  Si  Si26  1  0.630358  0.630358  0.000000  1
  P  P27  1  0.313714  0.479295  0.500000  1
  P  P28  1  0.520705  0.834420  0.500000  1
  P  P29  1  0.165580  0.686286  0.500000  1
  P  P30  1  0.834420  0.520705  0.500000  1
  P  P31  1  0.686286  0.165580  0.500000  1
  P  P32  1  0.479295  0.313714  0.500000  1
  P  P33  1  0.817621  0.000000  0.000000  1
  P  P34  1  0.000000  0.817621  0.000000  1
  P  P35  1  0.182379  0.182379  0.000000  1
