# generated using pymatgen
data_Nd4Al14Ga(SiIr2)3
_symmetry_space_group_name_H-M   'P 1'
_cell_length_a   7.58157141
_cell_length_b   7.55423636
_cell_length_c   9.57200623
_cell_angle_alpha   90.03494426
_cell_angle_beta   89.90061690
_cell_angle_gamma   119.69980336
_symmetry_Int_Tables_number   1
_chemical_formula_structural   Nd4Al14Ga(SiIr2)3
_chemical_formula_sum   'Nd4 Al14 Ga1 Si3 Ir6'
_cell_volume   476.19905845
_cell_formula_units_Z   1
loop_
 _symmetry_equiv_pos_site_id
 _symmetry_equiv_pos_as_xyz
  1  'x, y, z'
loop_
 _atom_site_type_symbol
 _atom_site_label
 _atom_site_symmetry_multiplicity
 _atom_site_fract_x
 _atom_site_fract_y
 _atom_site_fract_z
 _atom_site_occupancy
  Nd  Nd0  1  0.994420  0.667739  0.247688  1
  Nd  Nd1  1  0.005118  0.339110  0.752722  1
  Nd  Nd2  1  0.676441  0.999448  0.247787  1
  Nd  Nd3  1  0.322679  0.994791  0.750046  1
  Al  Al4  1  0.868333  0.868950  0.749907  1
  Al  Al5  1  0.340043  0.005003  0.426711  1
  Al  Al6  1  0.002963  0.329905  0.431683  1
  Al  Al7  1  0.665833  0.999856  0.573003  1
  Al  Al8  1  0.661566  0.995521  0.924601  1
  Al  Al9  1  0.339391  0.005755  0.073965  1
  Al  Al10  1  0.334287  0.332808  0.555212  1
  Al  Al11  1  0.661317  0.665591  0.448171  1
  Al  Al12  1  0.660705  0.665176  0.053337  1
  Al  Al13  1  0.336731  0.333318  0.944986  1
  Al  Al14  1  0.336287  0.547087  0.250296  1
  Al  Al15  1  0.660694  0.453154  0.750414  1
  Al  Al16  1  0.548033  0.342137  0.250365  1
  Al  Al17  1  0.456046  0.658844  0.749786  1
  Ga  Ga18  1  0.137861  0.132006  0.250962  1
  Si  Si19  1  0.002830  0.329703  0.070986  1
  Si  Si20  1  0.995409  0.671094  0.932938  1
  Si  Si21  1  0.996890  0.665542  0.562800  1
  Ir  Ir22  1  0.686569  0.337736  0.000926  1
  Ir  Ir23  1  0.311735  0.661899  0.998385  1
  Ir  Ir24  1  0.320010  0.669122  0.501933  1
  Ir  Ir25  1  0.679022  0.337351  0.500123  1
  Ir  Ir26  1  0.999099  0.999832  0.997386  1
  Ir  Ir27  1  0.999683  0.991525  0.502876  1
