# generated using pymatgen
data_Mg4TiNb(SbPt)6
_symmetry_space_group_name_H-M   'P 1'
_cell_length_a   7.74231335
_cell_length_b   7.74064710
_cell_length_c   7.74186114
_cell_angle_alpha   120.03178269
_cell_angle_beta   99.61765032
_cell_angle_gamma   99.62228911
_symmetry_Int_Tables_number   1
_chemical_formula_structural   Mg4TiNb(SbPt)6
_chemical_formula_sum   'Mg4 Ti1 Nb1 Sb6 Pt6'
_cell_volume   378.56189616
_cell_formula_units_Z   1
loop_
 _symmetry_equiv_pos_site_id
 _symmetry_equiv_pos_as_xyz
  1  'x, y, z'
loop_
 _atom_site_type_symbol
 _atom_site_label
 _atom_site_symmetry_multiplicity
 _atom_site_fract_x
 _atom_site_fract_y
 _atom_site_fract_z
 _atom_site_occupancy
  Mg  Mg0  1  0.000114  0.502094  0.999490  1
  Mg  Mg1  1  0.499168  0.330935  0.164409  1
  Mg  Mg2  1  0.999816  0.164379  0.330879  1
  Mg  Mg3  1  0.499563  0.999183  0.501976  1
  Ti  Ti4  1  0.000737  0.833880  0.668398  1
  Nb  Nb5  1  0.500275  0.668196  0.833273  1
  Sb  Sb6  1  0.246566  0.919014  0.092391  1
  Sb  Sb7  1  0.749720  0.749645  0.257175  1
  Sb  Sb8  1  0.252639  0.577424  0.408238  1
  Sb  Sb9  1  0.754199  0.408512  0.576573  1
  Sb  Sb10  1  0.248023  0.254374  0.749306  1
  Sb  Sb11  1  0.748468  0.093017  0.918401  1
  Pt  Pt12  1  0.120573  0.194855  0.026825  1
  Pt  Pt13  1  0.621354  0.029263  0.197276  1
  Pt  Pt14  1  0.121391  0.872867  0.387118  1
  Pt  Pt15  1  0.634045  0.710008  0.555944  1
  Pt  Pt16  1  0.131458  0.556985  0.709115  1
  Pt  Pt17  1  0.621976  0.385348  0.873189  1
