# generated using pymatgen
data_Zr4V(PO4)6
_symmetry_space_group_name_H-M   'P 1'
_cell_length_a   8.98597665
_cell_length_b   8.98597615
_cell_length_c   8.97920464
_cell_angle_alpha   90.00000511
_cell_angle_beta   120.02494703
_cell_angle_gamma   119.99999302
_symmetry_Int_Tables_number   1
_chemical_formula_structural   Zr4V(PO4)6
_chemical_formula_sum   'Zr4 V1 P6 O24'
_cell_volume   512.49493904
_cell_formula_units_Z   1
loop_
 _symmetry_equiv_pos_site_id
 _symmetry_equiv_pos_as_xyz
  1  'x, y, z'
loop_
 _atom_site_type_symbol
 _atom_site_label
 _atom_site_symmetry_multiplicity
 _atom_site_fract_x
 _atom_site_fract_y
 _atom_site_fract_z
 _atom_site_occupancy
  Zr  Zr0  1  0.733611  0.366806  0.100417  1
  Zr  Zr1  1  0.294253  0.147127  0.441380  1
  Zr  Zr2  1  0.705746  0.852873  0.558620  1
  Zr  Zr3  1  0.266389  0.633193  0.899582  1
  V  V4  1  0.000000  0.000000  0.000000  1
  P  P5  1  0.476827  0.027352  0.236072  1
  P  P6  1  0.208721  0.449475  0.236072  1
  P  P7  1  0.786596  0.759245  0.236072  1
  P  P8  1  0.213403  0.240755  0.763927  1
  P  P9  1  0.791280  0.550526  0.763927  1
  P  P10  1  0.523174  0.972648  0.763927  1
  O  O11  1  0.196283  0.490649  0.067104  1
  O  O12  1  0.576456  0.705635  0.067104  1
  O  O13  1  0.361471  0.870822  0.067104  1
  O  O14  1  0.308728  0.046079  0.228799  1
  O  O15  1  0.182721  0.262651  0.228799  1
  O  O16  1  0.966149  0.920072  0.228799  1
  O  O17  1  0.645713  0.209802  0.248174  1
  O  O18  1  0.038372  0.435909  0.248174  1
  O  O19  1  0.812265  0.602461  0.248174  1
  O  O20  1  0.425206  0.602945  0.410978  1
  O  O21  1  0.808031  0.822260  0.410978  1
  O  O22  1  0.588717  0.985772  0.410978  1
  O  O23  1  0.411283  0.014228  0.589023  1
  O  O24  1  0.191969  0.177741  0.589023  1
  O  O25  1  0.574794  0.397055  0.589023  1
  O  O26  1  0.187735  0.397538  0.751825  1
  O  O27  1  0.961628  0.564090  0.751825  1
  O  O28  1  0.354287  0.790197  0.751825  1
  O  O29  1  0.033850  0.079928  0.771200  1
  O  O30  1  0.817278  0.737349  0.771200  1
  O  O31  1  0.691271  0.953921  0.771200  1
  O  O32  1  0.638529  0.129178  0.932896  1
  O  O33  1  0.423543  0.294365  0.932896  1
  O  O34  1  0.803716  0.509351  0.932896  1
