# generated using pymatgen
data_Y12Ho8Si15Au
_symmetry_space_group_name_H-M   'P 1'
_cell_length_a   7.44500151
_cell_length_b   7.66904634
_cell_length_c   14.58104700
_cell_angle_alpha   89.66475742
_cell_angle_beta   89.59991144
_cell_angle_gamma   90.03969762
_symmetry_Int_Tables_number   1
_chemical_formula_structural   Y12Ho8Si15Au
_chemical_formula_sum   'Y12 Ho8 Si15 Au1'
_cell_volume   832.48558600
_cell_formula_units_Z   1
loop_
 _symmetry_equiv_pos_site_id
 _symmetry_equiv_pos_as_xyz
  1  'x, y, z'
loop_
 _atom_site_type_symbol
 _atom_site_label
 _atom_site_symmetry_multiplicity
 _atom_site_fract_x
 _atom_site_fract_y
 _atom_site_fract_z
 _atom_site_occupancy
  Y  Y0  1  0.648809  0.993113  0.249866  1
  Y  Y1  1  0.149914  0.510363  0.248326  1
  Y  Y2  1  0.847710  0.488363  0.751010  1
  Y  Y3  1  0.350416  0.010244  0.750597  1
  Y  Y4  1  0.975549  0.821854  0.099778  1
  Y  Y5  1  0.472024  0.682538  0.401509  1
  Y  Y6  1  0.522375  0.318819  0.900711  1
  Y  Y7  1  0.029159  0.181872  0.598706  1
  Y  Y8  1  0.029278  0.176614  0.900663  1
  Y  Y9  1  0.528215  0.317971  0.597915  1
  Y  Y10  1  0.474705  0.681843  0.100909  1
  Y  Y11  1  0.970317  0.818477  0.400690  1
  Ho  Ho12  1  0.676815  0.821126  0.878010  1
  Ho  Ho13  1  0.179951  0.680905  0.621586  1
  Ho  Ho14  1  0.818822  0.327442  0.122851  1
  Ho  Ho15  1  0.316937  0.177511  0.376726  1
  Ho  Ho16  1  0.322815  0.178210  0.123798  1
  Ho  Ho17  1  0.820167  0.320621  0.377394  1
  Ho  Ho18  1  0.180569  0.675111  0.877270  1
  Ho  Ho19  1  0.681733  0.821495  0.622216  1
  Si  Si20  1  0.766587  0.628995  0.252254  1
  Si  Si21  1  0.266736  0.873658  0.251084  1
  Si  Si22  1  0.733326  0.123342  0.748992  1
  Si  Si23  1  0.231717  0.374337  0.747009  1
  Si  Si24  1  0.021654  0.106863  0.249646  1
  Si  Si25  1  0.523558  0.394477  0.252263  1
  Si  Si26  1  0.473971  0.607030  0.747459  1
  Si  Si27  1  0.976107  0.892064  0.748340  1
  Si  Si28  1  0.354092  0.971144  0.540086  1
  Si  Si29  1  0.649699  0.029762  0.041466  1
  Si  Si30  1  0.147478  0.469017  0.460540  1
  Si  Si31  1  0.160160  0.470272  0.041970  1
  Si  Si32  1  0.644823  0.030009  0.459277  1
  Si  Si33  1  0.351410  0.967207  0.961747  1
  Si  Si34  1  0.854232  0.530493  0.539005  1
  Au  Au35  1  0.848166  0.526838  0.958336  1
