# generated using pymatgen
data_Dy3YAl17GeIr6
_symmetry_space_group_name_H-M   'P 1'
_cell_length_a   7.56063138
_cell_length_b   7.56066733
_cell_length_c   9.47526200
_cell_angle_alpha   90.00000000
_cell_angle_beta   90.00000000
_cell_angle_gamma   119.60985510
_symmetry_Int_Tables_number   1
_chemical_formula_structural   Dy3YAl17GeIr6
_chemical_formula_sum   'Dy3 Y1 Al17 Ge1 Ir6'
_cell_volume   470.90579063
_cell_formula_units_Z   1
loop_
 _symmetry_equiv_pos_site_id
 _symmetry_equiv_pos_as_xyz
  1  'x, y, z'
loop_
 _atom_site_type_symbol
 _atom_site_label
 _atom_site_symmetry_multiplicity
 _atom_site_fract_x
 _atom_site_fract_y
 _atom_site_fract_z
 _atom_site_occupancy
  Dy  Dy0  1  0.994899  0.675023  0.750000  1
  Dy  Dy1  1  0.675060  0.994903  0.750000  1
  Dy  Dy2  1  0.329024  0.003886  0.250000  1
  Y  Y3  1  0.003933  0.329038  0.250000  1
  Al  Al4  1  0.871870  0.871782  0.250000  1
  Al  Al5  1  0.000264  0.337396  0.573473  1
  Al  Al6  1  0.998290  0.664867  0.425121  1
  Al  Al7  1  0.998290  0.664867  0.074879  1
  Al  Al8  1  0.337379  0.000261  0.926587  1
  Al  Al9  1  0.000264  0.337396  0.926527  1
  Al  Al10  1  0.664752  0.998230  0.074892  1
  Al  Al11  1  0.664752  0.998230  0.425108  1
  Al  Al12  1  0.337379  0.000261  0.573413  1
  Al  Al13  1  0.333267  0.333217  0.058130  1
  Al  Al14  1  0.664326  0.664327  0.948133  1
  Al  Al15  1  0.664326  0.664327  0.551867  1
  Al  Al16  1  0.333267  0.333217  0.441870  1
  Al  Al17  1  0.336984  0.552398  0.750000  1
  Al  Al18  1  0.661076  0.451512  0.250000  1
  Al  Al19  1  0.552413  0.336999  0.750000  1
  Al  Al20  1  0.451595  0.661259  0.250000  1
  Ge  Ge21  1  0.134435  0.134423  0.750000  1
  Ir  Ir22  1  0.669721  0.326825  0.500458  1
  Ir  Ir23  1  0.326863  0.669796  0.500450  1
  Ir  Ir24  1  0.326863  0.669796  0.999550  1
  Ir  Ir25  1  0.669721  0.326825  0.999542  1
  Ir  Ir26  1  0.999495  0.999470  0.500918  1
  Ir  Ir27  1  0.999495  0.999470  0.999082  1
