# generated using pymatgen
data_Pr6Er(TmSn2)3
_symmetry_space_group_name_H-M   'P 1'
_cell_length_a   6.68140700
_cell_length_b   9.18581160
_cell_length_c   9.18617700
_cell_angle_alpha   119.99923531
_cell_angle_beta   90.00015202
_cell_angle_gamma   90.00005320
_symmetry_Int_Tables_number   1
_chemical_formula_structural   Pr6Er(TmSn2)3
_chemical_formula_sum   'Pr6 Er1 Tm3 Sn6'
_cell_volume   488.26348782
_cell_formula_units_Z   1
loop_
 _symmetry_equiv_pos_site_id
 _symmetry_equiv_pos_as_xyz
  1  'x, y, z'
loop_
 _atom_site_type_symbol
 _atom_site_label
 _atom_site_symmetry_multiplicity
 _atom_site_fract_x
 _atom_site_fract_y
 _atom_site_fract_z
 _atom_site_occupancy
  Pr  Pr0  1  0.750021  0.241858  0.000018  1
  Pr  Pr1  1  0.750017  0.758098  0.758106  1
  Pr  Pr2  1  0.750019  0.999944  0.241870  1
  Pr  Pr3  1  0.249979  0.758165  0.000024  1
  Pr  Pr4  1  0.249976  0.241927  0.241874  1
  Pr  Pr5  1  0.249975  0.000011  0.758105  1
  Er  Er6  1  0.500017  0.333339  0.666702  1
  Tm  Tm7  1  0.499996  0.666642  0.333304  1
  Tm  Tm8  1  0.000001  0.666659  0.333302  1
  Tm  Tm9  1  0.999999  0.333354  0.666693  1
  Sn  Sn10  1  0.750056  0.600440  0.000086  1
  Sn  Sn11  1  0.750056  0.399596  0.399507  1
  Sn  Sn12  1  0.750057  0.999921  0.600408  1
  Sn  Sn13  1  0.249942  0.399647  0.000086  1
  Sn  Sn14  1  0.249944  0.600489  0.600409  1
  Sn  Sn15  1  0.249943  0.999910  0.399507  1
