# generated using pymatgen
data_Dy3Er2(In2Ir)2
_symmetry_space_group_name_H-M   'P 1'
_cell_length_a   3.65309900
_cell_length_b   8.00688500
_cell_length_c   18.26443200
_cell_angle_alpha   90.00000000
_cell_angle_beta   90.00000000
_cell_angle_gamma   90.00000000
_symmetry_Int_Tables_number   1
_chemical_formula_structural   Dy3Er2(In2Ir)2
_chemical_formula_sum   'Dy6 Er4 In8 Ir4'
_cell_volume   534.23360564
_cell_formula_units_Z   2
loop_
 _symmetry_equiv_pos_site_id
 _symmetry_equiv_pos_as_xyz
  1  'x, y, z'
loop_
 _atom_site_type_symbol
 _atom_site_label
 _atom_site_symmetry_multiplicity
 _atom_site_fract_x
 _atom_site_fract_y
 _atom_site_fract_z
 _atom_site_occupancy
  Dy  Dy0  1  0.000000  0.500000  0.500000  1
  Dy  Dy1  1  0.000000  0.000000  0.000000  1
  Dy  Dy2  1  0.000000  0.753388  0.278638  1
  Dy  Dy3  1  0.000000  0.246612  0.721362  1
  Dy  Dy4  1  0.000000  0.746612  0.778638  1
  Dy  Dy5  1  0.000000  0.253388  0.221362  1
  Er  Er6  1  0.000000  0.620632  0.089818  1
  Er  Er7  1  0.000000  0.379368  0.910182  1
  Er  Er8  1  0.000000  0.879368  0.589818  1
  Er  Er9  1  0.000000  0.120632  0.410182  1
  In  In10  1  0.500000  0.701608  0.933796  1
  In  In11  1  0.500000  0.298392  0.066204  1
  In  In12  1  0.500000  0.798392  0.433796  1
  In  In13  1  0.500000  0.201608  0.566204  1
  In  In14  1  0.500000  0.565629  0.649342  1
  In  In15  1  0.500000  0.434371  0.350658  1
  In  In16  1  0.500000  0.934371  0.149342  1
  In  In17  1  0.500000  0.065629  0.850658  1
  Ir  Ir18  1  0.500000  0.530486  0.195800  1
  Ir  Ir19  1  0.500000  0.469514  0.804200  1
  Ir  Ir20  1  0.500000  0.969514  0.695800  1
  Ir  Ir21  1  0.500000  0.030486  0.304200  1
