# generated using pymatgen
data_AcPr7(TcO5)4
_symmetry_space_group_name_H-M   'P 1'
_cell_length_a   8.81276910
_cell_length_b   8.80433474
_cell_length_c   5.89617200
_cell_angle_alpha   90.00607166
_cell_angle_beta   90.00878346
_cell_angle_gamma   90.07574847
_symmetry_Int_Tables_number   1
_chemical_formula_structural   AcPr7(TcO5)4
_chemical_formula_sum   'Ac1 Pr7 Tc4 O20'
_cell_volume   457.48693387
_cell_formula_units_Z   1
loop_
 _symmetry_equiv_pos_site_id
 _symmetry_equiv_pos_as_xyz
  1  'x, y, z'
loop_
 _atom_site_type_symbol
 _atom_site_label
 _atom_site_symmetry_multiplicity
 _atom_site_fract_x
 _atom_site_fract_y
 _atom_site_fract_z
 _atom_site_occupancy
  Ac  Ac0  1  0.144048  0.845706  0.750532  1
  Pr  Pr1  1  0.359919  0.651324  0.249867  1
  Pr  Pr2  1  0.151736  0.144563  0.250053  1
  Pr  Pr3  1  0.845329  0.859034  0.249544  1
  Pr  Pr4  1  0.641704  0.347228  0.250091  1
  Pr  Pr5  1  0.855505  0.153680  0.750788  1
  Pr  Pr6  1  0.653395  0.642118  0.750986  1
  Pr  Pr7  1  0.347087  0.357018  0.749021  1
  Tc  Tc8  1  0.999070  0.499161  0.161663  1
  Tc  Tc9  1  0.502607  0.000768  0.839767  1
  Tc  Tc10  1  0.998431  0.496134  0.538780  1
  Tc  Tc11  1  0.500176  0.000665  0.460273  1
  O  O12  1  0.696220  0.087840  0.399029  1
  O  O13  1  0.586818  0.802000  0.403950  1
  O  O14  1  0.412633  0.199547  0.404272  1
  O  O15  1  0.303753  0.915565  0.388185  1
  O  O16  1  0.800202  0.410300  0.598255  1
  O  O17  1  0.911372  0.693989  0.594075  1
  O  O18  1  0.085827  0.298910  0.601826  1
  O  O19  1  0.198305  0.580371  0.593952  1
  O  O20  1  0.702363  0.913518  0.887082  1
  O  O21  1  0.420412  0.800173  0.896251  1
  O  O22  1  0.589686  0.199469  0.891221  1
  O  O23  1  0.305009  0.088944  0.896307  1
  O  O24  1  0.499484  0.498622  0.999799  1
  O  O25  1  0.997158  0.005200  0.003988  1
  O  O26  1  0.500717  0.500720  0.500507  1
  O  O27  1  0.995488  0.003352  0.495779  1
  O  O28  1  0.197806  0.413030  0.107118  1
  O  O29  1  0.909421  0.302418  0.106638  1
  O  O30  1  0.086986  0.699465  0.122351  1
  O  O31  1  0.801332  0.589166  0.108052  1
