# generated using pymatgen
data_La6NiIr15Rh2
_symmetry_space_group_name_H-M   'P 1'
_cell_length_a   5.39883600
_cell_length_b   5.39883452
_cell_length_c   17.64879900
_cell_angle_alpha   90.00000000
_cell_angle_beta   90.00000000
_cell_angle_gamma   119.99999679
_symmetry_Int_Tables_number   1
_chemical_formula_structural   La6NiIr15Rh2
_chemical_formula_sum   'La6 Ni1 Ir15 Rh2'
_cell_volume   445.49820069
_cell_formula_units_Z   1
loop_
 _symmetry_equiv_pos_site_id
 _symmetry_equiv_pos_as_xyz
  1  'x, y, z'
loop_
 _atom_site_type_symbol
 _atom_site_label
 _atom_site_symmetry_multiplicity
 _atom_site_fract_x
 _atom_site_fract_y
 _atom_site_fract_z
 _atom_site_occupancy
  La  La0  1  0.333333  0.666667  0.541233  1
  La  La1  1  0.666667  0.333333  0.041340  1
  La  La2  1  0.666667  0.333333  0.458660  1
  La  La3  1  0.333333  0.666667  0.958767  1
  La  La4  1  0.333333  0.666667  0.750000  1
  La  La5  1  0.666667  0.333333  0.250000  1
  Ni  Ni6  1  0.333333  0.666667  0.250000  1
  Ir  Ir7  1  0.168361  0.336723  0.130393  1
  Ir  Ir8  1  0.833405  0.666811  0.627364  1
  Ir  Ir9  1  0.663277  0.831639  0.130393  1
  Ir  Ir10  1  0.168361  0.831639  0.130393  1
  Ir  Ir11  1  0.833405  0.166595  0.627364  1
  Ir  Ir12  1  0.333189  0.166595  0.627364  1
  Ir  Ir13  1  0.833405  0.666811  0.872636  1
  Ir  Ir14  1  0.833405  0.166595  0.872636  1
  Ir  Ir15  1  0.333189  0.166595  0.872636  1
  Ir  Ir16  1  0.663277  0.831639  0.369607  1
  Ir  Ir17  1  0.168361  0.831639  0.369607  1
  Ir  Ir18  1  0.168361  0.336723  0.369607  1
  Ir  Ir19  1  0.000000  0.000000  0.250000  1
  Ir  Ir20  1  0.000000  0.000000  0.001706  1
  Ir  Ir21  1  0.000000  0.000000  0.498294  1
  Rh  Rh22  1  0.000000  0.000000  0.750000  1
  Rh  Rh23  1  0.666667  0.333333  0.750000  1
