# generated using pymatgen
data_BiTe19
_symmetry_space_group_name_H-M   'P 1'
_cell_length_a   8.01800484
_cell_length_b   9.02478963
_cell_length_c   10.16484400
_cell_angle_alpha   104.08862850
_cell_angle_beta   97.23290686
_cell_angle_gamma   106.97193268
_symmetry_Int_Tables_number   1
_chemical_formula_structural   BiTe19
_chemical_formula_sum   'Bi1 Te19'
_cell_volume   666.78472118
_cell_formula_units_Z   1
loop_
 _symmetry_equiv_pos_site_id
 _symmetry_equiv_pos_as_xyz
  1  'x, y, z'
loop_
 _atom_site_type_symbol
 _atom_site_label
 _atom_site_symmetry_multiplicity
 _atom_site_fract_x
 _atom_site_fract_y
 _atom_site_fract_z
 _atom_site_occupancy
  Bi  Bi0  1  0.000000  0.500000  0.000000  1
  Te  Te1  1  0.790134  0.589048  0.609750  1
  Te  Te2  1  0.629928  0.199458  0.209225  1
  Te  Te3  1  0.370072  0.800542  0.790775  1
  Te  Te4  1  0.599318  0.692730  0.201711  1
  Te  Te5  1  0.209866  0.410952  0.390250  1
  Te  Te6  1  0.400682  0.307270  0.798289  1
  Te  Te7  1  0.000000  0.000000  0.000000  1
  Te  Te8  1  0.194266  0.905162  0.393039  1
  Te  Te9  1  0.805734  0.094838  0.606961  1
  Te  Te10  1  0.694522  0.639526  0.906621  1
  Te  Te11  1  0.502625  0.254378  0.501186  1
  Te  Te12  1  0.714574  0.143355  0.904481  1
  Te  Te13  1  0.285426  0.856645  0.095519  1
  Te  Te14  1  0.497375  0.745622  0.498814  1
  Te  Te15  1  0.090482  0.461846  0.699795  1
  Te  Te16  1  0.305478  0.360474  0.093379  1
  Te  Te17  1  0.903506  0.046021  0.304247  1
  Te  Te18  1  0.096494  0.953979  0.695753  1
  Te  Te19  1  0.909518  0.538154  0.300205  1
