# generated using pymatgen
data_Pr3(NdC2)5
_symmetry_space_group_name_H-M   'P 1'
_cell_length_a   3.87012900
_cell_length_b   6.92195803
_cell_length_c   12.53972104
_cell_angle_alpha   90.00970610
_cell_angle_beta   90.00000000
_cell_angle_gamma   90.00000000
_symmetry_Int_Tables_number   1
_chemical_formula_structural   Pr3(NdC2)5
_chemical_formula_sum   'Pr3 Nd5 C10'
_cell_volume   335.92495822
_cell_formula_units_Z   1
loop_
 _symmetry_equiv_pos_site_id
 _symmetry_equiv_pos_as_xyz
  1  'x, y, z'
loop_
 _atom_site_type_symbol
 _atom_site_label
 _atom_site_symmetry_multiplicity
 _atom_site_fract_x
 _atom_site_fract_y
 _atom_site_fract_z
 _atom_site_occupancy
  Pr  Pr0  1  0.000000  0.747385  0.458349  1
  Pr  Pr1  1  0.000000  0.752515  0.957897  1
  Pr  Pr2  1  0.000000  0.247622  0.041793  1
  Nd  Nd3  1  0.000000  0.254193  0.542200  1
  Nd  Nd4  1  0.500000  0.106957  0.803050  1
  Nd  Nd5  1  0.500000  0.893247  0.196528  1
  Nd  Nd6  1  0.500000  0.606278  0.696699  1
  Nd  Nd7  1  0.500000  0.392796  0.303821  1
  C  C8  1  0.500000  0.498329  0.500231  1
  C  C9  1  0.500000  0.999882  0.000141  1
  C  C10  1  0.000000  0.360846  0.736566  1
  C  C11  1  0.000000  0.638605  0.262624  1
  C  C12  1  0.000000  0.861390  0.762364  1
  C  C13  1  0.000000  0.138307  0.237843  1
  C  C14  1  0.000000  0.400958  0.839268  1
  C  C15  1  0.000000  0.598208  0.160128  1
  C  C16  1  0.000000  0.099539  0.340589  1
  C  C17  1  0.000000  0.902943  0.659909  1
