# generated using pymatgen
data_Ho4Ga18IrPd2Ru3
_symmetry_space_group_name_H-M   'P 1'
_cell_length_a   7.57656908
_cell_length_b   7.57656953
_cell_length_c   9.59411117
_cell_angle_alpha   90.04712682
_cell_angle_beta   90.04712611
_cell_angle_gamma   119.79444045
_symmetry_Int_Tables_number   1
_chemical_formula_structural   Ho4Ga18IrPd2Ru3
_chemical_formula_sum   'Ho4 Ga18 Ir1 Pd2 Ru3'
_cell_volume   477.94271986
_cell_formula_units_Z   1
loop_
 _symmetry_equiv_pos_site_id
 _symmetry_equiv_pos_as_xyz
  1  'x, y, z'
loop_
 _atom_site_type_symbol
 _atom_site_label
 _atom_site_symmetry_multiplicity
 _atom_site_fract_x
 _atom_site_fract_y
 _atom_site_fract_z
 _atom_site_occupancy
  Ho  Ho0  1  0.996704  0.669704  0.250465  1
  Ho  Ho1  1  0.002345  0.329180  0.749558  1
  Ho  Ho2  1  0.670820  0.997655  0.250442  1
  Ho  Ho3  1  0.330296  0.003296  0.749535  1
  Ga  Ga4  1  0.132388  0.131619  0.250688  1
  Ga  Ga5  1  0.868381  0.867612  0.749312  1
  Ga  Ga6  1  0.001515  0.338647  0.079233  1
  Ga  Ga7  1  0.999414  0.660716  0.921299  1
  Ga  Ga8  1  0.001375  0.663473  0.579017  1
  Ga  Ga9  1  0.336527  0.998625  0.420983  1
  Ga  Ga10  1  0.003036  0.338741  0.421239  1
  Ga  Ga11  1  0.661259  0.996964  0.578761  1
  Ga  Ga12  1  0.661353  0.998485  0.920767  1
  Ga  Ga13  1  0.339284  0.000586  0.078701  1
  Ga  Ga14  1  0.338094  0.340733  0.566498  1
  Ga  Ga15  1  0.659267  0.661906  0.433502  1
  Ga  Ga16  1  0.658738  0.658490  0.066460  1
  Ga  Ga17  1  0.341510  0.341262  0.933540  1
  Ga  Ga18  1  0.335081  0.550539  0.250295  1
  Ga  Ga19  1  0.665262  0.453351  0.751197  1
  Ga  Ga20  1  0.546649  0.334738  0.248803  1
  Ga  Ga21  1  0.449461  0.664919  0.749705  1
  Ir  Ir22  1  0.672795  0.327205  0.500000  1
  Pd  Pd23  1  0.000443  0.999557  0.000000  1
  Pd  Pd24  1  0.000255  0.999745  0.500000  1
  Ru  Ru25  1  0.673298  0.326702  0.000000  1
  Ru  Ru26  1  0.327317  0.672683  0.000000  1
  Ru  Ru27  1  0.327132  0.672868  0.500000  1
