# generated using pymatgen
data_Yb6Pr5In9Pd4
_symmetry_space_group_name_H-M   'P 1'
_cell_length_a   13.49394004
_cell_length_b   13.49403413
_cell_length_c   3.81471000
_cell_angle_alpha   90.00000000
_cell_angle_beta   90.00000000
_cell_angle_gamma   112.04872259
_symmetry_Int_Tables_number   1
_chemical_formula_structural   Yb6Pr5In9Pd4
_chemical_formula_sum   'Yb6 Pr5 In9 Pd4'
_cell_volume   643.81127001
_cell_formula_units_Z   1
loop_
 _symmetry_equiv_pos_site_id
 _symmetry_equiv_pos_as_xyz
  1  'x, y, z'
loop_
 _atom_site_type_symbol
 _atom_site_label
 _atom_site_symmetry_multiplicity
 _atom_site_fract_x
 _atom_site_fract_y
 _atom_site_fract_z
 _atom_site_occupancy
  Yb  Yb0  1  0.414503  0.069179  0.000000  1
  Yb  Yb1  1  0.585497  0.930821  0.000000  1
  Yb  Yb2  1  0.069179  0.414503  0.000000  1
  Yb  Yb3  1  0.930821  0.585497  0.000000  1
  Yb  Yb4  1  0.161778  0.838222  0.000000  1
  Yb  Yb5  1  0.838222  0.161778  0.000000  1
  Pr  Pr6  1  0.374617  0.625383  0.000000  1
  Pr  Pr7  1  0.625383  0.374617  0.000000  1
  Pr  Pr8  1  0.307313  0.307315  0.000000  1
  Pr  Pr9  1  0.692687  0.692685  0.000000  1
  Pr  Pr10  1  0.000000  0.000000  0.000000  1
  In  In11  1  0.369417  0.838017  0.500000  1
  In  In12  1  0.630583  0.161983  0.500000  1
  In  In13  1  0.838016  0.369416  0.500000  1
  In  In14  1  0.161984  0.630584  0.500000  1
  In  In15  1  0.219337  0.075896  0.500000  1
  In  In16  1  0.780663  0.924104  0.500000  1
  In  In17  1  0.075896  0.219338  0.500000  1
  In  In18  1  0.924104  0.780662  0.500000  1
  In  In19  1  0.500000  0.500000  0.500000  1
  Pd  Pd20  1  0.446763  0.238392  0.500000  1
  Pd  Pd21  1  0.553237  0.761608  0.500000  1
  Pd  Pd22  1  0.238394  0.446765  0.500000  1
  Pd  Pd23  1  0.761606  0.553235  0.500000  1
