# generated using pymatgen
data_Ho7Er3(Co2Rh)2
_symmetry_space_group_name_H-M   'P 1'
_cell_length_a   7.05422705
_cell_length_b   7.05421720
_cell_length_c   8.68027903
_cell_angle_alpha   113.97863872
_cell_angle_beta   113.97424496
_cell_angle_gamma   89.99631262
_symmetry_Int_Tables_number   1
_chemical_formula_structural   Ho7Er3(Co2Rh)2
_chemical_formula_sum   'Ho7 Er3 Co4 Rh2'
_cell_volume   353.50245941
_cell_formula_units_Z   1
loop_
 _symmetry_equiv_pos_site_id
 _symmetry_equiv_pos_as_xyz
  1  'x, y, z'
loop_
 _atom_site_type_symbol
 _atom_site_label
 _atom_site_symmetry_multiplicity
 _atom_site_fract_x
 _atom_site_fract_y
 _atom_site_fract_z
 _atom_site_occupancy
  Ho  Ho0  1  0.963856  0.463795  0.282530  1
  Ho  Ho1  1  0.318737  0.818690  0.282513  1
  Ho  Ho2  1  0.818582  0.963946  0.282536  1
  Ho  Ho3  1  0.181343  0.036168  0.717510  1
  Ho  Ho4  1  0.681305  0.181356  0.717422  1
  Ho  Ho5  1  0.036092  0.536122  0.717418  1
  Ho  Ho6  1  0.536146  0.681218  0.717367  1
  Er  Er7  1  0.000078  0.000118  0.000076  1
  Er  Er8  1  0.500027  0.499869  0.000076  1
  Er  Er9  1  0.463799  0.318671  0.282468  1
  Co  Co10  1  0.612598  0.112737  0.000121  1
  Co  Co11  1  0.112747  0.387274  0.000021  1
  Co  Co12  1  0.887349  0.612677  0.000025  1
  Co  Co13  1  0.387377  0.887530  0.000096  1
  Rh  Rh14  1  0.250099  0.250037  0.499920  1
  Rh  Rh15  1  0.749863  0.749791  0.499897  1
