# generated using pymatgen
data_SmDy2Th3Si4
_symmetry_space_group_name_H-M   'P 1'
_cell_length_a   7.65150386
_cell_length_b   7.65150427
_cell_length_c   4.26077800
_cell_angle_alpha   90.00000000
_cell_angle_beta   90.00000000
_cell_angle_gamma   90.09783451
_symmetry_Int_Tables_number   1
_chemical_formula_structural   SmDy2Th3Si4
_chemical_formula_sum   'Sm1 Dy2 Th3 Si4'
_cell_volume   249.44907616
_cell_formula_units_Z   1
loop_
 _symmetry_equiv_pos_site_id
 _symmetry_equiv_pos_as_xyz
  1  'x, y, z'
loop_
 _atom_site_type_symbol
 _atom_site_label
 _atom_site_symmetry_multiplicity
 _atom_site_fract_x
 _atom_site_fract_y
 _atom_site_fract_z
 _atom_site_occupancy
  Sm  Sm0  1  0.676461  0.176461  0.500000  1
  Dy  Dy1  1  0.500162  0.501777  0.000000  1
  Dy  Dy2  1  0.001777  0.000162  0.000000  1
  Th  Th3  1  0.322471  0.822471  0.500000  1
  Th  Th4  1  0.177855  0.321203  0.500000  1
  Th  Th5  1  0.821203  0.677855  0.500000  1
  Si  Si6  1  0.115861  0.615861  0.000000  1
  Si  Si7  1  0.882588  0.382588  0.000000  1
  Si  Si8  1  0.617161  0.884461  0.000000  1
  Si  Si9  1  0.384461  0.117161  0.000000  1
