# generated using pymatgen
data_CeHf2Co9
_symmetry_space_group_name_H-M   'P 1'
_cell_length_a   8.44963053
_cell_length_b   8.44963025
_cell_length_c   8.44962997
_cell_angle_alpha   33.49779097
_cell_angle_beta   33.49779570
_cell_angle_gamma   33.49778916
_symmetry_Int_Tables_number   1
_chemical_formula_structural   CeHf2Co9
_chemical_formula_sum   'Ce1 Hf2 Co9'
_cell_volume   163.65979112
_cell_formula_units_Z   1
loop_
 _symmetry_equiv_pos_site_id
 _symmetry_equiv_pos_as_xyz
  1  'x, y, z'
loop_
 _atom_site_type_symbol
 _atom_site_label
 _atom_site_symmetry_multiplicity
 _atom_site_fract_x
 _atom_site_fract_y
 _atom_site_fract_z
 _atom_site_occupancy
  Ce  Ce0  1  0.000000  0.000000  0.000000  1
  Hf  Hf1  1  0.859471  0.859471  0.859471  1
  Hf  Hf2  1  0.140529  0.140529  0.140529  1
  Co  Co3  1  0.335170  0.335170  0.335170  1
  Co  Co4  1  0.411416  0.411416  0.920411  1
  Co  Co5  1  0.588584  0.588584  0.079589  1
  Co  Co6  1  0.664830  0.664830  0.664830  1
  Co  Co7  1  0.079589  0.588584  0.588584  1
  Co  Co8  1  0.411416  0.920411  0.411416  1
  Co  Co9  1  0.920411  0.411416  0.411416  1
  Co  Co10  1  0.500000  0.500000  0.500000  1
  Co  Co11  1  0.588584  0.079589  0.588584  1
