# generated using pymatgen
data_ZrPaInRh5
_symmetry_space_group_name_H-M   'P 1'
_cell_length_a   5.73538752
_cell_length_b   5.73538731
_cell_length_c   8.35762900
_cell_angle_alpha   90.00000000
_cell_angle_beta   90.00000000
_cell_angle_gamma   96.37154017
_symmetry_Int_Tables_number   1
_chemical_formula_structural   ZrPaInRh5
_chemical_formula_sum   'Zr2 Pa2 In2 Rh10'
_cell_volume   273.22329337
_cell_formula_units_Z   2
loop_
 _symmetry_equiv_pos_site_id
 _symmetry_equiv_pos_as_xyz
  1  'x, y, z'
loop_
 _atom_site_type_symbol
 _atom_site_label
 _atom_site_symmetry_multiplicity
 _atom_site_fract_x
 _atom_site_fract_y
 _atom_site_fract_z
 _atom_site_occupancy
  Zr  Zr0  1  0.221632  0.778368  0.500000  1
  Zr  Zr1  1  0.778368  0.221632  0.000000  1
  Pa  Pa2  1  0.786558  0.213442  0.500000  1
  Pa  Pa3  1  0.213442  0.786558  0.000000  1
  In  In4  1  0.500202  0.500202  0.750000  1
  In  In5  1  0.499798  0.499798  0.250000  1
  Rh  Rh6  1  0.732434  0.733309  0.000162  1
  Rh  Rh7  1  0.733309  0.732434  0.499838  1
  Rh  Rh8  1  0.266691  0.267566  0.999838  1
  Rh  Rh9  1  0.267566  0.266691  0.500162  1
  Rh  Rh10  1  0.500077  0.000077  0.749909  1
  Rh  Rh11  1  0.499923  0.999923  0.249909  1
  Rh  Rh12  1  0.000059  0.000059  0.250000  1
  Rh  Rh13  1  0.999941  0.999941  0.750000  1
  Rh  Rh14  1  0.000077  0.500077  0.750091  1
  Rh  Rh15  1  0.999923  0.499923  0.250091  1
