# generated using pymatgen
data_CsRb2NaSn4
_symmetry_space_group_name_H-M   'P 1'
_cell_length_a   9.28287921
_cell_length_b   9.28287851
_cell_length_c   11.05347037
_cell_angle_alpha   89.87953483
_cell_angle_beta   90.12045827
_cell_angle_gamma   135.68065130
_symmetry_Int_Tables_number   1
_chemical_formula_structural   CsRb2NaSn4
_chemical_formula_sum   'Cs2 Rb4 Na2 Sn8'
_cell_volume   665.46753305
_cell_formula_units_Z   2
loop_
 _symmetry_equiv_pos_site_id
 _symmetry_equiv_pos_as_xyz
  1  'x, y, z'
loop_
 _atom_site_type_symbol
 _atom_site_label
 _atom_site_symmetry_multiplicity
 _atom_site_fract_x
 _atom_site_fract_y
 _atom_site_fract_z
 _atom_site_occupancy
  Cs  Cs0  1  0.387456  0.612544  0.057711  1
  Cs  Cs1  1  0.230274  0.769726  0.749180  1
  Rb  Rb2  1  0.612843  0.387157  0.551417  1
  Rb  Rb3  1  0.613345  0.386655  0.948182  1
  Rb  Rb4  1  0.387525  0.612475  0.449099  1
  Rb  Rb5  1  0.764287  0.235713  0.251264  1
  Na  Na6  1  0.000320  0.999680  0.499476  1
  Na  Na7  1  0.000186  0.999814  0.998995  1
  Sn  Sn8  1  0.283984  0.181726  0.251788  1
  Sn  Sn9  1  0.830049  0.169951  0.880650  1
  Sn  Sn10  1  0.829725  0.170275  0.614779  1
  Sn  Sn11  1  0.183648  0.283970  0.747983  1
  Sn  Sn12  1  0.716030  0.816352  0.747983  1
  Sn  Sn13  1  0.172408  0.827592  0.382960  1
  Sn  Sn14  1  0.818274  0.716016  0.251788  1
  Sn  Sn15  1  0.169645  0.830355  0.116749  1
