# generated using pymatgen
data_Tb(Zr3Bi2)2
_symmetry_space_group_name_H-M   'P 1'
_cell_length_a   8.92903469
_cell_length_b   8.92903510
_cell_length_c   8.92903567
_cell_angle_alpha   40.64051977
_cell_angle_beta   40.64051608
_cell_angle_gamma   40.64050925
_symmetry_Int_Tables_number   1
_chemical_formula_structural   Tb(Zr3Bi2)2
_chemical_formula_sum   'Tb1 Zr6 Bi4'
_cell_volume   272.43722792
_cell_formula_units_Z   1
loop_
 _symmetry_equiv_pos_site_id
 _symmetry_equiv_pos_as_xyz
  1  'x, y, z'
loop_
 _atom_site_type_symbol
 _atom_site_label
 _atom_site_symmetry_multiplicity
 _atom_site_fract_x
 _atom_site_fract_y
 _atom_site_fract_z
 _atom_site_occupancy
  Tb  Tb0  1  0.000000  0.000000  0.000000  1
  Zr  Zr1  1  0.600716  0.600716  0.112502  1
  Zr  Zr2  1  0.887498  0.399286  0.399284  1
  Zr  Zr3  1  0.399286  0.887498  0.399284  1
  Zr  Zr4  1  0.600715  0.112502  0.600717  1
  Zr  Zr5  1  0.112502  0.600715  0.600717  1
  Zr  Zr6  1  0.399285  0.399285  0.887498  1
  Bi  Bi7  1  0.126835  0.126835  0.126835  1
  Bi  Bi8  1  0.332084  0.332084  0.332084  1
  Bi  Bi9  1  0.667916  0.667916  0.667916  1
  Bi  Bi10  1  0.873165  0.873165  0.873165  1
