# generated using pymatgen
data_Zr10GaSn4GePb2
_symmetry_space_group_name_H-M   'P 1'
_cell_length_a   8.77672602
_cell_length_b   8.77727881
_cell_length_c   5.94038701
_cell_angle_alpha   90.00396638
_cell_angle_beta   89.99206021
_cell_angle_gamma   119.99791666
_symmetry_Int_Tables_number   1
_chemical_formula_structural   Zr10GaSn4GePb2
_chemical_formula_sum   'Zr10 Ga1 Sn4 Ge1 Pb2'
_cell_volume   396.32084929
_cell_formula_units_Z   1
loop_
 _symmetry_equiv_pos_site_id
 _symmetry_equiv_pos_as_xyz
  1  'x, y, z'
loop_
 _atom_site_type_symbol
 _atom_site_label
 _atom_site_symmetry_multiplicity
 _atom_site_fract_x
 _atom_site_fract_y
 _atom_site_fract_z
 _atom_site_occupancy
  Zr  Zr0  1  0.004324  0.267847  0.248445  1
  Zr  Zr1  1  0.739434  0.000000  0.751561  1
  Zr  Zr2  1  0.736477  0.732153  0.248445  1
  Zr  Zr3  1  0.669310  0.338618  0.500000  1
  Zr  Zr4  1  0.995676  0.732153  0.751555  1
  Zr  Zr5  1  0.263523  0.267847  0.751555  1
  Zr  Zr6  1  0.330804  0.661609  0.000000  1
  Zr  Zr7  1  0.669196  0.338391  0.000000  1
  Zr  Zr8  1  0.330690  0.661382  0.500000  1
  Zr  Zr9  1  0.260566  0.000000  0.248439  1
  Ga  Ga10  1  0.000000  0.000000  0.500000  1
  Sn  Sn11  1  0.391440  0.390309  0.251761  1
  Sn  Sn12  1  0.001131  0.609691  0.251761  1
  Sn  Sn13  1  0.998869  0.390309  0.748239  1
  Sn  Sn14  1  0.608560  0.609691  0.748239  1
  Ge  Ge15  1  0.000000  0.000000  0.000000  1
  Pb  Pb16  1  0.611234  0.000000  0.251391  1
  Pb  Pb17  1  0.388766  0.000000  0.748609  1
