# generated using pymatgen
data_Mg2Sn2Ir2Pt
_symmetry_space_group_name_H-M   'P 1'
_cell_length_a   7.69530860
_cell_length_b   7.69530834
_cell_length_c   7.69530711
_cell_angle_alpha   34.05693342
_cell_angle_beta   34.05693283
_cell_angle_gamma   34.05693554
_symmetry_Int_Tables_number   1
_chemical_formula_structural   Mg2Sn2Ir2Pt
_chemical_formula_sum   'Mg2 Sn2 Ir2 Pt1'
_cell_volume   127.40361231
_cell_formula_units_Z   1
loop_
 _symmetry_equiv_pos_site_id
 _symmetry_equiv_pos_as_xyz
  1  'x, y, z'
loop_
 _atom_site_type_symbol
 _atom_site_label
 _atom_site_symmetry_multiplicity
 _atom_site_fract_x
 _atom_site_fract_y
 _atom_site_fract_z
 _atom_site_occupancy
  Mg  Mg0  1  0.245115  0.245115  0.245115  1
  Mg  Mg1  1  0.753593  0.753593  0.753593  1
  Sn  Sn2  1  0.006935  0.006935  0.006935  1
  Sn  Sn3  1  0.495493  0.495493  0.495493  1
  Ir  Ir4  1  0.371041  0.371041  0.371041  1
  Ir  Ir5  1  0.624885  0.624885  0.624885  1
  Pt  Pt6  1  0.877938  0.877938  0.877938  1
