# generated using pymatgen
data_Ho5Er5Tl4(InPd)4
_symmetry_space_group_name_H-M   'P 1'
_cell_length_a   3.61577200
_cell_length_b   8.14133703
_cell_length_c   18.23932307
_cell_angle_alpha   89.98980435
_cell_angle_beta   90.00000000
_cell_angle_gamma   90.00000000
_symmetry_Int_Tables_number   1
_chemical_formula_structural   Ho5Er5Tl4(InPd)4
_chemical_formula_sum   'Ho5 Er5 Tl4 In4 Pd4'
_cell_volume   536.91492977
_cell_formula_units_Z   1
loop_
 _symmetry_equiv_pos_site_id
 _symmetry_equiv_pos_as_xyz
  1  'x, y, z'
loop_
 _atom_site_type_symbol
 _atom_site_label
 _atom_site_symmetry_multiplicity
 _atom_site_fract_x
 _atom_site_fract_y
 _atom_site_fract_z
 _atom_site_occupancy
  Ho  Ho0  1  0.000000  0.499677  0.500166  1
  Ho  Ho1  1  0.000000  0.999949  0.000067  1
  Ho  Ho2  1  0.000000  0.739410  0.280697  1
  Ho  Ho3  1  0.000000  0.261145  0.719147  1
  Ho  Ho4  1  0.000000  0.761389  0.780847  1
  Er  Er5  1  0.000000  0.238717  0.219228  1
  Er  Er6  1  0.000000  0.616480  0.084238  1
  Er  Er7  1  0.000000  0.383284  0.915907  1
  Er  Er8  1  0.000000  0.883052  0.584009  1
  Er  Er9  1  0.000000  0.116869  0.415847  1
  Tl  Tl10  1  0.500000  0.709724  0.933140  1
  Tl  Tl11  1  0.500000  0.290411  0.066874  1
  Tl  Tl12  1  0.500000  0.790067  0.433126  1
  Tl  Tl13  1  0.500000  0.209174  0.566787  1
  In  In14  1  0.500000  0.583565  0.650224  1
  In  In15  1  0.500000  0.417001  0.349845  1
  In  In16  1  0.500000  0.917218  0.149917  1
  In  In17  1  0.500000  0.083041  0.850072  1
  Pd  Pd18  1  0.500000  0.523658  0.196307  1
  Pd  Pd19  1  0.500000  0.474851  0.803826  1
  Pd  Pd20  1  0.500000  0.974866  0.696170  1
  Pd  Pd21  1  0.500000  0.026452  0.303559  1
