# generated using pymatgen
data_Lu3SbAs2Rh3
_symmetry_space_group_name_H-M   'P 1'
_cell_length_a   6.96565800
_cell_length_b   6.96565596
_cell_length_c   4.02015000
_cell_angle_alpha   90.00000000
_cell_angle_beta   90.00000000
_cell_angle_gamma   120.00000021
_symmetry_Int_Tables_number   1
_chemical_formula_structural   Lu3SbAs2Rh3
_chemical_formula_sum   'Lu3 Sb1 As2 Rh3'
_cell_volume   168.92621703
_cell_formula_units_Z   1
loop_
 _symmetry_equiv_pos_site_id
 _symmetry_equiv_pos_as_xyz
  1  'x, y, z'
loop_
 _atom_site_type_symbol
 _atom_site_label
 _atom_site_symmetry_multiplicity
 _atom_site_fract_x
 _atom_site_fract_y
 _atom_site_fract_z
 _atom_site_occupancy
  Lu  Lu0  1  0.430953  0.000000  0.499999  1
  Lu  Lu1  1  0.000000  0.430953  0.499999  1
  Lu  Lu2  1  0.569047  0.569046  0.499999  1
  Sb  Sb3  1  0.000000  0.000000  0.499999  1
  As  As4  1  0.666666  0.333333  0.000000  1
  As  As5  1  0.333334  0.666667  0.000000  1
  Rh  Rh6  1  0.743812  0.000000  0.000000  1
  Rh  Rh7  1  0.256188  0.256188  0.000000  1
  Rh  Rh8  1  0.000000  0.743812  0.000000  1
