# generated using pymatgen
data_Tb9Ho9(ErPb8)2
_symmetry_space_group_name_H-M   'P 1'
_cell_length_a   8.20196318
_cell_length_b   8.28515117
_cell_length_c   15.63701301
_cell_angle_alpha   90.00292985
_cell_angle_beta   90.01338051
_cell_angle_gamma   90.05447829
_symmetry_Int_Tables_number   1
_chemical_formula_structural   Tb9Ho9(ErPb8)2
_chemical_formula_sum   'Tb9 Ho9 Er2 Pb16'
_cell_volume   1062.60496634
_cell_formula_units_Z   1
loop_
 _symmetry_equiv_pos_site_id
 _symmetry_equiv_pos_as_xyz
  1  'x, y, z'
loop_
 _atom_site_type_symbol
 _atom_site_label
 _atom_site_symmetry_multiplicity
 _atom_site_fract_x
 _atom_site_fract_y
 _atom_site_fract_z
 _atom_site_occupancy
  Tb  Tb0  1  0.876692  0.659396  0.879518  1
  Tb  Tb1  1  0.534268  0.322799  0.900175  1
  Tb  Tb2  1  0.034453  0.176912  0.599721  1
  Tb  Tb3  1  0.465652  0.676981  0.400093  1
  Tb  Tb4  1  0.965553  0.823348  0.100302  1
  Tb  Tb5  1  0.465849  0.676782  0.099948  1
  Tb  Tb6  1  0.965567  0.823078  0.400072  1
  Tb  Tb7  1  0.534241  0.322949  0.599811  1
  Tb  Tb8  1  0.034437  0.176709  0.900035  1
  Ho  Ho9  1  0.376300  0.840863  0.879009  1
  Ho  Ho10  1  0.876351  0.658951  0.620818  1
  Ho  Ho11  1  0.623665  0.158929  0.379090  1
  Ho  Ho12  1  0.123504  0.341140  0.120830  1
  Ho  Ho13  1  0.623343  0.158900  0.121266  1
  Ho  Ho14  1  0.123573  0.340914  0.379071  1
  Ho  Ho15  1  0.376551  0.841050  0.620726  1
  Ho  Ho16  1  0.208300  0.504314  0.749830  1
  Ho  Ho17  1  0.707952  0.995751  0.749778  1
  Er  Er18  1  0.791828  0.495430  0.250111  1
  Er  Er19  1  0.291773  0.004384  0.249943  1
  Pb  Pb20  1  0.282428  0.034158  0.042748  1
  Pb  Pb21  1  0.782583  0.465832  0.457223  1
  Pb  Pb22  1  0.717460  0.965831  0.542603  1
  Pb  Pb23  1  0.218939  0.533696  0.957466  1
  Pb  Pb24  1  0.716684  0.967179  0.957453  1
  Pb  Pb25  1  0.217362  0.534206  0.542619  1
  Pb  Pb26  1  0.282475  0.034220  0.457187  1
  Pb  Pb27  1  0.782202  0.465182  0.043493  1
  Pb  Pb28  1  0.571199  0.627191  0.749664  1
  Pb  Pb29  1  0.072101  0.873461  0.749559  1
  Pb  Pb30  1  0.428426  0.372796  0.250072  1
  Pb  Pb31  1  0.928634  0.127250  0.250018  1
  Pb  Pb32  1  0.345371  0.152108  0.749952  1
  Pb  Pb33  1  0.845340  0.347328  0.749742  1
  Pb  Pb34  1  0.654480  0.847571  0.250027  1
  Pb  Pb35  1  0.154465  0.652414  0.250032  1
