# generated using pymatgen
data_RuF17
_symmetry_space_group_name_H-M   'P 1'
_cell_length_a   8.77405865
_cell_length_b   8.56638431
_cell_length_c   10.15899000
_cell_angle_alpha   81.50794085
_cell_angle_beta   86.84953632
_cell_angle_gamma   67.84870256
_symmetry_Int_Tables_number   1
_chemical_formula_structural   RuF17
_chemical_formula_sum   'Ru2 F34'
_cell_volume   699.45775303
_cell_formula_units_Z   2
loop_
 _symmetry_equiv_pos_site_id
 _symmetry_equiv_pos_as_xyz
  1  'x, y, z'
loop_
 _atom_site_type_symbol
 _atom_site_label
 _atom_site_symmetry_multiplicity
 _atom_site_fract_x
 _atom_site_fract_y
 _atom_site_fract_z
 _atom_site_occupancy
  Ru  Ru0  1  0.863231  0.248345  0.760755  1
  Ru  Ru1  1  0.136769  0.751655  0.239245  1
  F  F2  1  0.605531  0.204425  0.485337  1
  F  F3  1  0.394469  0.795575  0.514663  1
  F  F4  1  0.823032  0.693706  0.718586  1
  F  F5  1  0.176968  0.306294  0.281414  1
  F  F6  1  0.083305  0.772960  0.860470  1
  F  F7  1  0.916695  0.227040  0.139530  1
  F  F8  1  0.557732  0.140007  0.379112  1
  F  F9  1  0.442268  0.859993  0.620888  1
  F  F10  1  0.648024  0.317583  0.699776  1
  F  F11  1  0.351976  0.682417  0.300224  1
  F  F12  1  0.932640  0.071356  0.657632  1
  F  F13  1  0.067360  0.928644  0.342368  1
  F  F14  1  0.907367  0.386766  0.617951  1
  F  F15  1  0.092633  0.613234  0.382049  1
  F  F16  1  0.855014  0.808703  0.614794  1
  F  F17  1  0.144986  0.191297  0.385206  1
  F  F18  1  0.796922  0.428943  0.860964  1
  F  F19  1  0.203078  0.571057  0.139036  1
  F  F20  1  0.210220  0.689501  0.772604  1
  F  F21  1  0.789780  0.310499  0.227396  1
  F  F22  1  0.924384  0.821297  0.173333  1
  F  F23  1  0.075616  0.178703  0.826667  1
  F  F24  1  0.816549  0.108089  0.901551  1
  F  F25  1  0.183451  0.891911  0.098449  1
  F  F26  1  0.484520  0.588171  0.981683  1
  F  F27  1  0.515480  0.411829  0.018317  1
  F  F28  1  0.461844  0.083538  0.866840  1
  F  F29  1  0.538156  0.916462  0.133160  1
  F  F30  1  0.285784  0.242383  0.614167  1
  F  F31  1  0.714216  0.757617  0.385833  1
  F  F32  1  0.254963  0.390536  0.675905  1
  F  F33  1  0.745037  0.609464  0.324095  1
  F  F34  1  0.560756  0.917980  0.836404  1
  F  F35  1  0.439244  0.082020  0.163596  1
