# generated using pymatgen
data_LaNd5Ir11Rh7
_symmetry_space_group_name_H-M   'P 1'
_cell_length_a   5.37103700
_cell_length_b   5.37623226
_cell_length_c   17.70335376
_cell_angle_alpha   90.02910358
_cell_angle_beta   89.99989146
_cell_angle_gamma   119.96868516
_symmetry_Int_Tables_number   1
_chemical_formula_structural   LaNd5Ir11Rh7
_chemical_formula_sum   'La1 Nd5 Ir11 Rh7'
_cell_volume   442.85262819
_cell_formula_units_Z   1
loop_
 _symmetry_equiv_pos_site_id
 _symmetry_equiv_pos_as_xyz
  1  'x, y, z'
loop_
 _atom_site_type_symbol
 _atom_site_label
 _atom_site_symmetry_multiplicity
 _atom_site_fract_x
 _atom_site_fract_y
 _atom_site_fract_z
 _atom_site_occupancy
  La  La0  1  0.333364  0.666737  0.749981  1
  Nd  Nd1  1  0.333366  0.666735  0.541353  1
  Nd  Nd2  1  0.666658  0.333310  0.041600  1
  Nd  Nd3  1  0.666225  0.332451  0.458039  1
  Nd  Nd4  1  0.333435  0.666861  0.958690  1
  Nd  Nd5  1  0.666695  0.333395  0.249787  1
  Ir  Ir6  1  0.166698  0.333405  0.128260  1
  Ir  Ir7  1  0.833134  0.666278  0.626933  1
  Ir  Ir8  1  0.665987  0.833155  0.127922  1
  Ir  Ir9  1  0.167174  0.833166  0.127924  1
  Ir  Ir10  1  0.833204  0.167221  0.627103  1
  Ir  Ir11  1  0.334029  0.167221  0.627095  1
  Ir  Ir12  1  0.833079  0.666144  0.872819  1
  Ir  Ir13  1  0.832862  0.166810  0.872815  1
  Ir  Ir14  1  0.333953  0.166825  0.872822  1
  Ir  Ir15  1  0.666929  0.834727  0.372167  1
  Ir  Ir16  1  0.167800  0.834731  0.372166  1
  Rh  Rh17  1  0.167432  0.334866  0.372688  1
  Rh  Rh18  1  0.999386  0.998769  0.249966  1
  Rh  Rh19  1  0.000023  0.000003  0.749953  1
  Rh  Rh20  1  0.333300  0.666603  0.250128  1
  Rh  Rh21  1  0.666731  0.333503  0.749919  1
  Rh  Rh22  1  0.000172  0.000348  0.000173  1
  Rh  Rh23  1  0.998365  0.996734  0.499697  1
