# generated using pymatgen
data_Cs3RbSn6(HgSe8)2
_symmetry_space_group_name_H-M   'P 1'
_cell_length_a   8.14542922
_cell_length_b   13.54464496
_cell_length_c   18.93707700
_cell_angle_alpha   90.00000000
_cell_angle_beta   90.00000000
_cell_angle_gamma   90.17140081
_symmetry_Int_Tables_number   1
_chemical_formula_structural   Cs3RbSn6(HgSe8)2
_chemical_formula_sum   'Cs6 Rb2 Sn12 Hg4 Se32'
_cell_volume   2089.26054075
_cell_formula_units_Z   2
loop_
 _symmetry_equiv_pos_site_id
 _symmetry_equiv_pos_as_xyz
  1  'x, y, z'
loop_
 _atom_site_type_symbol
 _atom_site_label
 _atom_site_symmetry_multiplicity
 _atom_site_fract_x
 _atom_site_fract_y
 _atom_site_fract_z
 _atom_site_occupancy
  Cs  Cs0  1  0.248608  0.870911  0.950040  1
  Cs  Cs1  1  0.251392  0.129089  0.450040  1
  Cs  Cs2  1  0.237168  0.799336  0.338736  1
  Cs  Cs3  1  0.262832  0.200664  0.838736  1
  Cs  Cs4  1  0.737238  0.699049  0.662433  1
  Cs  Cs5  1  0.762762  0.300951  0.162433  1
  Rb  Rb6  1  0.745669  0.633786  0.047316  1
  Rb  Rb7  1  0.754331  0.366214  0.547316  1
  Sn  Sn8  1  0.764724  0.051660  0.323485  1
  Sn  Sn9  1  0.735276  0.948340  0.823485  1
  Sn  Sn10  1  0.263256  0.449400  0.676880  1
  Sn  Sn11  1  0.236744  0.550600  0.176880  1
  Sn  Sn12  1  0.731282  0.932397  0.484850  1
  Sn  Sn13  1  0.768718  0.067603  0.984850  1
  Sn  Sn14  1  0.229068  0.567801  0.515524  1
  Sn  Sn15  1  0.270932  0.432199  0.015524  1
  Sn  Sn16  1  0.514122  0.976997  0.153155  1
  Sn  Sn17  1  0.985878  0.023003  0.653155  1
  Sn  Sn18  1  0.013460  0.521822  0.847746  1
  Sn  Sn19  1  0.486540  0.478178  0.347746  1
  Hg  Hg20  1  0.981787  0.501888  0.346439  1
  Hg  Hg21  1  0.518213  0.498112  0.846439  1
  Hg  Hg22  1  0.483112  0.000377  0.652676  1
  Hg  Hg23  1  0.016888  0.999623  0.152676  1
  Se  Se24  1  0.971853  0.615264  0.226567  1
  Se  Se25  1  0.528147  0.384736  0.726567  1
  Se  Se26  1  0.474533  0.882832  0.770223  1
  Se  Se27  1  0.025467  0.117168  0.270223  1
  Se  Se28  1  0.966616  0.625796  0.459308  1
  Se  Se29  1  0.533384  0.374204  0.959308  1
  Se  Se30  1  0.467697  0.874789  0.540586  1
  Se  Se31  1  0.032303  0.125211  0.040586  1
  Se  Se32  1  0.765036  0.868985  0.156978  1
  Se  Se33  1  0.734964  0.131015  0.656978  1
  Se  Se34  1  0.266921  0.627999  0.840343  1
  Se  Se35  1  0.233079  0.372001  0.340343  1
  Se  Se36  1  0.765575  0.633138  0.856318  1
  Se  Se37  1  0.734425  0.366862  0.356318  1
  Se  Se38  1  0.264625  0.866056  0.147722  1
  Se  Se39  1  0.235375  0.133944  0.647722  1
  Se  Se40  1  0.762709  0.865513  0.357171  1
  Se  Se41  1  0.737291  0.134487  0.857171  1
  Se  Se42  1  0.261729  0.635351  0.643011  1
  Se  Se43  1  0.238271  0.364649  0.143011  1
  Se  Se44  1  0.733207  0.119751  0.451892  1
  Se  Se45  1  0.766793  0.880249  0.951892  1
  Se  Se46  1  0.225299  0.380754  0.548855  1
  Se  Se47  1  0.274701  0.619246  0.048855  1
  Se  Se48  1  0.508408  0.597474  0.238746  1
  Se  Se49  1  0.991592  0.402526  0.738746  1
  Se  Se50  1  0.006469  0.902500  0.761460  1
  Se  Se51  1  0.493531  0.097500  0.261460  1
  Se  Se52  1  0.500103  0.607881  0.450559  1
  Se  Se53  1  0.999897  0.392119  0.950559  1
  Se  Se54  1  0.000361  0.892154  0.550983  1
  Se  Se55  1  0.499639  0.107846  0.050983  1
