# generated using pymatgen
data_CrFe2Co2P4W3
_symmetry_space_group_name_H-M   'P 1'
_cell_length_a   3.67156300
_cell_length_b   5.83593467
_cell_length_c   6.72013933
_cell_angle_alpha   90.39979323
_cell_angle_beta   90.00000000
_cell_angle_gamma   90.00000000
_symmetry_Int_Tables_number   1
_chemical_formula_structural   CrFe2Co2P4W3
_chemical_formula_sum   'Cr1 Fe2 Co2 P4 W3'
_cell_volume   143.98893217
_cell_formula_units_Z   1
loop_
 _symmetry_equiv_pos_site_id
 _symmetry_equiv_pos_as_xyz
  1  'x, y, z'
loop_
 _atom_site_type_symbol
 _atom_site_label
 _atom_site_symmetry_multiplicity
 _atom_site_fract_x
 _atom_site_fract_y
 _atom_site_fract_z
 _atom_site_occupancy
  Cr  Cr0  1  0.250000  0.532836  0.668772  1
  Fe  Fe1  1  0.250000  0.141877  0.437941  1
  Fe  Fe2  1  0.750000  0.856401  0.563329  1
  Co  Co3  1  0.250000  0.643343  0.068211  1
  Co  Co4  1  0.750000  0.358094  0.930138  1
  P  P5  1  0.250000  0.268970  0.122368  1
  P  P6  1  0.750000  0.727498  0.873886  1
  P  P7  1  0.250000  0.770182  0.382798  1
  P  P8  1  0.750000  0.234942  0.621303  1
  W  W9  1  0.750000  0.971420  0.170513  1
  W  W10  1  0.250000  0.023308  0.827439  1
  W  W11  1  0.750000  0.471131  0.333301  1
