# generated using pymatgen
data_Ac5SmTa2O14
_symmetry_space_group_name_H-M   'P 1'
_cell_length_a   6.90713200
_cell_length_b   6.88588206
_cell_length_c   7.94821400
_cell_angle_alpha   90.00000000
_cell_angle_beta   90.00000000
_cell_angle_gamma   108.61954225
_symmetry_Int_Tables_number   1
_chemical_formula_structural   Ac5SmTa2O14
_chemical_formula_sum   'Ac5 Sm1 Ta2 O14'
_cell_volume   358.24425779
_cell_formula_units_Z   1
loop_
 _symmetry_equiv_pos_site_id
 _symmetry_equiv_pos_as_xyz
  1  'x, y, z'
loop_
 _atom_site_type_symbol
 _atom_site_label
 _atom_site_symmetry_multiplicity
 _atom_site_fract_x
 _atom_site_fract_y
 _atom_site_fract_z
 _atom_site_occupancy
  Ac  Ac0  1  0.470873  0.475380  0.502349  1
  Ac  Ac1  1  0.470873  0.475380  0.997651  1
  Ac  Ac2  1  0.535222  0.992540  0.750000  1
  Ac  Ac3  1  0.990330  0.534357  0.250000  1
  Ac  Ac4  1  0.471505  0.994590  0.250000  1
  Sm  Sm5  1  0.995689  0.471498  0.750000  1
  Ta  Ta6  1  0.001799  0.000896  0.503270  1
  Ta  Ta7  1  0.001799  0.000896  0.996730  1
  O  O8  1  0.701572  0.932649  0.473116  1
  O  O9  1  0.966050  0.709030  0.540465  1
  O  O10  1  0.701572  0.932649  0.026884  1
  O  O11  1  0.966050  0.709030  0.959535  1
  O  O12  1  0.312138  0.078156  0.524506  1
  O  O13  1  0.062862  0.312809  0.483941  1
  O  O14  1  0.312138  0.078156  0.975494  1
  O  O15  1  0.062862  0.312809  0.016059  1
  O  O16  1  0.952711  0.055101  0.750000  1
  O  O17  1  0.045943  0.957323  0.250000  1
  O  O18  1  0.349981  0.619506  0.750000  1
  O  O19  1  0.624527  0.366279  0.250000  1
  O  O20  1  0.646295  0.365450  0.750000  1
  O  O21  1  0.357210  0.625519  0.250000  1
