# generated using pymatgen
data_SmMg2(P3Pd10)2
_symmetry_space_group_name_H-M   'P 1'
_cell_length_a   8.62948282
_cell_length_b   8.62948372
_cell_length_c   8.62948300
_cell_angle_alpha   59.99999893
_cell_angle_beta   59.99999547
_cell_angle_gamma   60.00000044
_symmetry_Int_Tables_number   1
_chemical_formula_structural   SmMg2(P3Pd10)2
_chemical_formula_sum   'Sm1 Mg2 P6 Pd20'
_cell_volume   454.40106950
_cell_formula_units_Z   1
loop_
 _symmetry_equiv_pos_site_id
 _symmetry_equiv_pos_as_xyz
  1  'x, y, z'
loop_
 _atom_site_type_symbol
 _atom_site_label
 _atom_site_symmetry_multiplicity
 _atom_site_fract_x
 _atom_site_fract_y
 _atom_site_fract_z
 _atom_site_occupancy
  Sm  Sm0  1  0.750000  0.750000  0.750000  1
  Mg  Mg1  1  0.250000  0.250000  0.250000  1
  Mg  Mg2  1  0.000000  0.000000  0.000000  1
  P  P3  1  0.735643  0.264357  0.264357  1
  P  P4  1  0.264357  0.735643  0.735643  1
  P  P5  1  0.264357  0.735643  0.264357  1
  P  P6  1  0.735643  0.264357  0.735643  1
  P  P7  1  0.264357  0.264357  0.735643  1
  P  P8  1  0.735643  0.735643  0.264357  1
  Pd  Pd9  1  0.380863  0.380863  0.380863  1
  Pd  Pd10  1  0.612828  0.612828  0.612828  1
  Pd  Pd11  1  0.380863  0.380863  0.857410  1
  Pd  Pd12  1  0.380863  0.857410  0.380863  1
  Pd  Pd13  1  0.612828  0.612828  0.161518  1
  Pd  Pd14  1  0.612828  0.161518  0.612828  1
  Pd  Pd15  1  0.857410  0.380863  0.380863  1
  Pd  Pd16  1  0.161518  0.612828  0.612828  1
  Pd  Pd17  1  0.343137  0.999777  0.999777  1
  Pd  Pd18  1  0.657309  0.999777  0.999777  1
  Pd  Pd19  1  0.999777  0.343137  0.657309  1
  Pd  Pd20  1  0.999777  0.657309  0.343137  1
  Pd  Pd21  1  0.999777  0.343137  0.999777  1
  Pd  Pd22  1  0.657309  0.999777  0.343137  1
  Pd  Pd23  1  0.999777  0.657309  0.999777  1
  Pd  Pd24  1  0.343137  0.999777  0.657309  1
  Pd  Pd25  1  0.999777  0.999777  0.343137  1
  Pd  Pd26  1  0.999777  0.999777  0.657309  1
  Pd  Pd27  1  0.657309  0.343137  0.999777  1
  Pd  Pd28  1  0.343137  0.657309  0.999777  1
