# generated using pymatgen
data_Dy4Tm4Mn3B24Ru
_symmetry_space_group_name_H-M   'P 1'
_cell_length_a   3.56701300
_cell_length_b   9.06809505
_cell_length_c   11.45941306
_cell_angle_alpha   89.98828562
_cell_angle_beta   90.00000000
_cell_angle_gamma   90.00000000
_symmetry_Int_Tables_number   1
_chemical_formula_structural   Dy4Tm4Mn3B24Ru
_chemical_formula_sum   'Dy4 Tm4 Mn3 B24 Ru1'
_cell_volume   370.66631513
_cell_formula_units_Z   1
loop_
 _symmetry_equiv_pos_site_id
 _symmetry_equiv_pos_as_xyz
  1  'x, y, z'
loop_
 _atom_site_type_symbol
 _atom_site_label
 _atom_site_symmetry_multiplicity
 _atom_site_fract_x
 _atom_site_fract_y
 _atom_site_fract_z
 _atom_site_occupancy
  Dy  Dy0  1  0.000000  0.324867  0.414330  1
  Dy  Dy1  1  0.000000  0.673990  0.582931  1
  Dy  Dy2  1  0.000000  0.823212  0.087822  1
  Dy  Dy3  1  0.000000  0.178018  0.915780  1
  Tm  Tm4  1  0.000000  0.942076  0.368454  1
  Tm  Tm5  1  0.000000  0.060037  0.629688  1
  Tm  Tm6  1  0.000000  0.442521  0.132155  1
  Tm  Tm7  1  0.000000  0.555057  0.868487  1
  Mn  Mn8  1  0.000000  0.638386  0.320268  1
  Mn  Mn9  1  0.000000  0.361249  0.680336  1
  Mn  Mn10  1  0.000000  0.138489  0.179817  1
  B  B11  1  0.500000  0.554454  0.431445  1
  B  B12  1  0.500000  0.445507  0.567998  1
  B  B13  1  0.500000  0.054764  0.068892  1
  B  B14  1  0.500000  0.946443  0.933277  1
  B  B15  1  0.500000  0.747686  0.416634  1
  B  B16  1  0.500000  0.252975  0.582583  1
  B  B17  1  0.500000  0.248313  0.083415  1
  B  B18  1  0.500000  0.750311  0.918620  1
  B  B19  1  0.500000  0.790160  0.265621  1
  B  B20  1  0.500000  0.210276  0.734323  1
  B  B21  1  0.500000  0.290552  0.234790  1
  B  B22  1  0.500000  0.707835  0.764399  1
  B  B23  1  0.500000  0.630664  0.186563  1
  B  B24  1  0.500000  0.368924  0.813852  1
  B  B25  1  0.500000  0.130863  0.313818  1
  B  B26  1  0.500000  0.869141  0.684429  1
  B  B27  1  0.500000  0.984620  0.211970  1
  B  B28  1  0.500000  0.018015  0.787762  1
  B  B29  1  0.500000  0.484869  0.288492  1
  B  B30  1  0.500000  0.514582  0.711208  1
  B  B31  1  0.500000  0.600555  0.028206  1
  B  B32  1  0.500000  0.398792  0.972522  1
  B  B33  1  0.500000  0.101407  0.471661  1
  B  B34  1  0.500000  0.899149  0.527388  1
  Ru  Ru35  1  0.000000  0.861242  0.820067  1
