# generated using pymatgen
data_TbTm3Co8(PRu)12
_symmetry_space_group_name_H-M   'P 1'
_cell_length_a   3.78247900
_cell_length_b   10.62894717
_cell_length_c   12.10260035
_cell_angle_alpha   90.05393894
_cell_angle_beta   90.00000000
_cell_angle_gamma   90.00000000
_symmetry_Int_Tables_number   1
_chemical_formula_structural   TbTm3Co8(PRu)12
_chemical_formula_sum   'Tb1 Tm3 Co8 P12 Ru12'
_cell_volume   486.56993873
_cell_formula_units_Z   1
loop_
 _symmetry_equiv_pos_site_id
 _symmetry_equiv_pos_as_xyz
  1  'x, y, z'
loop_
 _atom_site_type_symbol
 _atom_site_label
 _atom_site_symmetry_multiplicity
 _atom_site_fract_x
 _atom_site_fract_y
 _atom_site_fract_z
 _atom_site_occupancy
  Tb  Tb0  1  0.250000  0.584421  0.706681  1
  Tm  Tm1  1  0.250000  0.915460  0.206642  1
  Tm  Tm2  1  0.750000  0.415340  0.293410  1
  Tm  Tm3  1  0.750000  0.084658  0.793505  1
  Co  Co4  1  0.250000  0.888810  0.695976  1
  Co  Co5  1  0.250000  0.611614  0.196467  1
  Co  Co6  1  0.750000  0.111658  0.303791  1
  Co  Co7  1  0.750000  0.387425  0.804618  1
  Co  Co8  1  0.250000  0.462527  0.935675  1
  Co  Co9  1  0.250000  0.037158  0.434682  1
  Co  Co10  1  0.750000  0.537085  0.065850  1
  Co  Co11  1  0.750000  0.963295  0.564878  1
  P  P12  1  0.250000  0.425690  0.113714  1
  P  P13  1  0.250000  0.074227  0.613178  1
  P  P14  1  0.750000  0.574499  0.888032  1
  P  P15  1  0.750000  0.925970  0.386516  1
  P  P16  1  0.250000  0.270899  0.871683  1
  P  P17  1  0.250000  0.228762  0.371506  1
  P  P18  1  0.750000  0.729231  0.128266  1
  P  P19  1  0.750000  0.772061  0.627722  1
  P  P20  1  0.250000  0.600320  0.386232  1
  P  P21  1  0.250000  0.899594  0.886335  1
  P  P22  1  0.750000  0.398448  0.613013  1
  P  P23  1  0.750000  0.100492  0.113794  1
  Ru  Ru24  1  0.250000  0.706360  0.986337  1
  Ru  Ru25  1  0.250000  0.793739  0.486026  1
  Ru  Ru26  1  0.750000  0.293369  0.013931  1
  Ru  Ru27  1  0.750000  0.206073  0.513477  1
  Ru  Ru28  1  0.250000  0.405041  0.485008  1
  Ru  Ru29  1  0.250000  0.094387  0.985307  1
  Ru  Ru30  1  0.750000  0.594318  0.512821  1
  Ru  Ru31  1  0.750000  0.905755  0.014951  1
  Ru  Ru32  1  0.250000  0.224073  0.181022  1
  Ru  Ru33  1  0.250000  0.275451  0.680941  1
  Ru  Ru34  1  0.750000  0.777069  0.819377  1
  Ru  Ru35  1  0.750000  0.724721  0.318638  1
