# generated using pymatgen
data_Er4AlGa3Pd3Ru
_symmetry_space_group_name_H-M   'P 1'
_cell_length_a   4.35567000
_cell_length_b   6.86050986
_cell_length_c   7.76714055
_cell_angle_alpha   90.19462326
_cell_angle_beta   90.00000000
_cell_angle_gamma   90.00000000
_symmetry_Int_Tables_number   1
_chemical_formula_structural   Er4AlGa3Pd3Ru
_chemical_formula_sum   'Er4 Al1 Ga3 Pd3 Ru1'
_cell_volume   232.09726349
_cell_formula_units_Z   1
loop_
 _symmetry_equiv_pos_site_id
 _symmetry_equiv_pos_as_xyz
  1  'x, y, z'
loop_
 _atom_site_type_symbol
 _atom_site_label
 _atom_site_symmetry_multiplicity
 _atom_site_fract_x
 _atom_site_fract_y
 _atom_site_fract_z
 _atom_site_occupancy
  Er  Er0  1  0.250000  0.481002  0.188000  1
  Er  Er1  1  0.750000  0.528448  0.814214  1
  Er  Er2  1  0.250000  0.973426  0.309239  1
  Er  Er3  1  0.750000  0.027818  0.684875  1
  Al  Al4  1  0.250000  0.843098  0.936398  1
  Ga  Ga5  1  0.750000  0.145002  0.067342  1
  Ga  Ga6  1  0.250000  0.341206  0.567649  1
  Ga  Ga7  1  0.750000  0.665257  0.430966  1
  Pd  Pd8  1  0.250000  0.224945  0.888069  1
  Pd  Pd9  1  0.750000  0.277259  0.387751  1
  Pd  Pd10  1  0.250000  0.730096  0.616354  1
  Ru  Ru11  1  0.750000  0.762445  0.109144  1
