# generated using pymatgen
data_HoPuB6Os
_symmetry_space_group_name_H-M   'P 1'
_cell_length_a   3.64664000
_cell_length_b   9.18633500
_cell_length_c   11.56468300
_cell_angle_alpha   90.00000000
_cell_angle_beta   90.00000000
_cell_angle_gamma   90.00000000
_symmetry_Int_Tables_number   1
_chemical_formula_structural   HoPuB6Os
_chemical_formula_sum   'Ho4 Pu4 B24 Os4'
_cell_volume   387.40828406
_cell_formula_units_Z   4
loop_
 _symmetry_equiv_pos_site_id
 _symmetry_equiv_pos_as_xyz
  1  'x, y, z'
loop_
 _atom_site_type_symbol
 _atom_site_label
 _atom_site_symmetry_multiplicity
 _atom_site_fract_x
 _atom_site_fract_y
 _atom_site_fract_z
 _atom_site_occupancy
  Ho  Ho0  1  0.000000  0.944468  0.374209  1
  Ho  Ho1  1  0.000000  0.055532  0.625791  1
  Ho  Ho2  1  0.000000  0.444468  0.125791  1
  Ho  Ho3  1  0.000000  0.555532  0.874209  1
  Pu  Pu4  1  0.000000  0.324039  0.413402  1
  Pu  Pu5  1  0.000000  0.675961  0.586598  1
  Pu  Pu6  1  0.000000  0.824039  0.086598  1
  Pu  Pu7  1  0.000000  0.175961  0.913402  1
  B  B8  1  0.500000  0.553486  0.432583  1
  B  B9  1  0.500000  0.446514  0.567417  1
  B  B10  1  0.500000  0.053486  0.067417  1
  B  B11  1  0.500000  0.946514  0.932583  1
  B  B12  1  0.500000  0.747848  0.420289  1
  B  B13  1  0.500000  0.252152  0.579711  1
  B  B14  1  0.500000  0.247848  0.079711  1
  B  B15  1  0.500000  0.752152  0.920289  1
  B  B16  1  0.500000  0.792443  0.266611  1
  B  B17  1  0.500000  0.207557  0.733389  1
  B  B18  1  0.500000  0.292443  0.233389  1
  B  B19  1  0.500000  0.707557  0.766611  1
  B  B20  1  0.500000  0.633333  0.184910  1
  B  B21  1  0.500000  0.366667  0.815090  1
  B  B22  1  0.500000  0.133333  0.315090  1
  B  B23  1  0.500000  0.866667  0.684910  1
  B  B24  1  0.500000  0.983458  0.213485  1
  B  B25  1  0.500000  0.016542  0.786515  1
  B  B26  1  0.500000  0.483458  0.286515  1
  B  B27  1  0.500000  0.516542  0.713485  1
  B  B28  1  0.500000  0.611102  0.030482  1
  B  B29  1  0.500000  0.388898  0.969518  1
  B  B30  1  0.500000  0.111102  0.469518  1
  B  B31  1  0.500000  0.888898  0.530482  1
  Os  Os32  1  0.000000  0.638835  0.320371  1
  Os  Os33  1  0.000000  0.361165  0.679629  1
  Os  Os34  1  0.000000  0.138835  0.179629  1
  Os  Os35  1  0.000000  0.861165  0.820371  1
