# generated using pymatgen
data_Gd3Cu(PPd4)5
_symmetry_space_group_name_H-M   'P 1'
_cell_length_a   8.76084132
_cell_length_b   8.77829673
_cell_length_c   8.77829600
_cell_angle_alpha   59.86848281
_cell_angle_beta   60.06575118
_cell_angle_gamma   60.06575159
_symmetry_Int_Tables_number   1
_chemical_formula_structural   Gd3Cu(PPd4)5
_chemical_formula_sum   'Gd3 Cu1 P5 Pd20'
_cell_volume   477.36197226
_cell_formula_units_Z   1
loop_
 _symmetry_equiv_pos_site_id
 _symmetry_equiv_pos_as_xyz
  1  'x, y, z'
loop_
 _atom_site_type_symbol
 _atom_site_label
 _atom_site_symmetry_multiplicity
 _atom_site_fract_x
 _atom_site_fract_y
 _atom_site_fract_z
 _atom_site_occupancy
  Gd  Gd0  1  0.250674  0.249369  0.249361  1
  Gd  Gd1  1  0.750819  0.749206  0.749168  1
  Gd  Gd2  1  0.991580  0.008467  0.008315  1
  Cu  Cu3  1  0.735226  0.264573  0.264379  1
  P  P4  1  0.260347  0.739704  0.739698  1
  P  P5  1  0.268767  0.731518  0.263391  1
  P  P6  1  0.736387  0.263362  0.731456  1
  P  P7  1  0.268711  0.263412  0.731575  1
  P  P8  1  0.736410  0.731414  0.263342  1
  Pd  Pd9  1  0.373497  0.389265  0.389290  1
  Pd  Pd10  1  0.612403  0.616165  0.616195  1
  Pd  Pd11  1  0.383773  0.387553  0.844935  1
  Pd  Pd12  1  0.383803  0.844883  0.387549  1
  Pd  Pd13  1  0.610841  0.626535  0.151797  1
  Pd  Pd14  1  0.610784  0.151795  0.626641  1
  Pd  Pd15  1  0.848033  0.389137  0.389154  1
  Pd  Pd16  1  0.155192  0.616239  0.616275  1
  Pd  Pd17  1  0.345191  0.999675  0.999681  1
  Pd  Pd18  1  0.655521  0.999648  0.999659  1
  Pd  Pd19  1  0.000523  0.344400  0.654603  1
  Pd  Pd20  1  0.000534  0.654630  0.344360  1
  Pd  Pd21  1  0.013419  0.347156  0.985964  1
  Pd  Pd22  1  0.653473  0.985634  0.347266  1
  Pd  Pd23  1  0.998838  0.654139  0.002370  1
  Pd  Pd24  1  0.344694  0.002431  0.654168  1
  Pd  Pd25  1  0.013534  0.985878  0.347149  1
  Pd  Pd26  1  0.998820  0.002379  0.654137  1
  Pd  Pd27  1  0.653498  0.347257  0.985715  1
  Pd  Pd28  1  0.344707  0.654178  0.002408  1
