# generated using pymatgen
data_Sr3Pr(WO4)4
_symmetry_space_group_name_H-M   'P 1'
_cell_length_a   5.16420441
_cell_length_b   5.56506353
_cell_length_c   13.97186300
_cell_angle_alpha   68.84932852
_cell_angle_beta   90.72586297
_cell_angle_gamma   90.97322455
_symmetry_Int_Tables_number   1
_chemical_formula_structural   Sr3Pr(WO4)4
_chemical_formula_sum   'Sr3 Pr1 W4 O16'
_cell_volume   374.42612927
_cell_formula_units_Z   1
loop_
 _symmetry_equiv_pos_site_id
 _symmetry_equiv_pos_as_xyz
  1  'x, y, z'
loop_
 _atom_site_type_symbol
 _atom_site_label
 _atom_site_symmetry_multiplicity
 _atom_site_fract_x
 _atom_site_fract_y
 _atom_site_fract_z
 _atom_site_occupancy
  Sr  Sr0  1  0.726730  0.156142  0.340071  1
  Sr  Sr1  1  0.227229  0.844575  0.154427  1
  Sr  Sr2  1  0.278329  0.846478  0.661280  1
  Pr  Pr3  1  0.757550  0.144902  0.845026  1
  W  W4  1  0.248727  0.582273  0.425157  1
  W  W5  1  0.746110  0.417503  0.072601  1
  W  W6  1  0.752550  0.416950  0.577574  1
  W  W7  1  0.242869  0.579364  0.923873  1
  O  O8  1  0.555814  0.733274  0.466468  1
  O  O9  1  0.053147  0.268318  0.037745  1
  O  O10  1  0.447363  0.265219  0.537464  1
  O  O11  1  0.941776  0.753885  0.961392  1
  O  O12  1  0.941007  0.358426  0.453512  1
  O  O13  1  0.441636  0.635032  0.046498  1
  O  O14  1  0.058846  0.637180  0.550955  1
  O  O15  1  0.576408  0.360538  0.945754  1
  O  O16  1  0.123359  0.887634  0.334884  1
  O  O17  1  0.618093  0.111307  0.164885  1
  O  O18  1  0.876508  0.111392  0.671580  1
  O  O19  1  0.395081  0.903935  0.827389  1
  O  O20  1  0.376720  0.480019  0.324533  1
  O  O21  1  0.876477  0.521634  0.174960  1
  O  O22  1  0.623724  0.511092  0.681326  1
  O  O23  1  0.113949  0.472923  0.820642  1
