# generated using pymatgen
data_PrTh2Al2GaPt3
_symmetry_space_group_name_H-M   'P 1'
_cell_length_a   7.33564150
_cell_length_b   7.40410082
_cell_length_c   4.14063000
_cell_angle_alpha   90.00000000
_cell_angle_beta   90.00000000
_cell_angle_gamma   120.10365987
_symmetry_Int_Tables_number   1
_chemical_formula_structural   PrTh2Al2GaPt3
_chemical_formula_sum   'Pr1 Th2 Al2 Ga1 Pt3'
_cell_volume   194.55970111
_cell_formula_units_Z   1
loop_
 _symmetry_equiv_pos_site_id
 _symmetry_equiv_pos_as_xyz
  1  'x, y, z'
loop_
 _atom_site_type_symbol
 _atom_site_label
 _atom_site_symmetry_multiplicity
 _atom_site_fract_x
 _atom_site_fract_y
 _atom_site_fract_z
 _atom_site_occupancy
  Pr  Pr0  1  0.412643  0.415702  0.500000  1
  Th  Th1  1  0.584878  0.004572  0.500000  1
  Th  Th2  1  0.001402  0.577824  0.500000  1
  Al  Al3  1  0.761768  0.759794  0.000000  1
  Al  Al4  1  0.231027  0.000849  0.000000  1
  Ga  Ga5  1  0.004674  0.236931  0.000000  1
  Pt  Pt6  1  0.673304  0.335778  0.000000  1
  Pt  Pt7  1  0.340058  0.690021  0.000000  1
  Pt  Pt8  1  0.990244  0.978528  0.500000  1
