# generated using pymatgen
data_Mn5Cr16(WC3)2
_symmetry_space_group_name_H-M   'P 1'
_cell_length_a   7.47359551
_cell_length_b   7.47359522
_cell_length_c   7.47359600
_cell_angle_alpha   60.00000539
_cell_angle_beta   60.00000666
_cell_angle_gamma   59.99999806
_symmetry_Int_Tables_number   1
_chemical_formula_structural   Mn5Cr16(WC3)2
_chemical_formula_sum   'Mn5 Cr16 W2 C6'
_cell_volume   295.17108639
_cell_formula_units_Z   1
loop_
 _symmetry_equiv_pos_site_id
 _symmetry_equiv_pos_as_xyz
  1  'x, y, z'
loop_
 _atom_site_type_symbol
 _atom_site_label
 _atom_site_symmetry_multiplicity
 _atom_site_fract_x
 _atom_site_fract_y
 _atom_site_fract_z
 _atom_site_occupancy
  Mn  Mn0  1  0.000000  0.000000  0.000000  1
  Mn  Mn1  1  0.617153  0.617153  0.148541  1
  Mn  Mn2  1  0.617153  0.148541  0.617153  1
  Mn  Mn3  1  0.148541  0.617153  0.617153  1
  Mn  Mn4  1  0.617153  0.617153  0.617153  1
  Cr  Cr5  1  0.386098  0.386098  0.841708  1
  Cr  Cr6  1  0.386098  0.841708  0.386098  1
  Cr  Cr7  1  0.841708  0.386098  0.386098  1
  Cr  Cr8  1  0.386098  0.386098  0.386098  1
  Cr  Cr9  1  0.999427  0.999427  0.338511  1
  Cr  Cr10  1  0.662635  0.999427  0.338511  1
  Cr  Cr11  1  0.999427  0.662635  0.338511  1
  Cr  Cr12  1  0.662635  0.338511  0.999427  1
  Cr  Cr13  1  0.999427  0.338511  0.999427  1
  Cr  Cr14  1  0.999427  0.338511  0.662635  1
  Cr  Cr15  1  0.338511  0.662635  0.999427  1
  Cr  Cr16  1  0.338511  0.999427  0.662635  1
  Cr  Cr17  1  0.338511  0.999427  0.999427  1
  Cr  Cr18  1  0.999427  0.999427  0.662635  1
  Cr  Cr19  1  0.999427  0.662635  0.999427  1
  Cr  Cr20  1  0.662635  0.999427  0.999427  1
  W  W21  1  0.750000  0.750000  0.750000  1
  W  W22  1  0.250000  0.250000  0.250000  1
  C  C23  1  0.723354  0.723354  0.276646  1
  C  C24  1  0.276646  0.723354  0.276646  1
  C  C25  1  0.723354  0.276646  0.276646  1
  C  C26  1  0.276646  0.276646  0.723354  1
  C  C27  1  0.723354  0.276646  0.723354  1
  C  C28  1  0.276646  0.723354  0.723354  1
