# generated using pymatgen
data_Tb3TmNi13C4
_symmetry_space_group_name_H-M   'P 1'
_cell_length_a   8.38669042
_cell_length_b   8.38669158
_cell_length_c   3.85876900
_cell_angle_alpha   90.00000000
_cell_angle_beta   90.00000000
_cell_angle_gamma   90.97280574
_symmetry_Int_Tables_number   1
_chemical_formula_structural   Tb3TmNi13C4
_chemical_formula_sum   'Tb3 Tm1 Ni13 C4'
_cell_volume   271.37351749
_cell_formula_units_Z   1
loop_
 _symmetry_equiv_pos_site_id
 _symmetry_equiv_pos_as_xyz
  1  'x, y, z'
loop_
 _atom_site_type_symbol
 _atom_site_label
 _atom_site_symmetry_multiplicity
 _atom_site_fract_x
 _atom_site_fract_y
 _atom_site_fract_z
 _atom_site_occupancy
  Tb  Tb0  1  0.813516  0.186484  0.500000  1
  Tb  Tb1  1  0.347489  0.349230  0.500000  1
  Tb  Tb2  1  0.650770  0.652511  0.500000  1
  Tm  Tm3  1  0.187557  0.812443  0.500000  1
  Ni  Ni4  1  0.002171  0.997829  0.000000  1
  Ni  Ni5  1  0.214177  0.571246  0.000000  1
  Ni  Ni6  1  0.784096  0.431390  0.000000  1
  Ni  Ni7  1  0.428754  0.785823  0.000000  1
  Ni  Ni8  1  0.568610  0.215904  0.000000  1
  Ni  Ni9  1  0.999247  0.505097  0.500000  1
  Ni  Ni10  1  0.494903  0.000753  0.500000  1
  Ni  Ni11  1  0.074766  0.290306  0.000000  1
  Ni  Ni12  1  0.928662  0.708264  0.000000  1
  Ni  Ni13  1  0.709694  0.925234  0.000000  1
  Ni  Ni14  1  0.291736  0.071338  0.000000  1
  Ni  Ni15  1  0.124656  0.120851  0.500000  1
  Ni  Ni16  1  0.879149  0.875344  0.500000  1
  C  C17  1  0.000046  0.497938  0.000000  1
  C  C18  1  0.502062  0.999954  0.000000  1
  C  C19  1  0.441894  0.558106  0.000000  1
  C  C20  1  0.556047  0.443953  0.000000  1
