# generated using pymatgen
data_YEr3Co6(Ni4B3)2
_symmetry_space_group_name_H-M   'P 1'
_cell_length_a   4.97288305
_cell_length_b   4.97398484
_cell_length_c   12.92384100
_cell_angle_alpha   90.00000000
_cell_angle_beta   90.00000000
_cell_angle_gamma   120.00816257
_symmetry_Int_Tables_number   1
_chemical_formula_structural   YEr3Co6(Ni4B3)2
_chemical_formula_sum   'Y1 Er3 Co6 Ni8 B6'
_cell_volume   276.82111507
_cell_formula_units_Z   1
loop_
 _symmetry_equiv_pos_site_id
 _symmetry_equiv_pos_as_xyz
  1  'x, y, z'
loop_
 _atom_site_type_symbol
 _atom_site_label
 _atom_site_symmetry_multiplicity
 _atom_site_fract_x
 _atom_site_fract_y
 _atom_site_fract_z
 _atom_site_occupancy
  Y  Y0  1  0.000000  0.000000  0.000000  1
  Er  Er1  1  0.000000  0.000000  0.500000  1
  Er  Er2  1  0.000000  0.000000  0.736612  1
  Er  Er3  1  0.000000  0.000000  0.263388  1
  Co  Co4  1  0.500000  0.500000  0.616193  1
  Co  Co5  1  0.500000  0.000000  0.616182  1
  Co  Co6  1  0.000000  0.500000  0.616185  1
  Co  Co7  1  0.500000  0.500000  0.383807  1
  Co  Co8  1  0.500000  0.000000  0.383818  1
  Co  Co9  1  0.000000  0.500000  0.383815  1
  Ni  Ni10  1  0.666685  0.333377  0.000000  1
  Ni  Ni11  1  0.333315  0.666623  0.000000  1
  Ni  Ni12  1  0.500000  0.500000  0.842468  1
  Ni  Ni13  1  0.500000  0.000000  0.842490  1
  Ni  Ni14  1  0.000000  0.500000  0.842514  1
  Ni  Ni15  1  0.500000  0.500000  0.157532  1
  Ni  Ni16  1  0.500000  0.000000  0.157510  1
  Ni  Ni17  1  0.000000  0.500000  0.157486  1
  B  B18  1  0.666677  0.333351  0.500000  1
  B  B19  1  0.333323  0.666649  0.500000  1
  B  B20  1  0.666695  0.333331  0.729448  1
  B  B21  1  0.333305  0.666669  0.729448  1
  B  B22  1  0.333305  0.666669  0.270552  1
  B  B23  1  0.666695  0.333331  0.270552  1
