# generated using pymatgen
data_Er12Co4BiOs
_symmetry_space_group_name_H-M   'P 1'
_cell_length_a   8.26075983
_cell_length_b   8.26075926
_cell_length_c   8.26075939
_cell_angle_alpha   110.43100404
_cell_angle_beta   111.62612240
_cell_angle_gamma   106.40184415
_symmetry_Int_Tables_number   1
_chemical_formula_structural   Er12Co4BiOs
_chemical_formula_sum   'Er12 Co4 Bi1 Os1'
_cell_volume   432.97081935
_cell_formula_units_Z   1
loop_
 _symmetry_equiv_pos_site_id
 _symmetry_equiv_pos_as_xyz
  1  'x, y, z'
loop_
 _atom_site_type_symbol
 _atom_site_label
 _atom_site_symmetry_multiplicity
 _atom_site_fract_x
 _atom_site_fract_y
 _atom_site_fract_z
 _atom_site_occupancy
  Er  Er0  1  0.281421  0.180990  0.462410  1
  Er  Er1  1  0.718579  0.819010  0.537590  1
  Er  Er2  1  0.281421  0.819010  0.100431  1
  Er  Er3  1  0.718579  0.180990  0.899569  1
  Er  Er4  1  0.620096  0.311449  0.308647  1
  Er  Er5  1  0.379904  0.688551  0.691353  1
  Er  Er6  1  0.002804  0.311449  0.691353  1
  Er  Er7  1  0.997196  0.688551  0.308647  1
  Er  Er8  1  0.214078  0.411185  0.197107  1
  Er  Er9  1  0.785922  0.588815  0.802893  1
  Er  Er10  1  0.214078  0.016971  0.802893  1
  Er  Er11  1  0.785922  0.983029  0.197107  1
  Co  Co12  1  0.000000  0.376138  0.376138  1
  Co  Co13  1  0.000000  0.623862  0.623862  1
  Co  Co14  1  0.388987  0.888987  0.500000  1
  Co  Co15  1  0.611013  0.111013  0.500000  1
  Bi  Bi16  1  0.500000  0.500000  0.000000  1
  Os  Os17  1  0.000000  0.000000  0.000000  1
