# generated using pymatgen
data_Hf6Ti2Al14SiPd3Rh4
_symmetry_space_group_name_H-M   'P 1'
_cell_length_a   8.77424743
_cell_length_b   8.77350576
_cell_length_c   8.77428400
_cell_angle_alpha   120.18500684
_cell_angle_beta   119.75046344
_cell_angle_gamma   90.05840772
_symmetry_Int_Tables_number   1
_chemical_formula_structural   Hf6Ti2Al14SiPd3Rh4
_chemical_formula_sum   'Hf6 Ti2 Al14 Si1 Pd3 Rh4'
_cell_volume   477.83227045
_cell_formula_units_Z   1
loop_
 _symmetry_equiv_pos_site_id
 _symmetry_equiv_pos_as_xyz
  1  'x, y, z'
loop_
 _atom_site_type_symbol
 _atom_site_label
 _atom_site_symmetry_multiplicity
 _atom_site_fract_x
 _atom_site_fract_y
 _atom_site_fract_z
 _atom_site_occupancy
  Hf  Hf0  1  0.798568  0.296984  0.089105  1
  Hf  Hf1  1  0.207865  0.296980  0.498396  1
  Hf  Hf2  1  0.202601  0.701167  0.498521  1
  Hf  Hf3  1  0.204884  0.708789  0.910297  1
  Hf  Hf4  1  0.798512  0.708819  0.503906  1
  Hf  Hf5  1  0.791053  0.293258  0.502164  1
  Ti  Ti6  1  0.380674  0.121257  0.740608  1
  Ti  Ti7  1  0.377715  0.638712  0.260949  1
  Al  Al8  1  0.165868  0.334246  0.168361  1
  Al  Al9  1  0.167216  0.000241  0.833011  1
  Al  Al10  1  0.164108  0.335355  0.829902  1
  Al  Al11  1  0.505401  0.335387  0.171294  1
  Al  Al12  1  0.834128  0.665155  0.831001  1
  Al  Al13  1  0.836140  0.002898  0.166740  1
  Al  Al14  1  0.834987  0.665216  0.164976  1
  Al  Al15  1  0.500153  0.665214  0.830234  1
  Al  Al16  1  0.378253  0.121843  0.264902  1
  Al  Al17  1  0.856932  0.121893  0.743568  1
  Al  Al18  1  0.617822  0.879226  0.261371  1
  Al  Al19  1  0.620223  0.358595  0.738356  1
  Al  Al20  1  0.620911  0.877634  0.737057  1
  Al  Al21  1  0.140581  0.877693  0.256719  1
  Si  Si22  1  0.996116  0.495919  0.499789  1
  Pd  Pd23  1  0.997428  0.999218  0.497996  1
  Pd  Pd24  1  0.501227  0.999232  0.001846  1
  Pd  Pd25  1  0.501267  0.502689  0.001446  1
  Rh  Rh26  1  0.499296  0.498743  0.498583  1
  Rh  Rh27  1  0.000817  0.498934  0.999673  1
  Rh  Rh28  1  0.002302  0.001426  0.998969  1
  Rh  Rh29  1  0.496940  0.997272  0.500258  1
