# generated using pymatgen
data_Dy3Ho13MgIn3Co4
_symmetry_space_group_name_H-M   'P 1'
_cell_length_a   9.52202578
_cell_length_b   9.50181773
_cell_length_c   9.50181800
_cell_angle_alpha   59.99999904
_cell_angle_beta   60.07017751
_cell_angle_gamma   60.07018047
_symmetry_Int_Tables_number   1
_chemical_formula_structural   Dy3Ho13MgIn3Co4
_chemical_formula_sum   'Dy3 Ho13 Mg1 In3 Co4'
_cell_volume   608.53788585
_cell_formula_units_Z   1
loop_
 _symmetry_equiv_pos_site_id
 _symmetry_equiv_pos_as_xyz
  1  'x, y, z'
loop_
 _atom_site_type_symbol
 _atom_site_label
 _atom_site_symmetry_multiplicity
 _atom_site_fract_x
 _atom_site_fract_y
 _atom_site_fract_z
 _atom_site_occupancy
  Dy  Dy0  1  0.347206  0.345911  0.345911  1
  Dy  Dy1  1  0.347206  0.345911  0.960974  1
  Dy  Dy2  1  0.347206  0.960974  0.345911  1
  Ho  Ho3  1  0.958049  0.347317  0.347317  1
  Ho  Ho4  1  0.810548  0.189082  0.189082  1
  Ho  Ho5  1  0.185550  0.813672  0.813672  1
  Ho  Ho6  1  0.185550  0.813672  0.187107  1
  Ho  Ho7  1  0.810548  0.189082  0.811289  1
  Ho  Ho8  1  0.185550  0.187107  0.813672  1
  Ho  Ho9  1  0.810548  0.811289  0.189082  1
  Ho  Ho10  1  0.938602  0.561690  0.561690  1
  Ho  Ho11  1  0.562189  0.938434  0.938434  1
  Ho  Ho12  1  0.562189  0.938434  0.560943  1
  Ho  Ho13  1  0.938602  0.561690  0.938016  1
  Ho  Ho14  1  0.562189  0.560943  0.938434  1
  Ho  Ho15  1  0.938602  0.938016  0.561690  1
  Mg  Mg16  1  0.267642  0.577452  0.577452  1
  In  In17  1  0.582113  0.582659  0.582659  1
  In  In18  1  0.582113  0.582659  0.252568  1
  In  In19  1  0.582113  0.252568  0.582659  1
  Co  Co20  1  0.138670  0.141109  0.141109  1
  Co  Co21  1  0.138670  0.141109  0.579112  1
  Co  Co22  1  0.138670  0.579112  0.141109  1
  Co  Co23  1  0.579674  0.140109  0.140109  1
