# generated using pymatgen
data_Rb6SmDyF12
_symmetry_space_group_name_H-M   'P 1'
_cell_length_a   6.93740881
_cell_length_b   6.67867428
_cell_length_c   11.58593543
_cell_angle_alpha   55.35627269
_cell_angle_beta   90.06976581
_cell_angle_gamma   90.01991408
_symmetry_Int_Tables_number   1
_chemical_formula_structural   Rb6SmDyF12
_chemical_formula_sum   'Rb6 Sm1 Dy1 F12'
_cell_volume   441.63272568
_cell_formula_units_Z   1
loop_
 _symmetry_equiv_pos_site_id
 _symmetry_equiv_pos_as_xyz
  1  'x, y, z'
loop_
 _atom_site_type_symbol
 _atom_site_label
 _atom_site_symmetry_multiplicity
 _atom_site_fract_x
 _atom_site_fract_y
 _atom_site_fract_z
 _atom_site_occupancy
  Rb  Rb0  1  0.500000  0.500000  0.000000  1
  Rb  Rb1  1  0.000000  0.500000  0.500000  1
  Rb  Rb2  1  0.052000  0.732036  0.753596  1
  Rb  Rb3  1  0.948000  0.267964  0.246404  1
  Rb  Rb4  1  0.551428  0.268897  0.745911  1
  Rb  Rb5  1  0.448572  0.731103  0.254089  1
  Sm  Sm6  1  0.000000  0.000000  0.000000  1
  Dy  Dy7  1  0.500000  0.000000  0.500000  1
  F  F8  1  0.762430  0.773126  0.567377  1
  F  F9  1  0.237570  0.226874  0.432623  1
  F  F10  1  0.268601  0.232773  0.931730  1
  F  F11  1  0.731399  0.767227  0.068270  1
  F  F12  1  0.445451  0.893693  0.715211  1
  F  F13  1  0.554549  0.106307  0.284789  1
  F  F14  1  0.943902  0.109108  0.779296  1
  F  F15  1  0.056098  0.890892  0.220704  1
  F  F16  1  0.331756  0.681816  0.548664  1
  F  F17  1  0.668244  0.318184  0.451336  1
  F  F18  1  0.827092  0.325327  0.950722  1
  F  F19  1  0.172908  0.674673  0.049278  1
