# generated using pymatgen
data_Ca3Tm(Si3Pd)2
_symmetry_space_group_name_H-M   'P 1'
_cell_length_a   8.25463200
_cell_length_b   8.25463199
_cell_length_c   8.21374400
_cell_angle_alpha   90.00000000
_cell_angle_beta   90.00000000
_cell_angle_gamma   120.00000004
_symmetry_Int_Tables_number   1
_chemical_formula_structural   Ca3Tm(Si3Pd)2
_chemical_formula_sum   'Ca6 Tm2 Si12 Pd4'
_cell_volume   484.69353551
_cell_formula_units_Z   2
loop_
 _symmetry_equiv_pos_site_id
 _symmetry_equiv_pos_as_xyz
  1  'x, y, z'
loop_
 _atom_site_type_symbol
 _atom_site_label
 _atom_site_symmetry_multiplicity
 _atom_site_fract_x
 _atom_site_fract_y
 _atom_site_fract_z
 _atom_site_occupancy
  Ca  Ca0  1  0.501751  0.003500  0.250000  1
  Ca  Ca1  1  0.498249  0.996500  0.750000  1
  Ca  Ca2  1  0.996500  0.498249  0.250000  1
  Ca  Ca3  1  0.003500  0.501751  0.750000  1
  Ca  Ca4  1  0.501751  0.498249  0.250000  1
  Ca  Ca5  1  0.498249  0.501751  0.750000  1
  Tm  Tm6  1  0.000000  0.000000  0.250000  1
  Tm  Tm7  1  0.000000  0.000000  0.750000  1
  Si  Si8  1  0.163870  0.327737  0.002549  1
  Si  Si9  1  0.836130  0.672263  0.997451  1
  Si  Si10  1  0.672263  0.836130  0.002549  1
  Si  Si11  1  0.836130  0.672263  0.502549  1
  Si  Si12  1  0.327737  0.163870  0.997451  1
  Si  Si13  1  0.163870  0.327737  0.497451  1
  Si  Si14  1  0.163870  0.836130  0.002549  1
  Si  Si15  1  0.327737  0.163870  0.502549  1
  Si  Si16  1  0.836130  0.163870  0.997451  1
  Si  Si17  1  0.672263  0.836130  0.497451  1
  Si  Si18  1  0.836130  0.163870  0.502549  1
  Si  Si19  1  0.163870  0.836130  0.497451  1
  Pd  Pd20  1  0.333333  0.666667  0.002635  1
  Pd  Pd21  1  0.666667  0.333333  0.997365  1
  Pd  Pd22  1  0.666667  0.333333  0.502635  1
  Pd  Pd23  1  0.333333  0.666667  0.497365  1
