# generated using pymatgen
data_Pr7NdC10
_symmetry_space_group_name_H-M   'P 1'
_cell_length_a   3.90487200
_cell_length_b   6.95512213
_cell_length_c   12.56512323
_cell_angle_alpha   89.97800829
_cell_angle_beta   90.00000000
_cell_angle_gamma   90.00000000
_symmetry_Int_Tables_number   1
_chemical_formula_structural   Pr7NdC10
_chemical_formula_sum   'Pr7 Nd1 C10'
_cell_volume   341.25441838
_cell_formula_units_Z   1
loop_
 _symmetry_equiv_pos_site_id
 _symmetry_equiv_pos_as_xyz
  1  'x, y, z'
loop_
 _atom_site_type_symbol
 _atom_site_label
 _atom_site_symmetry_multiplicity
 _atom_site_fract_x
 _atom_site_fract_y
 _atom_site_fract_z
 _atom_site_occupancy
  Pr  Pr0  1  0.000000  0.252396  0.542009  1
  Pr  Pr1  1  0.000000  0.747260  0.458171  1
  Pr  Pr2  1  0.000000  0.753282  0.957915  1
  Pr  Pr3  1  0.000000  0.247493  0.041624  1
  Pr  Pr4  1  0.500000  0.892477  0.196596  1
  Pr  Pr5  1  0.500000  0.607132  0.697215  1
  Pr  Pr6  1  0.500000  0.392435  0.303119  1
  Nd  Nd7  1  0.500000  0.107337  0.803656  1
  C  C8  1  0.500000  0.500215  0.500214  1
  C  C9  1  0.500000  0.000724  0.998857  1
  C  C10  1  0.000000  0.359616  0.737545  1
  C  C11  1  0.000000  0.638819  0.262536  1
  C  C12  1  0.000000  0.863329  0.762847  1
  C  C13  1  0.000000  0.138743  0.237427  1
  C  C14  1  0.000000  0.400386  0.839796  1
  C  C15  1  0.000000  0.597435  0.160338  1
  C  C16  1  0.000000  0.097158  0.339579  1
  C  C17  1  0.000000  0.903763  0.660558  1
