# generated using pymatgen
data_Tb4Er4IrPt3
_symmetry_space_group_name_H-M   'P 1'
_cell_length_a   4.71779000
_cell_length_b   7.15526356
_cell_length_c   8.78890356
_cell_angle_alpha   89.72508893
_cell_angle_beta   90.00000000
_cell_angle_gamma   90.00000000
_symmetry_Int_Tables_number   1
_chemical_formula_structural   Tb4Er4IrPt3
_chemical_formula_sum   'Tb4 Er4 Ir1 Pt3'
_cell_volume   296.68387372
_cell_formula_units_Z   1
loop_
 _symmetry_equiv_pos_site_id
 _symmetry_equiv_pos_as_xyz
  1  'x, y, z'
loop_
 _atom_site_type_symbol
 _atom_site_label
 _atom_site_symmetry_multiplicity
 _atom_site_fract_x
 _atom_site_fract_y
 _atom_site_fract_z
 _atom_site_occupancy
  Tb  Tb0  1  0.250000  0.013814  0.666299  1
  Tb  Tb1  1  0.250000  0.508664  0.828409  1
  Tb  Tb2  1  0.750000  0.995646  0.332698  1
  Tb  Tb3  1  0.750000  0.485532  0.171736  1
  Er  Er4  1  0.250000  0.140651  0.081370  1
  Er  Er5  1  0.250000  0.643596  0.420045  1
  Er  Er6  1  0.750000  0.855877  0.921641  1
  Er  Er7  1  0.750000  0.357909  0.575389  1
  Ir  Ir8  1  0.250000  0.246740  0.408340  1
  Pt  Pt9  1  0.250000  0.741780  0.091897  1
  Pt  Pt10  1  0.750000  0.755558  0.595035  1
  Pt  Pt11  1  0.750000  0.254234  0.907143  1
