# generated using pymatgen
data_Hf2ZrGa3PdPt2
_symmetry_space_group_name_H-M   'P 1'
_cell_length_a   7.18246580
_cell_length_b   7.19261018
_cell_length_c   7.08552600
_cell_angle_alpha   90.00000000
_cell_angle_beta   90.00000000
_cell_angle_gamma   120.13886995
_symmetry_Int_Tables_number   1
_chemical_formula_structural   Hf2ZrGa3PdPt2
_chemical_formula_sum   'Hf4 Zr2 Ga6 Pd2 Pt4'
_cell_volume   316.55806880
_cell_formula_units_Z   2
loop_
 _symmetry_equiv_pos_site_id
 _symmetry_equiv_pos_as_xyz
  1  'x, y, z'
loop_
 _atom_site_type_symbol
 _atom_site_label
 _atom_site_symmetry_multiplicity
 _atom_site_fract_x
 _atom_site_fract_y
 _atom_site_fract_z
 _atom_site_occupancy
  Hf  Hf0  1  0.029551  0.415807  0.750000  1
  Hf  Hf1  1  0.970900  0.389461  0.250000  1
  Hf  Hf2  1  0.388495  0.971461  0.750000  1
  Hf  Hf3  1  0.585567  0.611415  0.750000  1
  Zr  Zr4  1  0.611699  0.584118  0.250000  1
  Zr  Zr5  1  0.415947  0.028475  0.250000  1
  Ga  Ga6  1  0.267940  0.266167  0.500962  1
  Ga  Ga7  1  0.732525  0.998777  0.500531  1
  Ga  Ga8  1  0.999059  0.734652  0.499435  1
  Ga  Ga9  1  0.732525  0.998777  0.999469  1
  Ga  Ga10  1  0.267940  0.266167  0.999038  1
  Ga  Ga11  1  0.999059  0.734652  0.000565  1
  Pd  Pd12  1  0.000694  0.000829  0.750000  1
  Pd  Pd13  1  0.000414  0.004821  0.250000  1
  Pt  Pt14  1  0.329888  0.663994  0.465931  1
  Pt  Pt15  1  0.329888  0.663994  0.034069  1
  Pt  Pt16  1  0.668956  0.333217  0.540405  1
  Pt  Pt17  1  0.668956  0.333217  0.959595  1
