# generated using pymatgen
data_Pr12Si3GeBr12
_symmetry_space_group_name_H-M   'P 1'
_cell_length_a   10.52028189
_cell_length_b   10.54103526
_cell_length_c   10.54103592
_cell_angle_alpha   109.51107537
_cell_angle_beta   109.43135100
_cell_angle_gamma   109.43133276
_symmetry_Int_Tables_number   1
_chemical_formula_structural   Pr12Si3GeBr12
_chemical_formula_sum   'Pr12 Si3 Ge1 Br12'
_cell_volume   900.29641509
_cell_formula_units_Z   1
loop_
 _symmetry_equiv_pos_site_id
 _symmetry_equiv_pos_as_xyz
  1  'x, y, z'
loop_
 _atom_site_type_symbol
 _atom_site_label
 _atom_site_symmetry_multiplicity
 _atom_site_fract_x
 _atom_site_fract_y
 _atom_site_fract_z
 _atom_site_occupancy
  Pr  Pr0  1  0.477487  0.486530  0.240383  1
  Pr  Pr1  1  0.750000  0.238200  0.261800  1
  Pr  Pr2  1  0.750000  0.011909  0.488091  1
  Pr  Pr3  1  0.238091  0.476180  0.488091  1
  Pr  Pr4  1  0.262895  0.753852  0.240383  1
  Pr  Pr5  1  0.022513  0.259617  0.013470  1
  Pr  Pr6  1  0.011800  0.023602  0.261800  1
  Pr  Pr7  1  0.490958  0.753852  0.013470  1
  Pr  Pr8  1  0.488200  0.238200  0.476398  1
  Pr  Pr9  1  0.009042  0.486530  0.746148  1
  Pr  Pr10  1  0.261909  0.011909  0.023820  1
  Pr  Pr11  1  0.237105  0.259617  0.746148  1
  Si  Si12  1  0.250000  0.249725  0.250275  1
  Si  Si13  1  0.500275  0.000550  0.250275  1
  Si  Si14  1  0.999725  0.249725  0.499450  1
  Ge  Ge15  1  0.250000  0.500000  0.000000  1
  Br  Br16  1  0.250000  0.753517  0.746483  1
  Br  Br17  1  0.507554  0.503863  0.754341  1
  Br  Br18  1  0.992446  0.745659  0.996137  1
  Br  Br19  1  0.746786  0.250478  0.754341  1
  Br  Br20  1  0.996483  0.992967  0.746483  1
  Br  Br21  1  0.250000  0.995689  0.504311  1
  Br  Br22  1  0.754311  0.508620  0.504311  1
  Br  Br23  1  0.503691  0.250478  0.996137  1
  Br  Br24  1  0.753214  0.745659  0.249522  1
  Br  Br25  1  0.745689  0.995689  0.991380  1
  Br  Br26  1  0.996309  0.503863  0.249522  1
  Br  Br27  1  0.503517  0.753517  0.507033  1
