# generated using pymatgen
data_Ho2Ag3AuO8
_symmetry_space_group_name_H-M   'P 1'
_cell_length_a   6.52272164
_cell_length_b   6.55573755
_cell_length_c   6.63391276
_cell_angle_alpha   126.52132780
_cell_angle_beta   125.04046562
_cell_angle_gamma   78.72128577
_symmetry_Int_Tables_number   1
_chemical_formula_structural   Ho2Ag3AuO8
_chemical_formula_sum   'Ho2 Ag3 Au1 O8'
_cell_volume   181.99020546
_cell_formula_units_Z   1
loop_
 _symmetry_equiv_pos_site_id
 _symmetry_equiv_pos_as_xyz
  1  'x, y, z'
loop_
 _atom_site_type_symbol
 _atom_site_label
 _atom_site_symmetry_multiplicity
 _atom_site_fract_x
 _atom_site_fract_y
 _atom_site_fract_z
 _atom_site_occupancy
  Ho  Ho0  1  0.997802  0.002662  0.000015  1
  Ho  Ho1  1  0.752198  0.247338  0.499985  1
  Ag  Ag2  1  0.875000  0.625000  0.250000  1
  Ag  Ag3  1  0.375000  0.125000  0.750000  1
  Ag  Ag4  1  0.375000  0.625000  0.250000  1
  Au  Au5  1  0.375000  0.625000  0.750000  1
  O  O6  1  0.387145  0.244261  0.510361  1
  O  O7  1  0.020562  0.369707  0.007366  1
  O  O8  1  0.988202  0.956682  0.332635  1
  O  O9  1  0.124465  0.595364  0.827330  1
  O  O10  1  0.625535  0.654636  0.672670  1
  O  O11  1  0.761798  0.293318  0.167365  1
  O  O12  1  0.729438  0.880293  0.492634  1
  O  O13  1  0.362855  0.005739  0.989639  1
