# generated using pymatgen
data_Nb2Te8PdPt2
_symmetry_space_group_name_H-M   'P 1'
_cell_length_a   3.86649000
_cell_length_b   11.49637100
_cell_length_c   16.32848400
_cell_angle_alpha   90.00000000
_cell_angle_beta   90.00000000
_cell_angle_gamma   90.00000000
_symmetry_Int_Tables_number   1
_chemical_formula_structural   Nb2Te8PdPt2
_chemical_formula_sum   'Nb4 Te16 Pd2 Pt4'
_cell_volume   725.81096817
_cell_formula_units_Z   2
loop_
 _symmetry_equiv_pos_site_id
 _symmetry_equiv_pos_as_xyz
  1  'x, y, z'
loop_
 _atom_site_type_symbol
 _atom_site_label
 _atom_site_symmetry_multiplicity
 _atom_site_fract_x
 _atom_site_fract_y
 _atom_site_fract_z
 _atom_site_occupancy
  Nb  Nb0  1  0.500000  0.786532  0.878197  1
  Nb  Nb1  1  0.500000  0.213468  0.121803  1
  Nb  Nb2  1  0.500000  0.286532  0.621803  1
  Nb  Nb3  1  0.500000  0.713468  0.378197  1
  Te  Te4  1  0.000000  0.770066  0.005702  1
  Te  Te5  1  0.000000  0.229934  0.994298  1
  Te  Te6  1  0.000000  0.270066  0.494298  1
  Te  Te7  1  0.000000  0.729934  0.505702  1
  Te  Te8  1  0.000000  0.960625  0.841129  1
  Te  Te9  1  0.000000  0.039375  0.158871  1
  Te  Te10  1  0.000000  0.460625  0.658871  1
  Te  Te11  1  0.000000  0.539375  0.341129  1
  Te  Te12  1  0.500000  0.748574  0.710850  1
  Te  Te13  1  0.500000  0.251426  0.289150  1
  Te  Te14  1  0.500000  0.248574  0.789150  1
  Te  Te15  1  0.500000  0.751426  0.210850  1
  Te  Te16  1  0.500000  0.543466  0.879800  1
  Te  Te17  1  0.500000  0.456534  0.120200  1
  Te  Te18  1  0.500000  0.043466  0.620200  1
  Te  Te19  1  0.500000  0.956534  0.379800  1
  Pd  Pd20  1  0.000000  0.000000  0.000000  1
  Pd  Pd21  1  0.000000  0.500000  0.500000  1
  Pt  Pt22  1  0.000000  0.624765  0.783054  1
  Pt  Pt23  1  0.000000  0.375235  0.216946  1
  Pt  Pt24  1  0.000000  0.124765  0.716946  1
  Pt  Pt25  1  0.000000  0.875235  0.283054  1
