# generated using pymatgen
data_Dy3Mg3Cu2Ir
_symmetry_space_group_name_H-M   'P 1'
_cell_length_a   7.59081900
_cell_length_b   7.59081831
_cell_length_c   3.83128600
_cell_angle_alpha   90.00000000
_cell_angle_beta   90.00000000
_cell_angle_gamma   120.00000738
_symmetry_Int_Tables_number   1
_chemical_formula_structural   Dy3Mg3Cu2Ir
_chemical_formula_sum   'Dy3 Mg3 Cu2 Ir1'
_cell_volume   191.18437882
_cell_formula_units_Z   1
loop_
 _symmetry_equiv_pos_site_id
 _symmetry_equiv_pos_as_xyz
  1  'x, y, z'
loop_
 _atom_site_type_symbol
 _atom_site_label
 _atom_site_symmetry_multiplicity
 _atom_site_fract_x
 _atom_site_fract_y
 _atom_site_fract_z
 _atom_site_occupancy
  Dy  Dy0  1  0.403985  0.980634  0.500000  1
  Dy  Dy1  1  0.019366  0.423353  0.500000  1
  Dy  Dy2  1  0.576647  0.596015  0.500000  1
  Mg  Mg3  1  0.754299  0.003273  0.000000  1
  Mg  Mg4  1  0.996727  0.751027  0.000000  1
  Mg  Mg5  1  0.248973  0.245701  0.000000  1
  Cu  Cu6  1  0.000000  0.000000  0.500000  1
  Cu  Cu7  1  0.666667  0.333333  0.000000  1
  Ir  Ir8  1  0.333333  0.666667  0.000000  1
