# generated using pymatgen
data_Tm2ZnGa7Ni2
_symmetry_space_group_name_H-M   'P 1'
_cell_length_a   7.80104851
_cell_length_b   7.80105038
_cell_length_c   6.56953921
_cell_angle_alpha   90.16526735
_cell_angle_beta   89.83473222
_cell_angle_gamma   149.57503361
_symmetry_Int_Tables_number   1
_chemical_formula_structural   Tm2ZnGa7Ni2
_chemical_formula_sum   'Tm2 Zn1 Ga7 Ni2'
_cell_volume   202.46078655
_cell_formula_units_Z   1
loop_
 _symmetry_equiv_pos_site_id
 _symmetry_equiv_pos_as_xyz
  1  'x, y, z'
loop_
 _atom_site_type_symbol
 _atom_site_label
 _atom_site_symmetry_multiplicity
 _atom_site_fract_x
 _atom_site_fract_y
 _atom_site_fract_z
 _atom_site_occupancy
  Tm  Tm0  1  0.875502  0.124498  0.746570  1
  Tm  Tm1  1  0.124498  0.875502  0.253430  1
  Zn  Zn2  1  0.500000  0.500000  0.000000  1
  Ga  Ga3  1  0.500000  0.500000  0.500000  1
  Ga  Ga4  1  0.067432  0.932568  0.757123  1
  Ga  Ga5  1  0.932568  0.067432  0.242877  1
  Ga  Ga6  1  0.682161  0.317839  0.951465  1
  Ga  Ga7  1  0.317839  0.682161  0.048535  1
  Ga  Ga8  1  0.684105  0.315895  0.553367  1
  Ga  Ga9  1  0.315895  0.684105  0.446633  1
  Ni  Ni10  1  0.224262  0.775738  0.749109  1
  Ni  Ni11  1  0.775738  0.224262  0.250891  1
