# generated using pymatgen
data_Eu4Zn2CuRh
_symmetry_space_group_name_H-M   'P 1'
_cell_length_a   4.37578000
_cell_length_b   6.07864408
_cell_length_c   8.05247300
_cell_angle_alpha   91.15865262
_cell_angle_beta   90.00000000
_cell_angle_gamma   90.00000000
_symmetry_Int_Tables_number   1
_chemical_formula_structural   Eu4Zn2CuRh
_chemical_formula_sum   'Eu4 Zn2 Cu1 Rh1'
_cell_volume   214.14239967
_cell_formula_units_Z   1
loop_
 _symmetry_equiv_pos_site_id
 _symmetry_equiv_pos_as_xyz
  1  'x, y, z'
loop_
 _atom_site_type_symbol
 _atom_site_label
 _atom_site_symmetry_multiplicity
 _atom_site_fract_x
 _atom_site_fract_y
 _atom_site_fract_z
 _atom_site_occupancy
  Eu  Eu0  1  0.250000  0.374763  0.676579  1
  Eu  Eu1  1  0.250000  0.118497  0.181079  1
  Eu  Eu2  1  0.750000  0.630847  0.332670  1
  Eu  Eu3  1  0.750000  0.871469  0.808491  1
  Zn  Zn4  1  0.250000  0.602672  0.032006  1
  Zn  Zn5  1  0.750000  0.110572  0.468421  1
  Cu  Cu6  1  0.750000  0.399879  0.970696  1
  Rh  Rh7  1  0.250000  0.891299  0.530058  1
