# generated using pymatgen
data_HoMgCo4Sn5
_symmetry_space_group_name_H-M   'P 1'
_cell_length_a   6.81803578
_cell_length_b   6.65173542
_cell_length_c   6.66026727
_cell_angle_alpha   120.40454231
_cell_angle_beta   121.22645602
_cell_angle_gamma   89.24522912
_symmetry_Int_Tables_number   1
_chemical_formula_structural   HoMgCo4Sn5
_chemical_formula_sum   'Ho1 Mg1 Co4 Sn5'
_cell_volume   209.67011804
_cell_formula_units_Z   1
loop_
 _symmetry_equiv_pos_site_id
 _symmetry_equiv_pos_as_xyz
  1  'x, y, z'
loop_
 _atom_site_type_symbol
 _atom_site_label
 _atom_site_symmetry_multiplicity
 _atom_site_fract_x
 _atom_site_fract_y
 _atom_site_fract_z
 _atom_site_occupancy
  Ho  Ho0  1  0.002939  0.997943  0.000000  1
  Mg  Mg1  1  0.890876  0.526149  0.000000  1
  Co  Co2  1  0.588619  0.257189  0.000000  1
  Co  Co3  1  0.269066  0.603053  0.000000  1
  Co  Co4  1  0.743419  0.748691  0.351391  1
  Co  Co5  1  0.392028  0.397300  0.648610  1
  Sn  Sn6  1  0.544375  0.879697  0.000000  1
  Sn  Sn7  1  0.462371  0.467570  0.349800  1
  Sn  Sn8  1  0.498674  0.004123  0.503611  1
  Sn  Sn9  1  0.995063  0.500515  0.496391  1
  Sn  Sn10  1  0.112571  0.117770  0.650201  1
