# generated using pymatgen
data_La5PrZn4Pt13
_symmetry_space_group_name_H-M   'P 1'
_cell_length_a   8.45941681
_cell_length_b   8.45941739
_cell_length_c   8.45941776
_cell_angle_alpha   109.53201525
_cell_angle_beta   109.53201223
_cell_angle_gamma   109.34970340
_symmetry_Int_Tables_number   1
_chemical_formula_structural   La5PrZn4Pt13
_chemical_formula_sum   'La5 Pr1 Zn4 Pt13'
_cell_volume   466.01295612
_cell_formula_units_Z   1
loop_
 _symmetry_equiv_pos_site_id
 _symmetry_equiv_pos_as_xyz
  1  'x, y, z'
loop_
 _atom_site_type_symbol
 _atom_site_label
 _atom_site_symmetry_multiplicity
 _atom_site_fract_x
 _atom_site_fract_y
 _atom_site_fract_z
 _atom_site_occupancy
  La  La0  1  0.302029  0.999855  0.302174  1
  La  La1  1  0.999855  0.302029  0.302174  1
  La  La2  1  0.302762  0.302762  0.000000  1
  La  La3  1  0.697681  0.999855  0.697826  1
  La  La4  1  0.999855  0.697681  0.697826  1
  Pr  Pr5  1  0.697564  0.697564  0.000000  1
  Zn  Zn6  1  0.999870  0.999870  0.499581  1
  Zn  Zn7  1  0.999870  0.500288  0.000000  1
  Zn  Zn8  1  0.500288  0.999870  0.000000  1
  Zn  Zn9  1  0.500288  0.500288  0.500419  1
  Pt  Pt10  1  0.328805  0.328805  0.657526  1
  Pt  Pt11  1  0.671536  0.999986  0.328451  1
  Pt  Pt12  1  0.999986  0.671536  0.328451  1
  Pt  Pt13  1  0.671280  0.328805  0.000000  1
  Pt  Pt14  1  0.328441  0.657072  0.328631  1
  Pt  Pt15  1  0.999810  0.328441  0.671369  1
  Pt  Pt16  1  0.328805  0.671280  0.000000  1
  Pt  Pt17  1  0.328441  0.999810  0.671369  1
  Pt  Pt18  1  0.657072  0.328441  0.328631  1
  Pt  Pt19  1  0.671280  0.671280  0.342474  1
  Pt  Pt20  1  0.671536  0.343084  0.671549  1
  Pt  Pt21  1  0.343084  0.671536  0.671549  1
  Pt  Pt22  1  0.999863  0.999863  0.000000  1
