# generated using pymatgen
data_TmLu3B16(IrRu)2
_symmetry_space_group_name_H-M   'P 1'
_cell_length_a   3.53158700
_cell_length_b   5.92379708
_cell_length_c   11.48005623
_cell_angle_alpha   90.10882965
_cell_angle_beta   90.00000000
_cell_angle_gamma   90.00000000
_symmetry_Int_Tables_number   1
_chemical_formula_structural   TmLu3B16(IrRu)2
_chemical_formula_sum   'Tm1 Lu3 B16 Ir2 Ru2'
_cell_volume   240.16698987
_cell_formula_units_Z   1
loop_
 _symmetry_equiv_pos_site_id
 _symmetry_equiv_pos_as_xyz
  1  'x, y, z'
loop_
 _atom_site_type_symbol
 _atom_site_label
 _atom_site_symmetry_multiplicity
 _atom_site_fract_x
 _atom_site_fract_y
 _atom_site_fract_z
 _atom_site_occupancy
  Tm  Tm0  1  0.500000  0.368117  0.651336  1
  Lu  Lu1  1  0.500000  0.130126  0.147161  1
  Lu  Lu2  1  0.500000  0.869877  0.852872  1
  Lu  Lu3  1  0.500000  0.631871  0.348580  1
  B  B4  1  0.000000  0.475432  0.192206  1
  B  B5  1  0.000000  0.524743  0.808068  1
  B  B6  1  0.000000  0.976445  0.305682  1
  B  B7  1  0.000000  0.023158  0.694325  1
  B  B8  1  0.000000  0.291876  0.311044  1
  B  B9  1  0.000000  0.708649  0.688988  1
  B  B10  1  0.000000  0.791780  0.186272  1
  B  B11  1  0.000000  0.208166  0.813945  1
  B  B12  1  0.000000  0.364288  0.471108  1
  B  B13  1  0.000000  0.635824  0.528538  1
  B  B14  1  0.000000  0.865370  0.030376  1
  B  B15  1  0.000000  0.134586  0.969654  1
  B  B16  1  0.000000  0.386886  0.046878  1
  B  B17  1  0.000000  0.613184  0.953213  1
  B  B18  1  0.000000  0.886626  0.451658  1
  B  B19  1  0.000000  0.112727  0.547978  1
  Ir  Ir20  1  0.500000  0.146331  0.402989  1
  Ir  Ir21  1  0.500000  0.853927  0.596714  1
  Ru  Ru22  1  0.500000  0.641598  0.093782  1
  Ru  Ru23  1  0.500000  0.358414  0.906633  1
