# generated using pymatgen
data_La4Zn4Pd2RuRh
_symmetry_space_group_name_H-M   'P 1'
_cell_length_a   4.08184700
_cell_length_b   7.55920735
_cell_length_c   16.79861644
_cell_angle_alpha   89.88507698
_cell_angle_beta   90.00000000
_cell_angle_gamma   90.00000000
_symmetry_Int_Tables_number   1
_chemical_formula_structural   La4Zn4Pd2RuRh
_chemical_formula_sum   'La8 Zn8 Pd4 Ru2 Rh2'
_cell_volume   518.32913474
_cell_formula_units_Z   2
loop_
 _symmetry_equiv_pos_site_id
 _symmetry_equiv_pos_as_xyz
  1  'x, y, z'
loop_
 _atom_site_type_symbol
 _atom_site_label
 _atom_site_symmetry_multiplicity
 _atom_site_fract_x
 _atom_site_fract_y
 _atom_site_fract_z
 _atom_site_occupancy
  La  La0  1  0.750000  0.333465  0.438956  1
  La  La1  1  0.250000  0.041657  0.717788  1
  La  La2  1  0.250000  0.555894  0.778743  1
  La  La3  1  0.250000  0.679114  0.555843  1
  La  La4  1  0.750000  0.830834  0.065688  1
  La  La5  1  0.250000  0.176001  0.948074  1
  La  La6  1  0.750000  0.450729  0.211366  1
  La  La7  1  0.750000  0.937561  0.286056  1
  Zn  Zn8  1  0.250000  0.123200  0.149307  1
  Zn  Zn9  1  0.250000  0.995650  0.438392  1
  Zn  Zn10  1  0.750000  0.871728  0.849987  1
  Zn  Zn11  1  0.750000  0.998688  0.556714  1
  Zn  Zn12  1  0.250000  0.498490  0.061082  1
  Zn  Zn13  1  0.750000  0.377964  0.649180  1
  Zn  Zn14  1  0.750000  0.501026  0.942948  1
  Zn  Zn15  1  0.250000  0.625170  0.350523  1
  Pd  Pd16  1  0.750000  0.256302  0.812642  1
  Pd  Pd17  1  0.250000  0.243395  0.314392  1
  Pd  Pd18  1  0.250000  0.741171  0.933966  1
  Pd  Pd19  1  0.250000  0.240948  0.566683  1
  Ru  Ru20  1  0.750000  0.758945  0.433150  1
  Ru  Ru21  1  0.750000  0.260996  0.066384  1
  Rh  Rh22  1  0.250000  0.746614  0.183640  1
  Rh  Rh23  1  0.750000  0.754457  0.688499  1
