# generated using pymatgen
data_NdTm19Rh12
_symmetry_space_group_name_H-M   'P 1'
_cell_length_a   10.71562217
_cell_length_b   10.71019612
_cell_length_c   6.24687600
_cell_angle_alpha   90.04370663
_cell_angle_beta   89.98987824
_cell_angle_gamma   89.99885220
_symmetry_Int_Tables_number   1
_chemical_formula_structural   NdTm19Rh12
_chemical_formula_sum   'Nd1 Tm19 Rh12'
_cell_volume   716.93134317
_cell_formula_units_Z   1
loop_
 _symmetry_equiv_pos_site_id
 _symmetry_equiv_pos_as_xyz
  1  'x, y, z'
loop_
 _atom_site_type_symbol
 _atom_site_label
 _atom_site_symmetry_multiplicity
 _atom_site_fract_x
 _atom_site_fract_y
 _atom_site_fract_z
 _atom_site_occupancy
  Nd  Nd0  1  0.786588  0.590370  0.626264  1
  Tm  Tm1  1  0.089263  0.289762  0.123636  1
  Tm  Tm2  1  0.792072  0.409922  0.122309  1
  Tm  Tm3  1  0.210446  0.587652  0.123234  1
  Tm  Tm4  1  0.914528  0.709546  0.121686  1
  Tm  Tm5  1  0.412475  0.790487  0.378507  1
  Tm  Tm6  1  0.587624  0.209439  0.375309  1
  Tm  Tm7  1  0.291347  0.087434  0.377752  1
  Tm  Tm8  1  0.709476  0.912911  0.375772  1
  Tm  Tm9  1  0.411906  0.209357  0.877393  1
  Tm  Tm10  1  0.709052  0.087633  0.877261  1
  Tm  Tm11  1  0.290143  0.912642  0.876716  1
  Tm  Tm12  1  0.584269  0.793270  0.879131  1
  Tm  Tm13  1  0.090103  0.709108  0.621986  1
  Tm  Tm14  1  0.913307  0.289654  0.623408  1
  Tm  Tm15  1  0.209783  0.411300  0.623847  1
  Tm  Tm16  1  0.000859  0.001292  0.999203  1
  Tm  Tm17  1  0.499855  0.499497  0.999991  1
  Tm  Tm18  1  0.497175  0.498536  0.499238  1
  Tm  Tm19  1  0.000727  0.999722  0.498172  1
  Rh  Rh20  1  0.154844  0.845659  0.249570  1
  Rh  Rh21  1  0.344582  0.345542  0.249486  1
  Rh  Rh22  1  0.651886  0.655927  0.242113  1
  Rh  Rh23  1  0.845330  0.155089  0.250412  1
  Rh  Rh24  1  0.345426  0.654216  0.749472  1
  Rh  Rh25  1  0.154967  0.154367  0.749377  1
  Rh  Rh26  1  0.845095  0.852106  0.754211  1
  Rh  Rh27  1  0.650999  0.340190  0.753543  1
  Rh  Rh28  1  0.003670  0.497786  0.373086  1
  Rh  Rh29  1  0.499082  0.000092  0.125628  1
  Rh  Rh30  1  0.499481  0.001324  0.624537  1
  Rh  Rh31  1  0.003636  0.498170  0.877749  1
