# generated using pymatgen
data_Y16InAg3Rh4
_symmetry_space_group_name_H-M   'P 1'
_cell_length_a   9.59374406
_cell_length_b   9.63065121
_cell_length_c   9.63065000
_cell_angle_alpha   60.00000414
_cell_angle_beta   59.87266458
_cell_angle_gamma   59.87266215
_symmetry_Int_Tables_number   1
_chemical_formula_structural   Y16InAg3Rh4
_chemical_formula_sum   'Y16 In1 Ag3 Rh4'
_cell_volume   627.98002216
_cell_formula_units_Z   1
loop_
 _symmetry_equiv_pos_site_id
 _symmetry_equiv_pos_as_xyz
  1  'x, y, z'
loop_
 _atom_site_type_symbol
 _atom_site_label
 _atom_site_symmetry_multiplicity
 _atom_site_fract_x
 _atom_site_fract_y
 _atom_site_fract_z
 _atom_site_occupancy
  Y  Y0  1  0.601543  0.602698  0.602698  1
  Y  Y1  1  0.601543  0.602698  0.193062  1
  Y  Y2  1  0.601543  0.193062  0.602698  1
  Y  Y3  1  0.192753  0.602416  0.602416  1
  Y  Y4  1  0.063473  0.437201  0.437201  1
  Y  Y5  1  0.439034  0.060504  0.060504  1
  Y  Y6  1  0.439034  0.060504  0.439960  1
  Y  Y7  1  0.063473  0.437201  0.062125  1
  Y  Y8  1  0.439034  0.439960  0.060504  1
  Y  Y9  1  0.063473  0.062125  0.437201  1
  Y  Y10  1  0.181073  0.814967  0.814967  1
  Y  Y11  1  0.812259  0.186224  0.186224  1
  Y  Y12  1  0.812259  0.186224  0.815292  1
  Y  Y13  1  0.181073  0.814967  0.188991  1
  Y  Y14  1  0.812259  0.815292  0.186224  1
  Y  Y15  1  0.181073  0.188991  0.814967  1
  In  In16  1  0.513296  0.828902  0.828902  1
  Ag  Ag17  1  0.833616  0.832192  0.832192  1
  Ag  Ag18  1  0.833616  0.832192  0.502000  1
  Ag  Ag19  1  0.833616  0.502000  0.832192  1
  Rh  Rh20  1  0.393876  0.392980  0.392980  1
  Rh  Rh21  1  0.393876  0.392980  0.820163  1
  Rh  Rh22  1  0.393876  0.820163  0.392980  1
  Rh  Rh23  1  0.819326  0.393558  0.393558  1
