# generated using pymatgen
data_Y4Tm(In2Pt)2
_symmetry_space_group_name_H-M   'P 1'
_cell_length_a   3.61741600
_cell_length_b   8.17567854
_cell_length_c   18.31022794
_cell_angle_alpha   90.20786915
_cell_angle_beta   90.00000000
_cell_angle_gamma   90.00000000
_symmetry_Int_Tables_number   1
_chemical_formula_structural   Y4Tm(In2Pt)2
_chemical_formula_sum   'Y8 Tm2 In8 Pt4'
_cell_volume   541.51832099
_cell_formula_units_Z   2
loop_
 _symmetry_equiv_pos_site_id
 _symmetry_equiv_pos_as_xyz
  1  'x, y, z'
loop_
 _atom_site_type_symbol
 _atom_site_label
 _atom_site_symmetry_multiplicity
 _atom_site_fract_x
 _atom_site_fract_y
 _atom_site_fract_z
 _atom_site_occupancy
  Y  Y0  1  0.000000  0.116874  0.414950  1
  Y  Y1  1  0.000000  0.883126  0.585050  1
  Y  Y2  1  0.000000  0.382571  0.914908  1
  Y  Y3  1  0.000000  0.617429  0.085092  1
  Y  Y4  1  0.000000  0.242880  0.220269  1
  Y  Y5  1  0.000000  0.757120  0.779731  1
  Y  Y6  1  0.000000  0.000000  0.000000  1
  Y  Y7  1  0.000000  0.500000  0.500000  1
  Tm  Tm8  1  0.000000  0.256224  0.720971  1
  Tm  Tm9  1  0.000000  0.743776  0.279029  1
  In  In10  1  0.500000  0.425125  0.350958  1
  In  In11  1  0.500000  0.574875  0.649042  1
  In  In12  1  0.500000  0.076695  0.850802  1
  In  In13  1  0.500000  0.923305  0.149198  1
  In  In14  1  0.500000  0.292603  0.067110  1
  In  In15  1  0.500000  0.707397  0.932890  1
  In  In16  1  0.500000  0.208116  0.567719  1
  In  In17  1  0.500000  0.791884  0.432281  1
  Pt  Pt18  1  0.500000  0.020036  0.302782  1
  Pt  Pt19  1  0.500000  0.979964  0.697218  1
  Pt  Pt20  1  0.500000  0.472241  0.801840  1
  Pt  Pt21  1  0.500000  0.527759  0.198160  1
