# generated using pymatgen
data_K5Eu2F13
_symmetry_space_group_name_H-M   'P 1'
_cell_length_a   7.26345922
_cell_length_b   7.26345897
_cell_length_c   9.40573900
_cell_angle_alpha   82.99260066
_cell_angle_beta   82.99259295
_cell_angle_gamma   51.61062801
_symmetry_Int_Tables_number   1
_chemical_formula_structural   K5Eu2F13
_chemical_formula_sum   'K5 Eu2 F13'
_cell_volume   385.35889099
_cell_formula_units_Z   1
loop_
 _symmetry_equiv_pos_site_id
 _symmetry_equiv_pos_as_xyz
  1  'x, y, z'
loop_
 _atom_site_type_symbol
 _atom_site_label
 _atom_site_symmetry_multiplicity
 _atom_site_fract_x
 _atom_site_fract_y
 _atom_site_fract_z
 _atom_site_occupancy
  K  K0  1  0.220881  0.220881  0.851384  1
  K  K1  1  0.779119  0.779119  0.148616  1
  K  K2  1  0.500000  0.500000  0.000000  1
  K  K3  1  0.656330  0.656330  0.574191  1
  K  K4  1  0.343670  0.343670  0.425809  1
  Eu  Eu5  1  0.926752  0.926752  0.732985  1
  Eu  Eu6  1  0.073248  0.073248  0.267015  1
  F  F7  1  0.043458  0.593315  0.645834  1
  F  F8  1  0.593315  0.043458  0.645834  1
  F  F9  1  0.956542  0.406685  0.354166  1
  F  F10  1  0.406685  0.956542  0.354166  1
  F  F11  1  0.647851  0.081334  0.919479  1
  F  F12  1  0.081334  0.647851  0.919479  1
  F  F13  1  0.352149  0.918666  0.080521  1
  F  F14  1  0.918666  0.352149  0.080521  1
  F  F15  1  0.280845  0.823379  0.757946  1
  F  F16  1  0.823379  0.280845  0.757946  1
  F  F17  1  0.719155  0.176621  0.242054  1
  F  F18  1  0.176621  0.719155  0.242054  1
  F  F19  1  0.000000  0.000000  0.500000  1
