# generated using pymatgen
data_Mg4Si4RuRh3
_symmetry_space_group_name_H-M   'P 1'
_cell_length_a   4.04304200
_cell_length_b   6.62825643
_cell_length_c   7.01944273
_cell_angle_alpha   90.09965705
_cell_angle_beta   90.00000000
_cell_angle_gamma   90.00000000
_symmetry_Int_Tables_number   1
_chemical_formula_structural   Mg4Si4RuRh3
_chemical_formula_sum   'Mg4 Si4 Ru1 Rh3'
_cell_volume   188.10898205
_cell_formula_units_Z   1
loop_
 _symmetry_equiv_pos_site_id
 _symmetry_equiv_pos_as_xyz
  1  'x, y, z'
loop_
 _atom_site_type_symbol
 _atom_site_label
 _atom_site_symmetry_multiplicity
 _atom_site_fract_x
 _atom_site_fract_y
 _atom_site_fract_z
 _atom_site_occupancy
  Mg  Mg0  1  0.250000  0.007140  0.827202  1
  Mg  Mg1  1  0.750000  0.991806  0.171717  1
  Mg  Mg2  1  0.250000  0.509992  0.673615  1
  Mg  Mg3  1  0.750000  0.491736  0.327530  1
  Si  Si4  1  0.250000  0.297689  0.125968  1
  Si  Si5  1  0.750000  0.704952  0.877163  1
  Si  Si6  1  0.250000  0.794684  0.370604  1
  Si  Si7  1  0.750000  0.205196  0.625740  1
  Ru  Ru8  1  0.250000  0.655202  0.053403  1
  Rh  Rh9  1  0.750000  0.843701  0.552310  1
  Rh  Rh10  1  0.250000  0.155802  0.448088  1
  Rh  Rh11  1  0.750000  0.342100  0.946659  1
