# generated using pymatgen
data_Pr4B4Ir7Rh3
_symmetry_space_group_name_H-M   'P 1'
_cell_length_a   11.13872356
_cell_length_b   11.13872407
_cell_length_c   11.13872402
_cell_angle_alpha   28.85707090
_cell_angle_beta   28.85707700
_cell_angle_gamma   28.85707612
_symmetry_Int_Tables_number   1
_chemical_formula_structural   Pr4B4Ir7Rh3
_chemical_formula_sum   'Pr4 B4 Ir7 Rh3'
_cell_volume   284.66401425
_cell_formula_units_Z   1
loop_
 _symmetry_equiv_pos_site_id
 _symmetry_equiv_pos_as_xyz
  1  'x, y, z'
loop_
 _atom_site_type_symbol
 _atom_site_label
 _atom_site_symmetry_multiplicity
 _atom_site_fract_x
 _atom_site_fract_y
 _atom_site_fract_z
 _atom_site_occupancy
  Pr  Pr0  1  0.151758  0.151758  0.151758  1
  Pr  Pr1  1  0.950164  0.950164  0.950164  1
  Pr  Pr2  1  0.848242  0.848242  0.848242  1
  Pr  Pr3  1  0.049836  0.049836  0.049836  1
  B  B4  1  0.617874  0.617874  0.617874  1
  B  B5  1  0.716829  0.716829  0.716829  1
  B  B6  1  0.382126  0.382126  0.382126  1
  B  B7  1  0.283171  0.283171  0.283171  1
  Ir  Ir8  1  0.408862  0.898661  0.408862  1
  Ir  Ir9  1  0.898661  0.408862  0.408862  1
  Ir  Ir10  1  0.500000  0.500000  0.500000  1
  Ir  Ir11  1  0.591138  0.101339  0.591138  1
  Ir  Ir12  1  0.591138  0.591138  0.101339  1
  Ir  Ir13  1  0.101339  0.591138  0.591138  1
  Ir  Ir14  1  0.408862  0.408862  0.898661  1
  Rh  Rh15  1  0.500000  0.500000  0.000000  1
  Rh  Rh16  1  0.500000  0.000000  0.500000  1
  Rh  Rh17  1  0.000000  0.500000  0.500000  1
