# generated using pymatgen
data_Gd4Pd4PbAu
_symmetry_space_group_name_H-M   'P 1'
_cell_length_a   7.68887300
_cell_length_b   7.68887300
_cell_length_c   3.80779800
_cell_angle_alpha   90.00000000
_cell_angle_beta   90.00000000
_cell_angle_gamma   90.00000000
_symmetry_Int_Tables_number   1
_chemical_formula_structural   Gd4Pd4PbAu
_chemical_formula_sum   'Gd4 Pd4 Pb1 Au1'
_cell_volume   225.11232659
_cell_formula_units_Z   1
loop_
 _symmetry_equiv_pos_site_id
 _symmetry_equiv_pos_as_xyz
  1  'x, y, z'
loop_
 _atom_site_type_symbol
 _atom_site_label
 _atom_site_symmetry_multiplicity
 _atom_site_fract_x
 _atom_site_fract_y
 _atom_site_fract_z
 _atom_site_occupancy
  Gd  Gd0  1  0.333387  0.816911  0.500000  1
  Gd  Gd1  1  0.666613  0.183089  0.500000  1
  Gd  Gd2  1  0.816911  0.666613  0.500000  1
  Gd  Gd3  1  0.183089  0.333387  0.500000  1
  Pd  Pd4  1  0.870805  0.374780  0.000000  1
  Pd  Pd5  1  0.625220  0.870805  0.000000  1
  Pd  Pd6  1  0.374780  0.129195  0.000000  1
  Pd  Pd7  1  0.129195  0.625220  0.000000  1
  Pb  Pb8  1  0.000000  0.000000  0.000000  1
  Au  Au9  1  0.500000  0.500000  0.000000  1
