# generated using pymatgen
data_Er3Lu7InPb5
_symmetry_space_group_name_H-M   'P 1'
_cell_length_a   6.52880004
_cell_length_b   8.88018648
_cell_length_c   8.90930619
_cell_angle_alpha   119.89793116
_cell_angle_beta   90.00356944
_cell_angle_gamma   89.99357233
_symmetry_Int_Tables_number   1
_chemical_formula_structural   Er3Lu7InPb5
_chemical_formula_sum   'Er3 Lu7 In1 Pb5'
_cell_volume   447.79137762
_cell_formula_units_Z   1
loop_
 _symmetry_equiv_pos_site_id
 _symmetry_equiv_pos_as_xyz
  1  'x, y, z'
loop_
 _atom_site_type_symbol
 _atom_site_label
 _atom_site_symmetry_multiplicity
 _atom_site_fract_x
 _atom_site_fract_y
 _atom_site_fract_z
 _atom_site_occupancy
  Er  Er0  1  0.250085  0.765746  0.999951  1
  Er  Er1  1  0.249987  0.236993  0.235606  1
  Er  Er2  1  0.250002  0.001249  0.764300  1
  Lu  Lu3  1  0.750155  0.235689  0.000100  1
  Lu  Lu4  1  0.749999  0.761790  0.768190  1
  Lu  Lu5  1  0.749999  0.993513  0.231798  1
  Lu  Lu6  1  0.502244  0.337190  0.670881  1
  Lu  Lu7  1  0.502261  0.666289  0.329160  1
  Lu  Lu8  1  0.997713  0.665955  0.328731  1
  Lu  Lu9  1  0.997731  0.337211  0.671287  1
  In  In10  1  0.749795  0.601559  0.999925  1
  Pb  Pb11  1  0.750129  0.392209  0.393659  1
  Pb  Pb12  1  0.750014  0.998693  0.606490  1
  Pb  Pb13  1  0.250473  0.398347  0.000001  1
  Pb  Pb14  1  0.249666  0.605032  0.602625  1
  Pb  Pb15  1  0.249747  0.002533  0.397293  1
