# generated using pymatgen
data_TbNd9B2Cl15
_symmetry_space_group_name_H-M   'P 1'
_cell_length_a   9.01350773
_cell_length_b   9.85486198
_cell_length_c   10.64487306
_cell_angle_alpha   90.74055929
_cell_angle_beta   114.55795467
_cell_angle_gamma   111.14650734
_symmetry_Int_Tables_number   1
_chemical_formula_structural   TbNd9B2Cl15
_chemical_formula_sum   'Tb1 Nd9 B2 Cl15'
_cell_volume   787.18409114
_cell_formula_units_Z   1
loop_
 _symmetry_equiv_pos_site_id
 _symmetry_equiv_pos_as_xyz
  1  'x, y, z'
loop_
 _atom_site_type_symbol
 _atom_site_label
 _atom_site_symmetry_multiplicity
 _atom_site_fract_x
 _atom_site_fract_y
 _atom_site_fract_z
 _atom_site_occupancy
  Tb  Tb0  1  0.274333  0.923976  0.952106  1
  Nd  Nd1  1  0.809611  0.418309  0.277989  1
  Nd  Nd2  1  0.187553  0.581436  0.720405  1
  Nd  Nd3  1  0.680658  0.743595  0.818607  1
  Nd  Nd4  1  0.317617  0.254893  0.181493  1
  Nd  Nd5  1  0.527359  0.700542  0.102324  1
  Nd  Nd6  1  0.472177  0.299229  0.897426  1
  Nd  Nd7  1  0.589528  0.036187  0.333072  1
  Nd  Nd8  1  0.405813  0.961889  0.665454  1
  Nd  Nd9  1  0.737444  0.078997  0.049962  1
  B  B10  1  0.463867  0.818548  0.875006  1
  B  B11  1  0.531291  0.179360  0.123190  1
  Cl  Cl12  1  0.005769  0.996841  0.997890  1
  Cl  Cl13  1  0.633342  0.882334  0.585659  1
  Cl  Cl14  1  0.363331  0.116029  0.413547  1
  Cl  Cl15  1  0.881400  0.299250  0.522673  1
  Cl  Cl16  1  0.116369  0.699668  0.475919  1
  Cl  Cl17  1  0.289595  0.769533  0.172430  1
  Cl  Cl18  1  0.703850  0.233537  0.817460  1
  Cl  Cl19  1  0.057076  0.345917  0.227857  1
  Cl  Cl20  1  0.165958  0.051943  0.713833  1
  Cl  Cl21  1  0.832965  0.942118  0.294651  1
  Cl  Cl22  1  0.235244  0.410955  0.945857  1
  Cl  Cl23  1  0.762844  0.588110  0.053431  1
  Cl  Cl24  1  0.407007  0.467982  0.661411  1
  Cl  Cl25  1  0.591196  0.531422  0.338320  1
  Cl  Cl26  1  0.956803  0.667401  0.782027  1
