# generated using pymatgen
data_Tb12Th4Mg3Co4Hg
_symmetry_space_group_name_H-M   'P 1'
_cell_length_a   9.59416188
_cell_length_b   9.59416164
_cell_length_c   9.59416200
_cell_angle_alpha   60.00196406
_cell_angle_beta   60.00197178
_cell_angle_gamma   60.00196713
_symmetry_Int_Tables_number   1
_chemical_formula_structural   Tb12Th4Mg3Co4Hg
_chemical_formula_sum   'Tb12 Th4 Mg3 Co4 Hg1'
_cell_volume   624.49001204
_cell_formula_units_Z   1
loop_
 _symmetry_equiv_pos_site_id
 _symmetry_equiv_pos_as_xyz
  1  'x, y, z'
loop_
 _atom_site_type_symbol
 _atom_site_label
 _atom_site_symmetry_multiplicity
 _atom_site_fract_x
 _atom_site_fract_y
 _atom_site_fract_z
 _atom_site_occupancy
  Tb  Tb0  1  0.812519  0.187385  0.187363  1
  Tb  Tb1  1  0.186698  0.813360  0.813383  1
  Tb  Tb2  1  0.187386  0.812497  0.187362  1
  Tb  Tb3  1  0.813379  0.186698  0.813361  1
  Tb  Tb4  1  0.187379  0.187378  0.812512  1
  Tb  Tb5  1  0.813396  0.813357  0.186683  1
  Tb  Tb6  1  0.936533  0.563768  0.563753  1
  Tb  Tb7  1  0.562115  0.936682  0.936675  1
  Tb  Tb8  1  0.563778  0.936528  0.563757  1
  Tb  Tb9  1  0.936669  0.562127  0.936665  1
  Tb  Tb10  1  0.563751  0.563742  0.936543  1
  Tb  Tb11  1  0.936673  0.936681  0.562101  1
  Th  Th12  1  0.343811  0.343881  0.343872  1
  Th  Th13  1  0.345276  0.345378  0.963497  1
  Th  Th14  1  0.345301  0.963468  0.345374  1
  Th  Th15  1  0.963525  0.345344  0.345313  1
  Mg  Mg16  1  0.579268  0.579266  0.264258  1
  Mg  Mg17  1  0.579278  0.264265  0.579257  1
  Mg  Mg18  1  0.264273  0.579266  0.579249  1
  Co  Co19  1  0.144976  0.144973  0.144975  1
  Co  Co20  1  0.144513  0.144498  0.562975  1
  Co  Co21  1  0.144534  0.562900  0.144522  1
  Co  Co22  1  0.562927  0.144524  0.144519  1
  Hg  Hg23  1  0.582044  0.582035  0.582028  1
