# generated using pymatgen
data_MnRhS4
_symmetry_space_group_name_H-M   'P 1'
_cell_length_a   5.56774278
_cell_length_b   5.57581732
_cell_length_c   5.56433700
_cell_angle_alpha   90.00000000
_cell_angle_beta   90.00000000
_cell_angle_gamma   90.33316742
_symmetry_Int_Tables_number   1
_chemical_formula_structural   MnRhS4
_chemical_formula_sum   'Mn2 Rh2 S8'
_cell_volume   172.74034493
_cell_formula_units_Z   2
loop_
 _symmetry_equiv_pos_site_id
 _symmetry_equiv_pos_as_xyz
  1  'x, y, z'
loop_
 _atom_site_type_symbol
 _atom_site_label
 _atom_site_symmetry_multiplicity
 _atom_site_fract_x
 _atom_site_fract_y
 _atom_site_fract_z
 _atom_site_occupancy
  Mn  Mn0  1  0.000000  0.500000  0.500000  1
  Mn  Mn1  1  0.500000  0.500000  0.000000  1
  Rh  Rh2  1  0.500000  0.000000  0.500000  1
  Rh  Rh3  1  0.000000  0.000000  0.000000  1
  S  S4  1  0.394076  0.128272  0.892462  1
  S  S5  1  0.105924  0.871728  0.392462  1
  S  S6  1  0.875013  0.397891  0.123228  1
  S  S7  1  0.624987  0.602109  0.623228  1
  S  S8  1  0.375013  0.397891  0.376772  1
  S  S9  1  0.124987  0.602109  0.876772  1
  S  S10  1  0.894076  0.128272  0.607538  1
  S  S11  1  0.605924  0.871728  0.107538  1
