# generated using pymatgen
data_Y4Al24Ni5Pt4
_symmetry_space_group_name_H-M   'P 1'
_cell_length_a   7.42136676
_cell_length_b   7.43528129
_cell_length_c   12.99800726
_cell_angle_alpha   84.85552513
_cell_angle_beta   79.23554586
_cell_angle_gamma   59.98423200
_symmetry_Int_Tables_number   1
_chemical_formula_structural   Y4Al24Ni5Pt4
_chemical_formula_sum   'Y4 Al24 Ni5 Pt4'
_cell_volume   610.10593126
_cell_formula_units_Z   1
loop_
 _symmetry_equiv_pos_site_id
 _symmetry_equiv_pos_as_xyz
  1  'x, y, z'
loop_
 _atom_site_type_symbol
 _atom_site_label
 _atom_site_symmetry_multiplicity
 _atom_site_fract_x
 _atom_site_fract_y
 _atom_site_fract_z
 _atom_site_occupancy
  Y  Y0  1  0.395043  0.166604  0.808597  1
  Y  Y1  1  0.604957  0.833396  0.191403  1
  Y  Y2  1  0.731723  0.498523  0.808014  1
  Y  Y3  1  0.268277  0.501477  0.191986  1
  Al  Al4  1  0.681317  0.832344  0.948887  1
  Al  Al5  1  0.318683  0.167656  0.051113  1
  Al  Al6  1  0.145824  0.830917  0.562680  1
  Al  Al7  1  0.854176  0.169083  0.437320  1
  Al  Al8  1  0.474094  0.171856  0.560178  1
  Al  Al9  1  0.525906  0.828144  0.439822  1
  Al  Al10  1  0.206648  0.174635  0.331947  1
  Al  Al11  1  0.793352  0.825365  0.668053  1
  Al  Al12  1  0.427672  0.507470  0.668512  1
  Al  Al13  1  0.572328  0.492530  0.331488  1
  Al  Al14  1  0.109980  0.168739  0.667567  1
  Al  Al15  1  0.890020  0.831261  0.332433  1
  Al  Al16  1  0.353074  0.496364  0.948975  1
  Al  Al17  1  0.646926  0.503636  0.051025  1
  Al  Al18  1  0.012850  0.170338  0.961070  1
  Al  Al19  1  0.987150  0.829662  0.038930  1
  Al  Al20  1  0.180572  0.500275  0.445286  1
  Al  Al21  1  0.819428  0.499725  0.554714  1
  Al  Al22  1  0.735487  0.164464  0.177965  1
  Al  Al23  1  0.264513  0.835536  0.822035  1
  Al  Al24  1  0.060968  0.622641  0.816285  1
  Al  Al25  1  0.939032  0.377359  0.183715  1
  Al  Al26  1  0.853190  0.041824  0.821791  1
  Al  Al27  1  0.146810  0.958176  0.178209  1
  Ni  Ni28  1  0.119169  0.493963  0.638922  1
  Ni  Ni29  1  0.880831  0.506037  0.361078  1
  Ni  Ni30  1  0.657823  0.171087  0.999965  1
  Ni  Ni31  1  0.342177  0.828913  0.000035  1
  Ni  Ni32  1  0.000000  0.500000  0.000000  1
  Pt  Pt33  1  0.538117  0.167403  0.360841  1
  Pt  Pt34  1  0.461883  0.832597  0.639159  1
  Pt  Pt35  1  0.778694  0.174837  0.638439  1
  Pt  Pt36  1  0.221306  0.825163  0.361561  1
