# generated using pymatgen
data_Er6LuCr(Co4P3)4
_symmetry_space_group_name_H-M   'P 1'
_cell_length_a   3.70082200
_cell_length_b   10.58982400
_cell_length_c   12.27479500
_cell_angle_alpha   90.00000000
_cell_angle_beta   90.00000000
_cell_angle_gamma   90.00000000
_symmetry_Int_Tables_number   1
_chemical_formula_structural   Er6LuCr(Co4P3)4
_chemical_formula_sum   'Er6 Lu1 Cr1 Co16 P12'
_cell_volume   481.06214921
_cell_formula_units_Z   1
loop_
 _symmetry_equiv_pos_site_id
 _symmetry_equiv_pos_as_xyz
  1  'x, y, z'
loop_
 _atom_site_type_symbol
 _atom_site_label
 _atom_site_symmetry_multiplicity
 _atom_site_fract_x
 _atom_site_fract_y
 _atom_site_fract_z
 _atom_site_occupancy
  Er  Er0  1  0.750000  0.250000  0.469417  1
  Er  Er1  1  0.250000  0.750000  0.522124  1
  Er  Er2  1  0.250000  0.926764  0.794195  1
  Er  Er3  1  0.250000  0.573236  0.794195  1
  Er  Er4  1  0.750000  0.067496  0.204578  1
  Er  Er5  1  0.750000  0.432504  0.204578  1
  Lu  Lu6  1  0.250000  0.250000  0.844773  1
  Cr  Cr7  1  0.750000  0.750000  0.159279  1
  Co  Co8  1  0.250000  0.250000  0.297690  1
  Co  Co9  1  0.750000  0.750000  0.703343  1
  Co  Co10  1  0.750000  0.250000  0.018032  1
  Co  Co11  1  0.250000  0.750000  0.990588  1
  Co  Co12  1  0.250000  0.425203  0.013061  1
  Co  Co13  1  0.250000  0.074797  0.013061  1
  Co  Co14  1  0.750000  0.588870  0.998946  1
  Co  Co15  1  0.750000  0.911130  0.998946  1
  Co  Co16  1  0.250000  0.457203  0.564103  1
  Co  Co17  1  0.250000  0.042797  0.564103  1
  Co  Co18  1  0.750000  0.548108  0.429058  1
  Co  Co19  1  0.750000  0.951892  0.429058  1
  Co  Co20  1  0.250000  0.869518  0.293385  1
  Co  Co21  1  0.250000  0.630482  0.293385  1
  Co  Co22  1  0.750000  0.125833  0.699170  1
  Co  Co23  1  0.750000  0.374167  0.699170  1
  P  P24  1  0.250000  0.250000  0.118583  1
  P  P25  1  0.750000  0.750000  0.883591  1
  P  P26  1  0.250000  0.250000  0.635585  1
  P  P27  1  0.750000  0.750000  0.345556  1
  P  P28  1  0.250000  0.440504  0.381519  1
  P  P29  1  0.250000  0.059496  0.381519  1
  P  P30  1  0.750000  0.563054  0.613658  1
  P  P31  1  0.750000  0.936946  0.613658  1
  P  P32  1  0.250000  0.899056  0.114130  1
  P  P33  1  0.250000  0.600944  0.114130  1
  P  P34  1  0.750000  0.082996  0.899916  1
  P  P35  1  0.750000  0.417004  0.899916  1
