# generated using pymatgen
data_Y5TmV2(Co4P3)4
_symmetry_space_group_name_H-M   'P 1'
_cell_length_a   3.68552900
_cell_length_b   10.53657102
_cell_length_c   12.21324402
_cell_angle_alpha   90.00725337
_cell_angle_beta   90.00000000
_cell_angle_gamma   90.00000000
_symmetry_Int_Tables_number   1
_chemical_formula_structural   Y5TmV2(Co4P3)4
_chemical_formula_sum   'Y5 Tm1 V2 Co16 P12'
_cell_volume   474.27492357
_cell_formula_units_Z   1
loop_
 _symmetry_equiv_pos_site_id
 _symmetry_equiv_pos_as_xyz
  1  'x, y, z'
loop_
 _atom_site_type_symbol
 _atom_site_label
 _atom_site_symmetry_multiplicity
 _atom_site_fract_x
 _atom_site_fract_y
 _atom_site_fract_z
 _atom_site_occupancy
  Y  Y0  1  0.000000  0.500013  0.523224  1
  Y  Y1  1  0.500000  0.000005  0.476695  1
  Y  Y2  1  0.500000  0.181389  0.204384  1
  Y  Y3  1  0.000000  0.681549  0.795572  1
  Y  Y4  1  0.000000  0.318435  0.795556  1
  Tm  Tm5  1  0.500000  0.818407  0.204296  1
  V  V6  1  0.500000  0.500318  0.154039  1
  V  V7  1  0.000000  0.999956  0.846115  1
  Co  Co8  1  0.500000  0.500029  0.701889  1
  Co  Co9  1  0.000000  0.998836  0.297565  1
  Co  Co10  1  0.000000  0.500375  0.987014  1
  Co  Co11  1  0.500000  0.999598  0.013641  1
  Co  Co12  1  0.500000  0.332490  0.992955  1
  Co  Co13  1  0.500000  0.667839  0.993398  1
  Co  Co14  1  0.000000  0.167254  0.007251  1
  Co  Co15  1  0.000000  0.832398  0.007826  1
  Co  Co16  1  0.500000  0.295951  0.431121  1
  Co  Co17  1  0.500000  0.704263  0.430544  1
  Co  Co18  1  0.000000  0.203980  0.568866  1
  Co  Co19  1  0.000000  0.795968  0.568623  1
  Co  Co20  1  0.500000  0.879052  0.707805  1
  Co  Co21  1  0.500000  0.120988  0.707844  1
  Co  Co22  1  0.000000  0.621866  0.291635  1
  Co  Co23  1  0.000000  0.379160  0.292155  1
  P  P24  1  0.500000  0.500082  0.882246  1
  P  P25  1  0.000000  0.998982  0.118324  1
  P  P26  1  0.500000  0.499936  0.346515  1
  P  P27  1  0.000000  0.999988  0.653363  1
  P  P28  1  0.500000  0.310860  0.615889  1
  P  P29  1  0.500000  0.689220  0.615739  1
  P  P30  1  0.000000  0.188977  0.384060  1
  P  P31  1  0.000000  0.810922  0.383032  1
  P  P32  1  0.500000  0.846247  0.892250  1
  P  P33  1  0.500000  0.153668  0.892418  1
  P  P34  1  0.000000  0.654686  0.108376  1
  P  P35  1  0.000000  0.346315  0.107774  1
