# generated using pymatgen
data_Be2Si2RuRh3
_symmetry_space_group_name_H-M   'P 1'
_cell_length_a   4.04890700
_cell_length_b   5.76084924
_cell_length_c   12.16177352
_cell_angle_alpha   90.03320614
_cell_angle_beta   90.00169192
_cell_angle_gamma   90.00297746
_symmetry_Int_Tables_number   1
_chemical_formula_structural   Be2Si2RuRh3
_chemical_formula_sum   'Be6 Si6 Ru3 Rh9'
_cell_volume   283.67505620
_cell_formula_units_Z   3
loop_
 _symmetry_equiv_pos_site_id
 _symmetry_equiv_pos_as_xyz
  1  'x, y, z'
loop_
 _atom_site_type_symbol
 _atom_site_label
 _atom_site_symmetry_multiplicity
 _atom_site_fract_x
 _atom_site_fract_y
 _atom_site_fract_z
 _atom_site_occupancy
  Be  Be0  1  0.999995  0.499721  0.995423  1
  Be  Be1  1  0.499768  0.000602  0.165413  1
  Be  Be2  1  0.999730  0.500038  0.333943  1
  Be  Be3  1  0.499996  0.997700  0.503120  1
  Be  Be4  1  0.000227  0.504545  0.670923  1
  Be  Be5  1  0.500251  0.997141  0.831302  1
  Si  Si6  1  0.000003  0.000780  0.994884  1
  Si  Si7  1  0.499842  0.499405  0.166509  1
  Si  Si8  1  0.999850  0.000619  0.333412  1
  Si  Si9  1  0.500001  0.502989  0.502448  1
  Si  Si10  1  0.000146  0.993001  0.672092  1
  Si  Si11  1  0.500170  0.503375  0.830677  1
  Ru  Ru12  1  0.500140  0.750595  0.663305  1
  Ru  Ru13  1  0.000113  0.250661  0.833633  1
  Ru  Ru14  1  0.000121  0.748021  0.836111  1
  Rh  Rh15  1  0.499996  0.250539  0.002948  1
  Rh  Rh16  1  0.499997  0.750029  0.004751  1
  Rh  Rh17  1  0.999864  0.249544  0.167767  1
  Rh  Rh18  1  0.999886  0.750800  0.167927  1
  Rh  Rh19  1  0.499874  0.250487  0.333578  1
  Rh  Rh20  1  0.499872  0.749827  0.331901  1
  Rh  Rh21  1  0.000005  0.249645  0.498483  1
  Rh  Rh22  1  0.000033  0.750746  0.495731  1
  Rh  Rh23  1  0.500126  0.249198  0.663721  1
