# generated using pymatgen
data_Ce4Co16P12PdRu3
_symmetry_space_group_name_H-M   'P 1'
_cell_length_a   3.72692300
_cell_length_b   10.50989864
_cell_length_c   11.83861487
_cell_angle_alpha   89.93584572
_cell_angle_beta   90.00000000
_cell_angle_gamma   90.00000000
_symmetry_Int_Tables_number   1
_chemical_formula_structural   Ce4Co16P12PdRu3
_chemical_formula_sum   'Ce4 Co16 P12 Pd1 Ru3'
_cell_volume   463.71331644
_cell_formula_units_Z   1
loop_
 _symmetry_equiv_pos_site_id
 _symmetry_equiv_pos_as_xyz
  1  'x, y, z'
loop_
 _atom_site_type_symbol
 _atom_site_label
 _atom_site_symmetry_multiplicity
 _atom_site_fract_x
 _atom_site_fract_y
 _atom_site_fract_z
 _atom_site_occupancy
  Ce  Ce0  1  0.250000  0.586458  0.702553  1
  Ce  Ce1  1  0.250000  0.914212  0.204171  1
  Ce  Ce2  1  0.750000  0.412385  0.296513  1
  Ce  Ce3  1  0.750000  0.085256  0.795691  1
  Co  Co4  1  0.250000  0.408052  0.488162  1
  Co  Co5  1  0.250000  0.093564  0.987588  1
  Co  Co6  1  0.750000  0.590878  0.512898  1
  Co  Co7  1  0.750000  0.912503  0.014331  1
  Co  Co8  1  0.250000  0.219843  0.175258  1
  Co  Co9  1  0.250000  0.281027  0.675427  1
  Co  Co10  1  0.750000  0.779163  0.821269  1
  Co  Co11  1  0.750000  0.718304  0.328320  1
  Co  Co12  1  0.250000  0.889211  0.701344  1
  Co  Co13  1  0.250000  0.613692  0.202828  1
  Co  Co14  1  0.750000  0.111964  0.297646  1
  Co  Co15  1  0.750000  0.386392  0.797900  1
  Co  Co16  1  0.250000  0.465162  0.929710  1
  Co  Co17  1  0.250000  0.032684  0.429745  1
  Co  Co18  1  0.750000  0.533440  0.069038  1
  Co  Co19  1  0.750000  0.967407  0.568915  1
  P  P20  1  0.250000  0.418918  0.110518  1
  P  P21  1  0.250000  0.082444  0.609548  1
  P  P22  1  0.750000  0.578062  0.886986  1
  P  P23  1  0.750000  0.918071  0.389619  1
  P  P24  1  0.250000  0.274737  0.866456  1
  P  P25  1  0.250000  0.223541  0.366508  1
  P  P26  1  0.750000  0.722059  0.140883  1
  P  P27  1  0.750000  0.776753  0.632745  1
  P  P28  1  0.250000  0.598370  0.392405  1
  P  P29  1  0.250000  0.903848  0.890556  1
  P  P30  1  0.750000  0.400731  0.608482  1
  P  P31  1  0.750000  0.100042  0.108589  1
  Pd  Pd32  1  0.250000  0.714371  0.990064  1
  Ru  Ru33  1  0.250000  0.784214  0.493553  1
  Ru  Ru34  1  0.750000  0.286213  0.007346  1
  Ru  Ru35  1  0.750000  0.216030  0.506436  1
