# generated using pymatgen
data_YHoHf2(Al3Ir)6
_symmetry_space_group_name_H-M   'P 1'
_cell_length_a   7.51414004
_cell_length_b   7.49907026
_cell_length_c   9.33722300
_cell_angle_alpha   90.00000000
_cell_angle_beta   90.00000000
_cell_angle_gamma   119.75489649
_symmetry_Int_Tables_number   1
_chemical_formula_structural   YHoHf2(Al3Ir)6
_chemical_formula_sum   'Y1 Ho1 Hf2 Al18 Ir6'
_cell_volume   456.77509040
_cell_formula_units_Z   1
loop_
 _symmetry_equiv_pos_site_id
 _symmetry_equiv_pos_as_xyz
  1  'x, y, z'
loop_
 _atom_site_type_symbol
 _atom_site_label
 _atom_site_symmetry_multiplicity
 _atom_site_fract_x
 _atom_site_fract_y
 _atom_site_fract_z
 _atom_site_occupancy
  Y  Y0  1  0.670405  0.994423  0.250000  1
  Ho  Ho1  1  0.329532  0.005530  0.750000  1
  Hf  Hf2  1  0.995424  0.670990  0.250000  1
  Hf  Hf3  1  0.004580  0.329010  0.750000  1
  Al  Al4  1  0.126423  0.124162  0.250000  1
  Al  Al5  1  0.873855  0.875905  0.750000  1
  Al  Al6  1  0.000224  0.337222  0.075277  1
  Al  Al7  1  0.000044  0.663014  0.924475  1
  Al  Al8  1  0.000044  0.663014  0.575525  1
  Al  Al9  1  0.331964  0.998319  0.422012  1
  Al  Al10  1  0.000224  0.337222  0.424723  1
  Al  Al11  1  0.667801  0.001701  0.578417  1
  Al  Al12  1  0.667801  0.001701  0.921583  1
  Al  Al13  1  0.331964  0.998319  0.077988  1
  Al  Al14  1  0.331323  0.333661  0.557401  1
  Al  Al15  1  0.668666  0.666114  0.442807  1
  Al  Al16  1  0.668666  0.666114  0.057193  1
  Al  Al17  1  0.331323  0.333661  0.942599  1
  Al  Al18  1  0.334131  0.547361  0.250000  1
  Al  Al19  1  0.665578  0.452319  0.750000  1
  Al  Al20  1  0.553471  0.343634  0.250000  1
  Al  Al21  1  0.446477  0.656570  0.750000  1
  Ir  Ir22  1  0.672838  0.328148  0.999468  1
  Ir  Ir23  1  0.326963  0.671852  0.000326  1
  Ir  Ir24  1  0.326963  0.671852  0.499674  1
  Ir  Ir25  1  0.672838  0.328148  0.500532  1
  Ir  Ir26  1  0.000237  0.000017  0.999881  1
  Ir  Ir27  1  0.000237  0.000017  0.500119  1
