# generated using pymatgen
data_Pr3Sm(Ho3Pb4)2
_symmetry_space_group_name_H-M   'P 1'
_cell_length_a   8.30075600
_cell_length_b   8.37496881
_cell_length_c   15.76360500
_cell_angle_alpha   89.88519586
_cell_angle_beta   90.00000000
_cell_angle_gamma   90.00000000
_symmetry_Int_Tables_number   1
_chemical_formula_structural   Pr3Sm(Ho3Pb4)2
_chemical_formula_sum   'Pr6 Sm2 Ho12 Pb16'
_cell_volume   1095.86111904
_cell_formula_units_Z   2
loop_
 _symmetry_equiv_pos_site_id
 _symmetry_equiv_pos_as_xyz
  1  'x, y, z'
loop_
 _atom_site_type_symbol
 _atom_site_label
 _atom_site_symmetry_multiplicity
 _atom_site_fract_x
 _atom_site_fract_y
 _atom_site_fract_z
 _atom_site_occupancy
  Pr  Pr0  1  0.524086  0.322862  0.097386  1
  Pr  Pr1  1  0.024086  0.177138  0.402614  1
  Pr  Pr2  1  0.524147  0.322684  0.402666  1
  Pr  Pr3  1  0.024147  0.177316  0.097334  1
  Pr  Pr4  1  0.475381  0.677543  0.902781  1
  Pr  Pr5  1  0.975381  0.822457  0.597219  1
  Sm  Sm6  1  0.475635  0.677685  0.597741  1
  Sm  Sm7  1  0.975635  0.822315  0.902259  1
  Ho  Ho8  1  0.633840  0.158061  0.622470  1
  Ho  Ho9  1  0.133840  0.341939  0.877530  1
  Ho  Ho10  1  0.366131  0.841809  0.122399  1
  Ho  Ho11  1  0.866131  0.658191  0.377601  1
  Ho  Ho12  1  0.366675  0.841440  0.377750  1
  Ho  Ho13  1  0.866675  0.658560  0.122250  1
  Ho  Ho14  1  0.634120  0.158136  0.877430  1
  Ho  Ho15  1  0.134120  0.341864  0.622570  1
  Ho  Ho16  1  0.799395  0.495678  0.750113  1
  Ho  Ho17  1  0.299395  0.004322  0.749887  1
  Ho  Ho18  1  0.200794  0.505002  0.250080  1
  Ho  Ho19  1  0.700794  0.994998  0.249920  1
  Pb  Pb20  1  0.704728  0.958520  0.456639  1
  Pb  Pb21  1  0.204728  0.541480  0.043361  1
  Pb  Pb22  1  0.293221  0.039593  0.956075  1
  Pb  Pb23  1  0.793221  0.460407  0.543925  1
  Pb  Pb24  1  0.295295  0.039445  0.543762  1
  Pb  Pb25  1  0.795295  0.460555  0.956238  1
  Pb  Pb26  1  0.706598  0.958405  0.042731  1
  Pb  Pb27  1  0.206598  0.541595  0.457269  1
  Pb  Pb28  1  0.437693  0.371502  0.749461  1
  Pb  Pb29  1  0.937693  0.128498  0.750539  1
  Pb  Pb30  1  0.562675  0.629284  0.249931  1
  Pb  Pb31  1  0.062675  0.870716  0.250069  1
  Pb  Pb32  1  0.663445  0.849525  0.749591  1
  Pb  Pb33  1  0.163445  0.650475  0.750409  1
  Pb  Pb34  1  0.336142  0.149534  0.250058  1
  Pb  Pb35  1  0.836142  0.350466  0.249942  1
