# generated using pymatgen
data_Lu6BiOsPb
_symmetry_space_group_name_H-M   'P 1'
_cell_length_a   8.08074300
_cell_length_b   8.08074213
_cell_length_c   4.25125000
_cell_angle_alpha   90.00000000
_cell_angle_beta   90.00000000
_cell_angle_gamma   119.99999948
_symmetry_Int_Tables_number   1
_chemical_formula_structural   Lu6BiOsPb
_chemical_formula_sum   'Lu6 Bi1 Os1 Pb1'
_cell_volume   240.40850145
_cell_formula_units_Z   1
loop_
 _symmetry_equiv_pos_site_id
 _symmetry_equiv_pos_as_xyz
  1  'x, y, z'
loop_
 _atom_site_type_symbol
 _atom_site_label
 _atom_site_symmetry_multiplicity
 _atom_site_fract_x
 _atom_site_fract_y
 _atom_site_fract_z
 _atom_site_occupancy
  Lu  Lu0  1  0.620440  0.003080  0.000000  1
  Lu  Lu1  1  0.382641  0.379560  0.000000  1
  Lu  Lu2  1  0.996920  0.617359  0.000000  1
  Lu  Lu3  1  0.236500  0.002682  0.499999  1
  Lu  Lu4  1  0.997318  0.233817  0.499999  1
  Lu  Lu5  1  0.766182  0.763501  0.499999  1
  Bi  Bi6  1  0.333333  0.666666  0.499999  1
  Os  Os7  1  0.000000  0.000000  0.000000  1
  Pb  Pb8  1  0.666667  0.333334  0.499999  1
