# generated using pymatgen
data_TbMn4CrP3
_symmetry_space_group_name_H-M   'P 1'
_cell_length_a   3.62323400
_cell_length_b   10.66853800
_cell_length_c   12.20998900
_cell_angle_alpha   90.00000000
_cell_angle_beta   90.00000000
_cell_angle_gamma   90.00000000
_symmetry_Int_Tables_number   1
_chemical_formula_structural   TbMn4CrP3
_chemical_formula_sum   'Tb4 Mn16 Cr4 P12'
_cell_volume   471.97235816
_cell_formula_units_Z   4
loop_
 _symmetry_equiv_pos_site_id
 _symmetry_equiv_pos_as_xyz
  1  'x, y, z'
loop_
 _atom_site_type_symbol
 _atom_site_label
 _atom_site_symmetry_multiplicity
 _atom_site_fract_x
 _atom_site_fract_y
 _atom_site_fract_z
 _atom_site_occupancy
  Tb  Tb0  1  0.250000  0.586434  0.705637  1
  Tb  Tb1  1  0.250000  0.913566  0.205637  1
  Tb  Tb2  1  0.750000  0.413566  0.294363  1
  Tb  Tb3  1  0.750000  0.086434  0.794363  1
  Mn  Mn4  1  0.250000  0.409942  0.493425  1
  Mn  Mn5  1  0.250000  0.090058  0.993425  1
  Mn  Mn6  1  0.750000  0.590058  0.506575  1
  Mn  Mn7  1  0.750000  0.909942  0.006575  1
  Mn  Mn8  1  0.250000  0.212460  0.180545  1
  Mn  Mn9  1  0.250000  0.287540  0.680545  1
  Mn  Mn10  1  0.750000  0.787540  0.819455  1
  Mn  Mn11  1  0.750000  0.712460  0.319455  1
  Mn  Mn12  1  0.250000  0.882829  0.693255  1
  Mn  Mn13  1  0.250000  0.617171  0.193255  1
  Mn  Mn14  1  0.750000  0.117171  0.306745  1
  Mn  Mn15  1  0.750000  0.382829  0.806745  1
  Mn  Mn16  1  0.250000  0.466167  0.935330  1
  Mn  Mn17  1  0.250000  0.033833  0.435330  1
  Mn  Mn18  1  0.750000  0.533833  0.064670  1
  Mn  Mn19  1  0.750000  0.966167  0.564670  1
  Cr  Cr20  1  0.250000  0.708896  0.983208  1
  Cr  Cr21  1  0.250000  0.791104  0.483208  1
  Cr  Cr22  1  0.750000  0.291104  0.016792  1
  Cr  Cr23  1  0.750000  0.208896  0.516792  1
  P  P24  1  0.250000  0.411432  0.114890  1
  P  P25  1  0.250000  0.088568  0.614890  1
  P  P26  1  0.750000  0.588568  0.885110  1
  P  P27  1  0.750000  0.911432  0.385110  1
  P  P28  1  0.250000  0.265637  0.875687  1
  P  P29  1  0.250000  0.234363  0.375687  1
  P  P30  1  0.750000  0.734363  0.124313  1
  P  P31  1  0.750000  0.765637  0.624313  1
  P  P32  1  0.250000  0.594463  0.385370  1
  P  P33  1  0.250000  0.905537  0.885370  1
  P  P34  1  0.750000  0.405537  0.614630  1
  P  P35  1  0.750000  0.094463  0.114630  1
