# generated using pymatgen
data_NdHo3B4I5
_symmetry_space_group_name_H-M   'P 1'
_cell_length_a   9.63918325
_cell_length_b   9.63918202
_cell_length_c   9.74991811
_cell_angle_alpha   74.74153261
_cell_angle_beta   74.74153535
_cell_angle_gamma   25.74802783
_symmetry_Int_Tables_number   1
_chemical_formula_structural   NdHo3B4I5
_chemical_formula_sum   'Nd1 Ho3 B4 I5'
_cell_volume   378.92548212
_cell_formula_units_Z   1
loop_
 _symmetry_equiv_pos_site_id
 _symmetry_equiv_pos_as_xyz
  1  'x, y, z'
loop_
 _atom_site_type_symbol
 _atom_site_label
 _atom_site_symmetry_multiplicity
 _atom_site_fract_x
 _atom_site_fract_y
 _atom_site_fract_z
 _atom_site_occupancy
  Nd  Nd0  1  0.867107  0.867107  0.065103  1
  Ho  Ho1  1  0.505462  0.505462  0.755524  1
  Ho  Ho2  1  0.495817  0.495817  0.243994  1
  Ho  Ho3  1  0.129661  0.129661  0.934691  1
  B  B4  1  0.315343  0.687464  0.999382  1
  B  B5  1  0.687464  0.315343  0.999382  1
  B  B6  1  0.000558  0.000558  0.099274  1
  B  B7  1  0.002509  0.002509  0.899194  1
  I  I8  1  0.676395  0.676395  0.688927  1
  I  I9  1  0.325269  0.325269  0.327103  1
  I  I10  1  0.330619  0.330619  0.838932  1
  I  I11  1  0.670950  0.670950  0.142502  1
  I  I12  1  0.007146  0.007146  0.496193  1
