# generated using pymatgen
data_Hf3Cu2Si4NiIr
_symmetry_space_group_name_H-M   'P 1'
_cell_length_a   7.51913211
_cell_length_b   7.46314869
_cell_length_c   7.46314851
_cell_angle_alpha   149.63249320
_cell_angle_beta   128.74097865
_cell_angle_gamma   60.68420819
_symmetry_Int_Tables_number   1
_chemical_formula_structural   Hf3Cu2Si4NiIr
_chemical_formula_sum   'Hf3 Cu2 Si4 Ni1 Ir1'
_cell_volume   163.79148362
_cell_formula_units_Z   1
loop_
 _symmetry_equiv_pos_site_id
 _symmetry_equiv_pos_as_xyz
  1  'x, y, z'
loop_
 _atom_site_type_symbol
 _atom_site_label
 _atom_site_symmetry_multiplicity
 _atom_site_fract_x
 _atom_site_fract_y
 _atom_site_fract_z
 _atom_site_occupancy
  Hf  Hf0  1  0.881419  0.874738  0.006681  1
  Hf  Hf1  1  0.108975  0.126291  0.982684  1
  Hf  Hf2  1  0.501760  0.996420  0.505341  1
  Cu  Cu3  1  0.137720  0.336144  0.801576  1
  Cu  Cu4  1  0.480675  0.674818  0.805857  1
  Si  Si5  1  0.808958  0.499389  0.309569  1
  Si  Si6  1  0.195571  0.506183  0.689387  1
  Si  Si7  1  0.266323  0.783042  0.483282  1
  Si  Si8  1  0.733138  0.213355  0.519783  1
  Ni  Ni9  1  0.863407  0.667795  0.195613  1
  Ir  Ir10  1  0.522052  0.321824  0.200228  1
