# generated using pymatgen
data_Pr16Y4Bi3Pb13
_symmetry_space_group_name_H-M   'P 1'
_cell_length_a   8.46918495
_cell_length_b   16.25742027
_cell_length_c   8.52002300
_cell_angle_alpha   90.07327343
_cell_angle_beta   89.90373784
_cell_angle_gamma   89.77546731
_symmetry_Int_Tables_number   1
_chemical_formula_structural   Pr16Y4Bi3Pb13
_chemical_formula_sum   'Pr16 Y4 Bi3 Pb13'
_cell_volume   1173.08561847
_cell_formula_units_Z   1
loop_
 _symmetry_equiv_pos_site_id
 _symmetry_equiv_pos_as_xyz
  1  'x, y, z'
loop_
 _atom_site_type_symbol
 _atom_site_label
 _atom_site_symmetry_multiplicity
 _atom_site_fract_x
 _atom_site_fract_y
 _atom_site_fract_z
 _atom_site_occupancy
  Pr  Pr0  1  0.618146  0.618781  0.158885  1
  Pr  Pr1  1  0.115896  0.881352  0.342371  1
  Pr  Pr2  1  0.383292  0.119133  0.843589  1
  Pr  Pr3  1  0.881013  0.381079  0.656421  1
  Pr  Pr4  1  0.378570  0.381253  0.842951  1
  Pr  Pr5  1  0.880519  0.118164  0.658654  1
  Pr  Pr6  1  0.618362  0.881719  0.158270  1
  Pr  Pr7  1  0.119333  0.619126  0.342046  1
  Pr  Pr8  1  0.456341  0.603146  0.670517  1
  Pr  Pr9  1  0.949146  0.894729  0.827839  1
  Pr  Pr10  1  0.550322  0.104986  0.327953  1
  Pr  Pr11  1  0.044415  0.397395  0.176346  1
  Pr  Pr12  1  0.540438  0.398112  0.327590  1
  Pr  Pr13  1  0.039685  0.103265  0.173355  1
  Pr  Pr14  1  0.460807  0.897122  0.673987  1
  Pr  Pr15  1  0.963028  0.602380  0.821813  1
  Y  Y16  1  0.784871  0.749365  0.497800  1
  Y  Y17  1  0.284188  0.747040  0.000820  1
  Y  Y18  1  0.216067  0.252224  0.501825  1
  Y  Y19  1  0.715902  0.249181  0.999013  1
  Bi  Bi20  1  0.724592  0.451685  0.975118  1
  Bi  Bi21  1  0.227488  0.048966  0.522412  1
  Bi  Bi22  1  0.272157  0.951030  0.021454  1
  Pb  Pb23  1  0.776623  0.546982  0.473518  1
  Pb  Pb24  1  0.276485  0.546764  0.027779  1
  Pb  Pb25  1  0.775756  0.952697  0.473013  1
  Pb  Pb26  1  0.724163  0.047151  0.973991  1
  Pb  Pb27  1  0.221550  0.453639  0.529777  1
  Pb  Pb28  1  0.422800  0.751528  0.373058  1
  Pb  Pb29  1  0.922238  0.749504  0.126220  1
  Pb  Pb30  1  0.576908  0.250560  0.627061  1
  Pb  Pb31  1  0.076693  0.249474  0.873580  1
  Pb  Pb32  1  0.649823  0.748887  0.850529  1
  Pb  Pb33  1  0.151679  0.751551  0.648950  1
  Pb  Pb34  1  0.349768  0.249340  0.150783  1
  Pb  Pb35  1  0.850936  0.250689  0.350715  1
