# generated using pymatgen
data_Ac8Tm12Si15S
_symmetry_space_group_name_H-M   'P 1'
_cell_length_a   7.67550754
_cell_length_b   7.84864525
_cell_length_c   14.94285300
_cell_angle_alpha   89.76957219
_cell_angle_beta   86.88763765
_cell_angle_gamma   89.93938691
_symmetry_Int_Tables_number   1
_chemical_formula_structural   Ac8Tm12Si15S
_chemical_formula_sum   'Ac8 Tm12 Si15 S1'
_cell_volume   898.85697764
_cell_formula_units_Z   1
loop_
 _symmetry_equiv_pos_site_id
 _symmetry_equiv_pos_as_xyz
  1  'x, y, z'
loop_
 _atom_site_type_symbol
 _atom_site_label
 _atom_site_symmetry_multiplicity
 _atom_site_fract_x
 _atom_site_fract_y
 _atom_site_fract_z
 _atom_site_occupancy
  Ac  Ac0  1  0.012419  0.173540  0.098385  1
  Ac  Ac1  1  0.987627  0.830448  0.900546  1
  Ac  Ac2  1  0.489489  0.672322  0.901585  1
  Ac  Ac3  1  0.004430  0.822371  0.597338  1
  Ac  Ac4  1  0.512732  0.328437  0.098609  1
  Ac  Ac5  1  0.994319  0.175053  0.400352  1
  Ac  Ac6  1  0.495697  0.316807  0.401304  1
  Ac  Ac7  1  0.504059  0.678834  0.597618  1
  Tm  Tm8  1  0.171118  0.499507  0.752570  1
  Tm  Tm9  1  0.828066  0.501638  0.254226  1
  Tm  Tm10  1  0.327246  0.996432  0.253478  1
  Tm  Tm11  1  0.673476  0.003204  0.745346  1
  Tm  Tm12  1  0.353369  0.163943  0.622852  1
  Tm  Tm13  1  0.646817  0.835104  0.377998  1
  Tm  Tm14  1  0.145895  0.664266  0.378254  1
  Tm  Tm15  1  0.669572  0.825004  0.124930  1
  Tm  Tm16  1  0.852661  0.337603  0.618716  1
  Tm  Tm17  1  0.330877  0.175549  0.874036  1
  Tm  Tm18  1  0.830789  0.324419  0.874328  1
  Tm  Tm19  1  0.168219  0.675872  0.124255  1
  Si  Si20  1  0.045888  0.132431  0.747560  1
  Si  Si21  1  0.954280  0.869098  0.250324  1
  Si  Si22  1  0.451916  0.628555  0.250366  1
  Si  Si23  1  0.546713  0.371587  0.748106  1
  Si  Si24  1  0.298525  0.884215  0.750623  1
  Si  Si25  1  0.701626  0.115659  0.248375  1
  Si  Si26  1  0.203532  0.385586  0.248899  1
  Si  Si27  1  0.799135  0.615834  0.749871  1
  Si  Si28  1  0.806720  0.542734  0.452928  1
  Si  Si29  1  0.309296  0.953375  0.455962  1
  Si  Si30  1  0.855056  0.535623  0.039180  1
  Si  Si31  1  0.688461  0.043906  0.546764  1
  Si  Si32  1  0.144369  0.467780  0.958410  1
  Si  Si33  1  0.643665  0.035105  0.959497  1
  Si  Si34  1  0.355464  0.966429  0.039705  1
  S  S35  1  0.196480  0.451732  0.556707  1
