# generated using pymatgen
data_Lu4MoOs6W
_symmetry_space_group_name_H-M   'P 1'
_cell_length_a   5.40001319
_cell_length_b   5.35896063
_cell_length_c   8.82764300
_cell_angle_alpha   90.00000000
_cell_angle_beta   90.00000000
_cell_angle_gamma   122.09638470
_symmetry_Int_Tables_number   1
_chemical_formula_structural   Lu4MoOs6W
_chemical_formula_sum   'Lu4 Mo1 Os6 W1'
_cell_volume   216.41295642
_cell_formula_units_Z   1
loop_
 _symmetry_equiv_pos_site_id
 _symmetry_equiv_pos_as_xyz
  1  'x, y, z'
loop_
 _atom_site_type_symbol
 _atom_site_label
 _atom_site_symmetry_multiplicity
 _atom_site_fract_x
 _atom_site_fract_y
 _atom_site_fract_z
 _atom_site_occupancy
  Lu  Lu0  1  0.336840  0.666174  0.435217  1
  Lu  Lu1  1  0.669644  0.342114  0.564799  1
  Lu  Lu2  1  0.669644  0.342114  0.935201  1
  Lu  Lu3  1  0.336840  0.666174  0.064783  1
  Mo  Mo4  1  0.340835  0.166479  0.250000  1
  Os  Os5  1  0.174644  0.823428  0.750000  1
  Os  Os6  1  0.822840  0.650781  0.250000  1
  Os  Os7  1  0.649744  0.823976  0.750000  1
  Os  Os8  1  0.004920  0.008165  0.000585  1
  Os  Os9  1  0.823421  0.169681  0.250000  1
  Os  Os10  1  0.004920  0.008165  0.499415  1
  W  W11  1  0.165706  0.332753  0.750000  1
