# generated using pymatgen
data_HfZr4Nb3P4
_symmetry_space_group_name_H-M   'P 1'
_cell_length_a   3.59149000
_cell_length_b   6.95132235
_cell_length_c   8.42168008
_cell_angle_alpha   89.88730860
_cell_angle_beta   90.00000000
_cell_angle_gamma   90.00000000
_symmetry_Int_Tables_number   1
_chemical_formula_structural   HfZr4Nb3P4
_chemical_formula_sum   'Hf1 Zr4 Nb3 P4'
_cell_volume   210.25192932
_cell_formula_units_Z   1
loop_
 _symmetry_equiv_pos_site_id
 _symmetry_equiv_pos_as_xyz
  1  'x, y, z'
loop_
 _atom_site_type_symbol
 _atom_site_label
 _atom_site_symmetry_multiplicity
 _atom_site_fract_x
 _atom_site_fract_y
 _atom_site_fract_z
 _atom_site_occupancy
  Hf  Hf0  1  0.250000  0.138509  0.060603  1
  Zr  Zr1  1  0.250000  0.536215  0.830155  1
  Zr  Zr2  1  0.750000  0.963695  0.333020  1
  Zr  Zr3  1  0.250000  0.034091  0.667350  1
  Zr  Zr4  1  0.750000  0.471500  0.173307  1
  Nb  Nb5  1  0.750000  0.854803  0.938351  1
  Nb  Nb6  1  0.250000  0.639562  0.440829  1
  Nb  Nb7  1  0.750000  0.363121  0.559157  1
  P  P8  1  0.750000  0.738732  0.641398  1
  P  P9  1  0.250000  0.760838  0.141751  1
  P  P10  1  0.750000  0.238081  0.853016  1
  P  P11  1  0.250000  0.260854  0.361063  1
