# generated using pymatgen
data_Er20Sn13Sb3
_symmetry_space_group_name_H-M   'P 1'
_cell_length_a   8.06226966
_cell_length_b   8.09803308
_cell_length_c   15.29199369
_cell_angle_alpha   90.06832274
_cell_angle_beta   89.72577443
_cell_angle_gamma   89.95418850
_symmetry_Int_Tables_number   1
_chemical_formula_structural   Er20Sn13Sb3
_chemical_formula_sum   'Er20 Sn13 Sb3'
_cell_volume   998.37926428
_cell_formula_units_Z   1
loop_
 _symmetry_equiv_pos_site_id
 _symmetry_equiv_pos_as_xyz
  1  'x, y, z'
loop_
 _atom_site_type_symbol
 _atom_site_label
 _atom_site_symmetry_multiplicity
 _atom_site_fract_x
 _atom_site_fract_y
 _atom_site_fract_z
 _atom_site_occupancy
  Er  Er0  1  0.379611  0.838243  0.878860  1
  Er  Er1  1  0.882473  0.660693  0.621063  1
  Er  Er2  1  0.618422  0.160215  0.378800  1
  Er  Er3  1  0.120944  0.338478  0.122177  1
  Er  Er4  1  0.621880  0.161335  0.121280  1
  Er  Er5  1  0.120304  0.338119  0.378794  1
  Er  Er6  1  0.379663  0.838600  0.620600  1
  Er  Er7  1  0.877860  0.661574  0.877536  1
  Er  Er8  1  0.540689  0.330235  0.896702  1
  Er  Er9  1  0.047251  0.171642  0.605243  1
  Er  Er10  1  0.453098  0.671546  0.394769  1
  Er  Er11  1  0.959364  0.822967  0.102342  1
  Er  Er12  1  0.464723  0.672911  0.101217  1
  Er  Er13  1  0.963978  0.826621  0.397240  1
  Er  Er14  1  0.535784  0.326040  0.602701  1
  Er  Er15  1  0.034361  0.178264  0.898235  1
  Er  Er16  1  0.209333  0.502336  0.750152  1
  Er  Er17  1  0.709472  0.998690  0.752612  1
  Er  Er18  1  0.790403  0.498114  0.247766  1
  Er  Er19  1  0.290692  0.001399  0.251461  1
  Sn  Sn20  1  0.218219  0.531086  0.957718  1
  Sn  Sn21  1  0.719222  0.968680  0.957590  1
  Sn  Sn22  1  0.219665  0.529404  0.543074  1
  Sn  Sn23  1  0.280887  0.029706  0.456952  1
  Sn  Sn24  1  0.784262  0.467341  0.042224  1
  Sn  Sn25  1  0.575309  0.624752  0.747935  1
  Sn  Sn26  1  0.076374  0.876597  0.750146  1
  Sn  Sn27  1  0.425004  0.375582  0.249941  1
  Sn  Sn28  1  0.923988  0.122784  0.250926  1
  Sn  Sn29  1  0.346851  0.147872  0.750725  1
  Sn  Sn30  1  0.845366  0.352248  0.748775  1
  Sn  Sn31  1  0.653643  0.851749  0.250227  1
  Sn  Sn32  1  0.152851  0.647356  0.249487  1
  Sb  Sb33  1  0.277893  0.027180  0.044801  1
  Sb  Sb34  1  0.774502  0.474851  0.455161  1
  Sb  Sb35  1  0.725656  0.974788  0.544771  1
