# generated using pymatgen
data_YbScPt2O7
_symmetry_space_group_name_H-M   'P 1'
_cell_length_a   7.15749122
_cell_length_b   7.15749103
_cell_length_c   7.06607700
_cell_angle_alpha   60.42159138
_cell_angle_beta   60.42159223
_cell_angle_gamma   60.35879014
_symmetry_Int_Tables_number   1
_chemical_formula_structural   YbScPt2O7
_chemical_formula_sum   'Yb2 Sc2 Pt4 O14'
_cell_volume   258.28664148
_cell_formula_units_Z   2
loop_
 _symmetry_equiv_pos_site_id
 _symmetry_equiv_pos_as_xyz
  1  'x, y, z'
loop_
 _atom_site_type_symbol
 _atom_site_label
 _atom_site_symmetry_multiplicity
 _atom_site_fract_x
 _atom_site_fract_y
 _atom_site_fract_z
 _atom_site_occupancy
  Yb  Yb0  1  0.625000  0.125000  0.625000  1
  Yb  Yb1  1  0.125000  0.625000  0.625000  1
  Sc  Sc2  1  0.625000  0.625000  0.125000  1
  Sc  Sc3  1  0.625000  0.625000  0.625000  1
  Pt  Pt4  1  0.625000  0.125000  0.125000  1
  Pt  Pt5  1  0.125000  0.125000  0.125000  1
  Pt  Pt6  1  0.125000  0.625000  0.125000  1
  Pt  Pt7  1  0.125000  0.125000  0.625000  1
  O  O8  1  0.023391  0.464747  0.464095  1
  O  O9  1  0.784334  0.784334  0.215666  1
  O  O10  1  0.785253  0.226609  0.202234  1
  O  O11  1  0.023391  0.464747  0.047766  1
  O  O12  1  0.464747  0.023391  0.464095  1
  O  O13  1  0.732149  0.732149  0.767851  1
  O  O14  1  0.035853  0.035853  0.464147  1
  O  O15  1  0.785253  0.226609  0.785905  1
  O  O16  1  0.517851  0.517851  0.482149  1
  O  O17  1  0.214147  0.214147  0.785853  1
  O  O18  1  0.226609  0.785253  0.202234  1
  O  O19  1  0.464747  0.023391  0.047766  1
  O  O20  1  0.465666  0.465666  0.034334  1
  O  O21  1  0.226609  0.785253  0.785905  1
