# generated using pymatgen
data_Sm8GePd23Pt
_symmetry_space_group_name_H-M   'P 1'
_cell_length_a   8.45325100
_cell_length_b   8.44567400
_cell_length_c   8.45040100
_cell_angle_alpha   90.00000000
_cell_angle_beta   90.00000000
_cell_angle_gamma   90.00000000
_symmetry_Int_Tables_number   1
_chemical_formula_structural   Sm8GePd23Pt
_chemical_formula_sum   'Sm8 Ge1 Pd23 Pt1'
_cell_volume   603.30287723
_cell_formula_units_Z   1
loop_
 _symmetry_equiv_pos_site_id
 _symmetry_equiv_pos_as_xyz
  1  'x, y, z'
loop_
 _atom_site_type_symbol
 _atom_site_label
 _atom_site_symmetry_multiplicity
 _atom_site_fract_x
 _atom_site_fract_y
 _atom_site_fract_z
 _atom_site_occupancy
  Sm  Sm0  1  0.253313  0.253796  0.252857  1
  Sm  Sm1  1  0.746659  0.746637  0.746477  1
  Sm  Sm2  1  0.746659  0.746637  0.253523  1
  Sm  Sm3  1  0.746659  0.253363  0.746477  1
  Sm  Sm4  1  0.253313  0.253796  0.747143  1
  Sm  Sm5  1  0.253313  0.746204  0.252857  1
  Sm  Sm6  1  0.253313  0.746204  0.747143  1
  Sm  Sm7  1  0.746659  0.253363  0.253523  1
  Ge  Ge8  1  0.000326  0.000000  0.000000  1
  Pd  Pd9  1  0.740413  0.500000  0.000000  1
  Pd  Pd10  1  0.999864  0.259702  0.500000  1
  Pd  Pd11  1  0.500014  0.259694  0.000000  1
  Pd  Pd12  1  0.999864  0.740298  0.500000  1
  Pd  Pd13  1  0.500014  0.740306  0.000000  1
  Pd  Pd14  1  0.500135  0.000000  0.259818  1
  Pd  Pd15  1  0.259850  0.000000  0.500000  1
  Pd  Pd16  1  0.500135  0.000000  0.740182  1
  Pd  Pd17  1  0.740300  0.000000  0.500000  1
  Pd  Pd18  1  0.000038  0.500000  0.259757  1
  Pd  Pd19  1  0.000038  0.500000  0.740243  1
  Pd  Pd20  1  0.253049  0.500000  0.500000  1
  Pd  Pd21  1  0.746897  0.500000  0.500000  1
  Pd  Pd22  1  0.500163  0.253071  0.500000  1
  Pd  Pd23  1  0.500163  0.746929  0.500000  1
  Pd  Pd24  1  0.499942  0.500000  0.252938  1
  Pd  Pd25  1  0.499942  0.500000  0.747062  1
  Pd  Pd26  1  0.289877  0.000000  0.000000  1
  Pd  Pd27  1  0.710080  0.000000  0.000000  1
  Pd  Pd28  1  0.999824  0.289813  0.000000  1
  Pd  Pd29  1  0.999824  0.710187  0.000000  1
  Pd  Pd30  1  0.999937  0.000000  0.289965  1
  Pd  Pd31  1  0.999937  0.000000  0.710035  1
  Pt  Pt32  1  0.259489  0.500000  0.000000  1
