# generated using pymatgen
data_Tb4ReOsRu6
_symmetry_space_group_name_H-M   'P 1'
_cell_length_a   5.18306000
_cell_length_b   5.44438835
_cell_length_c   9.03165000
_cell_angle_alpha   90.00000000
_cell_angle_beta   90.00000000
_cell_angle_gamma   120.71048916
_symmetry_Int_Tables_number   1
_chemical_formula_structural   Tb4ReOsRu6
_chemical_formula_sum   'Tb4 Re1 Os1 Ru6'
_cell_volume   219.11850562
_cell_formula_units_Z   1
loop_
 _symmetry_equiv_pos_site_id
 _symmetry_equiv_pos_as_xyz
  1  'x, y, z'
loop_
 _atom_site_type_symbol
 _atom_site_label
 _atom_site_symmetry_multiplicity
 _atom_site_fract_x
 _atom_site_fract_y
 _atom_site_fract_z
 _atom_site_occupancy
  Tb  Tb0  1  0.327054  0.664646  0.433286  1
  Tb  Tb1  1  0.654164  0.326717  0.564645  1
  Tb  Tb2  1  0.654164  0.326717  0.935355  1
  Tb  Tb3  1  0.327054  0.664646  0.066714  1
  Re  Re4  1  0.688118  0.846631  0.750000  1
  Os  Os5  1  0.182693  0.829129  0.750000  1
  Ru  Ru6  1  0.974990  0.984188  0.499161  1
  Ru  Ru7  1  0.974990  0.984188  0.000839  1
  Ru  Ru8  1  0.840196  0.166735  0.250000  1
  Ru  Ru9  1  0.837031  0.670667  0.250000  1
  Ru  Ru10  1  0.358999  0.180268  0.250000  1
  Ru  Ru11  1  0.180547  0.355464  0.750000  1
