# generated using pymatgen
data_Tm2Ga9PtRh2
_symmetry_space_group_name_H-M   'P 1'
_cell_length_a   7.59988895
_cell_length_b   7.59988877
_cell_length_c   9.46244200
_cell_angle_alpha   90.00000000
_cell_angle_beta   90.00000000
_cell_angle_gamma   119.98518357
_symmetry_Int_Tables_number   1
_chemical_formula_structural   Tm2Ga9PtRh2
_chemical_formula_sum   'Tm4 Ga18 Pt2 Rh4'
_cell_volume   473.38355381
_cell_formula_units_Z   2
loop_
 _symmetry_equiv_pos_site_id
 _symmetry_equiv_pos_as_xyz
  1  'x, y, z'
loop_
 _atom_site_type_symbol
 _atom_site_label
 _atom_site_symmetry_multiplicity
 _atom_site_fract_x
 _atom_site_fract_y
 _atom_site_fract_z
 _atom_site_occupancy
  Tm  Tm0  1  0.996645  0.669826  0.250000  1
  Tm  Tm1  1  0.003355  0.330174  0.750000  1
  Tm  Tm2  1  0.669826  0.996645  0.250000  1
  Tm  Tm3  1  0.330174  0.003355  0.750000  1
  Ga  Ga4  1  0.131422  0.131422  0.250000  1
  Ga  Ga5  1  0.868578  0.868578  0.750000  1
  Ga  Ga6  1  0.997776  0.337984  0.081433  1
  Ga  Ga7  1  0.002224  0.662016  0.918567  1
  Ga  Ga8  1  0.002224  0.662016  0.581433  1
  Ga  Ga9  1  0.337984  0.997776  0.418567  1
  Ga  Ga10  1  0.997776  0.337984  0.418567  1
  Ga  Ga11  1  0.662016  0.002224  0.581433  1
  Ga  Ga12  1  0.662016  0.002224  0.918567  1
  Ga  Ga13  1  0.337984  0.997776  0.081433  1
  Ga  Ga14  1  0.336172  0.336172  0.568615  1
  Ga  Ga15  1  0.663828  0.663828  0.431385  1
  Ga  Ga16  1  0.663828  0.663828  0.068615  1
  Ga  Ga17  1  0.336172  0.336172  0.931385  1
  Ga  Ga18  1  0.336768  0.548127  0.250000  1
  Ga  Ga19  1  0.663232  0.451873  0.750000  1
  Ga  Ga20  1  0.548127  0.336768  0.250000  1
  Ga  Ga21  1  0.451873  0.663232  0.750000  1
  Pt  Pt22  1  0.000000  0.000000  0.000000  1
  Pt  Pt23  1  0.000000  0.000000  0.500000  1
  Rh  Rh24  1  0.671212  0.328788  0.000000  1
  Rh  Rh25  1  0.328788  0.671212  0.000000  1
  Rh  Rh26  1  0.328788  0.671212  0.500000  1
  Rh  Rh27  1  0.671212  0.328788  0.500000  1
