# generated using pymatgen
data_Y10AlGaSb4
_symmetry_space_group_name_H-M   'P 1'
_cell_length_a   6.48410500
_cell_length_b   8.91220124
_cell_length_c   8.87431443
_cell_angle_alpha   120.14132843
_cell_angle_beta   90.00049722
_cell_angle_gamma   89.99901594
_symmetry_Int_Tables_number   1
_chemical_formula_structural   Y10AlGaSb4
_chemical_formula_sum   'Y10 Al1 Ga1 Sb4'
_cell_volume   443.48630916
_cell_formula_units_Z   1
loop_
 _symmetry_equiv_pos_site_id
 _symmetry_equiv_pos_as_xyz
  1  'x, y, z'
loop_
 _atom_site_type_symbol
 _atom_site_label
 _atom_site_symmetry_multiplicity
 _atom_site_fract_x
 _atom_site_fract_y
 _atom_site_fract_z
 _atom_site_occupancy
  Y  Y0  1  0.500244  0.341014  0.680754  1
  Y  Y1  1  0.500244  0.660261  0.319246  1
  Y  Y2  1  0.999757  0.660265  0.319249  1
  Y  Y3  1  0.999757  0.341016  0.680751  1
  Y  Y4  1  0.749998  0.245341  0.000000  1
  Y  Y5  1  0.750003  0.753682  0.765596  1
  Y  Y6  1  0.750003  0.988086  0.234404  1
  Y  Y7  1  0.250004  0.755896  0.000000  1
  Y  Y8  1  0.249998  0.245035  0.235418  1
  Y  Y9  1  0.249998  0.009617  0.764582  1
  Al  Al10  1  0.249998  0.398034  0.000000  1
  Ga  Ga11  1  0.749997  0.602600  0.000000  1
  Sb  Sb12  1  0.750000  0.387999  0.392455  1
  Sb  Sb13  1  0.750000  0.995542  0.607545  1
  Sb  Sb14  1  0.250001  0.611116  0.606620  1
  Sb  Sb15  1  0.250001  0.004497  0.393380  1
