# generated using pymatgen
data_Er3CoAgSn3Ir
_symmetry_space_group_name_H-M   'P 1'
_cell_length_a   7.64393800
_cell_length_b   7.64393757
_cell_length_c   3.76386500
_cell_angle_alpha   90.00000000
_cell_angle_beta   90.00000000
_cell_angle_gamma   120.00000185
_symmetry_Int_Tables_number   1
_chemical_formula_structural   Er3CoAgSn3Ir
_chemical_formula_sum   'Er3 Co1 Ag1 Sn3 Ir1'
_cell_volume   190.45788140
_cell_formula_units_Z   1
loop_
 _symmetry_equiv_pos_site_id
 _symmetry_equiv_pos_as_xyz
  1  'x, y, z'
loop_
 _atom_site_type_symbol
 _atom_site_label
 _atom_site_symmetry_multiplicity
 _atom_site_fract_x
 _atom_site_fract_y
 _atom_site_fract_z
 _atom_site_occupancy
  Er  Er0  1  0.385398  0.408356  0.500000  1
  Er  Er1  1  0.591644  0.977042  0.500000  1
  Er  Er2  1  0.022958  0.614602  0.500000  1
  Co  Co3  1  0.000000  0.000000  0.500000  1
  Ag  Ag4  1  0.666667  0.333333  0.000000  1
  Sn  Sn5  1  0.751808  0.746500  0.000000  1
  Sn  Sn6  1  0.253500  0.005308  0.000000  1
  Sn  Sn7  1  0.994692  0.248192  0.000000  1
  Ir  Ir8  1  0.333333  0.666667  0.000000  1
