# generated using pymatgen
data_La8Pr8Cd4IrPt3
_symmetry_space_group_name_H-M   'P 1'
_cell_length_a   10.14316006
_cell_length_b   10.12212945
_cell_length_c   10.14266300
_cell_angle_alpha   59.93287565
_cell_angle_beta   60.00162432
_cell_angle_gamma   60.40132333
_symmetry_Int_Tables_number   1
_chemical_formula_structural   La8Pr8Cd4IrPt3
_chemical_formula_sum   'La8 Pr8 Cd4 Ir1 Pt3'
_cell_volume   738.18514687
_cell_formula_units_Z   1
loop_
 _symmetry_equiv_pos_site_id
 _symmetry_equiv_pos_as_xyz
  1  'x, y, z'
loop_
 _atom_site_type_symbol
 _atom_site_label
 _atom_site_symmetry_multiplicity
 _atom_site_fract_x
 _atom_site_fract_y
 _atom_site_fract_z
 _atom_site_occupancy
  La  La0  1  0.350904  0.346525  0.347771  1
  La  La1  1  0.350904  0.346525  0.954800  1
  La  La2  1  0.354104  0.953528  0.346184  1
  La  La3  1  0.946899  0.352344  0.350378  1
  La  La4  1  0.805750  0.189899  0.190697  1
  La  La5  1  0.192489  0.808517  0.807410  1
  La  La6  1  0.192489  0.808517  0.191586  1
  La  La7  1  0.805750  0.189899  0.813654  1
  Pr  Pr8  1  0.194017  0.192714  0.806635  1
  Pr  Pr9  1  0.804261  0.810079  0.192830  1
  Pr  Pr10  1  0.937875  0.563255  0.565552  1
  Pr  Pr11  1  0.565602  0.936469  0.933672  1
  Pr  Pr12  1  0.565602  0.936469  0.564256  1
  Pr  Pr13  1  0.937875  0.563255  0.933318  1
  Pr  Pr14  1  0.565782  0.562237  0.935990  1
  Pr  Pr15  1  0.937530  0.935016  0.563727  1
  Cd  Cd16  1  0.580739  0.581528  0.579769  1
  Cd  Cd17  1  0.580739  0.581528  0.257961  1
  Cd  Cd18  1  0.579352  0.257890  0.581378  1
  Cd  Cd19  1  0.258821  0.579652  0.580764  1
  Ir  Ir20  1  0.572697  0.146312  0.140496  1
  Pt  Pt21  1  0.138997  0.142361  0.146353  1
  Pt  Pt22  1  0.138997  0.142361  0.572290  1
  Pt  Pt23  1  0.141822  0.573119  0.142529  1
