# generated using pymatgen
data_Th4AlRe7
_symmetry_space_group_name_H-M   'P 1'
_cell_length_a   5.46399200
_cell_length_b   5.46399211
_cell_length_c   9.26588000
_cell_angle_alpha   90.00000000
_cell_angle_beta   90.00000000
_cell_angle_gamma   119.99999936
_symmetry_Int_Tables_number   1
_chemical_formula_structural   Th4AlRe7
_chemical_formula_sum   'Th4 Al1 Re7'
_cell_volume   239.57275326
_cell_formula_units_Z   1
loop_
 _symmetry_equiv_pos_site_id
 _symmetry_equiv_pos_as_xyz
  1  'x, y, z'
loop_
 _atom_site_type_symbol
 _atom_site_label
 _atom_site_symmetry_multiplicity
 _atom_site_fract_x
 _atom_site_fract_y
 _atom_site_fract_z
 _atom_site_occupancy
  Th  Th0  1  0.333333  0.666667  0.069571  1
  Th  Th1  1  0.666667  0.333333  0.563032  1
  Th  Th2  1  0.666667  0.333333  0.930429  1
  Th  Th3  1  0.333333  0.666667  0.436968  1
  Al  Al4  1  0.000000  0.000000  0.000000  1
  Re  Re5  1  0.000000  0.000000  0.500000  1
  Re  Re6  1  0.830418  0.660836  0.246908  1
  Re  Re7  1  0.169582  0.830418  0.753092  1
  Re  Re8  1  0.660836  0.830418  0.753092  1
  Re  Re9  1  0.339164  0.169582  0.246908  1
  Re  Re10  1  0.830418  0.169582  0.246908  1
  Re  Re11  1  0.169582  0.339164  0.753092  1
