# generated using pymatgen
data_Er13Lu7(IrPt5)2
_symmetry_space_group_name_H-M   'P 1'
_cell_length_a   10.90974251
_cell_length_b   10.91172352
_cell_length_c   6.34403101
_cell_angle_alpha   90.00482676
_cell_angle_beta   90.00016457
_cell_angle_gamma   90.03520486
_symmetry_Int_Tables_number   1
_chemical_formula_structural   Er13Lu7(IrPt5)2
_chemical_formula_sum   'Er13 Lu7 Ir2 Pt10'
_cell_volume   755.21927843
_cell_formula_units_Z   1
loop_
 _symmetry_equiv_pos_site_id
 _symmetry_equiv_pos_as_xyz
  1  'x, y, z'
loop_
 _atom_site_type_symbol
 _atom_site_label
 _atom_site_symmetry_multiplicity
 _atom_site_fract_x
 _atom_site_fract_y
 _atom_site_fract_z
 _atom_site_occupancy
  Er  Er0  1  0.708328  0.912528  0.377004  1
  Er  Er1  1  0.587645  0.792040  0.877011  1
  Er  Er2  1  0.587715  0.208039  0.376966  1
  Er  Er3  1  0.411933  0.792134  0.376991  1
  Er  Er4  1  0.412196  0.207844  0.876987  1
  Er  Er5  1  0.206056  0.413007  0.623629  1
  Er  Er6  1  0.206012  0.586945  0.123655  1
  Er  Er7  1  0.793959  0.412989  0.123720  1
  Er  Er8  1  0.793943  0.586944  0.623742  1
  Er  Er9  1  0.913024  0.706131  0.123721  1
  Er  Er10  1  0.912894  0.293757  0.623897  1
  Er  Er11  1  0.087135  0.706222  0.623811  1
  Er  Er12  1  0.087165  0.293765  0.123765  1
  Lu  Lu13  1  0.292138  0.087491  0.377407  1
  Lu  Lu14  1  0.292117  0.912500  0.877475  1
  Lu  Lu15  1  0.707920  0.087648  0.877323  1
  Lu  Lu16  1  0.000270  0.000113  0.500670  1
  Lu  Lu17  1  0.000091  0.000040  0.000391  1
  Lu  Lu18  1  0.500005  0.499981  0.000450  1
  Lu  Lu19  1  0.499993  0.500039  0.500550  1
  Ir  Ir20  1  0.000014  0.499959  0.879746  1
  Ir  Ir21  1  0.000034  0.499942  0.379583  1
  Pt  Pt22  1  0.846287  0.151840  0.248716  1
  Pt  Pt23  1  0.846526  0.848319  0.750046  1
  Pt  Pt24  1  0.153947  0.151431  0.748890  1
  Pt  Pt25  1  0.153845  0.848564  0.248856  1
  Pt  Pt26  1  0.652273  0.346094  0.750158  1
  Pt  Pt27  1  0.652061  0.653309  0.249822  1
  Pt  Pt28  1  0.347754  0.346103  0.250130  1
  Pt  Pt29  1  0.347707  0.653877  0.750103  1
  Pt  Pt30  1  0.499604  0.000143  0.116975  1
  Pt  Pt31  1  0.499407  0.000262  0.617799  1
