# generated using pymatgen
data_Tb2VPtF14
_symmetry_space_group_name_H-M   'P 1'
_cell_length_a   5.54722008
_cell_length_b   8.91727738
_cell_length_c   11.92718721
_cell_angle_alpha   62.65426690
_cell_angle_beta   90.27121142
_cell_angle_gamma   90.17801226
_symmetry_Int_Tables_number   1
_chemical_formula_structural   Tb2VPtF14
_chemical_formula_sum   'Tb4 V2 Pt2 F28'
_cell_volume   524.05424046
_cell_formula_units_Z   2
loop_
 _symmetry_equiv_pos_site_id
 _symmetry_equiv_pos_as_xyz
  1  'x, y, z'
loop_
 _atom_site_type_symbol
 _atom_site_label
 _atom_site_symmetry_multiplicity
 _atom_site_fract_x
 _atom_site_fract_y
 _atom_site_fract_z
 _atom_site_occupancy
  Tb  Tb0  1  0.258167  0.810074  0.264780  1
  Tb  Tb1  1  0.741833  0.189926  0.735220  1
  Tb  Tb2  1  0.761451  0.185638  0.232837  1
  Tb  Tb3  1  0.238549  0.814362  0.767163  1
  V  V4  1  0.753936  0.725895  0.043149  1
  V  V5  1  0.246064  0.274105  0.956851  1
  Pt  Pt6  1  0.259483  0.273395  0.454882  1
  Pt  Pt7  1  0.740517  0.726605  0.545118  1
  F  F8  1  0.931117  0.700780  0.416286  1
  F  F9  1  0.068883  0.299220  0.583714  1
  F  F10  1  0.453750  0.289262  0.077919  1
  F  F11  1  0.546250  0.710738  0.922081  1
  F  F12  1  0.482636  0.736637  0.134962  1
  F  F13  1  0.517364  0.263363  0.865038  1
  F  F14  1  0.964562  0.277738  0.360840  1
  F  F15  1  0.035438  0.722262  0.639160  1
  F  F16  1  0.957701  0.748648  0.164052  1
  F  F17  1  0.042299  0.251352  0.835948  1
  F  F18  1  0.445969  0.256721  0.320636  1
  F  F19  1  0.554031  0.743279  0.679364  1
  F  F20  1  0.765978  0.494968  0.134187  1
  F  F21  1  0.234022  0.505032  0.865813  1
  F  F22  1  0.274549  0.520848  0.355269  1
  F  F23  1  0.725451  0.479152  0.644731  1
  F  F24  1  0.965803  0.282763  0.047740  1
  F  F25  1  0.034197  0.717237  0.952260  1
  F  F26  1  0.438150  0.720171  0.459960  1
  F  F27  1  0.561850  0.279829  0.540040  1
  F  F28  1  0.743880  0.974387  0.451067  1
  F  F29  1  0.256120  0.025613  0.548933  1
  F  F30  1  0.240734  0.042536  0.048922  1
  F  F31  1  0.759266  0.957464  0.951078  1
  F  F32  1  0.586157  0.967172  0.232031  1
  F  F33  1  0.413843  0.032828  0.767969  1
  F  F34  1  0.084475  0.025629  0.270888  1
  F  F35  1  0.915525  0.974371  0.729112  1
