# generated using pymatgen
data_ErLu4Bi3
_symmetry_space_group_name_H-M   'P 1'
_cell_length_a   8.14914000
_cell_length_b   9.39492200
_cell_length_c   11.81513100
_cell_angle_alpha   90.00000000
_cell_angle_beta   90.00000000
_cell_angle_gamma   90.00000000
_symmetry_Int_Tables_number   1
_chemical_formula_structural   ErLu4Bi3
_chemical_formula_sum   'Er4 Lu16 Bi12'
_cell_volume   904.57274652
_cell_formula_units_Z   4
loop_
 _symmetry_equiv_pos_site_id
 _symmetry_equiv_pos_as_xyz
  1  'x, y, z'
loop_
 _atom_site_type_symbol
 _atom_site_label
 _atom_site_symmetry_multiplicity
 _atom_site_fract_x
 _atom_site_fract_y
 _atom_site_fract_z
 _atom_site_occupancy
  Er  Er0  1  0.313016  0.250000  0.217248  1
  Er  Er1  1  0.813016  0.250000  0.282752  1
  Er  Er2  1  0.686984  0.750000  0.782752  1
  Er  Er3  1  0.186984  0.750000  0.717248  1
  Lu  Lu4  1  0.352488  0.750000  0.217682  1
  Lu  Lu5  1  0.852488  0.750000  0.282318  1
  Lu  Lu6  1  0.647512  0.250000  0.782318  1
  Lu  Lu7  1  0.147512  0.250000  0.717682  1
  Lu  Lu8  1  0.692031  0.566883  0.059132  1
  Lu  Lu9  1  0.192031  0.933117  0.440868  1
  Lu  Lu10  1  0.307969  0.066883  0.940868  1
  Lu  Lu11  1  0.807969  0.433117  0.559132  1
  Lu  Lu12  1  0.307969  0.433117  0.940868  1
  Lu  Lu13  1  0.807969  0.066883  0.559132  1
  Lu  Lu14  1  0.692031  0.933117  0.059132  1
  Lu  Lu15  1  0.192031  0.566883  0.440868  1
  Lu  Lu16  1  0.477748  0.250000  0.489285  1
  Lu  Lu17  1  0.977748  0.250000  0.010715  1
  Lu  Lu18  1  0.522252  0.750000  0.510715  1
  Lu  Lu19  1  0.022252  0.750000  0.989285  1
  Bi  Bi20  1  0.402719  0.750000  0.957876  1
  Bi  Bi21  1  0.902719  0.750000  0.542124  1
  Bi  Bi22  1  0.597281  0.250000  0.042124  1
  Bi  Bi23  1  0.097281  0.250000  0.457876  1
  Bi  Bi24  1  0.565408  0.995334  0.325328  1
  Bi  Bi25  1  0.065408  0.504666  0.174672  1
  Bi  Bi26  1  0.434592  0.495334  0.674672  1
  Bi  Bi27  1  0.934592  0.004666  0.825328  1
  Bi  Bi28  1  0.434592  0.004666  0.674672  1
  Bi  Bi29  1  0.934592  0.495334  0.825328  1
  Bi  Bi30  1  0.565408  0.504666  0.325328  1
  Bi  Bi31  1  0.065408  0.995334  0.174672  1
