# generated using pymatgen
data_LiMn2(NiAs)3
_symmetry_space_group_name_H-M   'P 1'
_cell_length_a   6.17816977
_cell_length_b   6.17817033
_cell_length_c   3.66777300
_cell_angle_alpha   90.00000000
_cell_angle_beta   90.00000000
_cell_angle_gamma   120.74842530
_symmetry_Int_Tables_number   1
_chemical_formula_structural   LiMn2(NiAs)3
_chemical_formula_sum   'Li1 Mn2 Ni3 As3'
_cell_volume   120.31723850
_cell_formula_units_Z   1
loop_
 _symmetry_equiv_pos_site_id
 _symmetry_equiv_pos_as_xyz
  1  'x, y, z'
loop_
 _atom_site_type_symbol
 _atom_site_label
 _atom_site_symmetry_multiplicity
 _atom_site_fract_x
 _atom_site_fract_y
 _atom_site_fract_z
 _atom_site_occupancy
  Li  Li0  1  0.417171  0.417171  0.500000  1
  Mn  Mn1  1  0.584983  0.000490  0.500000  1
  Mn  Mn2  1  0.000490  0.584983  0.500000  1
  Ni  Ni3  1  0.746655  0.746655  0.000000  1
  Ni  Ni4  1  0.248730  0.000941  0.000000  1
  Ni  Ni5  1  0.000941  0.248730  0.000000  1
  As  As6  1  0.671873  0.333432  0.000000  1
  As  As7  1  0.333432  0.671873  0.000000  1
  As  As8  1  0.995724  0.995724  0.500000  1
