# generated using pymatgen
data_Yb2(CeIr)3
_symmetry_space_group_name_H-M   'P 1'
_cell_length_a   8.29038800
_cell_length_b   8.29038797
_cell_length_c   6.34698700
_cell_angle_alpha   90.00000000
_cell_angle_beta   90.00000000
_cell_angle_gamma   120.00000811
_symmetry_Int_Tables_number   1
_chemical_formula_structural   Yb2(CeIr)3
_chemical_formula_sum   'Yb4 Ce6 Ir6'
_cell_volume   377.78778894
_cell_formula_units_Z   2
loop_
 _symmetry_equiv_pos_site_id
 _symmetry_equiv_pos_as_xyz
  1  'x, y, z'
loop_
 _atom_site_type_symbol
 _atom_site_label
 _atom_site_symmetry_multiplicity
 _atom_site_fract_x
 _atom_site_fract_y
 _atom_site_fract_z
 _atom_site_occupancy
  Yb  Yb0  1  0.666667  0.333333  0.500000  1
  Yb  Yb1  1  0.333333  0.666667  0.500000  1
  Yb  Yb2  1  0.333333  0.666667  0.000000  1
  Yb  Yb3  1  0.666667  0.333333  0.000000  1
  Ce  Ce4  1  0.740729  0.740729  0.250000  1
  Ce  Ce5  1  0.259271  0.000000  0.250000  1
  Ce  Ce6  1  0.000000  0.259271  0.250000  1
  Ce  Ce7  1  0.259271  0.259271  0.750000  1
  Ce  Ce8  1  0.740729  0.000000  0.750000  1
  Ce  Ce9  1  0.000000  0.740729  0.750000  1
  Ir  Ir10  1  0.371025  0.371025  0.250000  1
  Ir  Ir11  1  0.628975  0.000000  0.250000  1
  Ir  Ir12  1  0.000000  0.628975  0.250000  1
  Ir  Ir13  1  0.628975  0.628975  0.750000  1
  Ir  Ir14  1  0.371025  0.000000  0.750000  1
  Ir  Ir15  1  0.000000  0.371025  0.750000  1
