# generated using pymatgen
data_NdFePdO5
_symmetry_space_group_name_H-M   'P 1'
_cell_length_a   6.01157900
_cell_length_b   7.54181300
_cell_length_c   8.91247800
_cell_angle_alpha   90.00000000
_cell_angle_beta   90.00000000
_cell_angle_gamma   90.00000000
_symmetry_Int_Tables_number   1
_chemical_formula_structural   NdFePdO5
_chemical_formula_sum   'Nd4 Fe4 Pd4 O20'
_cell_volume   404.07575153
_cell_formula_units_Z   4
loop_
 _symmetry_equiv_pos_site_id
 _symmetry_equiv_pos_as_xyz
  1  'x, y, z'
loop_
 _atom_site_type_symbol
 _atom_site_label
 _atom_site_symmetry_multiplicity
 _atom_site_fract_x
 _atom_site_fract_y
 _atom_site_fract_z
 _atom_site_occupancy
  Nd  Nd0  1  0.000000  0.367543  0.669598  1
  Nd  Nd1  1  0.000000  0.632457  0.330402  1
  Nd  Nd2  1  0.000000  0.867543  0.830402  1
  Nd  Nd3  1  0.000000  0.132457  0.169598  1
  Fe  Fe4  1  0.500000  0.103247  0.856433  1
  Fe  Fe5  1  0.500000  0.896753  0.143567  1
  Fe  Fe6  1  0.500000  0.603247  0.643567  1
  Fe  Fe7  1  0.500000  0.396753  0.356433  1
  Pd  Pd8  1  0.251624  0.500000  0.000000  1
  Pd  Pd9  1  0.748376  0.000000  0.500000  1
  Pd  Pd10  1  0.748376  0.500000  0.000000  1
  Pd  Pd11  1  0.251624  0.000000  0.500000  1
  O  O12  1  0.244368  0.897833  0.287215  1
  O  O13  1  0.244368  0.102167  0.712785  1
  O  O14  1  0.755632  0.397833  0.212785  1
  O  O15  1  0.755632  0.602167  0.787215  1
  O  O16  1  0.755632  0.102167  0.712785  1
  O  O17  1  0.755632  0.897833  0.287215  1
  O  O18  1  0.244368  0.602167  0.787215  1
  O  O19  1  0.244368  0.397833  0.212785  1
  O  O20  1  0.500000  0.342165  0.931028  1
  O  O21  1  0.500000  0.657835  0.068972  1
  O  O22  1  0.500000  0.842165  0.568972  1
  O  O23  1  0.500000  0.157835  0.431028  1
  O  O24  1  0.274733  0.000000  0.000000  1
  O  O25  1  0.725267  0.500000  0.500000  1
  O  O26  1  0.725267  0.000000  0.000000  1
  O  O27  1  0.274733  0.500000  0.500000  1
  O  O28  1  0.000000  0.166307  0.442683  1
  O  O29  1  0.000000  0.833693  0.557317  1
  O  O30  1  0.000000  0.666307  0.057317  1
  O  O31  1  0.000000  0.333693  0.942683  1
