# generated using pymatgen
data_Zr(ScZn4)3
_symmetry_space_group_name_H-M   'P 1'
_cell_length_a   4.22424500
_cell_length_b   6.47672897
_cell_length_c   9.77966335
_cell_angle_alpha   89.74655180
_cell_angle_beta   90.00000000
_cell_angle_gamma   90.00000000
_symmetry_Int_Tables_number   1
_chemical_formula_structural   Zr(ScZn4)3
_chemical_formula_sum   'Zr1 Sc3 Zn12'
_cell_volume   267.56202762
_cell_formula_units_Z   1
loop_
 _symmetry_equiv_pos_site_id
 _symmetry_equiv_pos_as_xyz
  1  'x, y, z'
loop_
 _atom_site_type_symbol
 _atom_site_label
 _atom_site_symmetry_multiplicity
 _atom_site_fract_x
 _atom_site_fract_y
 _atom_site_fract_z
 _atom_site_occupancy
  Zr  Zr0  1  0.750000  0.218524  0.168046  1
  Sc  Sc1  1  0.250000  0.279900  0.666467  1
  Sc  Sc2  1  0.250000  0.778059  0.831734  1
  Sc  Sc3  1  0.750000  0.723410  0.335234  1
  Zn  Zn4  1  0.250000  0.533475  0.098403  1
  Zn  Zn5  1  0.250000  0.041333  0.398329  1
  Zn  Zn6  1  0.750000  0.460425  0.901747  1
  Zn  Zn7  1  0.750000  0.964240  0.599325  1
  Zn  Zn8  1  0.250000  0.922832  0.152582  1
  Zn  Zn9  1  0.250000  0.429294  0.346385  1
  Zn  Zn10  1  0.750000  0.075018  0.847553  1
  Zn  Zn11  1  0.750000  0.575795  0.654187  1
  Zn  Zn12  1  0.250000  0.206980  0.957684  1
  Zn  Zn13  1  0.250000  0.710722  0.540510  1
  Zn  Zn14  1  0.750000  0.786427  0.043036  1
  Zn  Zn15  1  0.750000  0.293564  0.458778  1
