# generated using pymatgen
data_CaHoInS4
_symmetry_space_group_name_H-M   'P 1'
_cell_length_a   13.87828000
_cell_length_b   8.11096600
_cell_length_c   6.58471900
_cell_angle_alpha   90.00000000
_cell_angle_beta   90.00000000
_cell_angle_gamma   90.00000000
_symmetry_Int_Tables_number   1
_chemical_formula_structural   CaHoInS4
_chemical_formula_sum   'Ca4 Ho4 In4 S16'
_cell_volume   741.21717267
_cell_formula_units_Z   4
loop_
 _symmetry_equiv_pos_site_id
 _symmetry_equiv_pos_as_xyz
  1  'x, y, z'
loop_
 _atom_site_type_symbol
 _atom_site_label
 _atom_site_symmetry_multiplicity
 _atom_site_fract_x
 _atom_site_fract_y
 _atom_site_fract_z
 _atom_site_occupancy
  Ca  Ca0  1  0.730925  0.750000  0.008251  1
  Ca  Ca1  1  0.230925  0.750000  0.491748  1
  Ca  Ca2  1  0.769076  0.250000  0.508252  1
  Ca  Ca3  1  0.269075  0.250000  0.991749  1
  Ho  Ho4  1  0.000000  0.000000  0.000000  1
  Ho  Ho5  1  0.000000  0.499999  0.000000  1
  Ho  Ho6  1  0.500000  0.000000  0.500001  1
  Ho  Ho7  1  0.500000  0.499999  0.500001  1
  In  In8  1  0.593162  0.250000  0.087065  1
  In  In9  1  0.093162  0.250000  0.412934  1
  In  In10  1  0.906839  0.750000  0.587066  1
  In  In11  1  0.406838  0.750000  0.912933  1
  S  S12  1  0.913397  0.750000  0.214991  1
  S  S13  1  0.164422  0.009864  0.234530  1
  S  S14  1  0.164422  0.490136  0.234530  1
  S  S15  1  0.929695  0.250000  0.238532  1
  S  S16  1  0.429695  0.250000  0.261469  1
  S  S17  1  0.664422  0.009864  0.265471  1
  S  S18  1  0.664422  0.490136  0.265471  1
  S  S19  1  0.413398  0.750000  0.285009  1
  S  S20  1  0.586603  0.250000  0.714992  1
  S  S21  1  0.335577  0.509865  0.734530  1
  S  S22  1  0.335577  0.990135  0.734530  1
  S  S23  1  0.570306  0.750000  0.738533  1
  S  S24  1  0.070306  0.750000  0.761469  1
  S  S25  1  0.835578  0.509865  0.765470  1
  S  S26  1  0.835578  0.990135  0.765470  1
  S  S27  1  0.086603  0.250000  0.785009  1
