# generated using pymatgen
data_Pr10Os3Au
_symmetry_space_group_name_H-M   'P 1'
_cell_length_a   9.03972770
_cell_length_b   9.10490989
_cell_length_c   7.47052173
_cell_angle_alpha   83.58305913
_cell_angle_beta   83.54837670
_cell_angle_gamma   43.67991535
_symmetry_Int_Tables_number   1
_chemical_formula_structural   Pr10Os3Au
_chemical_formula_sum   'Pr10 Os3 Au1'
_cell_volume   421.53948624
_cell_formula_units_Z   1
loop_
 _symmetry_equiv_pos_site_id
 _symmetry_equiv_pos_as_xyz
  1  'x, y, z'
loop_
 _atom_site_type_symbol
 _atom_site_label
 _atom_site_symmetry_multiplicity
 _atom_site_fract_x
 _atom_site_fract_y
 _atom_site_fract_z
 _atom_site_occupancy
  Pr  Pr0  1  0.012805  0.806078  0.935455  1
  Pr  Pr1  1  0.200554  0.987265  0.585558  1
  Pr  Pr2  1  0.985239  0.197263  0.087300  1
  Pr  Pr3  1  0.779386  0.039472  0.410690  1
  Pr  Pr4  1  0.367224  0.191881  0.820532  1
  Pr  Pr5  1  0.781085  0.644324  0.684306  1
  Pr  Pr6  1  0.651454  0.783575  0.185904  1
  Pr  Pr7  1  0.211603  0.344013  0.305715  1
  Pr  Pr8  1  0.574367  0.427966  0.753547  1
  Pr  Pr9  1  0.436788  0.574951  0.237265  1
  Os  Os10  1  0.401715  0.823376  0.922896  1
  Os  Os11  1  0.820508  0.397747  0.430024  1
  Os  Os12  1  0.594865  0.183708  0.073688  1
  Au  Au13  1  0.182408  0.598381  0.567120  1
