# generated using pymatgen
data_DyYHo2(GaCo)4
_symmetry_space_group_name_H-M   'P 1'
_cell_length_a   4.43424100
_cell_length_b   6.83686504
_cell_length_c   7.02887356
_cell_angle_alpha   89.89050756
_cell_angle_beta   90.00000000
_cell_angle_gamma   90.00000000
_symmetry_Int_Tables_number   1
_chemical_formula_structural   DyYHo2(GaCo)4
_chemical_formula_sum   'Dy1 Y1 Ho2 Ga4 Co4'
_cell_volume   213.08910144
_cell_formula_units_Z   1
loop_
 _symmetry_equiv_pos_site_id
 _symmetry_equiv_pos_as_xyz
  1  'x, y, z'
loop_
 _atom_site_type_symbol
 _atom_site_label
 _atom_site_symmetry_multiplicity
 _atom_site_fract_x
 _atom_site_fract_y
 _atom_site_fract_z
 _atom_site_occupancy
  Dy  Dy0  1  0.750000  0.804457  0.476212  1
  Y  Y1  1  0.750000  0.694625  0.976608  1
  Ho  Ho2  1  0.250000  0.196429  0.524515  1
  Ho  Ho3  1  0.250000  0.302688  0.025094  1
  Ga  Ga4  1  0.250000  0.893929  0.194175  1
  Ga  Ga5  1  0.750000  0.392292  0.306121  1
  Ga  Ga6  1  0.250000  0.605504  0.694967  1
  Ga  Ga7  1  0.750000  0.107855  0.805273  1
  Co  Co8  1  0.250000  0.938467  0.843938  1
  Co  Co9  1  0.250000  0.562605  0.345118  1
  Co  Co10  1  0.750000  0.064454  0.154216  1
  Co  Co11  1  0.750000  0.436694  0.653763  1
