# generated using pymatgen
data_HoEr(InFe2)2
_symmetry_space_group_name_H-M   'P 1'
_cell_length_a   5.06241900
_cell_length_b   3.98478400
_cell_length_c   7.29377900
_cell_angle_alpha   90.00000000
_cell_angle_beta   90.00000000
_cell_angle_gamma   90.00000000
_symmetry_Int_Tables_number   1
_chemical_formula_structural   HoEr(InFe2)2
_chemical_formula_sum   'Ho1 Er1 In2 Fe4'
_cell_volume   147.13482347
_cell_formula_units_Z   1
loop_
 _symmetry_equiv_pos_site_id
 _symmetry_equiv_pos_as_xyz
  1  'x, y, z'
loop_
 _atom_site_type_symbol
 _atom_site_label
 _atom_site_symmetry_multiplicity
 _atom_site_fract_x
 _atom_site_fract_y
 _atom_site_fract_z
 _atom_site_occupancy
  Ho  Ho0  1  0.249999  0.000000  0.790672  1
  Er  Er1  1  0.750000  0.000000  0.210094  1
  In  In2  1  0.249999  0.500000  0.152408  1
  In  In3  1  0.750000  0.500000  0.848148  1
  Fe  Fe4  1  0.249999  0.000000  0.416799  1
  Fe  Fe5  1  0.999743  0.500000  0.499660  1
  Fe  Fe6  1  0.500258  0.500000  0.499660  1
  Fe  Fe7  1  0.750000  0.000000  0.582557  1
