# generated using pymatgen
data_Sr8Cd3Sn4Hg
_symmetry_space_group_name_H-M   'P 1'
_cell_length_a   8.05122300
_cell_length_b   5.77103800
_cell_length_c   11.53072000
_cell_angle_alpha   90.00000000
_cell_angle_beta   89.99931703
_cell_angle_gamma   90.00000000
_symmetry_Int_Tables_number   1
_chemical_formula_structural   Sr8Cd3Sn4Hg
_chemical_formula_sum   'Sr8 Cd3 Sn4 Hg1'
_cell_volume   535.76238103
_cell_formula_units_Z   1
loop_
 _symmetry_equiv_pos_site_id
 _symmetry_equiv_pos_as_xyz
  1  'x, y, z'
loop_
 _atom_site_type_symbol
 _atom_site_label
 _atom_site_symmetry_multiplicity
 _atom_site_fract_x
 _atom_site_fract_y
 _atom_site_fract_z
 _atom_site_occupancy
  Sr  Sr0  1  0.998599  0.749999  0.125506  1
  Sr  Sr1  1  0.501364  0.749999  0.125553  1
  Sr  Sr2  1  0.999207  0.250000  0.373782  1
  Sr  Sr3  1  0.500771  0.250000  0.373826  1
  Sr  Sr4  1  0.500216  0.749999  0.625534  1
  Sr  Sr5  1  0.999807  0.749999  0.625576  1
  Sr  Sr6  1  0.500852  0.250000  0.875105  1
  Sr  Sr7  1  0.999185  0.250000  0.875143  1
  Cd  Cd8  1  0.249941  0.749999  0.375987  1
  Cd  Cd9  1  0.750059  0.250000  0.623996  1
  Cd  Cd10  1  0.250059  0.749999  0.875994  1
  Sn  Sn11  1  0.250003  0.250000  0.124303  1
  Sn  Sn12  1  0.750006  0.749999  0.376487  1
  Sn  Sn13  1  0.249994  0.250000  0.624290  1
  Sn  Sn14  1  0.749999  0.749999  0.874872  1
  Hg  Hg15  1  0.749938  0.250000  0.124047  1
