# generated using pymatgen
data_La5ThSc2BiSb9
_symmetry_space_group_name_H-M   'P 1'
_cell_length_a   9.60160340
_cell_length_b   9.60464397
_cell_length_c   6.50369313
_cell_angle_alpha   90.01378800
_cell_angle_beta   89.97775966
_cell_angle_gamma   120.01556207
_symmetry_Int_Tables_number   1
_chemical_formula_structural   La5ThSc2BiSb9
_chemical_formula_sum   'La5 Th1 Sc2 Bi1 Sb9'
_cell_volume   519.33494795
_cell_formula_units_Z   1
loop_
 _symmetry_equiv_pos_site_id
 _symmetry_equiv_pos_as_xyz
  1  'x, y, z'
loop_
 _atom_site_type_symbol
 _atom_site_label
 _atom_site_symmetry_multiplicity
 _atom_site_fract_x
 _atom_site_fract_y
 _atom_site_fract_z
 _atom_site_occupancy
  La  La0  1  0.378056  0.380974  0.247522  1
  La  La1  1  0.381760  0.998503  0.752578  1
  La  La2  1  0.614591  0.620410  0.752432  1
  La  La3  1  0.618670  0.996202  0.247666  1
  La  La4  1  0.003282  0.380754  0.751977  1
  Th  Th5  1  0.003352  0.620530  0.247339  1
  Sc  Sc6  1  0.000007  0.000369  0.998500  1
  Sc  Sc7  1  0.000019  0.000323  0.501408  1
  Bi  Bi8  1  0.670305  0.336875  0.498700  1
  Sb  Sb9  1  0.998456  0.259176  0.250664  1
  Sb  Sb10  1  0.328914  0.666404  0.497171  1
  Sb  Sb11  1  0.671582  0.337980  0.002471  1
  Sb  Sb12  1  0.329114  0.666454  0.002581  1
  Sb  Sb13  1  0.259861  0.257509  0.749360  1
  Sb  Sb14  1  0.741584  0.000730  0.749299  1
  Sb  Sb15  1  0.998595  0.738825  0.749167  1
  Sb  Sb16  1  0.744574  0.739561  0.250548  1
  Sb  Sb17  1  0.257277  0.998417  0.250614  1
