# generated using pymatgen
data_Ho5Er5(Ir2Ru)2
_symmetry_space_group_name_H-M   'P 1'
_cell_length_a   10.75624603
_cell_length_b   10.75620300
_cell_length_c   6.39115002
_cell_angle_alpha   90.00066193
_cell_angle_beta   90.00852867
_cell_angle_gamma   90.00073507
_symmetry_Int_Tables_number   1
_chemical_formula_structural   Ho5Er5(Ir2Ru)2
_chemical_formula_sum   'Ho10 Er10 Ir8 Ru4'
_cell_volume   739.43282218
_cell_formula_units_Z   2
loop_
 _symmetry_equiv_pos_site_id
 _symmetry_equiv_pos_as_xyz
  1  'x, y, z'
loop_
 _atom_site_type_symbol
 _atom_site_label
 _atom_site_symmetry_multiplicity
 _atom_site_fract_x
 _atom_site_fract_y
 _atom_site_fract_z
 _atom_site_occupancy
  Ho  Ho0  1  0.293173  0.086424  0.376969  1
  Ho  Ho1  1  0.293171  0.913573  0.876962  1
  Ho  Ho2  1  0.706829  0.086504  0.876979  1
  Ho  Ho3  1  0.706839  0.913516  0.376998  1
  Ho  Ho4  1  0.586512  0.793148  0.877017  1
  Ho  Ho5  1  0.586509  0.206860  0.376998  1
  Ho  Ho6  1  0.413613  0.793215  0.377046  1
  Ho  Ho7  1  0.413614  0.206778  0.877056  1
  Ho  Ho8  1  0.206504  0.413608  0.622940  1
  Ho  Ho9  1  0.206510  0.586384  0.122964  1
  Er  Er10  1  0.793611  0.413744  0.122773  1
  Er  Er11  1  0.793616  0.586266  0.622790  1
  Er  Er12  1  0.913601  0.706427  0.122790  1
  Er  Er13  1  0.913614  0.293593  0.622803  1
  Er  Er14  1  0.086153  0.706515  0.622823  1
  Er  Er15  1  0.086175  0.293485  0.122814  1
  Er  Er16  1  0.999958  0.999958  0.499988  1
  Er  Er17  1  0.999970  0.000006  0.000015  1
  Er  Er18  1  0.500130  0.499962  0.999969  1
  Er  Er19  1  0.500130  0.500045  0.499963  1
  Ir  Ir20  1  0.847890  0.152705  0.250180  1
  Ir  Ir21  1  0.847884  0.847280  0.750177  1
  Ir  Ir22  1  0.152077  0.152501  0.750319  1
  Ir  Ir23  1  0.152070  0.847491  0.250320  1
  Ir  Ir24  1  0.652690  0.347855  0.750218  1
  Ir  Ir25  1  0.652699  0.652145  0.250214  1
  Ir  Ir26  1  0.347495  0.347672  0.249947  1
  Ir  Ir27  1  0.347498  0.652326  0.749950  1
  Ru  Ru28  1  0.499956  0.000036  0.122220  1
  Ru  Ru29  1  0.499960  0.999967  0.622231  1
  Ru  Ru30  1  0.999773  0.500007  0.877786  1
  Ru  Ru31  1  0.999776  0.500004  0.377779  1
