# generated using pymatgen
data_LuTh4Si4Ag
_symmetry_space_group_name_H-M   'P 1'
_cell_length_a   7.54938600
_cell_length_b   7.54938600
_cell_length_c   4.22449200
_cell_angle_alpha   90.00000000
_cell_angle_beta   90.00000000
_cell_angle_gamma   90.00000000
_symmetry_Int_Tables_number   1
_chemical_formula_structural   LuTh4Si4Ag
_chemical_formula_sum   'Lu1 Th4 Si4 Ag1'
_cell_volume   240.76743987
_cell_formula_units_Z   1
loop_
 _symmetry_equiv_pos_site_id
 _symmetry_equiv_pos_as_xyz
  1  'x, y, z'
loop_
 _atom_site_type_symbol
 _atom_site_label
 _atom_site_symmetry_multiplicity
 _atom_site_fract_x
 _atom_site_fract_y
 _atom_site_fract_z
 _atom_site_occupancy
  Lu  Lu0  1  0.000000  0.000000  0.000000  1
  Th  Th1  1  0.670235  0.192617  0.500000  1
  Th  Th2  1  0.329765  0.807383  0.500000  1
  Th  Th3  1  0.192617  0.329765  0.500000  1
  Th  Th4  1  0.807383  0.670235  0.500000  1
  Si  Si5  1  0.100989  0.625574  0.000000  1
  Si  Si6  1  0.899011  0.374426  0.000000  1
  Si  Si7  1  0.625574  0.899011  0.000000  1
  Si  Si8  1  0.374426  0.100989  0.000000  1
  Ag  Ag9  1  0.500000  0.500000  0.000000  1
