# generated using pymatgen
data_Pa8Cd3FeO24
_symmetry_space_group_name_H-M   'P 1'
_cell_length_a   5.41714300
_cell_length_b   5.39662962
_cell_length_c   16.39815211
_cell_angle_alpha   90.47937339
_cell_angle_beta   90.00000000
_cell_angle_gamma   90.00000000
_symmetry_Int_Tables_number   1
_chemical_formula_structural   Pa8Cd3FeO24
_chemical_formula_sum   'Pa8 Cd3 Fe1 O24'
_cell_volume   479.37195501
_cell_formula_units_Z   1
loop_
 _symmetry_equiv_pos_site_id
 _symmetry_equiv_pos_as_xyz
  1  'x, y, z'
loop_
 _atom_site_type_symbol
 _atom_site_label
 _atom_site_symmetry_multiplicity
 _atom_site_fract_x
 _atom_site_fract_y
 _atom_site_fract_z
 _atom_site_occupancy
  Pa  Pa0  1  0.252772  0.461900  0.658649  1
  Pa  Pa1  1  0.250221  0.966645  0.836102  1
  Pa  Pa2  1  0.250221  0.033355  0.163898  1
  Pa  Pa3  1  0.252772  0.538100  0.341351  1
  Pa  Pa4  1  0.747241  0.043051  0.341424  1
  Pa  Pa5  1  0.753392  0.535963  0.163849  1
  Pa  Pa6  1  0.753392  0.464037  0.836151  1
  Pa  Pa7  1  0.747241  0.956949  0.658576  1
  Cd  Cd8  1  0.270927  0.500000  0.000000  1
  Cd  Cd9  1  0.216946  0.000000  0.500000  1
  Cd  Cd10  1  0.726374  0.000000  0.000000  1
  Fe  Fe11  1  0.792423  0.500000  0.500000  1
  O  O12  1  0.039293  0.674642  0.901770  1
  O  O13  1  0.450895  0.158328  0.597730  1
  O  O14  1  0.450895  0.841672  0.402270  1
  O  O15  1  0.039293  0.325358  0.098230  1
  O  O16  1  0.961369  0.825835  0.097741  1
  O  O17  1  0.547766  0.344504  0.409543  1
  O  O18  1  0.547766  0.655496  0.590457  1
  O  O19  1  0.961369  0.174165  0.902259  1
  O  O20  1  0.024845  0.784159  0.253533  1
  O  O21  1  0.480895  0.283168  0.253357  1
  O  O22  1  0.480895  0.716832  0.746643  1
  O  O23  1  0.024845  0.215841  0.746467  1
  O  O24  1  0.981560  0.716094  0.745976  1
  O  O25  1  0.524785  0.215907  0.750495  1
  O  O26  1  0.524785  0.784093  0.249505  1
  O  O27  1  0.981560  0.283906  0.254024  1
  O  O28  1  0.034985  0.731238  0.588380  1
  O  O29  1  0.462785  0.245406  0.906965  1
  O  O30  1  0.462785  0.754594  0.093035  1
  O  O31  1  0.034985  0.268762  0.411620  1
  O  O32  1  0.946243  0.754880  0.411118  1
  O  O33  1  0.537620  0.254474  0.095599  1
  O  O34  1  0.537620  0.745526  0.904401  1
  O  O35  1  0.946243  0.245120  0.588882  1
