# generated using pymatgen
data_Tl4CoSbCl12
_symmetry_space_group_name_H-M   'P 1'
_cell_length_a   7.06524300
_cell_length_b   7.06524216
_cell_length_c   10.29292200
_cell_angle_alpha   90.00000000
_cell_angle_beta   90.00000000
_cell_angle_gamma   89.66170096
_symmetry_Int_Tables_number   1
_chemical_formula_structural   Tl4CoSbCl12
_chemical_formula_sum   'Tl4 Co1 Sb1 Cl12'
_cell_volume   513.78954937
_cell_formula_units_Z   1
loop_
 _symmetry_equiv_pos_site_id
 _symmetry_equiv_pos_as_xyz
  1  'x, y, z'
loop_
 _atom_site_type_symbol
 _atom_site_label
 _atom_site_symmetry_multiplicity
 _atom_site_fract_x
 _atom_site_fract_y
 _atom_site_fract_z
 _atom_site_occupancy
  Tl  Tl0  1  0.500000  0.000000  0.787986  1
  Tl  Tl1  1  0.000000  0.500000  0.212014  1
  Tl  Tl2  1  0.500000  0.000000  0.212014  1
  Tl  Tl3  1  0.000000  0.500000  0.787986  1
  Co  Co4  1  0.000000  0.000000  0.000000  1
  Sb  Sb5  1  0.500000  0.500000  0.500000  1
  Cl  Cl6  1  0.000000  0.000000  0.779475  1
  Cl  Cl7  1  0.500000  0.500000  0.263274  1
  Cl  Cl8  1  0.739991  0.739991  0.500000  1
  Cl  Cl9  1  0.227951  0.227951  0.000000  1
  Cl  Cl10  1  0.741292  0.258708  0.500000  1
  Cl  Cl11  1  0.228274  0.771726  0.000000  1
  Cl  Cl12  1  0.000000  0.000000  0.220525  1
  Cl  Cl13  1  0.500000  0.500000  0.736726  1
  Cl  Cl14  1  0.260009  0.260009  0.500000  1
  Cl  Cl15  1  0.772049  0.772049  0.000000  1
  Cl  Cl16  1  0.258708  0.741292  0.500000  1
  Cl  Cl17  1  0.771726  0.228274  0.000000  1
