# generated using pymatgen
data_HoBi2WO7
_symmetry_space_group_name_H-M   'P 1'
_cell_length_a   6.46151889
_cell_length_b   6.82526707
_cell_length_c   7.65661610
_cell_angle_alpha   106.49132783
_cell_angle_beta   89.86715104
_cell_angle_gamma   99.05743830
_symmetry_Int_Tables_number   1
_chemical_formula_structural   HoBi2WO7
_chemical_formula_sum   'Ho2 Bi4 W2 O14'
_cell_volume   319.42074999
_cell_formula_units_Z   2
loop_
 _symmetry_equiv_pos_site_id
 _symmetry_equiv_pos_as_xyz
  1  'x, y, z'
loop_
 _atom_site_type_symbol
 _atom_site_label
 _atom_site_symmetry_multiplicity
 _atom_site_fract_x
 _atom_site_fract_y
 _atom_site_fract_z
 _atom_site_occupancy
  Ho  Ho0  1  0.545679  0.993763  0.747306  1
  Ho  Ho1  1  0.454321  0.006237  0.252694  1
  Bi  Bi2  1  0.252968  0.511844  0.880370  1
  Bi  Bi3  1  0.747032  0.488156  0.119630  1
  Bi  Bi4  1  0.728169  0.459383  0.610827  1
  Bi  Bi5  1  0.271831  0.540617  0.389173  1
  W  W6  1  0.000000  0.000000  0.500000  1
  W  W7  1  0.000000  0.000000  0.000000  1
  O  O8  1  0.460867  0.661044  0.179546  1
  O  O9  1  0.539133  0.338956  0.820454  1
  O  O10  1  0.287222  0.952366  0.949188  1
  O  O11  1  0.712778  0.047634  0.050812  1
  O  O12  1  0.291325  0.919039  0.511212  1
  O  O13  1  0.708675  0.080961  0.488788  1
  O  O14  1  0.525318  0.349247  0.348474  1
  O  O15  1  0.474682  0.650753  0.651526  1
  O  O16  1  0.914332  0.683972  0.953767  1
  O  O17  1  0.085668  0.316028  0.046233  1
  O  O18  1  0.099708  0.297912  0.613612  1
  O  O19  1  0.900292  0.702088  0.386388  1
  O  O20  1  0.898926  0.951417  0.737030  1
  O  O21  1  0.101074  0.048583  0.262970  1
