# generated using pymatgen
data_SrTbSiGe3N7
_symmetry_space_group_name_H-M   'P 1'
_cell_length_a   6.28786200
_cell_length_b   6.28786267
_cell_length_c   10.12959200
_cell_angle_alpha   90.00000000
_cell_angle_beta   90.00000000
_cell_angle_gamma   119.99999648
_symmetry_Int_Tables_number   1
_chemical_formula_structural   SrTbSiGe3N7
_chemical_formula_sum   'Sr2 Tb2 Si2 Ge6 N14'
_cell_volume   346.83957852
_cell_formula_units_Z   2
loop_
 _symmetry_equiv_pos_site_id
 _symmetry_equiv_pos_as_xyz
  1  'x, y, z'
loop_
 _atom_site_type_symbol
 _atom_site_label
 _atom_site_symmetry_multiplicity
 _atom_site_fract_x
 _atom_site_fract_y
 _atom_site_fract_z
 _atom_site_occupancy
  Sr  Sr0  1  0.333333  0.666667  0.367525  1
  Sr  Sr1  1  0.666667  0.333333  0.867525  1
  Tb  Tb2  1  0.333333  0.666667  0.739301  1
  Tb  Tb3  1  0.666667  0.333333  0.239301  1
  Si  Si4  1  0.000000  0.000000  0.813890  1
  Si  Si5  1  0.000000  0.000000  0.313890  1
  Ge  Ge6  1  0.828217  0.656433  0.546917  1
  Ge  Ge7  1  0.171783  0.828217  0.046917  1
  Ge  Ge8  1  0.656433  0.828217  0.046917  1
  Ge  Ge9  1  0.343567  0.171783  0.546917  1
  Ge  Ge10  1  0.828217  0.171783  0.546917  1
  Ge  Ge11  1  0.171783  0.343567  0.046917  1
  N  N12  1  0.000000  0.000000  0.629483  1
  N  N13  1  0.000000  0.000000  0.129483  1
  N  N14  1  0.150638  0.301277  0.866243  1
  N  N15  1  0.849362  0.150638  0.366243  1
  N  N16  1  0.301277  0.150638  0.366243  1
  N  N17  1  0.698723  0.849362  0.866243  1
  N  N18  1  0.150638  0.849362  0.866243  1
  N  N19  1  0.849362  0.698723  0.366243  1
  N  N20  1  0.990005  0.495003  0.601407  1
  N  N21  1  0.495003  0.990005  0.101407  1
  N  N22  1  0.495003  0.504997  0.101407  1
  N  N23  1  0.504997  0.495003  0.601407  1
  N  N24  1  0.009995  0.504997  0.101407  1
  N  N25  1  0.504997  0.009995  0.601407  1
