# generated using pymatgen
data_CaTb5Si24Os5Ru3
_symmetry_space_group_name_H-M   'P 1'
_cell_length_a   10.13571510
_cell_length_b   10.13571758
_cell_length_c   8.16695941
_cell_angle_alpha   89.98529406
_cell_angle_beta   89.98532293
_cell_angle_gamma   132.45632015
_symmetry_Int_Tables_number   1
_chemical_formula_structural   CaTb5Si24Os5Ru3
_chemical_formula_sum   'Ca1 Tb5 Si24 Os5 Ru3'
_cell_volume   619.01795018
_cell_formula_units_Z   1
loop_
 _symmetry_equiv_pos_site_id
 _symmetry_equiv_pos_as_xyz
  1  'x, y, z'
loop_
 _atom_site_type_symbol
 _atom_site_label
 _atom_site_symmetry_multiplicity
 _atom_site_fract_x
 _atom_site_fract_y
 _atom_site_fract_z
 _atom_site_occupancy
  Ca  Ca0  1  0.499705  0.499705  0.499945  1
  Tb  Tb1  1  0.999949  0.999949  0.999584  1
  Tb  Tb2  1  0.501503  0.001638  0.749779  1
  Tb  Tb3  1  0.998230  0.498623  0.250225  1
  Tb  Tb4  1  0.498623  0.998230  0.250225  1
  Tb  Tb5  1  0.001638  0.501502  0.749778  1
  Si  Si6  1  0.796338  0.203821  0.500150  1
  Si  Si7  1  0.296090  0.703850  0.000119  1
  Si  Si8  1  0.203821  0.796338  0.500151  1
  Si  Si9  1  0.703850  0.296090  0.000119  1
  Si  Si10  1  0.334377  0.334377  0.831956  1
  Si  Si11  1  0.666067  0.666067  0.168226  1
  Si  Si12  1  0.167839  0.167839  0.332801  1
  Si  Si13  1  0.829630  0.829630  0.664797  1
  Si  Si14  1  0.122514  0.888530  0.728213  1
  Si  Si15  1  0.111827  0.878512  0.272025  1
  Si  Si16  1  0.610260  0.378030  0.229651  1
  Si  Si17  1  0.622544  0.389839  0.770509  1
  Si  Si18  1  0.878512  0.111827  0.272025  1
  Si  Si19  1  0.888530  0.122515  0.728213  1
  Si  Si20  1  0.389839  0.622545  0.770509  1
  Si  Si21  1  0.378030  0.610260  0.229651  1
  Si  Si22  1  0.346363  0.114019  0.505474  1
  Si  Si23  1  0.885965  0.654084  0.495199  1
  Si  Si24  1  0.388453  0.155243  0.006240  1
  Si  Si25  1  0.844741  0.611974  0.994122  1
  Si  Si26  1  0.654084  0.885965  0.495199  1
  Si  Si27  1  0.114019  0.346363  0.505474  1
  Si  Si28  1  0.611974  0.844741  0.994122  1
  Si  Si29  1  0.155243  0.388453  0.006240  1
  Os  Os30  1  0.670779  0.329316  0.499881  1
  Os  Os31  1  0.170002  0.829896  0.000051  1
  Os  Os32  1  0.329316  0.670779  0.499881  1
  Os  Os33  1  0.829896  0.170003  0.000050  1
  Os  Os34  1  0.124514  0.124513  0.628012  1
  Ru  Ru35  1  0.875126  0.875126  0.371684  1
  Ru  Ru36  1  0.372271  0.372271  0.125036  1
  Ru  Ru37  1  0.627540  0.627539  0.874686  1
