# generated using pymatgen
data_La3Tc(Ni4P3)2
_symmetry_space_group_name_H-M   'P 1'
_cell_length_a   3.89666200
_cell_length_b   10.75264600
_cell_length_c   12.64173600
_cell_angle_alpha   90.00000000
_cell_angle_beta   90.00000000
_cell_angle_gamma   90.00000000
_symmetry_Int_Tables_number   1
_chemical_formula_structural   La3Tc(Ni4P3)2
_chemical_formula_sum   'La6 Tc2 Ni16 P12'
_cell_volume   529.68149554
_cell_formula_units_Z   2
loop_
 _symmetry_equiv_pos_site_id
 _symmetry_equiv_pos_as_xyz
  1  'x, y, z'
loop_
 _atom_site_type_symbol
 _atom_site_label
 _atom_site_symmetry_multiplicity
 _atom_site_fract_x
 _atom_site_fract_y
 _atom_site_fract_z
 _atom_site_occupancy
  La  La0  1  0.000000  0.500000  0.519067  1
  La  La1  1  0.500000  0.000000  0.480933  1
  La  La2  1  0.500000  0.813892  0.206397  1
  La  La3  1  0.500000  0.186108  0.206397  1
  La  La4  1  0.000000  0.686108  0.793603  1
  La  La5  1  0.000000  0.313892  0.793603  1
  Tc  Tc6  1  0.500000  0.500000  0.149183  1
  Tc  Tc7  1  0.000000  0.000000  0.850817  1
  Ni  Ni8  1  0.500000  0.500000  0.699993  1
  Ni  Ni9  1  0.000000  0.000000  0.300007  1
  Ni  Ni10  1  0.000000  0.500000  0.982048  1
  Ni  Ni11  1  0.500000  0.000000  0.017952  1
  Ni  Ni12  1  0.500000  0.331078  0.989136  1
  Ni  Ni13  1  0.500000  0.668922  0.989136  1
  Ni  Ni14  1  0.000000  0.168922  0.010864  1
  Ni  Ni15  1  0.000000  0.831078  0.010864  1
  Ni  Ni16  1  0.500000  0.305810  0.421992  1
  Ni  Ni17  1  0.500000  0.694190  0.421992  1
  Ni  Ni18  1  0.000000  0.194190  0.578008  1
  Ni  Ni19  1  0.000000  0.805810  0.578008  1
  Ni  Ni20  1  0.500000  0.883522  0.713956  1
  Ni  Ni21  1  0.500000  0.116478  0.713956  1
  Ni  Ni22  1  0.000000  0.616478  0.286044  1
  Ni  Ni23  1  0.000000  0.383522  0.286044  1
  P  P24  1  0.500000  0.500000  0.882810  1
  P  P25  1  0.000000  0.000000  0.117190  1
  P  P26  1  0.500000  0.500000  0.337112  1
  P  P27  1  0.000000  0.000000  0.662888  1
  P  P28  1  0.500000  0.306199  0.609862  1
  P  P29  1  0.500000  0.693801  0.609862  1
  P  P30  1  0.000000  0.193801  0.390138  1
  P  P31  1  0.000000  0.806199  0.390138  1
  P  P32  1  0.500000  0.852195  0.896481  1
  P  P33  1  0.500000  0.147805  0.896481  1
  P  P34  1  0.000000  0.647805  0.103519  1
  P  P35  1  0.000000  0.352195  0.103519  1
