# generated using pymatgen
data_La5NdHo4(Sn5Rh2)4
_symmetry_space_group_name_H-M   'P 1'
_cell_length_a   14.23640900
_cell_length_b   14.23640900
_cell_length_c   4.58882600
_cell_angle_alpha   90.00000000
_cell_angle_beta   90.00000000
_cell_angle_gamma   90.00000000
_symmetry_Int_Tables_number   1
_chemical_formula_structural   La5NdHo4(Sn5Rh2)4
_chemical_formula_sum   'La5 Nd1 Ho4 Sn20 Rh8'
_cell_volume   930.04187533
_cell_formula_units_Z   1
loop_
 _symmetry_equiv_pos_site_id
 _symmetry_equiv_pos_as_xyz
  1  'x, y, z'
loop_
 _atom_site_type_symbol
 _atom_site_label
 _atom_site_symmetry_multiplicity
 _atom_site_fract_x
 _atom_site_fract_y
 _atom_site_fract_z
 _atom_site_occupancy
  La  La0  1  0.000000  0.000000  0.000000  1
  La  La1  1  0.888358  0.388348  0.500000  1
  La  La2  1  0.111642  0.611652  0.500000  1
  La  La3  1  0.388348  0.111642  0.500000  1
  La  La4  1  0.611652  0.888358  0.500000  1
  Nd  Nd5  1  0.500000  0.500000  0.000000  1
  Ho  Ho6  1  0.676589  0.176528  0.500000  1
  Ho  Ho7  1  0.323411  0.823472  0.500000  1
  Ho  Ho8  1  0.176528  0.323411  0.500000  1
  Ho  Ho9  1  0.823472  0.676589  0.500000  1
  Sn  Sn10  1  0.570395  0.070429  0.000000  1
  Sn  Sn11  1  0.429605  0.929571  0.000000  1
  Sn  Sn12  1  0.070429  0.429605  0.000000  1
  Sn  Sn13  1  0.929571  0.570395  0.000000  1
  Sn  Sn14  1  0.654283  0.698166  0.000000  1
  Sn  Sn15  1  0.345717  0.301834  0.000000  1
  Sn  Sn16  1  0.154167  0.801881  0.000000  1
  Sn  Sn17  1  0.845833  0.198119  0.000000  1
  Sn  Sn18  1  0.301834  0.654283  0.000000  1
  Sn  Sn19  1  0.698166  0.345717  0.000000  1
  Sn  Sn20  1  0.198119  0.154167  0.000000  1
  Sn  Sn21  1  0.801881  0.845833  0.000000  1
  Sn  Sn22  1  0.663783  0.506632  0.500000  1
  Sn  Sn23  1  0.336217  0.493368  0.500000  1
  Sn  Sn24  1  0.164356  0.993223  0.500000  1
  Sn  Sn25  1  0.835644  0.006777  0.500000  1
  Sn  Sn26  1  0.493368  0.663783  0.500000  1
  Sn  Sn27  1  0.506632  0.336217  0.500000  1
  Sn  Sn28  1  0.006777  0.164356  0.500000  1
  Sn  Sn29  1  0.993223  0.835644  0.500000  1
  Rh  Rh30  1  0.746835  0.530169  0.000000  1
  Rh  Rh31  1  0.253165  0.469831  0.000000  1
  Rh  Rh32  1  0.247505  0.969742  0.000000  1
  Rh  Rh33  1  0.752495  0.030258  0.000000  1
  Rh  Rh34  1  0.469831  0.746835  0.000000  1
  Rh  Rh35  1  0.530169  0.253165  0.000000  1
  Rh  Rh36  1  0.030258  0.247505  0.000000  1
  Rh  Rh37  1  0.969742  0.752495  0.000000  1
