# generated using pymatgen
data_Ba2Sr(CdSb2)2
_symmetry_space_group_name_H-M   'P 1'
_cell_length_a   9.21991124
_cell_length_b   9.21991148
_cell_length_c   7.58318500
_cell_angle_alpha   69.90904233
_cell_angle_beta   69.90904030
_cell_angle_gamma   31.28348757
_symmetry_Int_Tables_number   1
_chemical_formula_structural   Ba2Sr(CdSb2)2
_chemical_formula_sum   'Ba2 Sr1 Cd2 Sb4'
_cell_volume   312.71268184
_cell_formula_units_Z   1
loop_
 _symmetry_equiv_pos_site_id
 _symmetry_equiv_pos_as_xyz
  1  'x, y, z'
loop_
 _atom_site_type_symbol
 _atom_site_label
 _atom_site_symmetry_multiplicity
 _atom_site_fract_x
 _atom_site_fract_y
 _atom_site_fract_z
 _atom_site_occupancy
  Ba  Ba0  1  0.856987  0.856987  0.597258  1
  Ba  Ba1  1  0.143013  0.143013  0.402742  1
  Sr  Sr2  1  0.000000  0.000000  0.000000  1
  Cd  Cd3  1  0.334133  0.334133  0.972296  1
  Cd  Cd4  1  0.665867  0.665867  0.027704  1
  Sb  Sb5  1  0.500486  0.500486  0.691681  1
  Sb  Sb6  1  0.796196  0.796196  0.196568  1
  Sb  Sb7  1  0.499514  0.499514  0.308319  1
  Sb  Sb8  1  0.203804  0.203804  0.803432  1
