# generated using pymatgen
data_Sc4Tc3B8MoRu6
_symmetry_space_group_name_H-M   'P 1'
_cell_length_a   3.04213900
_cell_length_b   8.59563600
_cell_length_c   10.01819876
_cell_angle_alpha   89.81696974
_cell_angle_beta   90.00000000
_cell_angle_gamma   90.00000000
_symmetry_Int_Tables_number   1
_chemical_formula_structural   Sc4Tc3B8MoRu6
_chemical_formula_sum   'Sc4 Tc3 B8 Mo1 Ru6'
_cell_volume   261.96573996
_cell_formula_units_Z   1
loop_
 _symmetry_equiv_pos_site_id
 _symmetry_equiv_pos_as_xyz
  1  'x, y, z'
loop_
 _atom_site_type_symbol
 _atom_site_label
 _atom_site_symmetry_multiplicity
 _atom_site_fract_x
 _atom_site_fract_y
 _atom_site_fract_z
 _atom_site_occupancy
  Sc  Sc0  1  0.500000  0.842333  0.182177  1
  Sc  Sc1  1  0.500000  0.159573  0.819766  1
  Sc  Sc2  1  0.500000  0.659764  0.681611  1
  Sc  Sc3  1  0.500000  0.342722  0.317386  1
  Tc  Tc4  1  0.000000  0.659965  0.953108  1
  Tc  Tc5  1  0.000000  0.340745  0.047452  1
  Tc  Tc6  1  0.000000  0.837945  0.451502  1
  B  B7  1  0.500000  0.959612  0.585565  1
  B  B8  1  0.500000  0.029818  0.411118  1
  B  B9  1  0.500000  0.848915  0.900753  1
  B  B10  1  0.500000  0.150479  0.099479  1
  B  B11  1  0.500000  0.649595  0.399865  1
  B  B12  1  0.500000  0.352489  0.600853  1
  B  B13  1  0.500000  0.465508  0.912907  1
  B  B14  1  0.500000  0.534332  0.087857  1
  Mo  Mo15  1  0.000000  0.160297  0.547418  1
  Ru  Ru16  1  0.000000  0.000376  0.000041  1
  Ru  Ru17  1  0.000000  0.406143  0.761739  1
  Ru  Ru18  1  0.000000  0.596242  0.238838  1
  Ru  Ru19  1  0.000000  0.501847  0.500158  1
  Ru  Ru20  1  0.000000  0.905127  0.739773  1
  Ru  Ru21  1  0.000000  0.096175  0.260636  1
