# generated using pymatgen
data_La7Nd5(Si7Cl3)2
_symmetry_space_group_name_H-M   'P 1'
_cell_length_a   4.09437900
_cell_length_b   11.88010238
_cell_length_c   16.57865800
_cell_angle_alpha   89.70507748
_cell_angle_beta   90.00000000
_cell_angle_gamma   90.00000000
_symmetry_Int_Tables_number   1
_chemical_formula_structural   La7Nd5(Si7Cl3)2
_chemical_formula_sum   'La7 Nd5 Si14 Cl6'
_cell_volume   806.40245950
_cell_formula_units_Z   1
loop_
 _symmetry_equiv_pos_site_id
 _symmetry_equiv_pos_as_xyz
  1  'x, y, z'
loop_
 _atom_site_type_symbol
 _atom_site_label
 _atom_site_symmetry_multiplicity
 _atom_site_fract_x
 _atom_site_fract_y
 _atom_site_fract_z
 _atom_site_occupancy
  La  La0  1  0.500000  0.333867  0.501238  1
  La  La1  1  0.000000  0.665342  0.997666  1
  La  La2  1  0.000000  0.644705  0.254695  1
  La  La3  1  0.500000  0.059572  0.877212  1
  La  La4  1  0.000000  0.940101  0.623846  1
  La  La5  1  0.500000  0.061095  0.122330  1
  La  La6  1  0.000000  0.941193  0.378720  1
  Nd  Nd7  1  0.500000  0.357425  0.756575  1
  Nd  Nd8  1  0.000000  0.641661  0.743334  1
  Nd  Nd9  1  0.500000  0.357968  0.243169  1
  Nd  Nd10  1  0.500000  0.355179  0.998817  1
  Nd  Nd11  1  0.000000  0.643978  0.500827  1
  Si  Si12  1  0.000000  0.151272  0.999437  1
  Si  Si13  1  0.500000  0.849319  0.501476  1
  Si  Si14  1  0.500000  0.566746  0.875388  1
  Si  Si15  1  0.000000  0.432665  0.624239  1
  Si  Si16  1  0.500000  0.564134  0.120831  1
  Si  Si17  1  0.000000  0.433364  0.377780  1
  Si  Si18  1  0.000000  0.252649  0.873183  1
  Si  Si19  1  0.500000  0.746352  0.626841  1
  Si  Si20  1  0.000000  0.253685  0.125442  1
  Si  Si21  1  0.500000  0.747005  0.376057  1
  Si  Si22  1  0.000000  0.457749  0.876201  1
  Si  Si23  1  0.500000  0.541294  0.623439  1
  Si  Si24  1  0.500000  0.541666  0.376620  1
  Si  Si25  1  0.000000  0.457142  0.122278  1
  Cl  Cl26  1  0.500000  0.107631  0.695094  1
  Cl  Cl27  1  0.000000  0.892100  0.805255  1
  Cl  Cl28  1  0.000000  0.135054  0.500328  1
  Cl  Cl29  1  0.500000  0.864147  0.000540  1
  Cl  Cl30  1  0.500000  0.107029  0.305339  1
  Cl  Cl31  1  0.000000  0.896907  0.195805  1
