# generated using pymatgen
data_Dy6InFePd
_symmetry_space_group_name_H-M   'P 1'
_cell_length_a   8.48547260
_cell_length_b   8.48547272
_cell_length_c   8.48547300
_cell_angle_alpha   112.82261318
_cell_angle_beta   109.63223486
_cell_angle_gamma   106.02990903
_symmetry_Int_Tables_number   1
_chemical_formula_structural   Dy6InFePd
_chemical_formula_sum   'Dy12 In2 Fe2 Pd2'
_cell_volume   468.68307469
_cell_formula_units_Z   2
loop_
 _symmetry_equiv_pos_site_id
 _symmetry_equiv_pos_as_xyz
  1  'x, y, z'
loop_
 _atom_site_type_symbol
 _atom_site_label
 _atom_site_symmetry_multiplicity
 _atom_site_fract_x
 _atom_site_fract_y
 _atom_site_fract_z
 _atom_site_occupancy
  Dy  Dy0  1  0.443752  0.243339  0.200412  1
  Dy  Dy1  1  0.556248  0.756661  0.799588  1
  Dy  Dy2  1  0.042927  0.243339  0.799588  1
  Dy  Dy3  1  0.957073  0.756661  0.200412  1
  Dy  Dy4  1  0.182513  0.288528  0.471041  1
  Dy  Dy5  1  0.817487  0.711472  0.528959  1
  Dy  Dy6  1  0.182513  0.711472  0.893986  1
  Dy  Dy7  1  0.817487  0.288528  0.106014  1
  Dy  Dy8  1  0.310249  0.618480  0.308231  1
  Dy  Dy9  1  0.689751  0.381520  0.691769  1
  Dy  Dy10  1  0.310249  0.002018  0.691769  1
  Dy  Dy11  1  0.689751  0.997982  0.308231  1
  In  In12  1  0.500000  0.500000  0.000000  1
  In  In13  1  0.000000  0.000000  0.000000  1
  Fe  Fe14  1  0.106636  0.606636  0.500000  1
  Fe  Fe15  1  0.893364  0.393364  0.500000  1
  Pd  Pd16  1  0.346857  0.000000  0.346857  1
  Pd  Pd17  1  0.653143  0.000000  0.653143  1
