# generated using pymatgen
data_Ce4P(Rh5Au)2
_symmetry_space_group_name_H-M   'P 1'
_cell_length_a   7.26667727
_cell_length_b   7.29345222
_cell_length_c   7.29345251
_cell_angle_alpha   108.31560381
_cell_angle_beta   110.12917863
_cell_angle_gamma   110.12916892
_symmetry_Int_Tables_number   1
_chemical_formula_structural   Ce4P(Rh5Au)2
_chemical_formula_sum   'Ce4 P1 Rh10 Au2'
_cell_volume   296.89986584
_cell_formula_units_Z   1
loop_
 _symmetry_equiv_pos_site_id
 _symmetry_equiv_pos_as_xyz
  1  'x, y, z'
loop_
 _atom_site_type_symbol
 _atom_site_label
 _atom_site_symmetry_multiplicity
 _atom_site_fract_x
 _atom_site_fract_y
 _atom_site_fract_z
 _atom_site_occupancy
  Ce  Ce0  1  0.018538  0.009269  0.509269  1
  Ce  Ce1  1  0.018538  0.509269  0.009269  1
  Ce  Ce2  1  0.485157  0.977675  0.977675  1
  Ce  Ce3  1  0.485157  0.507483  0.507483  1
  P  P4  1  0.000155  0.000077  0.000077  1
  Rh  Rh5  1  0.502198  0.251099  0.751099  1
  Rh  Rh6  1  0.248559  0.499631  0.748928  1
  Rh  Rh7  1  0.248559  0.748928  0.499631  1
  Rh  Rh8  1  0.502198  0.751099  0.251099  1
  Rh  Rh9  1  0.732418  0.729086  0.003333  1
  Rh  Rh10  1  0.271207  0.999777  0.271430  1
  Rh  Rh11  1  0.994793  0.264743  0.264743  1
  Rh  Rh12  1  0.271207  0.271430  0.999777  1
  Rh  Rh13  1  0.732418  0.003333  0.729086  1
  Rh  Rh14  1  0.994793  0.730050  0.730050  1
  Au  Au15  1  0.747052  0.248976  0.498077  1
  Au  Au16  1  0.747052  0.498077  0.248976  1
