# generated using pymatgen
data_HfZrSc2(V3Si4)2
_symmetry_space_group_name_H-M   'P 1'
_cell_length_a   6.62120635
_cell_length_b   6.62151471
_cell_length_c   12.25286742
_cell_angle_alpha   90.01412936
_cell_angle_beta   89.99976747
_cell_angle_gamma   89.93958925
_symmetry_Int_Tables_number   1
_chemical_formula_structural   HfZrSc2(V3Si4)2
_chemical_formula_sum   'Hf2 Zr2 Sc4 V12 Si16'
_cell_volume   537.19498640
_cell_formula_units_Z   2
loop_
 _symmetry_equiv_pos_site_id
 _symmetry_equiv_pos_as_xyz
  1  'x, y, z'
loop_
 _atom_site_type_symbol
 _atom_site_label
 _atom_site_symmetry_multiplicity
 _atom_site_fract_x
 _atom_site_fract_y
 _atom_site_fract_z
 _atom_site_occupancy
  Hf  Hf0  1  0.161507  0.497218  0.779807  1
  Hf  Hf1  1  0.502519  0.838344  0.719550  1
  Zr  Zr2  1  0.002745  0.660856  0.029654  1
  Zr  Zr3  1  0.838525  0.502993  0.280616  1
  Sc  Sc4  1  0.498537  0.162335  0.220407  1
  Sc  Sc5  1  0.998451  0.338010  0.529416  1
  Sc  Sc6  1  0.661947  0.000979  0.970432  1
  Sc  Sc7  1  0.337934  0.998451  0.470637  1
  V  V8  1  0.331450  0.334422  0.999268  1
  V  V9  1  0.165847  0.831694  0.249796  1
  V  V10  1  0.833190  0.166934  0.750172  1
  V  V11  1  0.666885  0.667543  0.500748  1
  V  V12  1  0.005681  0.157867  0.125683  1
  V  V13  1  0.342113  0.506604  0.376110  1
  V  V14  1  0.657221  0.495368  0.875370  1
  V  V15  1  0.505343  0.343437  0.625178  1
  V  V16  1  0.493871  0.657952  0.122911  1
  V  V17  1  0.994780  0.841158  0.627937  1
  V  V18  1  0.158109  0.004753  0.872844  1
  V  V19  1  0.842057  0.993454  0.373195  1
  Si  Si20  1  0.294647  0.962470  0.064715  1
  Si  Si21  1  0.537195  0.795467  0.314778  1
  Si  Si22  1  0.460992  0.206685  0.815387  1
  Si  Si23  1  0.793718  0.538869  0.684420  1
  Si  Si24  1  0.210632  0.457890  0.185790  1
  Si  Si25  1  0.708022  0.039871  0.563704  1
  Si  Si26  1  0.958294  0.289365  0.935260  1
  Si  Si27  1  0.040487  0.708515  0.436789  1
  Si  Si28  1  0.702169  0.369219  0.070542  1
  Si  Si29  1  0.130279  0.202368  0.320306  1
  Si  Si30  1  0.870235  0.795755  0.821040  1
  Si  Si31  1  0.204425  0.128879  0.678994  1
  Si  Si32  1  0.793560  0.874076  0.179351  1
  Si  Si33  1  0.295942  0.628894  0.570645  1
  Si  Si34  1  0.373256  0.705872  0.928302  1
  Si  Si35  1  0.627438  0.295433  0.430247  1
