# generated using pymatgen
data_DyHo4(RhO6)2
_symmetry_space_group_name_H-M   'P 1'
_cell_length_a   6.82976418
_cell_length_b   6.82976382
_cell_length_c   7.25847300
_cell_angle_alpha   74.49910834
_cell_angle_beta   74.49910517
_cell_angle_gamma   51.24986384
_symmetry_Int_Tables_number   1
_chemical_formula_structural   DyHo4(RhO6)2
_chemical_formula_sum   'Dy1 Ho4 Rh2 O12'
_cell_volume   252.18404077
_cell_formula_units_Z   1
loop_
 _symmetry_equiv_pos_site_id
 _symmetry_equiv_pos_as_xyz
  1  'x, y, z'
loop_
 _atom_site_type_symbol
 _atom_site_label
 _atom_site_symmetry_multiplicity
 _atom_site_fract_x
 _atom_site_fract_y
 _atom_site_fract_z
 _atom_site_occupancy
  Dy  Dy0  1  0.000000  0.000000  0.500000  1
  Ho  Ho1  1  0.301947  0.301947  0.360371  1
  Ho  Ho2  1  0.698053  0.698053  0.639629  1
  Ho  Ho3  1  0.309204  0.309204  0.829066  1
  Ho  Ho4  1  0.690796  0.690796  0.170934  1
  Rh  Rh5  1  0.753243  0.246757  0.000000  1
  Rh  Rh6  1  0.246757  0.753243  0.000000  1
  O  O7  1  0.901680  0.432086  0.914939  1
  O  O8  1  0.432086  0.901680  0.914939  1
  O  O9  1  0.098320  0.567914  0.085061  1
  O  O10  1  0.567914  0.098320  0.085061  1
  O  O11  1  0.097066  0.597096  0.573887  1
  O  O12  1  0.597096  0.097066  0.573887  1
  O  O13  1  0.902934  0.402904  0.426113  1
  O  O14  1  0.402904  0.902934  0.426113  1
  O  O15  1  0.999816  0.999816  0.816729  1
  O  O16  1  0.000184  0.000184  0.183271  1
  O  O17  1  0.500188  0.500188  0.808341  1
  O  O18  1  0.499812  0.499812  0.191659  1
