# generated using pymatgen
data_Ac7Rh3
_symmetry_space_group_name_H-M   'P 1'
_cell_length_a   6.80641800
_cell_length_b   10.74197381
_cell_length_c   10.74197348
_cell_angle_alpha   120.01281116
_cell_angle_beta   90.00000000
_cell_angle_gamma   90.00000000
_symmetry_Int_Tables_number   1
_chemical_formula_structural   Ac7Rh3
_chemical_formula_sum   'Ac14 Rh6'
_cell_volume   680.08208409
_cell_formula_units_Z   2
loop_
 _symmetry_equiv_pos_site_id
 _symmetry_equiv_pos_as_xyz
  1  'x, y, z'
loop_
 _atom_site_type_symbol
 _atom_site_label
 _atom_site_symmetry_multiplicity
 _atom_site_fract_x
 _atom_site_fract_y
 _atom_site_fract_z
 _atom_site_occupancy
  Ac  Ac0  1  0.463198  0.333362  0.666638  1
  Ac  Ac1  1  0.963198  0.666638  0.333362  1
  Ac  Ac2  1  0.267482  0.124882  0.875118  1
  Ac  Ac3  1  0.267502  0.750112  0.874998  1
  Ac  Ac4  1  0.267502  0.125002  0.249888  1
  Ac  Ac5  1  0.767482  0.875118  0.124882  1
  Ac  Ac6  1  0.767502  0.249888  0.125002  1
  Ac  Ac7  1  0.767502  0.874998  0.750112  1
  Ac  Ac8  1  0.432617  0.543443  0.456557  1
  Ac  Ac9  1  0.432593  0.912850  0.456515  1
  Ac  Ac10  1  0.432593  0.543485  0.087150  1
  Ac  Ac11  1  0.932617  0.456557  0.543443  1
  Ac  Ac12  1  0.932593  0.087150  0.543485  1
  Ac  Ac13  1  0.932593  0.456515  0.912850  1
  Rh  Rh14  1  0.175992  0.810188  0.189812  1
  Rh  Rh15  1  0.176761  0.379741  0.189901  1
  Rh  Rh16  1  0.176761  0.810099  0.620259  1
  Rh  Rh17  1  0.675992  0.189812  0.810188  1
  Rh  Rh18  1  0.676761  0.620259  0.810099  1
  Rh  Rh19  1  0.676761  0.189901  0.379741  1
