# generated using pymatgen
data_YThCoSi4Ni
_symmetry_space_group_name_H-M   'P 1'
_cell_length_a   8.38407315
_cell_length_b   8.38407326
_cell_length_c   4.06199700
_cell_angle_alpha   90.00000000
_cell_angle_beta   90.00000000
_cell_angle_gamma   151.86831314
_symmetry_Int_Tables_number   1
_chemical_formula_structural   YThCoSi4Ni
_chemical_formula_sum   'Y1 Th1 Co1 Si4 Ni1'
_cell_volume   134.62667086
_cell_formula_units_Z   1
loop_
 _symmetry_equiv_pos_site_id
 _symmetry_equiv_pos_as_xyz
  1  'x, y, z'
loop_
 _atom_site_type_symbol
 _atom_site_label
 _atom_site_symmetry_multiplicity
 _atom_site_fract_x
 _atom_site_fract_y
 _atom_site_fract_z
 _atom_site_occupancy
  Y  Y0  1  0.606797  0.393203  0.250000  1
  Th  Th1  1  0.393975  0.606025  0.750000  1
  Co  Co2  1  0.819924  0.180076  0.250000  1
  Si  Si3  1  0.960649  0.039351  0.250000  1
  Si  Si4  1  0.040491  0.959509  0.750000  1
  Si  Si5  1  0.249664  0.750336  0.250000  1
  Si  Si6  1  0.749136  0.250864  0.750000  1
  Ni  Ni7  1  0.179363  0.820637  0.750000  1
