# generated using pymatgen
data_Mn2Be8IrRh
_symmetry_space_group_name_H-M   'P 1'
_cell_length_a   4.33644400
_cell_length_b   4.33644342
_cell_length_c   7.06151800
_cell_angle_alpha   90.00000000
_cell_angle_beta   90.00000000
_cell_angle_gamma   120.00000440
_symmetry_Int_Tables_number   1
_chemical_formula_structural   Mn2Be8IrRh
_chemical_formula_sum   'Mn2 Be8 Ir1 Rh1'
_cell_volume   114.99954178
_cell_formula_units_Z   1
loop_
 _symmetry_equiv_pos_site_id
 _symmetry_equiv_pos_as_xyz
  1  'x, y, z'
loop_
 _atom_site_type_symbol
 _atom_site_label
 _atom_site_symmetry_multiplicity
 _atom_site_fract_x
 _atom_site_fract_y
 _atom_site_fract_z
 _atom_site_occupancy
  Mn  Mn0  1  0.666667  0.333333  0.938945  1
  Mn  Mn1  1  0.333333  0.666667  0.437430  1
  Be  Be2  1  0.000000  0.000000  0.000378  1
  Be  Be3  1  0.000000  0.000000  0.499327  1
  Be  Be4  1  0.830917  0.661835  0.250338  1
  Be  Be5  1  0.169028  0.830972  0.749282  1
  Be  Be6  1  0.661944  0.830972  0.749282  1
  Be  Be7  1  0.338165  0.169083  0.250338  1
  Be  Be8  1  0.830917  0.169083  0.250338  1
  Be  Be9  1  0.169028  0.338056  0.749282  1
  Ir  Ir10  1  0.666667  0.333333  0.562753  1
  Rh  Rh11  1  0.333333  0.666667  0.062307  1
