# generated using pymatgen
data_Ta3V2Si3Rh
_symmetry_space_group_name_H-M   'P 1'
_cell_length_a   6.69170873
_cell_length_b   6.69171016
_cell_length_c   3.42875700
_cell_angle_alpha   90.00000000
_cell_angle_beta   90.00000000
_cell_angle_gamma   120.05361414
_symmetry_Int_Tables_number   1
_chemical_formula_structural   Ta3V2Si3Rh
_chemical_formula_sum   'Ta3 V2 Si3 Rh1'
_cell_volume   132.89437789
_cell_formula_units_Z   1
loop_
 _symmetry_equiv_pos_site_id
 _symmetry_equiv_pos_as_xyz
  1  'x, y, z'
loop_
 _atom_site_type_symbol
 _atom_site_label
 _atom_site_symmetry_multiplicity
 _atom_site_fract_x
 _atom_site_fract_y
 _atom_site_fract_z
 _atom_site_occupancy
  Ta  Ta0  1  0.593767  0.017394  0.500000  1
  Ta  Ta1  1  0.387687  0.387686  0.500000  1
  Ta  Ta2  1  0.017394  0.593768  0.500000  1
  V  V3  1  0.252258  0.998402  0.000000  1
  V  V4  1  0.998402  0.252259  0.000000  1
  Si  Si5  1  0.670329  0.345129  0.000000  1
  Si  Si6  1  0.345129  0.670329  0.000000  1
  Si  Si7  1  0.988720  0.988720  0.500000  1
  Rh  Rh8  1  0.746316  0.746316  0.000000  1
