# generated using pymatgen
data_Sr2LiPd2
_symmetry_space_group_name_H-M   'P 1'
_cell_length_a   6.00110953
_cell_length_b   6.00110970
_cell_length_c   8.25324814
_cell_angle_alpha   78.63804333
_cell_angle_beta   78.63804064
_cell_angle_gamma   60.08827178
_symmetry_Int_Tables_number   1
_chemical_formula_structural   Sr2LiPd2
_chemical_formula_sum   'Sr4 Li2 Pd4'
_cell_volume   250.87387016
_cell_formula_units_Z   2
loop_
 _symmetry_equiv_pos_site_id
 _symmetry_equiv_pos_as_xyz
  1  'x, y, z'
loop_
 _atom_site_type_symbol
 _atom_site_label
 _atom_site_symmetry_multiplicity
 _atom_site_fract_x
 _atom_site_fract_y
 _atom_site_fract_z
 _atom_site_occupancy
  Sr  Sr0  1  0.788562  0.512350  0.348353  1
  Sr  Sr1  1  0.487650  0.211438  0.151647  1
  Sr  Sr2  1  0.211438  0.487650  0.651647  1
  Sr  Sr3  1  0.512350  0.788562  0.848353  1
  Li  Li4  1  0.110784  0.889216  0.250000  1
  Li  Li5  1  0.889216  0.110784  0.750000  1
  Pd  Pd6  1  0.003334  0.736420  0.003151  1
  Pd  Pd7  1  0.263580  0.996666  0.496849  1
  Pd  Pd8  1  0.996666  0.263580  0.996849  1
  Pd  Pd9  1  0.736420  0.003334  0.503151  1
