# generated using pymatgen
data_Ba2Tl3Cd
_symmetry_space_group_name_H-M   'P 1'
_cell_length_a   6.84109228
_cell_length_b   6.84109350
_cell_length_c   8.58407012
_cell_angle_alpha   50.68078658
_cell_angle_beta   50.68078183
_cell_angle_gamma   46.03764162
_symmetry_Int_Tables_number   1
_chemical_formula_structural   Ba2Tl3Cd
_chemical_formula_sum   'Ba2 Tl3 Cd1'
_cell_volume   209.72838147
_cell_formula_units_Z   1
loop_
 _symmetry_equiv_pos_site_id
 _symmetry_equiv_pos_as_xyz
  1  'x, y, z'
loop_
 _atom_site_type_symbol
 _atom_site_label
 _atom_site_symmetry_multiplicity
 _atom_site_fract_x
 _atom_site_fract_y
 _atom_site_fract_z
 _atom_site_occupancy
  Ba  Ba0  1  0.043931  0.043931  0.705498  1
  Ba  Ba1  1  0.958018  0.958018  0.292048  1
  Tl  Tl2  1  0.657792  0.657792  0.285780  1
  Tl  Tl3  1  0.667804  0.667804  0.890221  1
  Tl  Tl4  1  0.340568  0.340568  0.095817  1
  Cd  Cd5  1  0.331887  0.331887  0.730636  1
