# generated using pymatgen
data_LiDy8Sc10Si16Os
_symmetry_space_group_name_H-M   'P 1'
_cell_length_a   6.96251505
_cell_length_b   7.33705999
_cell_length_c   13.89429800
_cell_angle_alpha   90.00000000
_cell_angle_beta   90.00000000
_cell_angle_gamma   90.02029281
_symmetry_Int_Tables_number   1
_chemical_formula_structural   LiDy8Sc10Si16Os
_chemical_formula_sum   'Li1 Dy8 Sc10 Si16 Os1'
_cell_volume   709.78170118
_cell_formula_units_Z   1
loop_
 _symmetry_equiv_pos_site_id
 _symmetry_equiv_pos_as_xyz
  1  'x, y, z'
loop_
 _atom_site_type_symbol
 _atom_site_label
 _atom_site_symmetry_multiplicity
 _atom_site_fract_x
 _atom_site_fract_y
 _atom_site_fract_z
 _atom_site_occupancy
  Li  Li0  1  0.842678  0.494804  0.250000  1
  Dy  Dy1  1  0.010714  0.184717  0.095258  1
  Dy  Dy2  1  0.993289  0.819785  0.900910  1
  Dy  Dy3  1  0.489460  0.672615  0.902525  1
  Dy  Dy4  1  0.993289  0.819785  0.599090  1
  Dy  Dy5  1  0.516006  0.325840  0.096129  1
  Dy  Dy6  1  0.010714  0.184717  0.404742  1
  Dy  Dy7  1  0.516006  0.325840  0.403871  1
  Dy  Dy8  1  0.489460  0.672615  0.597475  1
  Sc  Sc9  1  0.344051  0.002165  0.250000  1
  Sc  Sc10  1  0.657570  0.996675  0.750000  1
  Sc  Sc11  1  0.325719  0.176814  0.626890  1
  Sc  Sc12  1  0.675154  0.819380  0.374111  1
  Sc  Sc13  1  0.167880  0.670741  0.375997  1
  Sc  Sc14  1  0.675154  0.819380  0.125889  1
  Sc  Sc15  1  0.823576  0.330501  0.628305  1
  Sc  Sc16  1  0.325719  0.176814  0.873110  1
  Sc  Sc17  1  0.823576  0.330501  0.871695  1
  Sc  Sc18  1  0.167880  0.670741  0.124003  1
  Si  Si19  1  0.028667  0.121482  0.750000  1
  Si  Si20  1  0.973898  0.894699  0.250000  1
  Si  Si21  1  0.466942  0.614091  0.250000  1
  Si  Si22  1  0.514163  0.393739  0.750000  1
  Si  Si23  1  0.286248  0.862232  0.750000  1
  Si  Si24  1  0.716037  0.119895  0.250000  1
  Si  Si25  1  0.220467  0.373635  0.250000  1
  Si  Si26  1  0.796379  0.628935  0.750000  1
  Si  Si27  1  0.154840  0.464947  0.548728  1
  Si  Si28  1  0.842305  0.539183  0.468141  1
  Si  Si29  1  0.344380  0.965274  0.462317  1
  Si  Si30  1  0.842305  0.539183  0.031859  1
  Si  Si31  1  0.657897  0.033655  0.538971  1
  Si  Si32  1  0.154840  0.464947  0.951272  1
  Si  Si33  1  0.657897  0.033655  0.961029  1
  Si  Si34  1  0.344380  0.965274  0.037683  1
  Os  Os35  1  0.150456  0.490744  0.750000  1
