# generated using pymatgen
data_Dy15Tm(LuPb4)4
_symmetry_space_group_name_H-M   'P 1'
_cell_length_a   8.16382820
_cell_length_b   8.24972622
_cell_length_c   15.61068803
_cell_angle_alpha   90.00743382
_cell_angle_beta   89.99867882
_cell_angle_gamma   90.02508464
_symmetry_Int_Tables_number   1
_chemical_formula_structural   Dy15Tm(LuPb4)4
_chemical_formula_sum   'Dy15 Tm1 Lu4 Pb16'
_cell_volume   1051.36954298
_cell_formula_units_Z   1
loop_
 _symmetry_equiv_pos_site_id
 _symmetry_equiv_pos_as_xyz
  1  'x, y, z'
loop_
 _atom_site_type_symbol
 _atom_site_label
 _atom_site_symmetry_multiplicity
 _atom_site_fract_x
 _atom_site_fract_y
 _atom_site_fract_z
 _atom_site_occupancy
  Dy  Dy0  1  0.876591  0.658499  0.620898  1
  Dy  Dy1  1  0.623350  0.158458  0.379125  1
  Dy  Dy2  1  0.123371  0.341535  0.120821  1
  Dy  Dy3  1  0.623387  0.158564  0.120923  1
  Dy  Dy4  1  0.123324  0.341488  0.379121  1
  Dy  Dy5  1  0.376640  0.841496  0.620922  1
  Dy  Dy6  1  0.876675  0.658461  0.879147  1
  Dy  Dy7  1  0.535956  0.323461  0.900159  1
  Dy  Dy8  1  0.035967  0.176416  0.599868  1
  Dy  Dy9  1  0.464067  0.676452  0.400142  1
  Dy  Dy10  1  0.964003  0.823471  0.099871  1
  Dy  Dy11  1  0.463996  0.676515  0.099713  1
  Dy  Dy12  1  0.964053  0.823557  0.400139  1
  Dy  Dy13  1  0.535940  0.323544  0.599875  1
  Dy  Dy14  1  0.036057  0.176356  0.900121  1
  Tm  Tm15  1  0.376562  0.841556  0.879050  1
  Lu  Lu16  1  0.208619  0.504562  0.750095  1
  Lu  Lu17  1  0.708342  0.995556  0.750085  1
  Lu  Lu18  1  0.791504  0.495614  0.250006  1
  Lu  Lu19  1  0.291492  0.004326  0.249990  1
  Pb  Pb20  1  0.281390  0.032431  0.043291  1
  Pb  Pb21  1  0.781250  0.467255  0.456418  1
  Pb  Pb22  1  0.718793  0.967248  0.543571  1
  Pb  Pb23  1  0.219061  0.533292  0.956347  1
  Pb  Pb24  1  0.718271  0.967112  0.956351  1
  Pb  Pb25  1  0.218771  0.532770  0.543571  1
  Pb  Pb26  1  0.281230  0.032751  0.456404  1
  Pb  Pb27  1  0.781237  0.467258  0.043583  1
  Pb  Pb28  1  0.570843  0.626325  0.750164  1
  Pb  Pb29  1  0.071373  0.873932  0.750123  1
  Pb  Pb30  1  0.428878  0.373956  0.249997  1
  Pb  Pb31  1  0.928918  0.126072  0.250000  1
  Pb  Pb32  1  0.347830  0.154789  0.750099  1
  Pb  Pb33  1  0.847811  0.344900  0.750004  1
  Pb  Pb34  1  0.652229  0.844974  0.249999  1
  Pb  Pb35  1  0.152222  0.655047  0.250005  1
