# generated using pymatgen
data_NbFeBr8
_symmetry_space_group_name_H-M   'P 1'
_cell_length_a   8.20231039
_cell_length_b   8.20231094
_cell_length_c   8.70947064
_cell_angle_alpha   58.40489349
_cell_angle_beta   58.40488823
_cell_angle_gamma   72.14643494
_symmetry_Int_Tables_number   1
_chemical_formula_structural   NbFeBr8
_chemical_formula_sum   'Nb1 Fe1 Br8'
_cell_volume   424.70273230
_cell_formula_units_Z   1
loop_
 _symmetry_equiv_pos_site_id
 _symmetry_equiv_pos_as_xyz
  1  'x, y, z'
loop_
 _atom_site_type_symbol
 _atom_site_label
 _atom_site_symmetry_multiplicity
 _atom_site_fract_x
 _atom_site_fract_y
 _atom_site_fract_z
 _atom_site_occupancy
  Nb  Nb0  1  0.735429  0.264571  0.000000  1
  Fe  Fe1  1  0.125332  0.874668  0.000000  1
  Br  Br2  1  0.780001  0.857831  0.156595  1
  Br  Br3  1  0.142169  0.219999  0.843405  1
  Br  Br4  1  0.237196  0.724618  0.239039  1
  Br  Br5  1  0.275382  0.762804  0.760961  1
  Br  Br6  1  0.802524  0.249653  0.694698  1
  Br  Br7  1  0.750347  0.197476  0.305302  1
  Br  Br8  1  0.391723  0.240103  0.159158  1
  Br  Br9  1  0.759897  0.608277  0.840842  1
