# generated using pymatgen
data_Dy7(PS3)2
_symmetry_space_group_name_H-M   'P 1'
_cell_length_a   7.87357311
_cell_length_b   7.87322079
_cell_length_c   7.87354943
_cell_angle_alpha   119.99447709
_cell_angle_beta   90.01151945
_cell_angle_gamma   119.99515037
_symmetry_Int_Tables_number   1
_chemical_formula_structural   Dy7(PS3)2
_chemical_formula_sum   'Dy7 P2 S6'
_cell_volume   345.14713905
_cell_formula_units_Z   1
loop_
 _symmetry_equiv_pos_site_id
 _symmetry_equiv_pos_as_xyz
  1  'x, y, z'
loop_
 _atom_site_type_symbol
 _atom_site_label
 _atom_site_symmetry_multiplicity
 _atom_site_fract_x
 _atom_site_fract_y
 _atom_site_fract_z
 _atom_site_occupancy
  Dy  Dy0  1  0.250002  0.999999  0.250003  1
  Dy  Dy1  1  0.250002  0.500003  0.250002  1
  Dy  Dy2  1  0.749999  0.999999  0.250002  1
  Dy  Dy3  1  0.250000  0.500001  0.750001  1
  Dy  Dy4  1  0.250003  0.000002  0.749999  1
  Dy  Dy5  1  0.749999  0.000001  0.750001  1
  Dy  Dy6  1  0.749998  0.499996  0.749999  1
  P  P7  1  0.000002  0.000000  0.000002  1
  P  P8  1  0.500001  0.999999  0.500000  1
  S  S9  1  0.002318  0.004638  0.502321  1
  S  S10  1  0.002301  0.500001  0.502302  1
  S  S11  1  0.497677  0.500001  0.502324  1
  S  S12  1  0.002324  0.500000  0.997676  1
  S  S13  1  0.497696  0.500001  0.997696  1
  S  S14  1  0.497682  0.995363  0.997682  1
