# generated using pymatgen
data_LiYb(TaS2)8
_symmetry_space_group_name_H-M   'P 1'
_cell_length_a   6.74499800
_cell_length_b   6.74499797
_cell_length_c   13.89259400
_cell_angle_alpha   90.00000000
_cell_angle_beta   90.00000000
_cell_angle_gamma   120.00000997
_symmetry_Int_Tables_number   1
_chemical_formula_structural   LiYb(TaS2)8
_chemical_formula_sum   'Li1 Yb1 Ta8 S16'
_cell_volume   547.36570116
_cell_formula_units_Z   1
loop_
 _symmetry_equiv_pos_site_id
 _symmetry_equiv_pos_as_xyz
  1  'x, y, z'
loop_
 _atom_site_type_symbol
 _atom_site_label
 _atom_site_symmetry_multiplicity
 _atom_site_fract_x
 _atom_site_fract_y
 _atom_site_fract_z
 _atom_site_occupancy
  Li  Li0  1  0.000000  0.000000  0.000000  1
  Yb  Yb1  1  0.000000  0.000000  0.500000  1
  Ta  Ta2  1  0.505178  0.494822  0.758857  1
  Ta  Ta3  1  0.010356  0.505178  0.241143  1
  Ta  Ta4  1  0.494822  0.989644  0.241143  1
  Ta  Ta5  1  0.505178  0.010356  0.758857  1
  Ta  Ta6  1  0.989644  0.494822  0.758857  1
  Ta  Ta7  1  0.494822  0.505178  0.241143  1
  Ta  Ta8  1  0.000000  0.000000  0.760029  1
  Ta  Ta9  1  0.000000  0.000000  0.239971  1
  S  S10  1  0.833041  0.166959  0.352457  1
  S  S11  1  0.833041  0.666080  0.352457  1
  S  S12  1  0.333920  0.166959  0.352457  1
  S  S13  1  0.664079  0.832040  0.869415  1
  S  S14  1  0.166959  0.333920  0.647543  1
  S  S15  1  0.167960  0.832040  0.869415  1
  S  S16  1  0.167960  0.335921  0.869415  1
  S  S17  1  0.832040  0.167960  0.130585  1
  S  S18  1  0.335921  0.167960  0.130585  1
  S  S19  1  0.666080  0.833041  0.647543  1
  S  S20  1  0.333333  0.666667  0.127988  1
  S  S21  1  0.666667  0.333333  0.644126  1
  S  S22  1  0.666667  0.333333  0.872012  1
  S  S23  1  0.333333  0.666667  0.355874  1
  S  S24  1  0.832040  0.664079  0.130585  1
  S  S25  1  0.166959  0.833041  0.647543  1
