# generated using pymatgen
data_Nd7YLu12Si15Rh
_symmetry_space_group_name_H-M   'P 1'
_cell_length_a   7.41122669
_cell_length_b   7.66875301
_cell_length_c   14.53697100
_cell_angle_alpha   89.76214688
_cell_angle_beta   89.88747680
_cell_angle_gamma   90.39206348
_symmetry_Int_Tables_number   1
_chemical_formula_structural   Nd7YLu12Si15Rh
_chemical_formula_sum   'Nd7 Y1 Lu12 Si15 Rh1'
_cell_volume   826.17871134
_cell_formula_units_Z   1
loop_
 _symmetry_equiv_pos_site_id
 _symmetry_equiv_pos_as_xyz
  1  'x, y, z'
loop_
 _atom_site_type_symbol
 _atom_site_label
 _atom_site_symmetry_multiplicity
 _atom_site_fract_x
 _atom_site_fract_y
 _atom_site_fract_z
 _atom_site_occupancy
  Nd  Nd0  1  0.019142  0.176109  0.098944  1
  Nd  Nd1  1  0.980295  0.823204  0.900699  1
  Nd  Nd2  1  0.479714  0.676869  0.902112  1
  Nd  Nd3  1  0.983118  0.821864  0.596931  1
  Nd  Nd4  1  0.517920  0.324543  0.097052  1
  Nd  Nd5  1  0.018102  0.179292  0.403307  1
  Nd  Nd6  1  0.517841  0.321116  0.401225  1
  Y  Y7  1  0.479716  0.673911  0.599951  1
  Lu  Lu8  1  0.158172  0.508420  0.742095  1
  Lu  Lu9  1  0.844221  0.493057  0.252517  1
  Lu  Lu10  1  0.344147  0.001461  0.250866  1
  Lu  Lu11  1  0.656337  0.994582  0.748053  1
  Lu  Lu12  1  0.323797  0.190277  0.618565  1
  Lu  Lu13  1  0.673789  0.821491  0.376243  1
  Lu  Lu14  1  0.177429  0.662571  0.381291  1
  Lu  Lu15  1  0.678978  0.824412  0.125040  1
  Lu  Lu16  1  0.827379  0.327438  0.621533  1
  Lu  Lu17  1  0.322835  0.180051  0.876080  1
  Lu  Lu18  1  0.826050  0.321537  0.876239  1
  Lu  Lu19  1  0.175777  0.677923  0.123653  1
  Si  Si20  1  0.030564  0.116241  0.749913  1
  Si  Si21  1  0.975190  0.879524  0.252659  1
  Si  Si22  1  0.470860  0.614736  0.248718  1
  Si  Si23  1  0.533947  0.386873  0.751878  1
  Si  Si24  1  0.279869  0.882215  0.748989  1
  Si  Si25  1  0.720743  0.123612  0.249418  1
  Si  Si26  1  0.223111  0.373667  0.248989  1
  Si  Si27  1  0.772981  0.623588  0.751008  1
  Si  Si28  1  0.842495  0.533419  0.459863  1
  Si  Si29  1  0.351488  0.961840  0.462007  1
  Si  Si30  1  0.850332  0.533854  0.039021  1
  Si  Si31  1  0.647328  0.029694  0.539867  1
  Si  Si32  1  0.147623  0.467705  0.961198  1
  Si  Si33  1  0.649218  0.032680  0.960901  1
  Si  Si34  1  0.352113  0.967281  0.039015  1
  Rh  Rh35  1  0.147377  0.472944  0.544158  1
