# generated using pymatgen
data_Hf4Zr4Co13(P4Os)3
_symmetry_space_group_name_H-M   'P 1'
_cell_length_a   12.23536034
_cell_length_b   12.23539697
_cell_length_c   3.68827300
_cell_angle_alpha   90.00000000
_cell_angle_beta   90.00000000
_cell_angle_gamma   120.02707880
_symmetry_Int_Tables_number   1
_chemical_formula_structural   Hf4Zr4Co13(P4Os)3
_chemical_formula_sum   'Hf4 Zr4 Co13 P12 Os3'
_cell_volume   478.04628953
_cell_formula_units_Z   1
loop_
 _symmetry_equiv_pos_site_id
 _symmetry_equiv_pos_as_xyz
  1  'x, y, z'
loop_
 _atom_site_type_symbol
 _atom_site_label
 _atom_site_symmetry_multiplicity
 _atom_site_fract_x
 _atom_site_fract_y
 _atom_site_fract_z
 _atom_site_occupancy
  Hf  Hf0  1  0.446679  0.439742  0.000000  1
  Hf  Hf1  1  0.560540  0.006930  0.000000  1
  Hf  Hf2  1  0.992980  0.553536  0.000000  1
  Hf  Hf3  1  0.823788  0.826473  0.500000  1
  Zr  Zr4  1  0.666650  0.333344  0.000000  1
  Zr  Zr5  1  0.333330  0.666630  0.000000  1
  Zr  Zr6  1  0.174049  0.997359  0.500000  1
  Zr  Zr7  1  0.002563  0.176677  0.500000  1
  Co  Co8  1  0.197196  0.364694  0.000000  1
  Co  Co9  1  0.167322  0.802800  0.000000  1
  Co  Co10  1  0.818937  0.630379  0.000000  1
  Co  Co11  1  0.810597  0.180932  0.000000  1
  Co  Co12  1  0.370392  0.189379  0.000000  1
  Co  Co13  1  0.642545  0.508512  0.500000  1
  Co  Co14  1  0.866071  0.357485  0.500000  1
  Co  Co15  1  0.491337  0.133905  0.500000  1
  Co  Co16  1  0.999027  0.999019  0.000000  1
  Co  Co17  1  0.726182  0.005575  0.500000  1
  Co  Co18  1  0.993684  0.720285  0.500000  1
  Co  Co19  1  0.636114  0.832451  0.000000  1
  Co  Co20  1  0.279952  0.273958  0.500000  1
  P  P21  1  0.656220  0.657653  0.000000  1
  P  P22  1  0.343158  0.998551  0.000000  1
  P  P23  1  0.001453  0.344612  0.000000  1
  P  P24  1  0.481001  0.305547  0.500000  1
  P  P25  1  0.694456  0.175439  0.500000  1
  P  P26  1  0.824561  0.518872  0.500000  1
  P  P27  1  0.522900  0.836562  0.500000  1
  P  P28  1  0.163419  0.686497  0.500000  1
  P  P29  1  0.827942  0.002686  0.000000  1
  P  P30  1  0.995977  0.824542  0.000000  1
  P  P31  1  0.313559  0.477016  0.500000  1
  P  P32  1  0.175069  0.171769  0.000000  1
  Os  Os33  1  0.122122  0.474255  0.500000  1
  Os  Os34  1  0.352094  0.877856  0.500000  1
  Os  Os35  1  0.526133  0.648077  0.500000  1
