# generated using pymatgen
data_Ac2Eu(InPd)3
_symmetry_space_group_name_H-M   'P 1'
_cell_length_a   7.92624508
_cell_length_b   7.92624585
_cell_length_c   4.31867900
_cell_angle_alpha   90.00000000
_cell_angle_beta   90.00000000
_cell_angle_gamma   120.48868249
_symmetry_Int_Tables_number   1
_chemical_formula_structural   Ac2Eu(InPd)3
_chemical_formula_sum   'Ac2 Eu1 In3 Pd3'
_cell_volume   233.80665484
_cell_formula_units_Z   1
loop_
 _symmetry_equiv_pos_site_id
 _symmetry_equiv_pos_as_xyz
  1  'x, y, z'
loop_
 _atom_site_type_symbol
 _atom_site_label
 _atom_site_symmetry_multiplicity
 _atom_site_fract_x
 _atom_site_fract_y
 _atom_site_fract_z
 _atom_site_occupancy
  Ac  Ac0  1  0.413168  0.000568  0.500000  1
  Ac  Ac1  1  0.000568  0.413168  0.500000  1
  Eu  Eu2  1  0.590027  0.590027  0.500000  1
  In  In3  1  0.754707  0.993985  0.000000  1
  In  In4  1  0.993985  0.754707  0.000000  1
  In  In5  1  0.250075  0.250075  0.000000  1
  Pd  Pd6  1  0.332406  0.665975  0.000000  1
  Pd  Pd7  1  0.665975  0.332406  0.000000  1
  Pd  Pd8  1  0.999089  0.999089  0.500000  1
