# generated using pymatgen
data_Tb5Yb(Si3Os)8
_symmetry_space_group_name_H-M   'P 1'
_cell_length_a   10.14637773
_cell_length_b   10.14637873
_cell_length_c   8.18457110
_cell_angle_alpha   89.89415061
_cell_angle_beta   90.10585061
_cell_angle_gamma   132.44276709
_symmetry_Int_Tables_number   1
_chemical_formula_structural   Tb5Yb(Si3Os)8
_chemical_formula_sum   'Tb5 Yb1 Si24 Os8'
_cell_volume   621.79201805
_cell_formula_units_Z   1
loop_
 _symmetry_equiv_pos_site_id
 _symmetry_equiv_pos_as_xyz
  1  'x, y, z'
loop_
 _atom_site_type_symbol
 _atom_site_label
 _atom_site_symmetry_multiplicity
 _atom_site_fract_x
 _atom_site_fract_y
 _atom_site_fract_z
 _atom_site_occupancy
  Tb  Tb0  1  0.500230  0.500297  0.500454  1
  Tb  Tb1  1  0.000297  0.000230  0.999546  1
  Tb  Tb2  1  0.998741  0.498741  0.250000  1
  Tb  Tb3  1  0.497792  0.997792  0.250000  1
  Tb  Tb4  1  0.002202  0.502202  0.750000  1
  Yb  Yb5  1  0.501863  0.001863  0.750000  1
  Si  Si6  1  0.794072  0.203522  0.500671  1
  Si  Si7  1  0.296165  0.705850  0.998465  1
  Si  Si8  1  0.205850  0.796165  0.501535  1
  Si  Si9  1  0.703522  0.294072  0.999329  1
  Si  Si10  1  0.332523  0.334022  0.833181  1
  Si  Si11  1  0.666972  0.668224  0.166704  1
  Si  Si12  1  0.168224  0.166972  0.333296  1
  Si  Si13  1  0.834022  0.832523  0.666819  1
  Si  Si14  1  0.121483  0.886522  0.728042  1
  Si  Si15  1  0.111736  0.877422  0.272392  1
  Si  Si16  1  0.612127  0.377979  0.228382  1
  Si  Si17  1  0.623622  0.388873  0.772074  1
  Si  Si18  1  0.877979  0.112127  0.271618  1
  Si  Si19  1  0.888873  0.123622  0.727926  1
  Si  Si20  1  0.386522  0.621483  0.771958  1
  Si  Si21  1  0.377422  0.611736  0.227608  1
  Si  Si22  1  0.344778  0.110903  0.503738  1
  Si  Si23  1  0.888691  0.654876  0.494745  1
  Si  Si24  1  0.388694  0.154498  0.005640  1
  Si  Si25  1  0.844878  0.611409  0.994738  1
  Si  Si26  1  0.654498  0.888694  0.494360  1
  Si  Si27  1  0.111409  0.344878  0.505262  1
  Si  Si28  1  0.610903  0.844778  0.996262  1
  Si  Si29  1  0.154876  0.388691  0.005255  1
  Os  Os30  1  0.669233  0.330193  0.500023  1
  Os  Os31  1  0.168552  0.830110  0.001047  1
  Os  Os32  1  0.330110  0.668552  0.498953  1
  Os  Os33  1  0.830193  0.169233  0.999977  1
  Os  Os34  1  0.127005  0.127006  0.627513  1
  Os  Os35  1  0.873143  0.873787  0.372674  1
  Os  Os36  1  0.373787  0.373143  0.127326  1
  Os  Os37  1  0.627006  0.627005  0.872487  1
