# generated using pymatgen
data_La3Al12(RuRh)2
_symmetry_space_group_name_H-M   'P 1'
_cell_length_a   9.00711300
_cell_length_b   8.95384713
_cell_length_c   9.71729200
_cell_angle_alpha   90.00000000
_cell_angle_beta   90.00000000
_cell_angle_gamma   119.80456624
_symmetry_Int_Tables_number   1
_chemical_formula_structural   La3Al12(RuRh)2
_chemical_formula_sum   'La6 Al24 Ru4 Rh4'
_cell_volume   680.02217077
_cell_formula_units_Z   2
loop_
 _symmetry_equiv_pos_site_id
 _symmetry_equiv_pos_as_xyz
  1  'x, y, z'
loop_
 _atom_site_type_symbol
 _atom_site_label
 _atom_site_symmetry_multiplicity
 _atom_site_fract_x
 _atom_site_fract_y
 _atom_site_fract_z
 _atom_site_occupancy
  La  La0  1  0.188394  0.382878  0.250000  1
  La  La1  1  0.811606  0.617122  0.750000  1
  La  La2  1  0.619967  0.809984  0.250000  1
  La  La3  1  0.380033  0.190016  0.750000  1
  La  La4  1  0.188394  0.805515  0.250000  1
  La  La5  1  0.811606  0.194485  0.750000  1
  Al  Al6  1  0.331118  0.665560  0.008101  1
  Al  Al7  1  0.668882  0.334440  0.991899  1
  Al  Al8  1  0.668882  0.334440  0.508101  1
  Al  Al9  1  0.331118  0.665560  0.491899  1
  Al  Al10  1  0.161695  0.325627  0.576135  1
  Al  Al11  1  0.838305  0.674373  0.423865  1
  Al  Al12  1  0.675956  0.837977  0.576021  1
  Al  Al13  1  0.838305  0.674373  0.076135  1
  Al  Al14  1  0.324044  0.162023  0.423979  1
  Al  Al15  1  0.161695  0.325627  0.923865  1
  Al  Al16  1  0.161695  0.836068  0.576135  1
  Al  Al17  1  0.324044  0.162023  0.076021  1
  Al  Al18  1  0.838305  0.163932  0.423865  1
  Al  Al19  1  0.675956  0.837977  0.923979  1
  Al  Al20  1  0.838305  0.163932  0.076135  1
  Al  Al21  1  0.161695  0.836068  0.923865  1
  Al  Al22  1  0.562189  0.125722  0.250000  1
  Al  Al23  1  0.437811  0.874278  0.750000  1
  Al  Al24  1  0.872391  0.436196  0.250000  1
  Al  Al25  1  0.127609  0.563804  0.750000  1
  Al  Al26  1  0.562189  0.436467  0.250000  1
  Al  Al27  1  0.437811  0.563533  0.750000  1
  Al  Al28  1  0.998489  0.999244  0.250000  1
  Al  Al29  1  0.001511  0.000756  0.750000  1
  Ru  Ru30  1  0.000000  0.500000  0.000000  1
  Ru  Ru31  1  0.000000  0.500000  0.500000  1
  Ru  Ru32  1  0.000000  0.000000  0.000000  1
  Ru  Ru33  1  0.000000  0.000000  0.500000  1
  Rh  Rh34  1  0.500000  0.000000  0.000000  1
  Rh  Rh35  1  0.500000  0.000000  0.500000  1
  Rh  Rh36  1  0.500000  0.500000  0.000000  1
  Rh  Rh37  1  0.500000  0.500000  0.500000  1
