# generated using pymatgen
data_Ba6MgNi2Pd2O15
_symmetry_space_group_name_H-M   'P 1'
_cell_length_a   7.32952974
_cell_length_b   7.32938472
_cell_length_c   7.32926793
_cell_angle_alpha   87.48609384
_cell_angle_beta   87.48420440
_cell_angle_gamma   87.48464266
_symmetry_Int_Tables_number   1
_chemical_formula_structural   Ba6MgNi2Pd2O15
_chemical_formula_sum   'Ba6 Mg1 Ni2 Pd2 O15'
_cell_volume   392.62965850
_cell_formula_units_Z   1
loop_
 _symmetry_equiv_pos_site_id
 _symmetry_equiv_pos_as_xyz
  1  'x, y, z'
loop_
 _atom_site_type_symbol
 _atom_site_label
 _atom_site_symmetry_multiplicity
 _atom_site_fract_x
 _atom_site_fract_y
 _atom_site_fract_z
 _atom_site_occupancy
  Ba  Ba0  1  0.335734  0.664276  0.999988  1
  Ba  Ba1  1  0.000009  0.335745  0.664260  1
  Ba  Ba2  1  0.664256  0.000011  0.335734  1
  Ba  Ba3  1  0.145601  0.854397  0.500009  1
  Ba  Ba4  1  0.499994  0.145620  0.854390  1
  Ba  Ba5  1  0.854404  0.500003  0.145585  1
  Mg  Mg6  1  0.500024  0.500002  0.499966  1
  Ni  Ni7  1  0.091791  0.091792  0.092001  1
  Ni  Ni8  1  0.908214  0.908188  0.908080  1
  Pd  Pd9  1  0.289130  0.289119  0.289097  1
  Pd  Pd10  1  0.710891  0.710899  0.710888  1
  O  O11  1  0.141580  0.999988  0.858434  1
  O  O12  1  0.858374  0.141581  0.000046  1
  O  O13  1  0.999965  0.858375  0.141645  1
  O  O14  1  0.025857  0.187399  0.325957  1
  O  O15  1  0.325922  0.025832  0.187411  1
  O  O16  1  0.187390  0.325906  0.025858  1
  O  O17  1  0.812594  0.974167  0.674089  1
  O  O18  1  0.674029  0.812589  0.974129  1
  O  O19  1  0.974143  0.674074  0.812599  1
  O  O20  1  0.373968  0.236066  0.541910  1
  O  O21  1  0.541937  0.373947  0.236019  1
  O  O22  1  0.236081  0.541938  0.373913  1
  O  O23  1  0.763970  0.626067  0.458055  1
  O  O24  1  0.458071  0.763952  0.626025  1
  O  O25  1  0.626071  0.458070  0.763911  1
