# generated using pymatgen
data_TbNb3(AsO4)6
_symmetry_space_group_name_H-M   'P 1'
_cell_length_a   9.52586287
_cell_length_b   9.52589034
_cell_length_c   9.52586596
_cell_angle_alpha   58.16025466
_cell_angle_beta   58.16037516
_cell_angle_gamma   58.16031891
_symmetry_Int_Tables_number   1
_chemical_formula_structural   TbNb3(AsO4)6
_chemical_formula_sum   'Tb1 Nb3 As6 O24'
_cell_volume   585.45123553
_cell_formula_units_Z   1
loop_
 _symmetry_equiv_pos_site_id
 _symmetry_equiv_pos_as_xyz
  1  'x, y, z'
loop_
 _atom_site_type_symbol
 _atom_site_label
 _atom_site_symmetry_multiplicity
 _atom_site_fract_x
 _atom_site_fract_y
 _atom_site_fract_z
 _atom_site_occupancy
  Tb  Tb0  1  0.862318  0.862318  0.862319  1
  Nb  Nb1  1  0.140721  0.140721  0.140722  1
  Nb  Nb2  1  0.359319  0.359320  0.359321  1
  Nb  Nb3  1  0.641730  0.641728  0.641731  1
  As  As4  1  0.034238  0.464926  0.749926  1
  As  As5  1  0.464925  0.749926  0.034238  1
  As  As6  1  0.749926  0.034238  0.464925  1
  As  As7  1  0.269095  0.966567  0.513330  1
  As  As8  1  0.513330  0.269093  0.966568  1
  As  As9  1  0.966569  0.513330  0.269093  1
  O  O10  1  0.127268  0.470353  0.332203  1
  O  O11  1  0.332202  0.127268  0.470352  1
  O  O12  1  0.043689  0.290308  0.946643  1
  O  O13  1  0.470351  0.332204  0.127267  1
  O  O14  1  0.228404  0.392687  0.591456  1
  O  O15  1  0.025293  0.646778  0.744967  1
  O  O16  1  0.290306  0.946643  0.043689  1
  O  O17  1  0.392687  0.591456  0.228405  1
  O  O18  1  0.591456  0.228403  0.392688  1
  O  O19  1  0.254939  0.992427  0.327458  1
  O  O20  1  0.085729  0.963408  0.688763  1
  O  O21  1  0.327459  0.254940  0.992425  1
  O  O22  1  0.646777  0.744970  0.025293  1
  O  O23  1  0.946642  0.043691  0.290307  1
  O  O24  1  0.744970  0.025295  0.646774  1
  O  O25  1  0.444900  0.776747  0.551524  1
  O  O26  1  0.551526  0.444898  0.776748  1
  O  O27  1  0.688761  0.085726  0.963411  1
  O  O28  1  0.992428  0.327456  0.254943  1
  O  O29  1  0.776748  0.551526  0.444898  1
  O  O30  1  0.496146  0.722830  0.852906  1
  O  O31  1  0.963412  0.688761  0.085725  1
  O  O32  1  0.722830  0.852905  0.496147  1
  O  O33  1  0.852905  0.496147  0.722830  1
