# generated using pymatgen
data_NdSb3Pb4O13
_symmetry_space_group_name_H-M   'P 1'
_cell_length_a   7.75070779
_cell_length_b   7.75070818
_cell_length_c   7.75070752
_cell_angle_alpha   59.52254182
_cell_angle_beta   59.52254257
_cell_angle_gamma   59.52253651
_symmetry_Int_Tables_number   1
_chemical_formula_structural   NdSb3Pb4O13
_chemical_formula_sum   'Nd1 Sb3 Pb4 O13'
_cell_volume   325.66274698
_cell_formula_units_Z   1
loop_
 _symmetry_equiv_pos_site_id
 _symmetry_equiv_pos_as_xyz
  1  'x, y, z'
loop_
 _atom_site_type_symbol
 _atom_site_label
 _atom_site_symmetry_multiplicity
 _atom_site_fract_x
 _atom_site_fract_y
 _atom_site_fract_z
 _atom_site_occupancy
  Nd  Nd0  1  0.500597  0.500597  0.500597  1
  Sb  Sb1  1  0.001305  0.500070  0.500070  1
  Sb  Sb2  1  0.500070  0.500070  0.001305  1
  Sb  Sb3  1  0.500070  0.001305  0.500070  1
  Pb  Pb4  1  0.998924  0.998924  0.998924  1
  Pb  Pb5  1  0.495837  0.003955  0.003955  1
  Pb  Pb6  1  0.003955  0.003955  0.495837  1
  Pb  Pb7  1  0.003955  0.495837  0.003955  1
  O  O8  1  0.870549  0.409351  0.409351  1
  O  O9  1  0.414882  0.810423  0.810423  1
  O  O10  1  0.409351  0.409351  0.870549  1
  O  O11  1  0.810423  0.810423  0.414882  1
  O  O12  1  0.810423  0.414882  0.810423  1
  O  O13  1  0.409351  0.870549  0.409351  1
  O  O14  1  0.136459  0.586786  0.586786  1
  O  O15  1  0.585804  0.189600  0.189600  1
  O  O16  1  0.586786  0.586786  0.136459  1
  O  O17  1  0.189600  0.189600  0.585804  1
  O  O18  1  0.189600  0.585804  0.189600  1
  O  O19  1  0.586786  0.136459  0.586786  1
  O  O20  1  0.120269  0.120269  0.120269  1
