# generated using pymatgen
data_Hf2Zr4BeI12
_symmetry_space_group_name_H-M   'P 1'
_cell_length_a   9.32942482
_cell_length_b   9.29135759
_cell_length_c   9.26603947
_cell_angle_alpha   106.64170290
_cell_angle_beta   106.88318876
_cell_angle_gamma   106.79772800
_symmetry_Int_Tables_number   1
_chemical_formula_structural   Hf2Zr4BeI12
_chemical_formula_sum   'Hf2 Zr4 Be1 I12'
_cell_volume   672.99480958
_cell_formula_units_Z   1
loop_
 _symmetry_equiv_pos_site_id
 _symmetry_equiv_pos_as_xyz
  1  'x, y, z'
loop_
 _atom_site_type_symbol
 _atom_site_label
 _atom_site_symmetry_multiplicity
 _atom_site_fract_x
 _atom_site_fract_y
 _atom_site_fract_z
 _atom_site_occupancy
  Hf  Hf0  1  0.972867  0.725445  0.909799  1
  Hf  Hf1  1  0.273282  0.089689  0.026088  1
  Zr  Zr2  1  0.091688  0.026863  0.279890  1
  Zr  Zr3  1  0.908395  0.974066  0.719689  1
  Zr  Zr4  1  0.719942  0.908336  0.973667  1
  Zr  Zr5  1  0.026512  0.281708  0.092014  1
  Be  Be6  1  0.997919  0.001756  0.000252  1
  I  I7  1  0.923629  0.311888  0.775313  1
  I  I8  1  0.689329  0.222906  0.077311  1
  I  I9  1  0.440495  0.138600  0.361856  1
  I  I10  1  0.861561  0.633600  0.561752  1
  I  I11  1  0.225790  0.077022  0.692225  1
  I  I12  1  0.638763  0.558451  0.860539  1
  I  I13  1  0.366323  0.437124  0.138154  1
  I  I14  1  0.778397  0.922017  0.312827  1
  I  I15  1  0.141671  0.365923  0.442539  1
  I  I16  1  0.559662  0.859578  0.633562  1
  I  I17  1  0.307159  0.778232  0.923150  1
  I  I18  1  0.076617  0.686794  0.219372  1
