# generated using pymatgen
data_LaCdRh2O7
_symmetry_space_group_name_H-M   'P 1'
_cell_length_a   7.32830237
_cell_length_b   7.32830134
_cell_length_c   7.23641900
_cell_angle_alpha   60.41389014
_cell_angle_beta   60.41389473
_cell_angle_gamma   61.61135302
_symmetry_Int_Tables_number   1
_chemical_formula_structural   LaCdRh2O7
_chemical_formula_sum   'La2 Cd2 Rh4 O14'
_cell_volume   279.75793737
_cell_formula_units_Z   2
loop_
 _symmetry_equiv_pos_site_id
 _symmetry_equiv_pos_as_xyz
  1  'x, y, z'
loop_
 _atom_site_type_symbol
 _atom_site_label
 _atom_site_symmetry_multiplicity
 _atom_site_fract_x
 _atom_site_fract_y
 _atom_site_fract_z
 _atom_site_occupancy
  La  La0  1  0.625000  0.125000  0.125000  1
  La  La1  1  0.125000  0.625000  0.125000  1
  Cd  Cd2  1  0.125000  0.125000  0.125000  1
  Cd  Cd3  1  0.125000  0.125000  0.625000  1
  Rh  Rh4  1  0.625000  0.625000  0.125000  1
  Rh  Rh5  1  0.625000  0.625000  0.625000  1
  Rh  Rh6  1  0.625000  0.125000  0.625000  1
  Rh  Rh7  1  0.125000  0.625000  0.625000  1
  O  O8  1  0.700771  0.300936  0.298325  1
  O  O9  1  0.700771  0.300936  0.699968  1
  O  O10  1  0.010021  0.010021  0.989979  1
  O  O11  1  0.300936  0.700771  0.298325  1
  O  O12  1  0.707318  0.707318  0.292682  1
  O  O13  1  0.949064  0.549229  0.550032  1
  O  O14  1  0.300936  0.700771  0.699968  1
  O  O15  1  0.239979  0.239979  0.260021  1
  O  O16  1  0.949064  0.549229  0.951675  1
  O  O17  1  0.549229  0.949064  0.550032  1
  O  O18  1  0.542682  0.542682  0.957318  1
  O  O19  1  0.948723  0.948723  0.551277  1
  O  O20  1  0.549229  0.949064  0.951675  1
  O  O21  1  0.301277  0.301277  0.698723  1
