# generated using pymatgen
data_Tb5Ho3Sc12Si15Ag
_symmetry_space_group_name_H-M   'P 1'
_cell_length_a   7.13548332
_cell_length_b   7.37510914
_cell_length_c   14.07642126
_cell_angle_alpha   89.85631543
_cell_angle_beta   89.62045530
_cell_angle_gamma   90.18896784
_symmetry_Int_Tables_number   1
_chemical_formula_structural   Tb5Ho3Sc12Si15Ag
_chemical_formula_sum   'Tb5 Ho3 Sc12 Si15 Ag1'
_cell_volume   740.74857026
_cell_formula_units_Z   1
loop_
 _symmetry_equiv_pos_site_id
 _symmetry_equiv_pos_as_xyz
  1  'x, y, z'
loop_
 _atom_site_type_symbol
 _atom_site_label
 _atom_site_symmetry_multiplicity
 _atom_site_fract_x
 _atom_site_fract_y
 _atom_site_fract_z
 _atom_site_occupancy
  Tb  Tb0  1  0.012132  0.175157  0.097715  1
  Tb  Tb1  1  0.987917  0.826178  0.903722  1
  Tb  Tb2  1  0.487406  0.676439  0.903726  1
  Tb  Tb3  1  0.988775  0.830790  0.597466  1
  Tb  Tb4  1  0.511992  0.324004  0.096650  1
  Ho  Ho5  1  0.008897  0.172039  0.398772  1
  Ho  Ho6  1  0.512051  0.322688  0.400024  1
  Ho  Ho7  1  0.493907  0.678338  0.599869  1
  Sc  Sc8  1  0.163287  0.501411  0.752913  1
  Sc  Sc9  1  0.837710  0.498663  0.251208  1
  Sc  Sc10  1  0.337714  0.000058  0.249158  1
  Sc  Sc11  1  0.664847  0.996639  0.751197  1
  Sc  Sc12  1  0.341666  0.173259  0.626764  1
  Sc  Sc13  1  0.665077  0.823178  0.373866  1
  Sc  Sc14  1  0.167290  0.675126  0.372028  1
  Sc  Sc15  1  0.669805  0.824543  0.125053  1
  Sc  Sc16  1  0.826023  0.325499  0.625199  1
  Sc  Sc17  1  0.328957  0.174988  0.875900  1
  Sc  Sc18  1  0.830352  0.323028  0.875763  1
  Sc  Sc19  1  0.168943  0.676217  0.125378  1
  Si  Si20  1  0.036332  0.121613  0.749866  1
  Si  Si21  1  0.965164  0.882986  0.249235  1
  Si  Si22  1  0.466506  0.615603  0.248520  1
  Si  Si23  1  0.534554  0.385652  0.751883  1
  Si  Si24  1  0.285844  0.874133  0.750479  1
  Si  Si25  1  0.712380  0.127143  0.249168  1
  Si  Si26  1  0.214207  0.371088  0.249243  1
  Si  Si27  1  0.788016  0.627019  0.751924  1
  Si  Si28  1  0.834484  0.536736  0.459077  1
  Si  Si29  1  0.337930  0.962357  0.460712  1
  Si  Si30  1  0.843995  0.535651  0.039054  1
  Si  Si31  1  0.658716  0.036336  0.537604  1
  Si  Si32  1  0.154924  0.464404  0.961835  1
  Si  Si33  1  0.656797  0.035276  0.960723  1
  Si  Si34  1  0.342951  0.964182  0.039834  1
  Ag  Ag35  1  0.162453  0.461580  0.538471  1
