# generated using pymatgen
data_Er12CdFe2AgOs
_symmetry_space_group_name_H-M   'P 1'
_cell_length_a   8.24538753
_cell_length_b   8.24544129
_cell_length_c   8.24538470
_cell_angle_alpha   107.24315976
_cell_angle_beta   109.81626180
_cell_angle_gamma   111.38069629
_symmetry_Int_Tables_number   1
_chemical_formula_structural   Er12CdFe2AgOs
_chemical_formula_sum   'Er12 Cd1 Fe2 Ag1 Os1'
_cell_volume   430.96364269
_cell_formula_units_Z   1
loop_
 _symmetry_equiv_pos_site_id
 _symmetry_equiv_pos_as_xyz
  1  'x, y, z'
loop_
 _atom_site_type_symbol
 _atom_site_label
 _atom_site_symmetry_multiplicity
 _atom_site_fract_x
 _atom_site_fract_y
 _atom_site_fract_z
 _atom_site_occupancy
  Er  Er0  1  0.308293  0.310196  0.618477  1
  Er  Er1  1  0.691707  0.689804  0.381523  1
  Er  Er2  1  0.308281  0.689804  0.998095  1
  Er  Er3  1  0.691719  0.310196  0.001905  1
  Er  Er4  1  0.440749  0.192732  0.248029  1
  Er  Er5  1  0.559251  0.807268  0.751971  1
  Er  Er6  1  0.944703  0.192732  0.751983  1
  Er  Er7  1  0.191139  0.957482  0.766344  1
  Er  Er8  1  0.055297  0.807268  0.248017  1
  Er  Er9  1  0.808861  0.042518  0.233656  1
  Er  Er10  1  0.191133  0.424815  0.233683  1
  Er  Er11  1  0.808867  0.575185  0.766317  1
  Cd  Cd12  1  0.000000  0.500000  0.500000  1
  Fe  Fe13  1  0.382619  0.382612  0.999993  1
  Fe  Fe14  1  0.617381  0.617388  0.000007  1
  Ag  Ag15  1  0.500000  0.000000  0.500000  1
  Os  Os16  1  0.000000  0.000000  0.000000  1
