# generated using pymatgen
data_Li5Ca4Al3
_symmetry_space_group_name_H-M   'P 1'
_cell_length_a   5.84772248
_cell_length_b   5.80685853
_cell_length_c   9.65413400
_cell_angle_alpha   90.00000000
_cell_angle_beta   90.00000000
_cell_angle_gamma   119.76913011
_symmetry_Int_Tables_number   1
_chemical_formula_structural   Li5Ca4Al3
_chemical_formula_sum   'Li5 Ca4 Al3'
_cell_volume   284.56245690
_cell_formula_units_Z   1
loop_
 _symmetry_equiv_pos_site_id
 _symmetry_equiv_pos_as_xyz
  1  'x, y, z'
loop_
 _atom_site_type_symbol
 _atom_site_label
 _atom_site_symmetry_multiplicity
 _atom_site_fract_x
 _atom_site_fract_y
 _atom_site_fract_z
 _atom_site_occupancy
  Li  Li0  1  0.833183  0.674374  0.250000  1
  Li  Li1  1  0.668894  0.834446  0.750000  1
  Li  Li2  1  0.028774  0.014387  0.993400  1
  Li  Li3  1  0.833183  0.158809  0.250000  1
  Li  Li4  1  0.028774  0.014387  0.506600  1
  Ca  Ca5  1  0.320284  0.660142  0.442343  1
  Ca  Ca6  1  0.650557  0.325278  0.569306  1
  Ca  Ca7  1  0.650557  0.325278  0.930694  1
  Ca  Ca8  1  0.320284  0.660142  0.057657  1
  Al  Al9  1  0.162011  0.333677  0.750000  1
  Al  Al10  1  0.162011  0.828333  0.750000  1
  Al  Al11  1  0.341489  0.170745  0.250000  1
