# generated using pymatgen
data_Rb2Dy(TeO4)3
_symmetry_space_group_name_H-M   'P 1'
_cell_length_a   7.59413544
_cell_length_b   7.59348599
_cell_length_c   7.58920255
_cell_angle_alpha   58.48233563
_cell_angle_beta   58.48462073
_cell_angle_gamma   58.43545335
_symmetry_Int_Tables_number   1
_chemical_formula_structural   Rb2Dy(TeO4)3
_chemical_formula_sum   'Rb2 Dy1 Te3 O12'
_cell_volume   298.60620336
_cell_formula_units_Z   1
loop_
 _symmetry_equiv_pos_site_id
 _symmetry_equiv_pos_as_xyz
  1  'x, y, z'
loop_
 _atom_site_type_symbol
 _atom_site_label
 _atom_site_symmetry_multiplicity
 _atom_site_fract_x
 _atom_site_fract_y
 _atom_site_fract_z
 _atom_site_occupancy
  Rb  Rb0  1  0.852481  0.892209  0.380837  1
  Rb  Rb1  1  0.107791  0.147522  0.619167  1
  Dy  Dy2  1  0.495444  0.504546  0.000005  1
  Te  Te3  1  0.997544  0.502152  0.999929  1
  Te  Te4  1  0.497849  0.002455  0.000066  1
  Te  Te5  1  0.497611  0.502393  0.499996  1
  O  O6  1  0.181934  0.186047  0.081292  1
  O  O7  1  0.575476  0.576653  0.644889  1
  O  O8  1  0.142205  0.576048  0.078158  1
  O  O9  1  0.581452  0.186511  0.684322  1
  O  O10  1  0.572846  0.148394  0.075910  1
  O  O11  1  0.182263  0.583218  0.684334  1
  O  O12  1  0.813935  0.818089  0.918707  1
  O  O13  1  0.423347  0.424525  0.355113  1
  O  O14  1  0.851606  0.427150  0.924082  1
  O  O15  1  0.416781  0.817750  0.315653  1
  O  O16  1  0.423954  0.857790  0.921852  1
  O  O17  1  0.813482  0.418548  0.315688  1
