# generated using pymatgen
data_Hf4Zr2MnSi6Ru5
_symmetry_space_group_name_H-M   'P 1'
_cell_length_a   7.61112723
_cell_length_b   7.62367769
_cell_length_c   7.62367852
_cell_angle_alpha   128.09757002
_cell_angle_beta   122.29785462
_cell_angle_gamma   81.33299323
_symmetry_Int_Tables_number   1
_chemical_formula_structural   Hf4Zr2MnSi6Ru5
_chemical_formula_sum   'Hf4 Zr2 Mn1 Si6 Ru5'
_cell_volume   283.40908971
_cell_formula_units_Z   1
loop_
 _symmetry_equiv_pos_site_id
 _symmetry_equiv_pos_as_xyz
  1  'x, y, z'
loop_
 _atom_site_type_symbol
 _atom_site_label
 _atom_site_symmetry_multiplicity
 _atom_site_fract_x
 _atom_site_fract_y
 _atom_site_fract_z
 _atom_site_occupancy
  Hf  Hf0  1  0.746040  0.830900  0.583251  1
  Hf  Hf1  1  0.253960  0.837212  0.084861  1
  Hf  Hf2  1  0.051527  0.255507  0.701881  1
  Hf  Hf3  1  0.948473  0.650354  0.203979  1
  Zr  Zr4  1  0.466944  0.695162  0.724545  1
  Zr  Zr5  1  0.533056  0.257601  0.228219  1
  Mn  Mn6  1  0.500000  0.499400  0.999400  1
  Si  Si7  1  0.274405  0.269417  0.496008  1
  Si  Si8  1  0.725595  0.221603  0.995012  1
  Si  Si9  1  0.327754  0.586815  0.244484  1
  Si  Si10  1  0.672246  0.916730  0.259062  1
  Si  Si11  1  0.160476  0.923866  0.749801  1
  Si  Si12  1  0.839524  0.589325  0.763391  1
  Ru  Ru13  1  0.000000  0.501283  0.501283  1
  Ru  Ru14  1  0.095660  0.254131  0.102446  1
  Ru  Ru15  1  0.904340  0.006787  0.158473  1
  Ru  Ru16  1  0.347411  0.008502  0.602417  1
  Ru  Ru17  1  0.652589  0.255004  0.661090  1
