# generated using pymatgen
data_YEr11(OsPd)2
_symmetry_space_group_name_H-M   'P 1'
_cell_length_a   6.38707100
_cell_length_b   7.25297942
_cell_length_c   9.20781100
_cell_angle_alpha   90.00000000
_cell_angle_beta   90.00000000
_cell_angle_gamma   90.47325580
_symmetry_Int_Tables_number   1
_chemical_formula_structural   YEr11(OsPd)2
_chemical_formula_sum   'Y1 Er11 Os2 Pd2'
_cell_volume   426.54000543
_cell_formula_units_Z   1
loop_
 _symmetry_equiv_pos_site_id
 _symmetry_equiv_pos_as_xyz
  1  'x, y, z'
loop_
 _atom_site_type_symbol
 _atom_site_label
 _atom_site_symmetry_multiplicity
 _atom_site_fract_x
 _atom_site_fract_y
 _atom_site_fract_z
 _atom_site_occupancy
  Y  Y0  1  0.878421  0.522303  0.250000  1
  Er  Er1  1  0.621921  0.043263  0.250000  1
  Er  Er2  1  0.377324  0.956986  0.750000  1
  Er  Er3  1  0.123789  0.476134  0.750000  1
  Er  Er4  1  0.178618  0.183788  0.061222  1
  Er  Er5  1  0.821804  0.816011  0.938114  1
  Er  Er6  1  0.662926  0.325105  0.941337  1
  Er  Er7  1  0.821804  0.816011  0.561886  1
  Er  Er8  1  0.337195  0.674842  0.058203  1
  Er  Er9  1  0.178618  0.183788  0.438778  1
  Er  Er10  1  0.337195  0.674842  0.441797  1
  Er  Er11  1  0.662926  0.325105  0.558663  1
  Os  Os12  1  0.454998  0.385130  0.250000  1
  Os  Os13  1  0.541272  0.614215  0.750000  1
  Pd  Pd14  1  0.953105  0.113628  0.750000  1
  Pd  Pd15  1  0.048086  0.888852  0.250000  1
