# generated using pymatgen
data_Dy2Co8Tc2GeP5
_symmetry_space_group_name_H-M   'P 1'
_cell_length_a   3.72467500
_cell_length_b   10.42869600
_cell_length_c   11.85713900
_cell_angle_alpha   90.00000000
_cell_angle_beta   90.00000000
_cell_angle_gamma   90.00000000
_symmetry_Int_Tables_number   1
_chemical_formula_structural   Dy2Co8Tc2GeP5
_chemical_formula_sum   'Dy4 Co16 Tc4 Ge2 P10'
_cell_volume   460.57281756
_cell_formula_units_Z   2
loop_
 _symmetry_equiv_pos_site_id
 _symmetry_equiv_pos_as_xyz
  1  'x, y, z'
loop_
 _atom_site_type_symbol
 _atom_site_label
 _atom_site_symmetry_multiplicity
 _atom_site_fract_x
 _atom_site_fract_y
 _atom_site_fract_z
 _atom_site_occupancy
  Dy  Dy0  1  0.250000  0.584715  0.703263  1
  Dy  Dy1  1  0.250000  0.915285  0.203263  1
  Dy  Dy2  1  0.750000  0.416887  0.301369  1
  Dy  Dy3  1  0.750000  0.083113  0.801369  1
  Co  Co4  1  0.250000  0.408878  0.488047  1
  Co  Co5  1  0.250000  0.091122  0.988047  1
  Co  Co6  1  0.750000  0.594035  0.511106  1
  Co  Co7  1  0.750000  0.905965  0.011106  1
  Co  Co8  1  0.250000  0.207796  0.178348  1
  Co  Co9  1  0.250000  0.292204  0.678348  1
  Co  Co10  1  0.750000  0.777783  0.824321  1
  Co  Co11  1  0.750000  0.722217  0.324321  1
  Co  Co12  1  0.250000  0.878281  0.702836  1
  Co  Co13  1  0.250000  0.621719  0.202836  1
  Co  Co14  1  0.750000  0.111030  0.298812  1
  Co  Co15  1  0.750000  0.388970  0.798812  1
  Co  Co16  1  0.250000  0.468047  0.927764  1
  Co  Co17  1  0.250000  0.031953  0.427764  1
  Co  Co18  1  0.750000  0.541213  0.064501  1
  Co  Co19  1  0.750000  0.958787  0.564501  1
  Tc  Tc20  1  0.250000  0.710936  0.988422  1
  Tc  Tc21  1  0.250000  0.789064  0.488422  1
  Tc  Tc22  1  0.750000  0.286211  0.008073  1
  Tc  Tc23  1  0.750000  0.213789  0.508073  1
  Ge  Ge24  1  0.250000  0.416590  0.117061  1
  Ge  Ge25  1  0.250000  0.083410  0.617061  1
  P  P26  1  0.750000  0.580246  0.885472  1
  P  P27  1  0.750000  0.919754  0.385472  1
  P  P28  1  0.250000  0.272049  0.865994  1
  P  P29  1  0.250000  0.227951  0.365994  1
  P  P30  1  0.750000  0.730504  0.134877  1
  P  P31  1  0.750000  0.769496  0.634877  1
  P  P32  1  0.250000  0.598311  0.390960  1
  P  P33  1  0.250000  0.901689  0.890960  1
  P  P34  1  0.750000  0.404047  0.608775  1
  P  P35  1  0.750000  0.095953  0.108775  1
