# generated using pymatgen
data_Dy16In4IrPd3
_symmetry_space_group_name_H-M   'P 1'
_cell_length_a   9.73158828
_cell_length_b   9.72033275
_cell_length_c   9.72033200
_cell_angle_alpha   59.99999576
_cell_angle_beta   60.03824833
_cell_angle_gamma   60.03825270
_symmetry_Int_Tables_number   1
_chemical_formula_structural   Dy16In4IrPd3
_chemical_formula_sum   'Dy16 In4 Ir1 Pd3'
_cell_volume   650.55166727
_cell_formula_units_Z   1
loop_
 _symmetry_equiv_pos_site_id
 _symmetry_equiv_pos_as_xyz
  1  'x, y, z'
loop_
 _atom_site_type_symbol
 _atom_site_label
 _atom_site_symmetry_multiplicity
 _atom_site_fract_x
 _atom_site_fract_y
 _atom_site_fract_z
 _atom_site_occupancy
  Dy  Dy0  1  0.606096  0.599282  0.599282  1
  Dy  Dy1  1  0.606096  0.599282  0.195339  1
  Dy  Dy2  1  0.606096  0.195339  0.599282  1
  Dy  Dy3  1  0.191639  0.602787  0.602787  1
  Dy  Dy4  1  0.056133  0.439135  0.439135  1
  Dy  Dy5  1  0.439517  0.060197  0.060197  1
  Dy  Dy6  1  0.439517  0.060197  0.440089  1
  Dy  Dy7  1  0.056133  0.439135  0.065597  1
  Dy  Dy8  1  0.439517  0.440089  0.060197  1
  Dy  Dy9  1  0.056133  0.065597  0.439135  1
  Dy  Dy10  1  0.188692  0.812506  0.812506  1
  Dy  Dy11  1  0.813581  0.188731  0.188731  1
  Dy  Dy12  1  0.813581  0.188731  0.808958  1
  Dy  Dy13  1  0.188692  0.812506  0.186296  1
  Dy  Dy14  1  0.813581  0.808958  0.188731  1
  Dy  Dy15  1  0.188692  0.186296  0.812506  1
  In  In16  1  0.833257  0.833011  0.833011  1
  In  In17  1  0.833257  0.833011  0.500723  1
  In  In18  1  0.833257  0.500723  0.833011  1
  In  In19  1  0.499781  0.833406  0.833406  1
  Ir  Ir20  1  0.819147  0.393618  0.393618  1
  Pd  Pd21  1  0.392536  0.394606  0.394606  1
  Pd  Pd22  1  0.392536  0.394606  0.818253  1
  Pd  Pd23  1  0.392536  0.818253  0.394606  1
