# generated using pymatgen
data_CaLa(SiPd2)2
_symmetry_space_group_name_H-M   'P 1'
_cell_length_a   5.70590839
_cell_length_b   6.96868200
_cell_length_c   7.55259530
_cell_angle_alpha   90.00000000
_cell_angle_beta   89.09934278
_cell_angle_gamma   90.00000000
_symmetry_Int_Tables_number   1
_chemical_formula_structural   CaLa(SiPd2)2
_chemical_formula_sum   'Ca2 La2 Si4 Pd8'
_cell_volume   300.27418429
_cell_formula_units_Z   2
loop_
 _symmetry_equiv_pos_site_id
 _symmetry_equiv_pos_as_xyz
  1  'x, y, z'
loop_
 _atom_site_type_symbol
 _atom_site_label
 _atom_site_symmetry_multiplicity
 _atom_site_fract_x
 _atom_site_fract_y
 _atom_site_fract_z
 _atom_site_occupancy
  Ca  Ca0  1  0.134270  0.750000  0.526008  1
  Ca  Ca1  1  0.865730  0.250000  0.473992  1
  La  La2  1  0.646081  0.250000  0.971413  1
  La  La3  1  0.353919  0.750000  0.028587  1
  Si  Si4  1  0.856795  0.750000  0.868978  1
  Si  Si5  1  0.143205  0.250000  0.131022  1
  Si  Si6  1  0.360625  0.250000  0.620558  1
  Si  Si7  1  0.639375  0.750000  0.379442  1
  Pd  Pd8  1  0.593674  0.552556  0.669090  1
  Pd  Pd9  1  0.406326  0.447444  0.330910  1
  Pd  Pd10  1  0.099570  0.446818  0.825586  1
  Pd  Pd11  1  0.406326  0.052556  0.330910  1
  Pd  Pd12  1  0.900430  0.553182  0.174414  1
  Pd  Pd13  1  0.593674  0.947444  0.669090  1
  Pd  Pd14  1  0.900430  0.946818  0.174414  1
  Pd  Pd15  1  0.099570  0.053182  0.825586  1
