# generated using pymatgen
data_Th4ZnGa17Rh6
_symmetry_space_group_name_H-M   'P 1'
_cell_length_a   7.68348607
_cell_length_b   7.68348750
_cell_length_c   9.57494700
_cell_angle_alpha   90.00000000
_cell_angle_beta   90.00000000
_cell_angle_gamma   119.48836378
_symmetry_Int_Tables_number   1
_chemical_formula_structural   Th4ZnGa17Rh6
_chemical_formula_sum   'Th4 Zn1 Ga17 Rh6'
_cell_volume   492.03924346
_cell_formula_units_Z   1
loop_
 _symmetry_equiv_pos_site_id
 _symmetry_equiv_pos_as_xyz
  1  'x, y, z'
loop_
 _atom_site_type_symbol
 _atom_site_label
 _atom_site_symmetry_multiplicity
 _atom_site_fract_x
 _atom_site_fract_y
 _atom_site_fract_z
 _atom_site_occupancy
  Th  Th0  1  0.997739  0.670267  0.250000  1
  Th  Th1  1  0.002980  0.330541  0.750000  1
  Th  Th2  1  0.670267  0.997739  0.250000  1
  Th  Th3  1  0.330541  0.002980  0.750000  1
  Zn  Zn4  1  0.134097  0.134097  0.250000  1
  Ga  Ga5  1  0.868568  0.868568  0.750000  1
  Ga  Ga6  1  0.005641  0.332580  0.079086  1
  Ga  Ga7  1  0.996099  0.665398  0.922630  1
  Ga  Ga8  1  0.996099  0.665398  0.577370  1
  Ga  Ga9  1  0.332580  0.005641  0.420914  1
  Ga  Ga10  1  0.005641  0.332580  0.420914  1
  Ga  Ga11  1  0.665398  0.996099  0.577370  1
  Ga  Ga12  1  0.665398  0.996099  0.922630  1
  Ga  Ga13  1  0.332580  0.005641  0.079086  1
  Ga  Ga14  1  0.336042  0.336042  0.559191  1
  Ga  Ga15  1  0.663826  0.663826  0.439180  1
  Ga  Ga16  1  0.663826  0.663826  0.060820  1
  Ga  Ga17  1  0.336042  0.336042  0.940809  1
  Ga  Ga18  1  0.339051  0.539017  0.250000  1
  Ga  Ga19  1  0.661210  0.457219  0.750000  1
  Ga  Ga20  1  0.539017  0.339051  0.250000  1
  Ga  Ga21  1  0.457219  0.661210  0.750000  1
  Rh  Rh22  1  0.672755  0.328399  0.999196  1
  Rh  Rh23  1  0.328399  0.672755  0.999196  1
  Rh  Rh24  1  0.328399  0.672755  0.500804  1
  Rh  Rh25  1  0.672755  0.328399  0.500804  1
  Rh  Rh26  1  0.998916  0.998916  0.995789  1
  Rh  Rh27  1  0.998916  0.998916  0.504211  1
