# generated using pymatgen
data_TbHo(TmSn)3
_symmetry_space_group_name_H-M   'P 1'
_cell_length_a   6.49231001
_cell_length_b   8.87982400
_cell_length_c   8.90528923
_cell_angle_alpha   119.90544489
_cell_angle_beta   90.00358820
_cell_angle_gamma   89.99279221
_symmetry_Int_Tables_number   1
_chemical_formula_structural   TbHo(TmSn)3
_chemical_formula_sum   'Tb2 Ho2 Tm6 Sn6'
_cell_volume   445.03613235
_cell_formula_units_Z   2
loop_
 _symmetry_equiv_pos_site_id
 _symmetry_equiv_pos_as_xyz
  1  'x, y, z'
loop_
 _atom_site_type_symbol
 _atom_site_label
 _atom_site_symmetry_multiplicity
 _atom_site_fract_x
 _atom_site_fract_y
 _atom_site_fract_z
 _atom_site_occupancy
  Tb  Tb0  1  0.750000  0.236405  0.000000  1
  Tb  Tb1  1  0.250008  0.763417  0.000000  1
  Ho  Ho2  1  0.749985  0.761270  0.760548  1
  Ho  Ho3  1  0.749985  0.000721  0.239452  1
  Tm  Tm4  1  0.499887  0.333623  0.667323  1
  Tm  Tm5  1  0.499887  0.666301  0.332677  1
  Tm  Tm6  1  0.000123  0.666304  0.332678  1
  Tm  Tm7  1  0.000123  0.333626  0.667322  1
  Tm  Tm8  1  0.250006  0.238290  0.238661  1
  Tm  Tm9  1  0.250006  0.999629  0.761339  1
  Sn  Sn10  1  0.750016  0.604470  0.000000  1
  Sn  Sn11  1  0.749922  0.396115  0.396737  1
  Sn  Sn12  1  0.749922  0.999378  0.603263  1
  Sn  Sn13  1  0.249991  0.394697  0.000000  1
  Sn  Sn14  1  0.250068  0.604422  0.603090  1
  Sn  Sn15  1  0.250068  0.001333  0.396910  1
