# generated using pymatgen
data_Rb4Fe4Br10O
_symmetry_space_group_name_H-M   'P 1'
_cell_length_a   11.69013075
_cell_length_b   11.69012951
_cell_length_c   9.92969700
_cell_angle_alpha   80.26482745
_cell_angle_beta   80.26482352
_cell_angle_gamma   90.79258283
_symmetry_Int_Tables_number   1
_chemical_formula_structural   Rb4Fe4Br10O
_chemical_formula_sum   'Rb8 Fe8 Br20 O2'
_cell_volume   1316.92592318
_cell_formula_units_Z   2
loop_
 _symmetry_equiv_pos_site_id
 _symmetry_equiv_pos_as_xyz
  1  'x, y, z'
loop_
 _atom_site_type_symbol
 _atom_site_label
 _atom_site_symmetry_multiplicity
 _atom_site_fract_x
 _atom_site_fract_y
 _atom_site_fract_z
 _atom_site_occupancy
  Rb  Rb0  1  0.295848  0.443863  0.136132  1
  Rb  Rb1  1  0.713159  0.968722  0.874710  1
  Rb  Rb2  1  0.968722  0.713159  0.374710  1
  Rb  Rb3  1  0.556137  0.704152  0.363868  1
  Rb  Rb4  1  0.443863  0.295848  0.636132  1
  Rb  Rb5  1  0.031278  0.286841  0.625290  1
  Rb  Rb6  1  0.704152  0.556137  0.863868  1
  Rb  Rb7  1  0.286841  0.031278  0.125290  1
  Fe  Fe8  1  0.946759  0.235827  0.122226  1
  Fe  Fe9  1  0.053241  0.764173  0.877774  1
  Fe  Fe10  1  0.654293  0.230290  0.135691  1
  Fe  Fe11  1  0.769710  0.345707  0.364309  1
  Fe  Fe12  1  0.230290  0.654293  0.635691  1
  Fe  Fe13  1  0.345707  0.769710  0.864309  1
  Fe  Fe14  1  0.764173  0.053241  0.377774  1
  Fe  Fe15  1  0.235827  0.946759  0.622226  1
  Br  Br16  1  0.143301  0.266073  0.959206  1
  Br  Br17  1  0.976668  0.023332  0.250000  1
  Br  Br18  1  0.733927  0.856699  0.540794  1
  Br  Br19  1  0.395808  0.991957  0.774671  1
  Br  Br20  1  0.259547  0.496577  0.482259  1
  Br  Br21  1  0.008043  0.604192  0.725329  1
  Br  Br22  1  0.824834  0.275730  0.918856  1
  Br  Br23  1  0.415578  0.584422  0.750000  1
  Br  Br24  1  0.496577  0.259547  0.982259  1
  Br  Br25  1  0.023332  0.976668  0.750000  1
  Br  Br26  1  0.275730  0.824834  0.418856  1
  Br  Br27  1  0.991957  0.395808  0.274671  1
  Br  Br28  1  0.856699  0.733927  0.040794  1
  Br  Br29  1  0.740453  0.503423  0.517741  1
  Br  Br30  1  0.604192  0.008043  0.225329  1
  Br  Br31  1  0.724270  0.175166  0.581144  1
  Br  Br32  1  0.175166  0.724270  0.081144  1
  Br  Br33  1  0.584422  0.415578  0.250000  1
  Br  Br34  1  0.266073  0.143301  0.459206  1
  Br  Br35  1  0.503423  0.740453  0.017741  1
  O  O36  1  0.217229  0.782771  0.750000  1
  O  O37  1  0.782771  0.217229  0.250000  1
