# generated using pymatgen
data_Hf6Zn11Cu12Ge
_symmetry_space_group_name_H-M   'P 1'
_cell_length_a   8.54289132
_cell_length_b   8.51860848
_cell_length_c   8.51860800
_cell_angle_alpha   60.00000185
_cell_angle_beta   60.09398527
_cell_angle_gamma   60.09398549
_symmetry_Int_Tables_number   1
_chemical_formula_structural   Hf6Zn11Cu12Ge
_chemical_formula_sum   'Hf6 Zn11 Cu12 Ge1'
_cell_volume   438.97792057
_cell_formula_units_Z   1
loop_
 _symmetry_equiv_pos_site_id
 _symmetry_equiv_pos_as_xyz
  1  'x, y, z'
loop_
 _atom_site_type_symbol
 _atom_site_label
 _atom_site_symmetry_multiplicity
 _atom_site_fract_x
 _atom_site_fract_y
 _atom_site_fract_z
 _atom_site_occupancy
  Hf  Hf0  1  0.728289  0.278564  0.278564  1
  Hf  Hf1  1  0.271711  0.721436  0.721436  1
  Hf  Hf2  1  0.271711  0.721436  0.285418  1
  Hf  Hf3  1  0.728289  0.278564  0.714582  1
  Hf  Hf4  1  0.271711  0.285418  0.721436  1
  Hf  Hf5  1  0.728289  0.714582  0.278564  1
  Zn  Zn6  1  0.629683  0.123439  0.123439  1
  Zn  Zn7  1  0.370317  0.876561  0.876561  1
  Zn  Zn8  1  0.333178  0.337606  0.337606  1
  Zn  Zn9  1  0.666822  0.662394  0.662394  1
  Zn  Zn10  1  0.333178  0.337606  0.991612  1
  Zn  Zn11  1  0.333178  0.991612  0.337606  1
  Zn  Zn12  1  0.666822  0.662394  0.008388  1
  Zn  Zn13  1  0.666822  0.008388  0.662394  1
  Zn  Zn14  1  0.003567  0.332145  0.332145  1
  Zn  Zn15  1  0.996433  0.667855  0.667855  1
  Zn  Zn16  1  0.000000  0.000000  0.000000  1
  Cu  Cu17  1  0.122493  0.121498  0.121498  1
  Cu  Cu18  1  0.877507  0.878502  0.878502  1
  Cu  Cu19  1  0.122493  0.121498  0.634509  1
  Cu  Cu20  1  0.122493  0.634509  0.121498  1
  Cu  Cu21  1  0.877507  0.878502  0.365491  1
  Cu  Cu22  1  0.877507  0.365491  0.878502  1
  Cu  Cu23  1  0.500000  0.000000  0.000000  1
  Cu  Cu24  1  0.000000  0.500000  0.500000  1
  Cu  Cu25  1  0.000000  0.500000  0.000000  1
  Cu  Cu26  1  0.500000  0.000000  0.500000  1
  Cu  Cu27  1  0.000000  0.000000  0.500000  1
  Cu  Cu28  1  0.500000  0.500000  0.000000  1
  Ge  Ge29  1  0.500000  0.500000  0.500000  1
