# generated using pymatgen
data_NaSr3(SnPt2)2
_symmetry_space_group_name_H-M   'P 1'
_cell_length_a   5.87111351
_cell_length_b   5.89316695
_cell_length_c   8.37022951
_cell_angle_alpha   100.47891652
_cell_angle_beta   100.58341471
_cell_angle_gamma   61.40965752
_symmetry_Int_Tables_number   1
_chemical_formula_structural   NaSr3(SnPt2)2
_chemical_formula_sum   'Na1 Sr3 Sn2 Pt4'
_cell_volume   248.47986664
_cell_formula_units_Z   1
loop_
 _symmetry_equiv_pos_site_id
 _symmetry_equiv_pos_as_xyz
  1  'x, y, z'
loop_
 _atom_site_type_symbol
 _atom_site_label
 _atom_site_symmetry_multiplicity
 _atom_site_fract_x
 _atom_site_fract_y
 _atom_site_fract_z
 _atom_site_occupancy
  Na  Na0  1  0.787214  0.514355  0.150882  1
  Sr  Sr1  1  0.488813  0.213938  0.341934  1
  Sr  Sr2  1  0.508677  0.786805  0.648315  1
  Sr  Sr3  1  0.215311  0.489694  0.861912  1
  Sn  Sn4  1  0.125962  0.874628  0.248325  1
  Sn  Sn5  1  0.867263  0.131981  0.750972  1
  Pt  Pt6  1  0.730929  0.996778  0.000334  1
  Pt  Pt7  1  0.001642  0.269424  0.500296  1
  Pt  Pt8  1  0.002492  0.728391  0.500816  1
  Pt  Pt9  1  0.271695  0.994002  0.996214  1
