# generated using pymatgen
data_La2In2Cu4SiSn
_symmetry_space_group_name_H-M   'P 1'
_cell_length_a   4.37236000
_cell_length_b   4.37236000
_cell_length_c   10.76143000
_cell_angle_alpha   90.00000000
_cell_angle_beta   90.00000000
_cell_angle_gamma   90.00000000
_symmetry_Int_Tables_number   1
_chemical_formula_structural   La2In2Cu4SiSn
_chemical_formula_sum   'La2 In2 Cu4 Si1 Sn1'
_cell_volume   205.73198206
_cell_formula_units_Z   1
loop_
 _symmetry_equiv_pos_site_id
 _symmetry_equiv_pos_as_xyz
  1  'x, y, z'
loop_
 _atom_site_type_symbol
 _atom_site_label
 _atom_site_symmetry_multiplicity
 _atom_site_fract_x
 _atom_site_fract_y
 _atom_site_fract_z
 _atom_site_occupancy
  La  La0  1  0.500000  0.000000  0.773962  1
  La  La1  1  0.000000  0.500000  0.231718  1
  In  In2  1  0.500000  0.500000  0.504622  1
  In  In3  1  0.000000  0.000000  0.504622  1
  Cu  Cu4  1  0.000000  0.500000  0.657801  1
  Cu  Cu5  1  0.500000  0.000000  0.360684  1
  Cu  Cu6  1  0.000000  0.000000  0.983358  1
  Cu  Cu7  1  0.500000  0.500000  0.983358  1
  Si  Si8  1  0.000000  0.500000  0.876713  1
  Sn  Sn9  1  0.500000  0.000000  0.123162  1
