# generated using pymatgen
data_U4Si2Tc7Sn4
_symmetry_space_group_name_H-M   'P 1'
_cell_length_a   7.41507531
_cell_length_b   7.41507514
_cell_length_c   7.44177436
_cell_angle_alpha   109.26494796
_cell_angle_beta   109.26494792
_cell_angle_gamma   109.73985651
_symmetry_Int_Tables_number   1
_chemical_formula_structural   U4Si2Tc7Sn4
_chemical_formula_sum   'U4 Si2 Tc7 Sn4'
_cell_volume   315.53474452
_cell_formula_units_Z   1
loop_
 _symmetry_equiv_pos_site_id
 _symmetry_equiv_pos_as_xyz
  1  'x, y, z'
loop_
 _atom_site_type_symbol
 _atom_site_label
 _atom_site_symmetry_multiplicity
 _atom_site_fract_x
 _atom_site_fract_y
 _atom_site_fract_z
 _atom_site_occupancy
  U  U0  1  0.453657  0.453657  0.463395  1
  U  U1  1  0.014606  0.514606  0.029211  1
  U  U2  1  0.514606  0.014606  0.029211  1
  U  U3  1  0.009739  0.009739  0.463395  1
  Si  Si4  1  0.993658  0.330481  0.324139  1
  Si  Si5  1  0.330481  0.993658  0.324139  1
  Tc  Tc6  1  0.492729  0.748063  0.240791  1
  Tc  Tc7  1  0.744428  0.244428  0.488858  1
  Tc  Tc8  1  0.244428  0.744428  0.488858  1
  Tc  Tc9  1  0.235472  0.495569  0.731040  1
  Tc  Tc10  1  0.042349  0.042349  0.084698  1
  Tc  Tc11  1  0.495569  0.235472  0.731040  1
  Tc  Tc12  1  0.748063  0.492729  0.240791  1
  Sn  Sn13  1  0.712616  0.991183  0.703799  1
  Sn  Sn14  1  0.682036  0.682036  0.976417  1
  Sn  Sn15  1  0.294381  0.294381  0.976417  1
  Sn  Sn16  1  0.991183  0.712616  0.703799  1
