# generated using pymatgen
data_Nd3Gd2Ir2Ru
_symmetry_space_group_name_H-M   'P 1'
_cell_length_a   11.03790700
_cell_length_b   11.03790700
_cell_length_c   6.48778100
_cell_angle_alpha   90.00000000
_cell_angle_beta   90.00000000
_cell_angle_gamma   90.00000000
_symmetry_Int_Tables_number   1
_chemical_formula_structural   Nd3Gd2Ir2Ru
_chemical_formula_sum   'Nd12 Gd8 Ir8 Ru4'
_cell_volume   790.44133447
_cell_formula_units_Z   4
loop_
 _symmetry_equiv_pos_site_id
 _symmetry_equiv_pos_as_xyz
  1  'x, y, z'
loop_
 _atom_site_type_symbol
 _atom_site_label
 _atom_site_symmetry_multiplicity
 _atom_site_fract_x
 _atom_site_fract_y
 _atom_site_fract_z
 _atom_site_occupancy
  Nd  Nd0  1  0.087047  0.291939  0.118290  1
  Nd  Nd1  1  0.791939  0.412953  0.118290  1
  Nd  Nd2  1  0.208061  0.587047  0.118290  1
  Nd  Nd3  1  0.912953  0.708061  0.118290  1
  Nd  Nd4  1  0.412034  0.791560  0.382074  1
  Nd  Nd5  1  0.587966  0.208440  0.382074  1
  Nd  Nd6  1  0.291560  0.087966  0.382074  1
  Nd  Nd7  1  0.708440  0.912034  0.382074  1
  Nd  Nd8  1  0.411339  0.209665  0.881081  1
  Nd  Nd9  1  0.709665  0.088661  0.881081  1
  Nd  Nd10  1  0.290335  0.911339  0.881081  1
  Nd  Nd11  1  0.588661  0.790335  0.881081  1
  Gd  Gd12  1  0.085675  0.705493  0.616255  1
  Gd  Gd13  1  0.914325  0.294507  0.616255  1
  Gd  Gd14  1  0.205493  0.414325  0.616255  1
  Gd  Gd15  1  0.794507  0.585675  0.616255  1
  Gd  Gd16  1  0.000000  0.000000  0.001078  1
  Gd  Gd17  1  0.500000  0.500000  0.001078  1
  Gd  Gd18  1  0.500000  0.500000  0.501939  1
  Gd  Gd19  1  0.000000  0.000000  0.501939  1
  Ir  Ir20  1  0.149191  0.848796  0.254637  1
  Ir  Ir21  1  0.348796  0.350809  0.254637  1
  Ir  Ir22  1  0.651204  0.649191  0.254637  1
  Ir  Ir23  1  0.850809  0.151204  0.254637  1
  Ir  Ir24  1  0.346455  0.648038  0.747405  1
  Ir  Ir25  1  0.148038  0.153545  0.747405  1
  Ir  Ir26  1  0.851962  0.846455  0.747405  1
  Ir  Ir27  1  0.653545  0.351962  0.747405  1
  Ru  Ru28  1  0.000000  0.500000  0.381621  1
  Ru  Ru29  1  0.500000  0.000000  0.121507  1
  Ru  Ru30  1  0.500000  0.000000  0.623508  1
  Ru  Ru31  1  0.000000  0.500000  0.868366  1
