# generated using pymatgen
data_Sm2U(SnRu)3
_symmetry_space_group_name_H-M   'P 1'
_cell_length_a   7.77955800
_cell_length_b   7.20532501
_cell_length_c   4.14795700
_cell_angle_alpha   90.00000000
_cell_angle_beta   90.00000000
_cell_angle_gamma   122.67327044
_symmetry_Int_Tables_number   1
_chemical_formula_structural   Sm2U(SnRu)3
_chemical_formula_sum   'Sm2 U1 Sn3 Ru3'
_cell_volume   195.71874992
_cell_formula_units_Z   1
loop_
 _symmetry_equiv_pos_site_id
 _symmetry_equiv_pos_as_xyz
  1  'x, y, z'
loop_
 _atom_site_type_symbol
 _atom_site_label
 _atom_site_symmetry_multiplicity
 _atom_site_fract_x
 _atom_site_fract_y
 _atom_site_fract_z
 _atom_site_occupancy
  Sm  Sm0  1  0.003390  0.409224  0.500000  1
  Sm  Sm1  1  0.594165  0.590776  0.500000  1
  U  U2  1  0.402215  0.000000  0.500000  1
  Sn  Sn3  1  0.978001  0.721185  0.000000  1
  Sn  Sn4  1  0.256816  0.278815  0.000000  1
  Sn  Sn5  1  0.775231  0.000000  0.000000  1
  Ru  Ru6  1  0.356447  0.750277  0.000000  1
  Ru  Ru7  1  0.606171  0.249723  0.000000  1
  Ru  Ru8  1  0.027563  0.000000  0.500000  1
