# generated using pymatgen
data_HfSc5(Ti2Sn3)2
_symmetry_space_group_name_H-M   'P 1'
_cell_length_a   8.34001377
_cell_length_b   8.32028993
_cell_length_c   5.70044900
_cell_angle_alpha   90.00000000
_cell_angle_beta   90.00000000
_cell_angle_gamma   119.92179126
_symmetry_Int_Tables_number   1
_chemical_formula_structural   HfSc5(Ti2Sn3)2
_chemical_formula_sum   'Hf1 Sc5 Ti4 Sn6'
_cell_volume   342.83617786
_cell_formula_units_Z   1
loop_
 _symmetry_equiv_pos_site_id
 _symmetry_equiv_pos_as_xyz
  1  'x, y, z'
loop_
 _atom_site_type_symbol
 _atom_site_label
 _atom_site_symmetry_multiplicity
 _atom_site_fract_x
 _atom_site_fract_y
 _atom_site_fract_z
 _atom_site_occupancy
  Hf  Hf0  1  0.000000  0.761159  0.250000  1
  Sc  Sc1  1  0.762405  0.761108  0.750000  1
  Sc  Sc2  1  0.237595  0.998703  0.750000  1
  Sc  Sc3  1  0.000000  0.239177  0.750000  1
  Sc  Sc4  1  0.237944  0.236896  0.250000  1
  Sc  Sc5  1  0.762056  0.998951  0.250000  1
  Ti  Ti6  1  0.668024  0.334893  0.000538  1
  Ti  Ti7  1  0.331976  0.666870  0.000538  1
  Ti  Ti8  1  0.331976  0.666870  0.499462  1
  Ti  Ti9  1  0.668024  0.334893  0.499462  1
  Sn  Sn10  1  0.399340  0.399216  0.750000  1
  Sn  Sn11  1  0.600660  0.999877  0.750000  1
  Sn  Sn12  1  0.000000  0.601176  0.750000  1
  Sn  Sn13  1  0.600503  0.600872  0.250000  1
  Sn  Sn14  1  0.399497  0.000369  0.250000  1
  Sn  Sn15  1  0.000000  0.398968  0.250000  1
