# generated using pymatgen
data_Dy2Er2BCl6
_symmetry_space_group_name_H-M   'P 1'
_cell_length_a   3.84479200
_cell_length_b   12.61443900
_cell_length_c   13.08622300
_cell_angle_alpha   90.00000000
_cell_angle_beta   90.00000000
_cell_angle_gamma   90.00000000
_symmetry_Int_Tables_number   1
_chemical_formula_structural   Dy2Er2BCl6
_chemical_formula_sum   'Dy4 Er4 B2 Cl12'
_cell_volume   634.68043035
_cell_formula_units_Z   2
loop_
 _symmetry_equiv_pos_site_id
 _symmetry_equiv_pos_as_xyz
  1  'x, y, z'
loop_
 _atom_site_type_symbol
 _atom_site_label
 _atom_site_symmetry_multiplicity
 _atom_site_fract_x
 _atom_site_fract_y
 _atom_site_fract_z
 _atom_site_occupancy
  Dy  Dy0  1  0.500000  0.126404  0.851313  1
  Dy  Dy1  1  0.500000  0.873596  0.148687  1
  Dy  Dy2  1  0.500000  0.626404  0.648687  1
  Dy  Dy3  1  0.500000  0.373596  0.351313  1
  Er  Er4  1  0.000000  0.105436  0.083511  1
  Er  Er5  1  0.000000  0.894564  0.916489  1
  Er  Er6  1  0.000000  0.605436  0.416489  1
  Er  Er7  1  0.000000  0.394564  0.583511  1
  B  B8  1  0.500000  0.000000  0.000000  1
  B  B9  1  0.500000  0.500000  0.500000  1
  Cl  Cl10  1  0.500000  0.268808  0.681655  1
  Cl  Cl11  1  0.500000  0.731192  0.318345  1
  Cl  Cl12  1  0.500000  0.768808  0.818345  1
  Cl  Cl13  1  0.500000  0.231192  0.181655  1
  Cl  Cl14  1  0.000000  0.256779  0.930482  1
  Cl  Cl15  1  0.000000  0.743221  0.069518  1
  Cl  Cl16  1  0.000000  0.479409  0.243460  1
  Cl  Cl17  1  0.000000  0.520591  0.756540  1
  Cl  Cl18  1  0.000000  0.979409  0.256540  1
  Cl  Cl19  1  0.000000  0.020591  0.743460  1
  Cl  Cl20  1  0.000000  0.243221  0.430482  1
  Cl  Cl21  1  0.000000  0.756779  0.569518  1
