# generated using pymatgen
data_AcZnSiIr3
_symmetry_space_group_name_H-M   'P 1'
_cell_length_a   6.87332419
_cell_length_b   6.86920899
_cell_length_c   6.87332442
_cell_angle_alpha   130.80961083
_cell_angle_beta   112.71614132
_cell_angle_gamma   87.74507067
_symmetry_Int_Tables_number   1
_chemical_formula_structural   AcZnSiIr3
_chemical_formula_sum   'Ac2 Zn2 Si2 Ir6'
_cell_volume   215.76582716
_cell_formula_units_Z   2
loop_
 _symmetry_equiv_pos_site_id
 _symmetry_equiv_pos_as_xyz
  1  'x, y, z'
loop_
 _atom_site_type_symbol
 _atom_site_label
 _atom_site_symmetry_multiplicity
 _atom_site_fract_x
 _atom_site_fract_y
 _atom_site_fract_z
 _atom_site_occupancy
  Ac  Ac0  1  0.244127  0.986655  0.742529  1
  Ac  Ac1  1  0.755873  0.013345  0.257471  1
  Zn  Zn2  1  0.073976  0.313875  0.239899  1
  Zn  Zn3  1  0.926024  0.686125  0.760101  1
  Si  Si4  1  0.404523  0.647621  0.243098  1
  Si  Si5  1  0.595477  0.352379  0.756902  1
  Ir  Ir6  1  0.500000  0.500000  0.500000  1
  Ir  Ir7  1  0.000000  0.500000  0.000000  1
  Ir  Ir8  1  0.280720  0.000000  0.280720  1
  Ir  Ir9  1  0.719280  0.000000  0.719280  1
  Ir  Ir10  1  0.273061  0.500000  0.773061  1
  Ir  Ir11  1  0.726939  0.500000  0.226939  1
