# generated using pymatgen
data_Cs2U3TiO12
_symmetry_space_group_name_H-M   'P 1'
_cell_length_a   7.57851934
_cell_length_b   7.57851860
_cell_length_c   7.57936562
_cell_angle_alpha   63.04012867
_cell_angle_beta   63.04012983
_cell_angle_gamma   63.14715256
_symmetry_Int_Tables_number   1
_chemical_formula_structural   Cs2U3TiO12
_chemical_formula_sum   'Cs2 U3 Ti1 O12'
_cell_volume   328.81846427
_cell_formula_units_Z   1
loop_
 _symmetry_equiv_pos_site_id
 _symmetry_equiv_pos_as_xyz
  1  'x, y, z'
loop_
 _atom_site_type_symbol
 _atom_site_label
 _atom_site_symmetry_multiplicity
 _atom_site_fract_x
 _atom_site_fract_y
 _atom_site_fract_z
 _atom_site_occupancy
  Cs  Cs0  1  0.835384  0.894037  0.383871  1
  Cs  Cs1  1  0.105963  0.164616  0.616129  1
  U  U2  1  0.998323  0.502066  0.999465  1
  U  U3  1  0.497934  0.001677  0.000535  1
  U  U4  1  0.497512  0.502488  0.500000  1
  Ti  Ti5  1  0.495793  0.504207  0.000000  1
  O  O6  1  0.177025  0.180953  0.062036  1
  O  O7  1  0.558954  0.555012  0.701069  1
  O  O8  1  0.200039  0.556058  0.059311  1
  O  O9  1  0.559785  0.181474  0.678754  1
  O  O10  1  0.556238  0.201642  0.055710  1
  O  O11  1  0.176624  0.560434  0.677679  1
  O  O12  1  0.819047  0.822975  0.937964  1
  O  O13  1  0.444988  0.441046  0.298931  1
  O  O14  1  0.798358  0.443762  0.944290  1
  O  O15  1  0.439566  0.823376  0.322321  1
  O  O16  1  0.443942  0.799961  0.940689  1
  O  O17  1  0.818526  0.440215  0.321246  1
