# generated using pymatgen
data_Dy16In2Ag2RuRh3
_symmetry_space_group_name_H-M   'P 1'
_cell_length_a   9.62982691
_cell_length_b   9.63578045
_cell_length_c   9.62982728
_cell_angle_alpha   59.52692109
_cell_angle_beta   59.65114112
_cell_angle_gamma   59.52691697
_symmetry_Int_Tables_number   1
_chemical_formula_structural   Dy16In2Ag2RuRh3
_chemical_formula_sum   'Dy16 In2 Ag2 Ru1 Rh3'
_cell_volume   625.64009009
_cell_formula_units_Z   1
loop_
 _symmetry_equiv_pos_site_id
 _symmetry_equiv_pos_as_xyz
  1  'x, y, z'
loop_
 _atom_site_type_symbol
 _atom_site_label
 _atom_site_symmetry_multiplicity
 _atom_site_fract_x
 _atom_site_fract_y
 _atom_site_fract_z
 _atom_site_occupancy
  Dy  Dy0  1  0.687795  0.311799  0.310798  1
  Dy  Dy1  1  0.690308  0.689523  0.311805  1
  Dy  Dy2  1  0.312044  0.687294  0.312044  1
  Dy  Dy3  1  0.936265  0.936869  0.560456  1
  Dy  Dy4  1  0.148764  0.152105  0.547958  1
  Dy  Dy5  1  0.560060  0.942915  0.560060  1
  Dy  Dy6  1  0.149520  0.150646  0.149520  1
  Dy  Dy7  1  0.310798  0.311799  0.687795  1
  Dy  Dy8  1  0.939207  0.566888  0.557690  1
  Dy  Dy9  1  0.557690  0.566888  0.939207  1
  Dy  Dy10  1  0.560456  0.936869  0.936265  1
  Dy  Dy11  1  0.934836  0.563231  0.934836  1
  Dy  Dy12  1  0.149931  0.546989  0.149931  1
  Dy  Dy13  1  0.311805  0.689523  0.690308  1
  Dy  Dy14  1  0.692803  0.308195  0.692803  1
  Dy  Dy15  1  0.547958  0.152105  0.148764  1
  In  In16  1  0.921931  0.241673  0.921931  1
  In  In17  1  0.922779  0.915651  0.922779  1
  Ag  Ag18  1  0.918347  0.916257  0.249392  1
  Ag  Ag19  1  0.249392  0.916257  0.918347  1
  Ru  Ru20  1  0.358832  0.357608  0.358832  1
  Rh  Rh21  1  0.925174  0.356025  0.357391  1
  Rh  Rh22  1  0.357391  0.356025  0.925174  1
  Rh  Rh23  1  0.355917  0.926868  0.355917  1
