# generated using pymatgen
data_NaSmGaPt3
_symmetry_space_group_name_H-M   'P 1'
_cell_length_a   5.59027715
_cell_length_b   5.59027720
_cell_length_c   5.24017701
_cell_angle_alpha   57.76416933
_cell_angle_beta   57.76416374
_cell_angle_gamma   59.99999872
_symmetry_Int_Tables_number   1
_chemical_formula_structural   NaSmGaPt3
_chemical_formula_sum   'Na1 Sm1 Ga1 Pt3'
_cell_volume   111.72813200
_cell_formula_units_Z   1
loop_
 _symmetry_equiv_pos_site_id
 _symmetry_equiv_pos_as_xyz
  1  'x, y, z'
loop_
 _atom_site_type_symbol
 _atom_site_label
 _atom_site_symmetry_multiplicity
 _atom_site_fract_x
 _atom_site_fract_y
 _atom_site_fract_z
 _atom_site_occupancy
  Na  Na0  1  0.251810  0.251810  0.244569  1
  Sm  Sm1  1  0.002955  0.002955  0.991135  1
  Ga  Ga2  1  0.623870  0.623870  0.128390  1
  Pt  Pt3  1  0.622508  0.126350  0.628635  1
  Pt  Pt4  1  0.126350  0.622508  0.628635  1
  Pt  Pt5  1  0.622508  0.622508  0.628635  1
