# generated using pymatgen
data_Dy5Y3(B6Os)4
_symmetry_space_group_name_H-M   'P 1'
_cell_length_a   3.65878800
_cell_length_b   9.16822691
_cell_length_c   11.54783587
_cell_angle_alpha   89.99472448
_cell_angle_beta   90.00000000
_cell_angle_gamma   90.00000000
_symmetry_Int_Tables_number   1
_chemical_formula_structural   Dy5Y3(B6Os)4
_chemical_formula_sum   'Dy5 Y3 B24 Os4'
_cell_volume   387.36751729
_cell_formula_units_Z   1
loop_
 _symmetry_equiv_pos_site_id
 _symmetry_equiv_pos_as_xyz
  1  'x, y, z'
loop_
 _atom_site_type_symbol
 _atom_site_label
 _atom_site_symmetry_multiplicity
 _atom_site_fract_x
 _atom_site_fract_y
 _atom_site_fract_z
 _atom_site_occupancy
  Dy  Dy0  1  0.000000  0.177965  0.913770  1
  Dy  Dy1  1  0.000000  0.943516  0.372834  1
  Dy  Dy2  1  0.000000  0.056464  0.627124  1
  Dy  Dy3  1  0.000000  0.443513  0.127098  1
  Dy  Dy4  1  0.000000  0.556462  0.872922  1
  Y  Y5  1  0.000000  0.321854  0.413808  1
  Y  Y6  1  0.000000  0.678134  0.586260  1
  Y  Y7  1  0.999999  0.821911  0.086161  1
  B  B8  1  0.500000  0.553603  0.433018  1
  B  B9  1  0.500000  0.446325  0.567130  1
  B  B10  1  0.500000  0.053846  0.066803  1
  B  B11  1  0.500000  0.946604  0.932875  1
  B  B12  1  0.500000  0.747287  0.419704  1
  B  B13  1  0.500000  0.252709  0.580403  1
  B  B14  1  0.500000  0.247323  0.080090  1
  B  B15  1  0.500000  0.752811  0.919691  1
  B  B16  1  0.500000  0.790313  0.266695  1
  B  B17  1  0.500000  0.209601  0.733466  1
  B  B18  1  0.500000  0.290287  0.233187  1
  B  B19  1  0.500000  0.709673  0.766775  1
  B  B20  1  0.500000  0.631330  0.185691  1
  B  B21  1  0.500000  0.368459  0.814485  1
  B  B22  1  0.500000  0.131367  0.314227  1
  B  B23  1  0.500000  0.868664  0.685732  1
  B  B24  1  0.500000  0.983065  0.212896  1
  B  B25  1  0.500001  0.017132  0.787044  1
  B  B26  1  0.500000  0.482961  0.286982  1
  B  B27  1  0.500000  0.516896  0.713120  1
  B  B28  1  0.500000  0.608772  0.030205  1
  B  B29  1  0.500000  0.391184  0.969784  1
  B  B30  1  0.500000  0.108730  0.469797  1
  B  B31  1  0.500000  0.891262  0.530198  1
  Os  Os32  1  0.000000  0.636949  0.321452  1
  Os  Os33  1  0.000000  0.362896  0.678748  1
  Os  Os34  1  0.000000  0.136984  0.178352  1
  Os  Os35  1  0.000000  0.863148  0.821473  1
