# generated using pymatgen
data_Yb2Zn7Cd4Cu11
_symmetry_space_group_name_H-M   'P 1'
_cell_length_a   5.14276523
_cell_length_b   5.14268569
_cell_length_c   16.25147232
_cell_angle_alpha   89.92786478
_cell_angle_beta   90.07274197
_cell_angle_gamma   119.97434407
_symmetry_Int_Tables_number   1
_chemical_formula_structural   Yb2Zn7Cd4Cu11
_chemical_formula_sum   'Yb2 Zn7 Cd4 Cu11'
_cell_volume   372.32464199
_cell_formula_units_Z   1
loop_
 _symmetry_equiv_pos_site_id
 _symmetry_equiv_pos_as_xyz
  1  'x, y, z'
loop_
 _atom_site_type_symbol
 _atom_site_label
 _atom_site_symmetry_multiplicity
 _atom_site_fract_x
 _atom_site_fract_y
 _atom_site_fract_z
 _atom_site_occupancy
  Yb  Yb0  1  0.666744  0.333243  0.245038  1
  Yb  Yb1  1  0.333288  0.666722  0.751413  1
  Zn  Zn2  1  0.337762  0.662227  0.248310  1
  Zn  Zn3  1  0.665825  0.334185  0.750306  1
  Zn  Zn4  1  0.169324  0.830663  0.376022  1
  Zn  Zn5  1  0.000789  0.999228  0.750159  1
  Zn  Zn6  1  0.996008  0.003978  0.248065  1
  Zn  Zn7  1  0.000578  0.999432  0.999341  1
  Zn  Zn8  1  0.995644  0.004348  0.502479  1
  Cd  Cd9  1  0.665692  0.334305  0.462169  1
  Cd  Cd10  1  0.333377  0.666617  0.960994  1
  Cd  Cd11  1  0.666548  0.333450  0.038236  1
  Cd  Cd12  1  0.335082  0.664928  0.544185  1
  Cu  Cu13  1  0.168901  0.335095  0.376172  1
  Cu  Cu14  1  0.168058  0.336693  0.122292  1
  Cu  Cu15  1  0.830847  0.169162  0.625800  1
  Cu  Cu16  1  0.336884  0.167613  0.624939  1
  Cu  Cu17  1  0.663308  0.831951  0.122286  1
  Cu  Cu18  1  0.167931  0.832049  0.123859  1
  Cu  Cu19  1  0.831603  0.663412  0.875669  1
  Cu  Cu20  1  0.831802  0.168099  0.875483  1
  Cu  Cu21  1  0.832396  0.663113  0.624936  1
  Cu  Cu22  1  0.336753  0.168399  0.875682  1
  Cu  Cu23  1  0.664856  0.831087  0.376166  1
