# generated using pymatgen
data_Rb2Na(CO3)2
_symmetry_space_group_name_H-M   'P 1'
_cell_length_a   7.07860804
_cell_length_b   7.07862889
_cell_length_c   7.07862784
_cell_angle_alpha   47.60223174
_cell_angle_beta   47.60253223
_cell_angle_gamma   47.60232277
_symmetry_Int_Tables_number   1
_chemical_formula_structural   Rb2Na(CO3)2
_chemical_formula_sum   'Rb2 Na1 C2 O6'
_cell_volume   177.05190319
_cell_formula_units_Z   1
loop_
 _symmetry_equiv_pos_site_id
 _symmetry_equiv_pos_as_xyz
  1  'x, y, z'
loop_
 _atom_site_type_symbol
 _atom_site_label
 _atom_site_symmetry_multiplicity
 _atom_site_fract_x
 _atom_site_fract_y
 _atom_site_fract_z
 _atom_site_occupancy
  Rb  Rb0  1  0.218848  0.218839  0.218843  1
  Rb  Rb1  1  0.781152  0.781161  0.781157  1
  Na  Na2  1  0.000000  0.000000  0.000000  1
  C  C3  1  0.409266  0.409269  0.409275  1
  C  C4  1  0.590734  0.590731  0.590725  1
  O  O5  1  0.671259  0.278639  0.278634  1
  O  O6  1  0.278625  0.671279  0.278634  1
  O  O7  1  0.721374  0.721362  0.328736  1
  O  O8  1  0.278626  0.278638  0.671264  1
  O  O9  1  0.721375  0.328722  0.721366  1
  O  O10  1  0.328742  0.721361  0.721366  1
