# generated using pymatgen
data_Zr4Fe4Si3Ge
_symmetry_space_group_name_H-M   'P 1'
_cell_length_a   6.47440741
_cell_length_b   4.02739200
_cell_length_c   6.99392231
_cell_angle_alpha   90.00000000
_cell_angle_beta   89.80390309
_cell_angle_gamma   90.00000000
_symmetry_Int_Tables_number   1
_chemical_formula_structural   Zr4Fe4Si3Ge
_chemical_formula_sum   'Zr4 Fe4 Si3 Ge1'
_cell_volume   182.36529270
_cell_formula_units_Z   1
loop_
 _symmetry_equiv_pos_site_id
 _symmetry_equiv_pos_as_xyz
  1  'x, y, z'
loop_
 _atom_site_type_symbol
 _atom_site_label
 _atom_site_symmetry_multiplicity
 _atom_site_fract_x
 _atom_site_fract_y
 _atom_site_fract_z
 _atom_site_occupancy
  Zr  Zr0  1  0.496567  0.249999  0.199678  1
  Zr  Zr1  1  0.989724  0.249999  0.303495  1
  Zr  Zr2  1  0.009839  0.750000  0.697310  1
  Zr  Zr3  1  0.511409  0.750000  0.799235  1
  Fe  Fe4  1  0.837837  0.750000  0.063113  1
  Fe  Fe5  1  0.346688  0.750000  0.443365  1
  Fe  Fe6  1  0.653985  0.249999  0.562048  1
  Fe  Fe7  1  0.149192  0.249999  0.930583  1
  Si  Si8  1  0.708308  0.750000  0.395975  1
  Si  Si9  1  0.292561  0.249999  0.605947  1
  Si  Si10  1  0.791253  0.249999  0.893059  1
  Ge  Ge11  1  0.212639  0.750000  0.106193  1
