# generated using pymatgen
data_Ca10Si5Pb
_symmetry_space_group_name_H-M   'P 1'
_cell_length_a   9.29920492
_cell_length_b   9.29920484
_cell_length_c   9.29920344
_cell_angle_alpha   131.00679827
_cell_angle_beta   131.00679910
_cell_angle_gamma   71.80228224
_symmetry_Int_Tables_number   1
_chemical_formula_structural   Ca10Si5Pb
_chemical_formula_sum   'Ca10 Si5 Pb1'
_cell_volume   447.96005119
_cell_formula_units_Z   1
loop_
 _symmetry_equiv_pos_site_id
 _symmetry_equiv_pos_as_xyz
  1  'x, y, z'
loop_
 _atom_site_type_symbol
 _atom_site_label
 _atom_site_symmetry_multiplicity
 _atom_site_fract_x
 _atom_site_fract_y
 _atom_site_fract_z
 _atom_site_occupancy
  Ca  Ca0  1  0.552274  0.031241  0.858064  1
  Ca  Ca1  1  0.173177  0.694210  0.141936  1
  Ca  Ca2  1  0.031241  0.173177  0.478968  1
  Ca  Ca3  1  0.694210  0.552274  0.521032  1
  Ca  Ca4  1  0.469604  0.946787  0.141562  1
  Ca  Ca5  1  0.805226  0.328042  0.858438  1
  Ca  Ca6  1  0.946787  0.805226  0.477183  1
  Ca  Ca7  1  0.328042  0.469604  0.522817  1
  Ca  Ca8  1  0.011856  0.011856  0.000000  1
  Ca  Ca9  1  0.487838  0.487838  0.000000  1
  Si  Si10  1  0.750933  0.750933  0.000000  1
  Si  Si11  1  0.887194  0.387839  0.275236  1
  Si  Si12  1  0.112604  0.611958  0.724764  1
  Si  Si13  1  0.387839  0.112604  0.500646  1
  Si  Si14  1  0.611958  0.887194  0.499354  1
  Pb  Pb15  1  0.249219  0.249219  0.000000  1
