# generated using pymatgen
data_Dy13Y2Ho(In3Co)2
_symmetry_space_group_name_H-M   'P 1'
_cell_length_a   10.39368400
_cell_length_b   10.39368377
_cell_length_c   7.03350700
_cell_angle_alpha   90.00002756
_cell_angle_beta   89.99996692
_cell_angle_gamma   119.99996892
_symmetry_Int_Tables_number   1
_chemical_formula_structural   Dy13Y2Ho(In3Co)2
_chemical_formula_sum   'Dy13 Y2 Ho1 In6 Co2'
_cell_volume   658.02394807
_cell_formula_units_Z   1
loop_
 _symmetry_equiv_pos_site_id
 _symmetry_equiv_pos_as_xyz
  1  'x, y, z'
loop_
 _atom_site_type_symbol
 _atom_site_label
 _atom_site_symmetry_multiplicity
 _atom_site_fract_x
 _atom_site_fract_y
 _atom_site_fract_z
 _atom_site_occupancy
  Dy  Dy0  1  0.464417  0.535583  0.482913  1
  Dy  Dy1  1  0.071166  0.535583  0.482913  1
  Dy  Dy2  1  0.464417  0.928834  0.482913  1
  Dy  Dy3  1  0.535633  0.464367  0.982462  1
  Dy  Dy4  1  0.928736  0.464367  0.982462  1
  Dy  Dy5  1  0.535633  0.071264  0.982462  1
  Dy  Dy6  1  0.821568  0.178432  0.276057  1
  Dy  Dy7  1  0.356864  0.178432  0.276057  1
  Dy  Dy8  1  0.821568  0.643137  0.276057  1
  Dy  Dy9  1  0.178103  0.821897  0.775679  1
  Dy  Dy10  1  0.643793  0.821897  0.775679  1
  Dy  Dy11  1  0.178103  0.356207  0.775679  1
  Dy  Dy12  1  0.333333  0.666667  0.092436  1
  Y  Y13  1  0.000000  0.000000  0.494897  1
  Y  Y14  1  0.000000  0.000000  0.995042  1
  Ho  Ho15  1  0.666667  0.333333  0.591019  1
  In  In16  1  0.162760  0.837240  0.234389  1
  In  In17  1  0.674480  0.837240  0.234389  1
  In  In18  1  0.162760  0.325520  0.234388  1
  In  In19  1  0.836968  0.163032  0.734185  1
  In  In20  1  0.326063  0.163032  0.734185  1
  In  In21  1  0.836968  0.673937  0.734185  1
  Co  Co22  1  0.333333  0.666667  0.707035  1
  Co  Co23  1  0.666667  0.333333  0.207070  1
