# generated using pymatgen
data_Ba4MnFe(Si2O7)2
_symmetry_space_group_name_H-M   'P 1'
_cell_length_a   5.45819300
_cell_length_b   8.43386100
_cell_length_c   8.43386100
_cell_angle_alpha   90.00000000
_cell_angle_beta   90.00000000
_cell_angle_gamma   90.00000000
_symmetry_Int_Tables_number   1
_chemical_formula_structural   Ba4MnFe(Si2O7)2
_chemical_formula_sum   'Ba4 Mn1 Fe1 Si4 O14'
_cell_volume   388.24133014
_cell_formula_units_Z   1
loop_
 _symmetry_equiv_pos_site_id
 _symmetry_equiv_pos_as_xyz
  1  'x, y, z'
loop_
 _atom_site_type_symbol
 _atom_site_label
 _atom_site_symmetry_multiplicity
 _atom_site_fract_x
 _atom_site_fract_y
 _atom_site_fract_z
 _atom_site_occupancy
  Ba  Ba0  1  0.509850  0.333017  0.164968  1
  Ba  Ba1  1  0.490149  0.835032  0.333017  1
  Ba  Ba2  1  0.490149  0.164968  0.666983  1
  Ba  Ba3  1  0.509850  0.666983  0.835032  1
  Mn  Mn4  1  0.000000  0.499999  0.499999  1
  Fe  Fe5  1  0.000000  0.000000  0.000000  1
  Si  Si6  1  0.044479  0.634649  0.134681  1
  Si  Si7  1  0.955520  0.134681  0.365351  1
  Si  Si8  1  0.955520  0.865319  0.634649  1
  Si  Si9  1  0.044479  0.365351  0.865319  1
  O  O10  1  0.140238  0.499999  0.000000  1
  O  O11  1  0.176341  0.800924  0.076167  1
  O  O12  1  0.747776  0.637191  0.140453  1
  O  O13  1  0.823659  0.076167  0.199077  1
  O  O14  1  0.184242  0.578190  0.298845  1
  O  O15  1  0.252224  0.140453  0.362808  1
  O  O16  1  0.815758  0.298845  0.421810  1
  O  O17  1  0.859762  0.000000  0.499999  1
  O  O18  1  0.815758  0.701155  0.578190  1
  O  O19  1  0.252224  0.859547  0.637191  1
  O  O20  1  0.184242  0.421810  0.701155  1
  O  O21  1  0.823659  0.923833  0.800924  1
  O  O22  1  0.747776  0.362808  0.859547  1
  O  O23  1  0.176341  0.199077  0.923833  1
