# generated using pymatgen
data_Ho3Tm5(AlRu)8
_symmetry_space_group_name_H-M   'P 1'
_cell_length_a   4.05338500
_cell_length_b   6.95295774
_cell_length_c   15.88709145
_cell_angle_alpha   90.08871049
_cell_angle_beta   90.00000000
_cell_angle_gamma   90.00000000
_symmetry_Int_Tables_number   1
_chemical_formula_structural   Ho3Tm5(AlRu)8
_chemical_formula_sum   'Ho3 Tm5 Al8 Ru8'
_cell_volume   447.74559399
_cell_formula_units_Z   1
loop_
 _symmetry_equiv_pos_site_id
 _symmetry_equiv_pos_as_xyz
  1  'x, y, z'
loop_
 _atom_site_type_symbol
 _atom_site_label
 _atom_site_symmetry_multiplicity
 _atom_site_fract_x
 _atom_site_fract_y
 _atom_site_fract_z
 _atom_site_occupancy
  Ho  Ho0  1  0.750000  0.962642  0.218749  1
  Ho  Ho1  1  0.250000  0.157201  0.563909  1
  Ho  Ho2  1  0.750000  0.839162  0.436390  1
  Tm  Tm3  1  0.750000  0.461324  0.280909  1
  Tm  Tm4  1  0.750000  0.344590  0.063312  1
  Tm  Tm5  1  0.250000  0.659071  0.936484  1
  Tm  Tm6  1  0.250000  0.038999  0.781933  1
  Tm  Tm7  1  0.250000  0.538410  0.719235  1
  Al  Al8  1  0.750000  0.499189  0.566178  1
  Al  Al9  1  0.750000  0.368658  0.848926  1
  Al  Al10  1  0.750000  0.003065  0.934228  1
  Al  Al11  1  0.750000  0.865550  0.652564  1
  Al  Al12  1  0.250000  0.495906  0.433948  1
  Al  Al13  1  0.250000  0.000674  0.065458  1
  Al  Al14  1  0.250000  0.633881  0.150912  1
  Al  Al15  1  0.250000  0.132417  0.347611  1
  Ru  Ru16  1  0.750000  0.748553  0.812552  1
  Ru  Ru17  1  0.250000  0.239236  0.937340  1
  Ru  Ru18  1  0.750000  0.261811  0.436194  1
  Ru  Ru19  1  0.250000  0.749170  0.311423  1
  Ru  Ru20  1  0.750000  0.763783  0.061752  1
  Ru  Ru21  1  0.750000  0.246776  0.689476  1
  Ru  Ru22  1  0.250000  0.256051  0.186797  1
  Ru  Ru23  1  0.250000  0.733879  0.563718  1
