# generated using pymatgen
data_DyTmI26
_symmetry_space_group_name_H-M   'P 1'
_cell_length_a   13.16054809
_cell_length_b   11.40211505
_cell_length_c   15.26059081
_cell_angle_alpha   120.96619517
_cell_angle_beta   89.52972503
_cell_angle_gamma   105.16466020
_symmetry_Int_Tables_number   1
_chemical_formula_structural   DyTmI26
_chemical_formula_sum   'Dy1 Tm1 I26'
_cell_volume   1872.98023893
_cell_formula_units_Z   1
loop_
 _symmetry_equiv_pos_site_id
 _symmetry_equiv_pos_as_xyz
  1  'x, y, z'
loop_
 _atom_site_type_symbol
 _atom_site_label
 _atom_site_symmetry_multiplicity
 _atom_site_fract_x
 _atom_site_fract_y
 _atom_site_fract_z
 _atom_site_occupancy
  Dy  Dy0  1  0.667730  0.127562  0.064400  1
  Tm  Tm1  1  0.331003  0.869489  0.935533  1
  I  I2  1  0.376510  0.652573  0.973722  1
  I  I3  1  0.619088  0.342822  0.022730  1
  I  I4  1  0.581964  0.810450  0.392495  1
  I  I5  1  0.423472  0.194846  0.607107  1
  I  I6  1  0.729983  0.687247  0.004177  1
  I  I7  1  0.264598  0.307422  0.994628  1
  I  I8  1  0.704806  0.952763  0.158279  1
  I  I9  1  0.285505  0.038513  0.842498  1
  I  I10  1  0.446008  0.126463  0.137256  1
  I  I11  1  0.548872  0.870033  0.860678  1
  I  I12  1  0.238980  0.657576  0.706877  1
  I  I13  1  0.767969  0.349548  0.292697  1
  I  I14  1  0.122362  0.828332  0.996337  1
  I  I15  1  0.880621  0.168516  0.006804  1
  I  I16  1  0.092949  0.084624  0.212180  1
  I  I17  1  0.907741  0.914023  0.790209  1
  I  I18  1  0.277628  0.915237  0.457386  1
  I  I19  1  0.725186  0.090120  0.543379  1
  I  I20  1  0.331463  0.422892  0.650749  1
  I  I21  1  0.677976  0.584950  0.347828  1
  I  I22  1  0.855026  0.384715  0.702875  1
  I  I23  1  0.146745  0.621274  0.299862  1
  I  I24  1  0.946989  0.701317  0.604697  1
  I  I25  1  0.050446  0.296919  0.395553  1
  I  I26  1  0.254220  0.626038  0.130505  1
  I  I27  1  0.744160  0.373735  0.868563  1
