# generated using pymatgen
data_Ti3Nb(VSi)4
_symmetry_space_group_name_H-M   'P 1'
_cell_length_a   3.35221000
_cell_length_b   6.58269096
_cell_length_c   7.92293667
_cell_angle_alpha   90.19750670
_cell_angle_beta   90.00000000
_cell_angle_gamma   90.00000000
_symmetry_Int_Tables_number   1
_chemical_formula_structural   Ti3Nb(VSi)4
_chemical_formula_sum   'Ti3 Nb1 V4 Si4'
_cell_volume   174.83093817
_cell_formula_units_Z   1
loop_
 _symmetry_equiv_pos_site_id
 _symmetry_equiv_pos_as_xyz
  1  'x, y, z'
loop_
 _atom_site_type_symbol
 _atom_site_label
 _atom_site_symmetry_multiplicity
 _atom_site_fract_x
 _atom_site_fract_y
 _atom_site_fract_z
 _atom_site_occupancy
  Ti  Ti0  1  0.750000  0.449173  0.833422  1
  Ti  Ti1  1  0.750000  0.949761  0.667304  1
  Ti  Ti2  1  0.250000  0.051395  0.333097  1
  Nb  Nb3  1  0.250000  0.550174  0.166862  1
  V  V4  1  0.250000  0.625089  0.560502  1
  V  V5  1  0.750000  0.374293  0.439400  1
  V  V6  1  0.750000  0.872696  0.059987  1
  V  V7  1  0.250000  0.126984  0.938196  1
  Si  Si8  1  0.250000  0.749631  0.858250  1
  Si  Si9  1  0.750000  0.246980  0.139579  1
  Si  Si10  1  0.750000  0.754499  0.363228  1
  Si  Si11  1  0.250000  0.249324  0.640172  1
