# generated using pymatgen
data_TbY2ErMg2Rh3
_symmetry_space_group_name_H-M   'P 1'
_cell_length_a   7.50718612
_cell_length_b   7.54281716
_cell_length_c   4.06311000
_cell_angle_alpha   90.00000000
_cell_angle_beta   90.00000000
_cell_angle_gamma   120.15713337
_symmetry_Int_Tables_number   1
_chemical_formula_structural   TbY2ErMg2Rh3
_chemical_formula_sum   'Tb1 Y2 Er1 Mg2 Rh3'
_cell_volume   198.93451628
_cell_formula_units_Z   1
loop_
 _symmetry_equiv_pos_site_id
 _symmetry_equiv_pos_as_xyz
  1  'x, y, z'
loop_
 _atom_site_type_symbol
 _atom_site_label
 _atom_site_symmetry_multiplicity
 _atom_site_fract_x
 _atom_site_fract_y
 _atom_site_fract_z
 _atom_site_occupancy
  Tb  Tb0  1  0.000000  0.611829  0.500000  1
  Y  Y1  1  0.434319  0.412668  0.500000  1
  Y  Y2  1  0.565681  0.978349  0.500000  1
  Er  Er3  1  0.000000  0.247322  0.000000  1
  Mg  Mg4  1  0.251301  0.004618  0.000000  1
  Mg  Mg5  1  0.748699  0.753317  0.000000  1
  Rh  Rh6  1  0.324184  0.657658  0.000000  1
  Rh  Rh7  1  0.000000  0.000762  0.500000  1
  Rh  Rh8  1  0.675816  0.333472  0.000000  1
