# generated using pymatgen
data_La6PrNd5(PtBr3)4
_symmetry_space_group_name_H-M   'P 1'
_cell_length_a   10.68346671
_cell_length_b   10.65481783
_cell_length_c   10.67115530
_cell_angle_alpha   109.47646546
_cell_angle_beta   109.43266905
_cell_angle_gamma   109.38532230
_symmetry_Int_Tables_number   1
_chemical_formula_structural   La6PrNd5(PtBr3)4
_chemical_formula_sum   'La6 Pr1 Nd5 Pt4 Br12'
_cell_volume   936.45054015
_cell_formula_units_Z   1
loop_
 _symmetry_equiv_pos_site_id
 _symmetry_equiv_pos_as_xyz
  1  'x, y, z'
loop_
 _atom_site_type_symbol
 _atom_site_label
 _atom_site_symmetry_multiplicity
 _atom_site_fract_x
 _atom_site_fract_y
 _atom_site_fract_z
 _atom_site_occupancy
  La  La0  1  0.030387  0.266464  0.015560  1
  La  La1  1  0.013392  0.029871  0.266716  1
  La  La2  1  0.485438  0.749267  0.015467  1
  La  La3  1  0.485845  0.235987  0.471294  1
  La  La4  1  0.013882  0.483783  0.747368  1
  La  La5  1  0.265577  0.015011  0.029039  1
  Pr  Pr6  1  0.235517  0.264184  0.749843  1
  Nd  Nd7  1  0.469117  0.485541  0.235219  1
  Nd  Nd8  1  0.750869  0.235046  0.266629  1
  Nd  Nd9  1  0.748824  0.015124  0.483420  1
  Nd  Nd10  1  0.234705  0.469419  0.483855  1
  Nd  Nd11  1  0.266649  0.750135  0.235673  1
  Pt  Pt12  1  0.250397  0.250215  0.250442  1
  Pt  Pt13  1  0.499935  0.000300  0.250184  1
  Pt  Pt14  1  0.000306  0.250323  0.500228  1
  Pt  Pt15  1  0.250298  0.500420  0.000317  1
  Br  Br16  1  0.250556  0.751711  0.744350  1
  Br  Br17  1  0.505472  0.504365  0.751768  1
  Br  Br18  1  0.994615  0.746134  0.999495  1
  Br  Br19  1  0.745747  0.246859  0.751694  1
  Br  Br20  1  0.994794  0.993335  0.744548  1
  Br  Br21  1  0.249838  0.994548  0.501876  1
  Br  Br22  1  0.751853  0.505803  0.498257  1
  Br  Br23  1  0.507027  0.253972  0.001944  1
  Br  Br24  1  0.751721  0.746095  0.253807  1
  Br  Br25  1  0.745910  0.999211  0.994213  1
  Br  Br26  1  0.999602  0.505081  0.253417  1
  Br  Br27  1  0.501730  0.751799  0.503378  1
