# generated using pymatgen
data_Dy2Mn4Fe5Ni3P7
_symmetry_space_group_name_H-M   'P 1'
_cell_length_a   9.10435799
_cell_length_b   9.18918291
_cell_length_c   3.61883600
_cell_angle_alpha   90.00000000
_cell_angle_beta   90.00000000
_cell_angle_gamma   119.88745556
_symmetry_Int_Tables_number   1
_chemical_formula_structural   Dy2Mn4Fe5Ni3P7
_chemical_formula_sum   'Dy2 Mn4 Fe5 Ni3 P7'
_cell_volume   262.49265838
_cell_formula_units_Z   1
loop_
 _symmetry_equiv_pos_site_id
 _symmetry_equiv_pos_as_xyz
  1  'x, y, z'
loop_
 _atom_site_type_symbol
 _atom_site_label
 _atom_site_symmetry_multiplicity
 _atom_site_fract_x
 _atom_site_fract_y
 _atom_site_fract_z
 _atom_site_occupancy
  Dy  Dy0  1  0.668602  0.340425  0.000000  1
  Dy  Dy1  1  0.330905  0.662115  0.500000  1
  Mn  Mn2  1  0.615659  0.050144  0.500000  1
  Mn  Mn3  1  0.119853  0.897510  0.500000  1
  Mn  Mn4  1  0.099701  0.217829  0.500000  1
  Mn  Mn5  1  0.777831  0.879127  0.500000  1
  Fe  Fe6  1  0.882647  0.727816  0.000000  1
  Fe  Fe7  1  0.273992  0.155524  0.000000  1
  Fe  Fe8  1  0.838592  0.119525  0.000000  1
  Fe  Fe9  1  0.953412  0.566290  0.500000  1
  Fe  Fe10  1  0.435828  0.388112  0.500000  1
  Ni  Ni11  1  0.368183  0.935581  0.000000  1
  Ni  Ni12  1  0.063635  0.429343  0.000000  1
  Ni  Ni13  1  0.570579  0.630589  0.000000  1
  P  P14  1  0.106614  0.697026  0.000000  1
  P  P15  1  0.303613  0.408130  0.000000  1
  P  P16  1  0.586545  0.883017  0.000000  1
  P  P17  1  0.717477  0.593831  0.500000  1
  P  P18  1  0.405472  0.125850  0.500000  1
  P  P19  1  0.882467  0.292091  0.500000  1
  P  P20  1  0.998394  0.000126  0.000000  1
