# generated using pymatgen
data_Tb3Ho5Tl3Ir
_symmetry_space_group_name_H-M   'P 1'
_cell_length_a   10.41107700
_cell_length_b   10.41107661
_cell_length_c   7.08906800
_cell_angle_alpha   90.00000000
_cell_angle_beta   90.00000000
_cell_angle_gamma   119.99999806
_symmetry_Int_Tables_number   1
_chemical_formula_structural   Tb3Ho5Tl3Ir
_chemical_formula_sum   'Tb6 Ho10 Tl6 Ir2'
_cell_volume   665.44334042
_cell_formula_units_Z   2
loop_
 _symmetry_equiv_pos_site_id
 _symmetry_equiv_pos_as_xyz
  1  'x, y, z'
loop_
 _atom_site_type_symbol
 _atom_site_label
 _atom_site_symmetry_multiplicity
 _atom_site_fract_x
 _atom_site_fract_y
 _atom_site_fract_z
 _atom_site_occupancy
  Tb  Tb0  1  0.533911  0.067822  0.506679  1
  Tb  Tb1  1  0.932178  0.466089  0.506679  1
  Tb  Tb2  1  0.533911  0.466089  0.506679  1
  Tb  Tb3  1  0.466089  0.932178  0.006679  1
  Tb  Tb4  1  0.067822  0.533911  0.006679  1
  Tb  Tb5  1  0.466089  0.533911  0.006679  1
  Ho  Ho6  1  0.176197  0.352392  0.711395  1
  Ho  Ho7  1  0.647608  0.823803  0.711395  1
  Ho  Ho8  1  0.176197  0.823803  0.711395  1
  Ho  Ho9  1  0.823803  0.647608  0.211395  1
  Ho  Ho10  1  0.352392  0.176197  0.211395  1
  Ho  Ho11  1  0.823803  0.176197  0.211395  1
  Ho  Ho12  1  0.666667  0.333333  0.888610  1
  Ho  Ho13  1  0.333333  0.666667  0.388610  1
  Ho  Ho14  1  0.000000  0.000000  0.492281  1
  Ho  Ho15  1  0.000000  0.000000  0.992281  1
  Tl  Tl16  1  0.837153  0.674306  0.754963  1
  Tl  Tl17  1  0.325694  0.162847  0.754963  1
  Tl  Tl18  1  0.837153  0.162847  0.754963  1
  Tl  Tl19  1  0.162847  0.325694  0.254963  1
  Tl  Tl20  1  0.674306  0.837153  0.254963  1
  Tl  Tl21  1  0.162847  0.837153  0.254963  1
  Ir  Ir22  1  0.666667  0.333333  0.279022  1
  Ir  Ir23  1  0.333333  0.666667  0.779022  1
