# generated using pymatgen
data_Pr4YIn3
_symmetry_space_group_name_H-M   'P 1'
_cell_length_a   6.31913744
_cell_length_b   9.45413165
_cell_length_c   9.45413078
_cell_angle_alpha   83.77991473
_cell_angle_beta   70.68553984
_cell_angle_gamma   70.68554438
_symmetry_Int_Tables_number   1
_chemical_formula_structural   Pr4YIn3
_chemical_formula_sum   'Pr8 Y2 In6'
_cell_volume   503.01945988
_cell_formula_units_Z   2
loop_
 _symmetry_equiv_pos_site_id
 _symmetry_equiv_pos_as_xyz
  1  'x, y, z'
loop_
 _atom_site_type_symbol
 _atom_site_label
 _atom_site_symmetry_multiplicity
 _atom_site_fract_x
 _atom_site_fract_y
 _atom_site_fract_z
 _atom_site_occupancy
  Pr  Pr0  1  0.721011  0.865344  0.692967  1
  Pr  Pr1  1  0.278989  0.134656  0.307033  1
  Pr  Pr2  1  0.778989  0.307033  0.134656  1
  Pr  Pr3  1  0.221011  0.692967  0.865344  1
  Pr  Pr4  1  0.585814  0.693310  0.134886  1
  Pr  Pr5  1  0.414186  0.306690  0.865114  1
  Pr  Pr6  1  0.085814  0.134886  0.693310  1
  Pr  Pr7  1  0.914186  0.865114  0.306690  1
  Y  Y8  1  0.750000  0.500290  0.499710  1
  Y  Y9  1  0.250000  0.499710  0.500290  1
  In  In10  1  0.157345  0.499805  0.186713  1
  In  In11  1  0.842655  0.500195  0.813287  1
  In  In12  1  0.342655  0.813287  0.500195  1
  In  In13  1  0.657345  0.186713  0.499805  1
  In  In14  1  0.250000  0.999801  0.000199  1
  In  In15  1  0.750000  0.000199  0.999801  1
