# generated using pymatgen
data_LiDy16Cd3(CoIr)2
_symmetry_space_group_name_H-M   'P 1'
_cell_length_a   9.60533509
_cell_length_b   9.60533581
_cell_length_c   9.56918516
_cell_angle_alpha   59.85024755
_cell_angle_beta   59.85024366
_cell_angle_gamma   60.06716115
_symmetry_Int_Tables_number   1
_chemical_formula_structural   LiDy16Cd3(CoIr)2
_chemical_formula_sum   'Li1 Dy16 Cd3 Co2 Ir2'
_cell_volume   623.18532591
_cell_formula_units_Z   1
loop_
 _symmetry_equiv_pos_site_id
 _symmetry_equiv_pos_as_xyz
  1  'x, y, z'
loop_
 _atom_site_type_symbol
 _atom_site_label
 _atom_site_symmetry_multiplicity
 _atom_site_fract_x
 _atom_site_fract_y
 _atom_site_fract_z
 _atom_site_occupancy
  Li  Li0  1  0.821251  0.821251  0.820731  1
  Dy  Dy1  1  0.595866  0.595866  0.605804  1
  Dy  Dy2  1  0.593872  0.593872  0.209151  1
  Dy  Dy3  1  0.589370  0.213981  0.599281  1
  Dy  Dy4  1  0.213981  0.589370  0.599281  1
  Dy  Dy5  1  0.065923  0.440276  0.438559  1
  Dy  Dy6  1  0.435444  0.068150  0.058235  1
  Dy  Dy7  1  0.440276  0.065923  0.438559  1
  Dy  Dy8  1  0.068150  0.435444  0.058235  1
  Dy  Dy9  1  0.438850  0.438850  0.061173  1
  Dy  Dy10  1  0.062924  0.062924  0.434239  1
  Dy  Dy11  1  0.188617  0.813348  0.809045  1
  Dy  Dy12  1  0.813662  0.186154  0.187241  1
  Dy  Dy13  1  0.813348  0.188617  0.809045  1
  Dy  Dy14  1  0.186154  0.813662  0.187241  1
  Dy  Dy15  1  0.809514  0.809514  0.190414  1
  Dy  Dy16  1  0.184907  0.184907  0.813790  1
  Cd  Cd17  1  0.832949  0.832949  0.507368  1
  Cd  Cd18  1  0.833861  0.506233  0.832274  1
  Cd  Cd19  1  0.506233  0.833861  0.832274  1
  Co  Co20  1  0.390999  0.390999  0.391939  1
  Co  Co21  1  0.393639  0.393639  0.827993  1
  Ir  Ir22  1  0.393949  0.826260  0.394065  1
  Ir  Ir23  1  0.826260  0.393949  0.394065  1
