# generated using pymatgen
data_Er2Lu3Ir2Ru
_symmetry_space_group_name_H-M   'P 1'
_cell_length_a   10.64976100
_cell_length_b   10.64976100
_cell_length_c   6.34040800
_cell_angle_alpha   90.00000000
_cell_angle_beta   90.00000000
_cell_angle_gamma   90.00000000
_symmetry_Int_Tables_number   1
_chemical_formula_structural   Er2Lu3Ir2Ru
_chemical_formula_sum   'Er8 Lu12 Ir8 Ru4'
_cell_volume   719.11264963
_cell_formula_units_Z   4
loop_
 _symmetry_equiv_pos_site_id
 _symmetry_equiv_pos_as_xyz
  1  'x, y, z'
loop_
 _atom_site_type_symbol
 _atom_site_label
 _atom_site_symmetry_multiplicity
 _atom_site_fract_x
 _atom_site_fract_y
 _atom_site_fract_z
 _atom_site_occupancy
  Er  Er0  1  0.208073  0.412719  0.623732  1
  Er  Er1  1  0.208073  0.587281  0.123732  1
  Er  Er2  1  0.791927  0.412719  0.123732  1
  Er  Er3  1  0.791927  0.587281  0.623732  1
  Er  Er4  1  0.912719  0.708073  0.123732  1
  Er  Er5  1  0.912719  0.291927  0.623732  1
  Er  Er6  1  0.087281  0.708073  0.623732  1
  Er  Er7  1  0.087281  0.291927  0.123732  1
  Lu  Lu8  1  0.294310  0.085681  0.377603  1
  Lu  Lu9  1  0.294310  0.914319  0.877603  1
  Lu  Lu10  1  0.705690  0.085681  0.877603  1
  Lu  Lu11  1  0.705690  0.914319  0.377603  1
  Lu  Lu12  1  0.585681  0.794310  0.877603  1
  Lu  Lu13  1  0.585681  0.205690  0.377603  1
  Lu  Lu14  1  0.414319  0.794310  0.377603  1
  Lu  Lu15  1  0.414319  0.205690  0.877603  1
  Lu  Lu16  1  0.000000  0.000000  0.498491  1
  Lu  Lu17  1  0.000000  0.000000  0.998491  1
  Lu  Lu18  1  0.500000  0.500000  0.998491  1
  Lu  Lu19  1  0.500000  0.500000  0.498491  1
  Ir  Ir20  1  0.846646  0.150420  0.249058  1
  Ir  Ir21  1  0.846646  0.849580  0.749058  1
  Ir  Ir22  1  0.153354  0.150420  0.749058  1
  Ir  Ir23  1  0.153354  0.849580  0.249058  1
  Ir  Ir24  1  0.650420  0.346646  0.749058  1
  Ir  Ir25  1  0.650420  0.653354  0.249058  1
  Ir  Ir26  1  0.349580  0.346646  0.249058  1
  Ir  Ir27  1  0.349580  0.653354  0.749058  1
  Ru  Ru28  1  0.500000  0.000000  0.124138  1
  Ru  Ru29  1  0.500000  0.000000  0.624138  1
  Ru  Ru30  1  0.000000  0.500000  0.877310  1
  Ru  Ru31  1  0.000000  0.500000  0.377310  1
