# generated using pymatgen
data_Ac2EuTe4
_symmetry_space_group_name_H-M   'P 1'
_cell_length_a   8.60648538
_cell_length_b   8.60659519
_cell_length_c   8.60648661
_cell_angle_alpha   109.58052955
_cell_angle_beta   109.57787003
_cell_angle_gamma   109.25496499
_symmetry_Int_Tables_number   1
_chemical_formula_structural   Ac2EuTe4
_chemical_formula_sum   'Ac4 Eu2 Te8'
_cell_volume   490.74890396
_cell_formula_units_Z   2
loop_
 _symmetry_equiv_pos_site_id
 _symmetry_equiv_pos_as_xyz
  1  'x, y, z'
loop_
 _atom_site_type_symbol
 _atom_site_label
 _atom_site_symmetry_multiplicity
 _atom_site_fract_x
 _atom_site_fract_y
 _atom_site_fract_z
 _atom_site_occupancy
  Ac  Ac0  1  0.503072  0.125000  0.878072  1
  Ac  Ac1  1  0.875000  0.753071  0.378069  1
  Ac  Ac2  1  0.246932  0.625000  0.121932  1
  Ac  Ac3  1  0.374998  0.496929  0.621929  1
  Eu  Eu4  1  0.749997  0.250004  0.500005  1
  Eu  Eu5  1  0.000001  0.999996  0.999993  1
  Te  Te6  1  0.974759  0.372813  0.248384  1
  Te  Te7  1  0.476376  0.374432  0.251616  1
  Te  Te8  1  0.775240  0.523624  0.898056  1
  Te  Te9  1  0.627183  0.875568  0.601944  1
  Te  Te10  1  0.122816  0.224761  0.748384  1
  Te  Te11  1  0.625572  0.877187  0.101947  1
  Te  Te12  1  0.273623  0.025239  0.398054  1
  Te  Te13  1  0.124431  0.726376  0.751616  1
