# generated using pymatgen
data_Tb9Y3GaCo4Rh
_symmetry_space_group_name_H-M   'P 1'
_cell_length_a   8.28589949
_cell_length_b   8.28751706
_cell_length_c   8.28751591
_cell_angle_alpha   110.89688261
_cell_angle_beta   110.43573152
_cell_angle_gamma   107.11447017
_symmetry_Int_Tables_number   1
_chemical_formula_structural   Tb9Y3GaCo4Rh
_chemical_formula_sum   'Tb9 Y3 Ga1 Co4 Rh1'
_cell_volume   437.49041710
_cell_formula_units_Z   1
loop_
 _symmetry_equiv_pos_site_id
 _symmetry_equiv_pos_as_xyz
  1  'x, y, z'
loop_
 _atom_site_type_symbol
 _atom_site_label
 _atom_site_symmetry_multiplicity
 _atom_site_fract_x
 _atom_site_fract_y
 _atom_site_fract_z
 _atom_site_occupancy
  Tb  Tb0  1  0.683974  0.487018  0.803701  1
  Tb  Tb1  1  0.683974  0.880272  0.196956  1
  Tb  Tb2  1  0.976955  0.283545  0.693410  1
  Tb  Tb3  1  0.022997  0.714798  0.308199  1
  Tb  Tb4  1  0.317216  0.120018  0.804674  1
  Tb  Tb5  1  0.317216  0.512542  0.197199  1
  Tb  Tb6  1  0.814284  0.208613  0.023030  1
  Tb  Tb7  1  0.814284  0.791253  0.605671  1
  Tb  Tb8  1  0.410638  0.716619  0.694019  1
  Y  Y9  1  0.591642  0.283635  0.308007  1
  Y  Y10  1  0.186551  0.208156  0.394638  1
  Y  Y11  1  0.186551  0.791912  0.978395  1
  Ga  Ga12  1  0.499173  0.000754  0.498418  1
  Co  Co13  1  0.884279  0.887459  0.996819  1
  Co  Co14  1  0.376814  0.500143  0.876672  1
  Co  Co15  1  0.620711  0.500314  0.120398  1
  Co  Co16  1  0.110581  0.113079  0.997501  1
  Rh  Rh17  1  0.002160  0.499870  0.502290  1
