# generated using pymatgen
data_Yb2Y2RuPt3O14
_symmetry_space_group_name_H-M   'P 1'
_cell_length_a   7.26913689
_cell_length_b   7.23934116
_cell_length_c   7.24094100
_cell_angle_alpha   59.99268479
_cell_angle_beta   60.12822405
_cell_angle_gamma   59.98764615
_symmetry_Int_Tables_number   1
_chemical_formula_structural   Yb2Y2RuPt3O14
_chemical_formula_sum   'Yb2 Y2 Ru1 Pt3 O14'
_cell_volume   269.65985056
_cell_formula_units_Z   1
loop_
 _symmetry_equiv_pos_site_id
 _symmetry_equiv_pos_as_xyz
  1  'x, y, z'
loop_
 _atom_site_type_symbol
 _atom_site_label
 _atom_site_symmetry_multiplicity
 _atom_site_fract_x
 _atom_site_fract_y
 _atom_site_fract_z
 _atom_site_occupancy
  Yb  Yb0  1  0.125000  0.125000  0.625000  1
  Yb  Yb1  1  0.125000  0.125000  0.125000  1
  Y  Y2  1  0.125000  0.625000  0.125000  1
  Y  Y3  1  0.625000  0.125000  0.125000  1
  Ru  Ru4  1  0.125000  0.625000  0.625000  1
  Pt  Pt5  1  0.625000  0.125000  0.625000  1
  Pt  Pt6  1  0.625000  0.625000  0.125000  1
  Pt  Pt7  1  0.625000  0.625000  0.625000  1
  O  O8  1  0.997877  0.994656  0.003733  1
  O  O9  1  0.252123  0.255344  0.246267  1
  O  O10  1  0.294667  0.303697  0.700818  1
  O  O11  1  0.533312  0.538555  0.964067  1
  O  O12  1  0.713815  0.286282  0.713769  1
  O  O13  1  0.713815  0.286282  0.286134  1
  O  O14  1  0.293769  0.698571  0.708667  1
  O  O15  1  0.293769  0.698571  0.298993  1
  O  O16  1  0.716688  0.711445  0.285933  1
  O  O17  1  0.956231  0.551429  0.541333  1
  O  O18  1  0.536185  0.963718  0.963866  1
  O  O19  1  0.955333  0.946303  0.549182  1
  O  O20  1  0.956231  0.551429  0.951007  1
  O  O21  1  0.536185  0.963718  0.536231  1
