# generated using pymatgen
data_Zr8Co8Si13As
_symmetry_space_group_name_H-M   'P 1'
_cell_length_a   9.51143933
_cell_length_b   9.51142571
_cell_length_c   9.51144002
_cell_angle_alpha   94.15609973
_cell_angle_beta   94.15689167
_cell_angle_gamma   148.76407582
_symmetry_Int_Tables_number   1
_chemical_formula_structural   Zr8Co8Si13As
_chemical_formula_sum   'Zr8 Co8 Si13 As1'
_cell_volume   429.73540573
_cell_formula_units_Z   1
loop_
 _symmetry_equiv_pos_site_id
 _symmetry_equiv_pos_as_xyz
  1  'x, y, z'
loop_
 _atom_site_type_symbol
 _atom_site_label
 _atom_site_symmetry_multiplicity
 _atom_site_fract_x
 _atom_site_fract_y
 _atom_site_fract_z
 _atom_site_occupancy
  Zr  Zr0  1  0.694978  0.497376  0.197655  1
  Zr  Zr1  1  0.497349  0.694990  0.197641  1
  Zr  Zr2  1  0.497377  0.299758  0.802383  1
  Zr  Zr3  1  0.299720  0.497376  0.802398  1
  Zr  Zr4  1  0.864277  0.864276  0.724186  1
  Zr  Zr5  1  0.140091  0.864276  0.000000  1
  Zr  Zr6  1  0.864273  0.140116  0.000003  1
  Zr  Zr7  1  0.140113  0.140116  0.275842  1
  Co  Co8  1  0.102822  0.897792  0.500669  1
  Co  Co9  1  0.897802  0.397085  0.794958  1
  Co  Co10  1  0.602173  0.102832  0.205079  1
  Co  Co11  1  0.102847  0.602132  0.205064  1
  Co  Co12  1  0.602126  0.397085  0.499283  1
  Co  Co13  1  0.397123  0.897792  0.794968  1
  Co  Co14  1  0.897754  0.102832  0.500659  1
  Co  Co15  1  0.397069  0.602132  0.499285  1
  Si  Si16  1  0.251708  0.251723  0.000015  1
  Si  Si17  1  0.092319  0.501088  0.591066  1
  Si  Si18  1  0.501271  0.092376  0.591105  1
  Si  Si19  1  0.501316  0.910126  0.408812  1
  Si  Si20  1  0.910021  0.501088  0.408770  1
  Si  Si21  1  0.695768  0.998357  0.697290  1
  Si  Si22  1  0.998331  0.695751  0.697421  1
  Si  Si23  1  0.711741  0.711819  0.421487  1
  Si  Si24  1  0.290332  0.711819  0.000079  1
  Si  Si25  1  0.301067  0.998357  0.302590  1
  Si  Si26  1  0.711788  0.290277  0.000078  1
  Si  Si27  1  0.290199  0.290277  0.578489  1
  Si  Si28  1  0.998288  0.300999  0.302711  1
  As  As29  1  0.747959  0.747974  0.000015  1
