# generated using pymatgen
data_Dy4GeMo3O14
_symmetry_space_group_name_H-M   'P 1'
_cell_length_a   7.34853116
_cell_length_b   7.27279031
_cell_length_c   7.34853100
_cell_angle_alpha   59.65490165
_cell_angle_beta   60.00000522
_cell_angle_gamma   59.65490252
_symmetry_Int_Tables_number   1
_chemical_formula_structural   Dy4GeMo3O14
_chemical_formula_sum   'Dy4 Ge1 Mo3 O14'
_cell_volume   276.24982053
_cell_formula_units_Z   1
loop_
 _symmetry_equiv_pos_site_id
 _symmetry_equiv_pos_as_xyz
  1  'x, y, z'
loop_
 _atom_site_type_symbol
 _atom_site_label
 _atom_site_symmetry_multiplicity
 _atom_site_fract_x
 _atom_site_fract_y
 _atom_site_fract_z
 _atom_site_occupancy
  Dy  Dy0  1  0.625000  0.125000  0.125000  1
  Dy  Dy1  1  0.125000  0.625000  0.125000  1
  Dy  Dy2  1  0.125000  0.125000  0.625000  1
  Dy  Dy3  1  0.125000  0.125000  0.125000  1
  Ge  Ge4  1  0.625000  0.125000  0.625000  1
  Mo  Mo5  1  0.125000  0.625000  0.625000  1
  Mo  Mo6  1  0.625000  0.625000  0.125000  1
  Mo  Mo7  1  0.625000  0.625000  0.625000  1
  O  O8  1  0.717915  0.721222  0.280432  1
  O  O9  1  0.306705  0.288124  0.702586  1
  O  O10  1  0.702586  0.288124  0.702586  1
  O  O11  1  0.280432  0.721222  0.280432  1
  O  O12  1  0.280432  0.721222  0.717915  1
  O  O13  1  0.702586  0.288124  0.306705  1
  O  O14  1  0.532085  0.528778  0.969568  1
  O  O15  1  0.943295  0.961876  0.547414  1
  O  O16  1  0.547414  0.961876  0.547414  1
  O  O17  1  0.969568  0.528778  0.969568  1
  O  O18  1  0.969568  0.528778  0.532085  1
  O  O19  1  0.547414  0.961876  0.943295  1
  O  O20  1  0.253202  0.240395  0.253202  1
  O  O21  1  0.996798  0.009605  0.996798  1
