# generated using pymatgen
data_Ce2HfFeF14
_symmetry_space_group_name_H-M   'P 1'
_cell_length_a   5.85947109
_cell_length_b   6.10674401
_cell_length_c   8.36035800
_cell_angle_alpha   78.81963017
_cell_angle_beta   89.88362814
_cell_angle_gamma   90.03419899
_symmetry_Int_Tables_number   1
_chemical_formula_structural   Ce2HfFeF14
_chemical_formula_sum   'Ce2 Hf1 Fe1 F14'
_cell_volume   293.47457197
_cell_formula_units_Z   1
loop_
 _symmetry_equiv_pos_site_id
 _symmetry_equiv_pos_as_xyz
  1  'x, y, z'
loop_
 _atom_site_type_symbol
 _atom_site_label
 _atom_site_symmetry_multiplicity
 _atom_site_fract_x
 _atom_site_fract_y
 _atom_site_fract_z
 _atom_site_occupancy
  Ce  Ce0  1  0.241758  0.838271  0.199007  1
  Ce  Ce1  1  0.743536  0.167248  0.814339  1
  Hf  Hf2  1  0.253451  0.695172  0.727954  1
  Fe  Fe3  1  0.746424  0.313050  0.279352  1
  F  F4  1  0.463340  0.431688  0.731919  1
  F  F5  1  0.047549  0.958877  0.705130  1
  F  F6  1  0.996562  0.470531  0.743062  1
  F  F7  1  0.002253  0.093760  0.285109  1
  F  F8  1  0.979906  0.554142  0.263882  1
  F  F9  1  0.433597  0.037132  0.976408  1
  F  F10  1  0.942445  0.947668  0.007860  1
  F  F11  1  0.248257  0.732313  0.485146  1
  F  F12  1  0.540622  0.878367  0.714984  1
  F  F13  1  0.514312  0.075585  0.285979  1
  F  F14  1  0.513957  0.557255  0.255127  1
  F  F15  1  0.743120  0.265469  0.518511  1
  F  F16  1  0.751302  0.347543  0.036089  1
  F  F17  1  0.257213  0.635927  0.970141  1
