# generated using pymatgen
data_LaNd9(PPb3)2
_symmetry_space_group_name_H-M   'P 1'
_cell_length_a   9.49879703
_cell_length_b   9.48565234
_cell_length_c   7.14532900
_cell_angle_alpha   90.00000000
_cell_angle_beta   90.00000000
_cell_angle_gamma   119.95423478
_symmetry_Int_Tables_number   1
_chemical_formula_structural   LaNd9(PPb3)2
_chemical_formula_sum   'La1 Nd9 P2 Pb6'
_cell_volume   557.81317543
_cell_formula_units_Z   1
loop_
 _symmetry_equiv_pos_site_id
 _symmetry_equiv_pos_as_xyz
  1  'x, y, z'
loop_
 _atom_site_type_symbol
 _atom_site_label
 _atom_site_symmetry_multiplicity
 _atom_site_fract_x
 _atom_site_fract_y
 _atom_site_fract_z
 _atom_site_occupancy
  La  La0  1  0.000000  0.762405  0.750000  1
  Nd  Nd1  1  0.763132  0.764508  0.250000  1
  Nd  Nd2  1  0.236868  0.001376  0.250000  1
  Nd  Nd3  1  0.000000  0.237114  0.250000  1
  Nd  Nd4  1  0.236616  0.236139  0.750000  1
  Nd  Nd5  1  0.763384  0.999523  0.750000  1
  Nd  Nd6  1  0.664966  0.331857  0.499319  1
  Nd  Nd7  1  0.335034  0.666892  0.499319  1
  Nd  Nd8  1  0.335034  0.666892  0.000681  1
  Nd  Nd9  1  0.664966  0.331857  0.000681  1
  P  P10  1  0.000000  0.001070  0.498879  1
  P  P11  1  0.000000  0.001070  0.001121  1
  Pb  Pb12  1  0.400668  0.400858  0.250000  1
  Pb  Pb13  1  0.599332  0.000190  0.250000  1
  Pb  Pb14  1  0.000000  0.598491  0.250000  1
  Pb  Pb15  1  0.595835  0.597815  0.750000  1
  Pb  Pb16  1  0.404165  0.001981  0.750000  1
  Pb  Pb17  1  0.000000  0.399965  0.750000  1
