# generated using pymatgen
data_CeEr5Co11Ni7P12
_symmetry_space_group_name_H-M   'P 1'
_cell_length_a   3.71680900
_cell_length_b   10.50720200
_cell_length_c   12.18589800
_cell_angle_alpha   90.00000000
_cell_angle_beta   90.00000000
_cell_angle_gamma   90.00000000
_symmetry_Int_Tables_number   1
_chemical_formula_structural   CeEr5Co11Ni7P12
_chemical_formula_sum   'Ce1 Er5 Co11 Ni7 P12'
_cell_volume   475.89907898
_cell_formula_units_Z   1
loop_
 _symmetry_equiv_pos_site_id
 _symmetry_equiv_pos_as_xyz
  1  'x, y, z'
loop_
 _atom_site_type_symbol
 _atom_site_label
 _atom_site_symmetry_multiplicity
 _atom_site_fract_x
 _atom_site_fract_y
 _atom_site_fract_z
 _atom_site_occupancy
  Ce  Ce0  1  0.750000  0.250000  0.472834  1
  Er  Er1  1  0.250000  0.750000  0.523690  1
  Er  Er2  1  0.250000  0.932821  0.793735  1
  Er  Er3  1  0.250000  0.567179  0.793735  1
  Er  Er4  1  0.750000  0.065878  0.205146  1
  Er  Er5  1  0.750000  0.434122  0.205146  1
  Co  Co6  1  0.250000  0.250000  0.301816  1
  Co  Co7  1  0.750000  0.750000  0.701697  1
  Co  Co8  1  0.750000  0.250000  0.014073  1
  Co  Co9  1  0.750000  0.583403  0.996047  1
  Co  Co10  1  0.750000  0.916597  0.996047  1
  Co  Co11  1  0.750000  0.550551  0.430342  1
  Co  Co12  1  0.750000  0.949449  0.430342  1
  Co  Co13  1  0.250000  0.870262  0.289412  1
  Co  Co14  1  0.250000  0.629738  0.289412  1
  Co  Co15  1  0.750000  0.126924  0.709616  1
  Co  Co16  1  0.750000  0.373076  0.709616  1
  Ni  Ni17  1  0.250000  0.250000  0.840864  1
  Ni  Ni18  1  0.750000  0.750000  0.162870  1
  Ni  Ni19  1  0.250000  0.750000  0.983626  1
  Ni  Ni20  1  0.250000  0.416876  0.004971  1
  Ni  Ni21  1  0.250000  0.083124  0.004971  1
  Ni  Ni22  1  0.250000  0.451930  0.569282  1
  Ni  Ni23  1  0.250000  0.048070  0.569282  1
  P  P24  1  0.250000  0.250000  0.122554  1
  P  P25  1  0.750000  0.750000  0.877136  1
  P  P26  1  0.250000  0.250000  0.657956  1
  P  P27  1  0.750000  0.750000  0.347746  1
  P  P28  1  0.250000  0.443486  0.381397  1
  P  P29  1  0.250000  0.056514  0.381397  1
  P  P30  1  0.750000  0.565775  0.617262  1
  P  P31  1  0.750000  0.934225  0.617262  1
  P  P32  1  0.250000  0.901822  0.108133  1
  P  P33  1  0.250000  0.598178  0.108133  1
  P  P34  1  0.750000  0.097497  0.891227  1
  P  P35  1  0.750000  0.402503  0.891227  1
