# generated using pymatgen
data_Sr2La3U5O19
_symmetry_space_group_name_H-M   'P 1'
_cell_length_a   6.88221559
_cell_length_b   7.75138130
_cell_length_c   8.75614579
_cell_angle_alpha   99.94442625
_cell_angle_beta   97.31889353
_cell_angle_gamma   107.32830684
_symmetry_Int_Tables_number   1
_chemical_formula_structural   Sr2La3U5O19
_chemical_formula_sum   'Sr2 La3 U5 O19'
_cell_volume   431.19480915
_cell_formula_units_Z   1
loop_
 _symmetry_equiv_pos_site_id
 _symmetry_equiv_pos_as_xyz
  1  'x, y, z'
loop_
 _atom_site_type_symbol
 _atom_site_label
 _atom_site_symmetry_multiplicity
 _atom_site_fract_x
 _atom_site_fract_y
 _atom_site_fract_z
 _atom_site_occupancy
  Sr  Sr0  1  0.998972  0.501669  0.999285  1
  Sr  Sr1  1  0.204934  0.905461  0.391457  1
  La  La2  1  0.801906  0.102499  0.604703  1
  La  La3  1  0.386793  0.293811  0.798986  1
  La  La4  1  0.603459  0.701523  0.202649  1
  U  U5  1  0.782163  0.598639  0.599797  1
  U  U6  1  0.596787  0.200472  0.194589  1
  U  U7  1  0.996391  0.008221  0.003877  1
  U  U8  1  0.410998  0.805850  0.811280  1
  U  U9  1  0.202127  0.387710  0.391689  1
  O  O10  1  0.329946  0.044978  0.953442  1
  O  O11  1  0.444619  0.994444  0.663264  1
  O  O12  1  0.037453  0.206791  0.864479  1
  O  O13  1  0.721536  0.388852  0.728030  1
  O  O14  1  0.151871  0.190203  0.534437  1
  O  O15  1  0.369146  0.600234  0.944678  1
  O  O16  1  0.938919  0.255585  0.175597  1
  O  O17  1  0.919864  0.411580  0.472277  1
  O  O18  1  0.753334  0.854865  0.771331  1
  O  O19  1  0.553019  0.446939  0.366347  1
  O  O20  1  0.409466  0.561960  0.625828  1
  O  O21  1  0.257905  0.144037  0.227112  1
  O  O22  1  0.072632  0.714698  0.770218  1
  O  O23  1  0.629678  0.399119  0.060753  1
  O  O24  1  0.847973  0.801147  0.466511  1
  O  O25  1  0.255513  0.605080  0.276735  1
  O  O26  1  0.951380  0.796742  0.121570  1
  O  O27  1  0.580866  0.014494  0.343644  1
  O  O28  1  0.654262  0.950037  0.043674  1
