# generated using pymatgen
data_SrNb8FeSe16
_symmetry_space_group_name_H-M   'P 1'
_cell_length_a   6.98395115
_cell_length_b   6.98460824
_cell_length_c   14.04323642
_cell_angle_alpha   89.99931867
_cell_angle_beta   90.02411015
_cell_angle_gamma   119.99950174
_symmetry_Int_Tables_number   1
_chemical_formula_structural   SrNb8FeSe16
_chemical_formula_sum   'Sr1 Nb8 Fe1 Se16'
_cell_volume   593.25746824
_cell_formula_units_Z   1
loop_
 _symmetry_equiv_pos_site_id
 _symmetry_equiv_pos_as_xyz
  1  'x, y, z'
loop_
 _atom_site_type_symbol
 _atom_site_label
 _atom_site_symmetry_multiplicity
 _atom_site_fract_x
 _atom_site_fract_y
 _atom_site_fract_z
 _atom_site_occupancy
  Sr  Sr0  1  0.000000  0.000000  0.500000  1
  Nb  Nb1  1  0.000095  0.000076  0.218747  1
  Nb  Nb2  1  0.999905  0.999924  0.781253  1
  Nb  Nb3  1  0.506140  0.012200  0.216145  1
  Nb  Nb4  1  0.987847  0.493888  0.216155  1
  Nb  Nb5  1  0.506122  0.493897  0.216168  1
  Nb  Nb6  1  0.493860  0.987800  0.783855  1
  Nb  Nb7  1  0.012153  0.506112  0.783845  1
  Nb  Nb8  1  0.493878  0.506103  0.783832  1
  Fe  Fe9  1  0.000000  0.000000  0.000000  1
  Se  Se10  1  0.333478  0.666743  0.905477  1
  Se  Se11  1  0.666522  0.333257  0.094523  1
  Se  Se12  1  0.666873  0.333379  0.340431  1
  Se  Se13  1  0.333127  0.666621  0.659569  1
  Se  Se14  1  0.169481  0.830742  0.336097  1
  Se  Se15  1  0.169497  0.338746  0.336126  1
  Se  Se16  1  0.661429  0.830708  0.336075  1
  Se  Se17  1  0.830519  0.169258  0.663903  1
  Se  Se18  1  0.830503  0.661254  0.663874  1
  Se  Se19  1  0.338571  0.169292  0.663925  1
  Se  Se20  1  0.834912  0.165192  0.899987  1
  Se  Se21  1  0.834912  0.669758  0.899997  1
  Se  Se22  1  0.330310  0.165173  0.900001  1
  Se  Se23  1  0.165088  0.834808  0.100013  1
  Se  Se24  1  0.165088  0.330242  0.100003  1
  Se  Se25  1  0.669690  0.834827  0.099999  1
