# generated using pymatgen
data_NdEu2Cu(As3Pd4)2
_symmetry_space_group_name_H-M   'P 1'
_cell_length_a   4.11313800
_cell_length_b   8.64468687
_cell_length_c   10.18436901
_cell_angle_alpha   106.83755873
_cell_angle_beta   90.00000000
_cell_angle_gamma   103.76260923
_symmetry_Int_Tables_number   1
_chemical_formula_structural   NdEu2Cu(As3Pd4)2
_chemical_formula_sum   'Nd1 Eu2 Cu1 As6 Pd8'
_cell_volume   335.72210085
_cell_formula_units_Z   1
loop_
 _symmetry_equiv_pos_site_id
 _symmetry_equiv_pos_as_xyz
  1  'x, y, z'
loop_
 _atom_site_type_symbol
 _atom_site_label
 _atom_site_symmetry_multiplicity
 _atom_site_fract_x
 _atom_site_fract_y
 _atom_site_fract_z
 _atom_site_occupancy
  Nd  Nd0  1  0.000026  0.000053  0.998862  1
  Eu  Eu1  1  0.844670  0.689340  0.299112  1
  Eu  Eu2  1  0.155324  0.310648  0.701374  1
  Cu  Cu3  1  0.955189  0.910379  0.665891  1
  As  As4  1  0.799539  0.599078  0.868359  1
  As  As5  1  0.199989  0.399977  0.131632  1
  As  As6  1  0.536499  0.072998  0.782599  1
  As  As7  1  0.461388  0.922776  0.217736  1
  As  As8  1  0.636789  0.273579  0.455128  1
  As  As9  1  0.361989  0.723978  0.545619  1
  Pd  Pd10  1  0.044165  0.088329  0.330616  1
  Pd  Pd11  1  0.783536  0.567073  0.608328  1
  Pd  Pd12  1  0.219923  0.439845  0.390825  1
  Pd  Pd13  1  0.379299  0.758597  0.798875  1
  Pd  Pd14  1  0.621719  0.243438  0.199610  1
  Pd  Pd15  1  0.499807  0.999613  0.505828  1
  Pd  Pd16  1  0.677592  0.355185  0.967914  1
  Pd  Pd17  1  0.322557  0.645115  0.031693  1
