# generated using pymatgen
data_Rb3NaSn4
_symmetry_space_group_name_H-M   'P 1'
_cell_length_a   9.16729613
_cell_length_b   9.16729632
_cell_length_c   10.92959100
_cell_angle_alpha   90.00000000
_cell_angle_beta   90.00000000
_cell_angle_gamma   135.14868777
_symmetry_Int_Tables_number   1
_chemical_formula_structural   Rb3NaSn4
_chemical_formula_sum   'Rb6 Na2 Sn8'
_cell_volume   647.80079839
_cell_formula_units_Z   2
loop_
 _symmetry_equiv_pos_site_id
 _symmetry_equiv_pos_as_xyz
  1  'x, y, z'
loop_
 _atom_site_type_symbol
 _atom_site_label
 _atom_site_symmetry_multiplicity
 _atom_site_fract_x
 _atom_site_fract_y
 _atom_site_fract_z
 _atom_site_occupancy
  Rb  Rb0  1  0.612133  0.387867  0.552960  1
  Rb  Rb1  1  0.612133  0.387867  0.947040  1
  Rb  Rb2  1  0.387867  0.612133  0.447040  1
  Rb  Rb3  1  0.387867  0.612133  0.052960  1
  Rb  Rb4  1  0.766625  0.233375  0.250000  1
  Rb  Rb5  1  0.233375  0.766625  0.750000  1
  Na  Na6  1  0.000000  0.000000  0.500000  1
  Na  Na7  1  0.000000  0.000000  0.000000  1
  Sn  Sn8  1  0.280586  0.181752  0.250000  1
  Sn  Sn9  1  0.827668  0.172332  0.884750  1
  Sn  Sn10  1  0.827668  0.172332  0.615250  1
  Sn  Sn11  1  0.181752  0.280586  0.750000  1
  Sn  Sn12  1  0.719414  0.818248  0.750000  1
  Sn  Sn13  1  0.172332  0.827668  0.384750  1
  Sn  Sn14  1  0.818248  0.719414  0.250000  1
  Sn  Sn15  1  0.172332  0.827668  0.115250  1
