# generated using pymatgen
data_Er4Hf2Sn5
_symmetry_space_group_name_H-M   'P 1'
_cell_length_a   11.29521118
_cell_length_b   11.29521087
_cell_length_c   11.29520997
_cell_angle_alpha   148.43270591
_cell_angle_beta   131.83565520
_cell_angle_gamma   58.73332088
_symmetry_Int_Tables_number   1
_chemical_formula_structural   Er4Hf2Sn5
_chemical_formula_sum   'Er8 Hf4 Sn10'
_cell_volume   557.56751940
_cell_formula_units_Z   2
loop_
 _symmetry_equiv_pos_site_id
 _symmetry_equiv_pos_as_xyz
  1  'x, y, z'
loop_
 _atom_site_type_symbol
 _atom_site_label
 _atom_site_symmetry_multiplicity
 _atom_site_fract_x
 _atom_site_fract_y
 _atom_site_fract_z
 _atom_site_occupancy
  Er  Er0  1  0.673249  0.438822  0.234427  1
  Er  Er1  1  0.326751  0.561178  0.765573  1
  Er  Er2  1  0.204396  0.938822  0.265573  1
  Er  Er3  1  0.795604  0.061178  0.734427  1
  Er  Er4  1  0.259570  0.145183  0.114387  1
  Er  Er5  1  0.740430  0.854817  0.885613  1
  Er  Er6  1  0.030794  0.645183  0.385613  1
  Er  Er7  1  0.969206  0.354817  0.614387  1
  Hf  Hf8  1  0.306222  0.556222  0.250000  1
  Hf  Hf9  1  0.693778  0.443778  0.750000  1
  Hf  Hf10  1  0.693778  0.943778  0.250000  1
  Hf  Hf11  1  0.306222  0.056222  0.750000  1
  Sn  Sn12  1  0.590555  0.289505  0.301050  1
  Sn  Sn13  1  0.409445  0.710495  0.698950  1
  Sn  Sn14  1  0.988455  0.789505  0.198950  1
  Sn  Sn15  1  0.011545  0.210495  0.801050  1
  Sn  Sn16  1  0.000000  0.250000  0.250000  1
  Sn  Sn17  1  0.000000  0.750000  0.750000  1
  Sn  Sn18  1  0.477361  0.075904  0.401456  1
  Sn  Sn19  1  0.522639  0.924096  0.598544  1
  Sn  Sn20  1  0.674447  0.575904  0.098544  1
  Sn  Sn21  1  0.325553  0.424096  0.901456  1
