# generated using pymatgen
data_Ca2Nd3P12Ru9Rh10
_symmetry_space_group_name_H-M   'P 1'
_cell_length_a   12.67008600
_cell_length_b   12.67008657
_cell_length_c   3.96604200
_cell_angle_alpha   90.00000000
_cell_angle_beta   90.00000000
_cell_angle_gamma   119.99999852
_symmetry_Int_Tables_number   1
_chemical_formula_structural   Ca2Nd3P12Ru9Rh10
_chemical_formula_sum   'Ca2 Nd3 P12 Ru9 Rh10'
_cell_volume   551.37502711
_cell_formula_units_Z   1
loop_
 _symmetry_equiv_pos_site_id
 _symmetry_equiv_pos_as_xyz
  1  'x, y, z'
loop_
 _atom_site_type_symbol
 _atom_site_label
 _atom_site_symmetry_multiplicity
 _atom_site_fract_x
 _atom_site_fract_y
 _atom_site_fract_z
 _atom_site_occupancy
  Ca  Ca0  1  0.666667  0.333333  0.000000  1
  Ca  Ca1  1  0.333333  0.666667  0.000000  1
  Nd  Nd2  1  0.000000  0.185345  0.500000  1
  Nd  Nd3  1  0.814655  0.814655  0.500000  1
  Nd  Nd4  1  0.185345  0.000000  0.500000  1
  P  P5  1  0.000000  0.813636  0.000000  1
  P  P6  1  0.186364  0.186364  0.000000  1
  P  P7  1  0.813636  0.000000  0.000000  1
  P  P8  1  0.689396  0.173899  0.500000  1
  P  P9  1  0.826101  0.515496  0.500000  1
  P  P10  1  0.484504  0.310604  0.500000  1
  P  P11  1  0.173899  0.689396  0.500000  1
  P  P12  1  0.515496  0.826101  0.500000  1
  P  P13  1  0.310604  0.484504  0.500000  1
  P  P14  1  0.000000  0.373535  0.000000  1
  P  P15  1  0.626465  0.626465  0.000000  1
  P  P16  1  0.373535  0.000000  0.000000  1
  Ru  Ru17  1  0.000000  0.711554  0.500000  1
  Ru  Ru18  1  0.288446  0.288446  0.500000  1
  Ru  Ru19  1  0.711554  0.000000  0.500000  1
  Ru  Ru20  1  0.874647  0.362511  0.500000  1
  Ru  Ru21  1  0.637489  0.512135  0.500000  1
  Ru  Ru22  1  0.487865  0.125353  0.500000  1
  Ru  Ru23  1  0.362511  0.874647  0.500000  1
  Ru  Ru24  1  0.512135  0.637489  0.500000  1
  Ru  Ru25  1  0.125353  0.487865  0.500000  1
  Rh  Rh26  1  0.000000  0.552311  0.000000  1
  Rh  Rh27  1  0.447689  0.447689  0.000000  1
  Rh  Rh28  1  0.552311  0.000000  0.000000  1
  Rh  Rh29  1  0.804839  0.183040  0.000000  1
  Rh  Rh30  1  0.816960  0.621797  0.000000  1
  Rh  Rh31  1  0.378203  0.195161  0.000000  1
  Rh  Rh32  1  0.183040  0.804839  0.000000  1
  Rh  Rh33  1  0.621797  0.816960  0.000000  1
  Rh  Rh34  1  0.195161  0.378203  0.000000  1
  Rh  Rh35  1  0.000000  0.000000  0.000000  1
