# generated using pymatgen
data_Zr8Co16Si11P
_symmetry_space_group_name_H-M   'P 1'
_cell_length_a   12.31475734
_cell_length_b   12.31475776
_cell_length_c   3.71110400
_cell_angle_alpha   90.00000000
_cell_angle_beta   90.00000000
_cell_angle_gamma   120.02676432
_symmetry_Int_Tables_number   1
_chemical_formula_structural   Zr8Co16Si11P
_chemical_formula_sum   'Zr8 Co16 Si11 P1'
_cell_volume   487.26845680
_cell_formula_units_Z   1
loop_
 _symmetry_equiv_pos_site_id
 _symmetry_equiv_pos_as_xyz
  1  'x, y, z'
loop_
 _atom_site_type_symbol
 _atom_site_label
 _atom_site_symmetry_multiplicity
 _atom_site_fract_x
 _atom_site_fract_y
 _atom_site_fract_z
 _atom_site_occupancy
  Zr  Zr0  1  0.438714  0.438714  0.000000  1
  Zr  Zr1  1  0.562653  0.000044  0.000000  1
  Zr  Zr2  1  0.000044  0.562653  0.000000  1
  Zr  Zr3  1  0.665989  0.333287  0.000000  1
  Zr  Zr4  1  0.333287  0.665989  0.000000  1
  Zr  Zr5  1  0.816723  0.816723  0.500000  1
  Zr  Zr6  1  0.184791  0.000522  0.500000  1
  Zr  Zr7  1  0.000522  0.184791  0.500000  1
  Co  Co8  1  0.192016  0.367823  0.000000  1
  Co  Co9  1  0.180028  0.807430  0.000000  1
  Co  Co10  1  0.820645  0.627822  0.000000  1
  Co  Co11  1  0.807430  0.180028  0.000000  1
  Co  Co12  1  0.367823  0.192016  0.000000  1
  Co  Co13  1  0.121142  0.480098  0.500000  1
  Co  Co14  1  0.360341  0.879931  0.500000  1
  Co  Co15  1  0.519147  0.639312  0.500000  1
  Co  Co16  1  0.639312  0.519147  0.500000  1
  Co  Co17  1  0.879931  0.360341  0.500000  1
  Co  Co18  1  0.480098  0.121142  0.500000  1
  Co  Co19  1  0.004296  0.004296  0.000000  1
  Co  Co20  1  0.723497  0.000319  0.500000  1
  Co  Co21  1  0.000319  0.723497  0.500000  1
  Co  Co22  1  0.627822  0.820645  0.000000  1
  Co  Co23  1  0.271526  0.271526  0.500000  1
  Si  Si24  1  0.650392  0.650392  0.000000  1
  Si  Si25  1  0.350685  0.000295  0.000000  1
  Si  Si26  1  0.000295  0.350685  0.000000  1
  Si  Si27  1  0.479856  0.303088  0.500000  1
  Si  Si28  1  0.697249  0.178703  0.500000  1
  Si  Si29  1  0.821612  0.518823  0.500000  1
  Si  Si30  1  0.518823  0.821612  0.500000  1
  Si  Si31  1  0.178703  0.697249  0.500000  1
  Si  Si32  1  0.823070  0.000259  0.000000  1
  Si  Si33  1  0.000259  0.823070  0.000000  1
  Si  Si34  1  0.303088  0.479856  0.500000  1
  P  P35  1  0.177869  0.177869  0.000000  1
