# generated using pymatgen
data_HoPa3MnGa12
_symmetry_space_group_name_H-M   'P 1'
_cell_length_a   7.45631182
_cell_length_b   7.50248435
_cell_length_c   7.45631314
_cell_angle_alpha   109.59672085
_cell_angle_beta   109.34544521
_cell_angle_gamma   109.59670660
_symmetry_Int_Tables_number   1
_chemical_formula_structural   HoPa3MnGa12
_chemical_formula_sum   'Ho1 Pa3 Mn1 Ga12'
_cell_volume   320.59474643
_cell_formula_units_Z   1
loop_
 _symmetry_equiv_pos_site_id
 _symmetry_equiv_pos_as_xyz
  1  'x, y, z'
loop_
 _atom_site_type_symbol
 _atom_site_label
 _atom_site_symmetry_multiplicity
 _atom_site_fract_x
 _atom_site_fract_y
 _atom_site_fract_z
 _atom_site_occupancy
  Ho  Ho0  1  0.000000  0.500000  0.000000  1
  Pa  Pa1  1  0.000000  0.000000  0.500000  1
  Pa  Pa2  1  0.500000  0.000000  0.000000  1
  Pa  Pa3  1  0.500000  0.500000  0.500000  1
  Mn  Mn4  1  0.000000  0.000000  0.000000  1
  Ga  Ga5  1  0.750174  0.250174  0.500348  1
  Ga  Ga6  1  0.750174  0.500000  0.249826  1
  Ga  Ga7  1  0.500348  0.250174  0.750174  1
  Ga  Ga8  1  0.249826  0.500000  0.750174  1
  Ga  Ga9  1  0.249826  0.749826  0.499652  1
  Ga  Ga10  1  0.499652  0.749826  0.249826  1
  Ga  Ga11  1  0.711431  0.709639  0.000000  1
  Ga  Ga12  1  0.288569  0.998208  0.288569  1
  Ga  Ga13  1  0.000000  0.290361  0.288569  1
  Ga  Ga14  1  0.288569  0.290361  0.000000  1
  Ga  Ga15  1  0.711431  0.001792  0.711431  1
  Ga  Ga16  1  0.000000  0.709639  0.711431  1
