# generated using pymatgen
data_PrTh5(GaPd)6
_symmetry_space_group_name_H-M   'P 1'
_cell_length_a   7.34118700
_cell_length_b   7.34683628
_cell_length_c   8.22683000
_cell_angle_alpha   90.00000000
_cell_angle_beta   90.00000000
_cell_angle_gamma   120.02753134
_symmetry_Int_Tables_number   1
_chemical_formula_structural   PrTh5(GaPd)6
_chemical_formula_sum   'Pr1 Th5 Ga6 Pd6'
_cell_volume   384.15744402
_cell_formula_units_Z   1
loop_
 _symmetry_equiv_pos_site_id
 _symmetry_equiv_pos_as_xyz
  1  'x, y, z'
loop_
 _atom_site_type_symbol
 _atom_site_label
 _atom_site_symmetry_multiplicity
 _atom_site_fract_x
 _atom_site_fract_y
 _atom_site_fract_z
 _atom_site_occupancy
  Pr  Pr0  1  0.999976  0.411929  0.250000  1
  Th  Th1  1  0.584739  0.583537  0.250000  1
  Th  Th2  1  0.000011  0.415615  0.750000  1
  Th  Th3  1  0.415306  0.998886  0.250000  1
  Th  Th4  1  0.415506  0.001904  0.750000  1
  Th  Th5  1  0.584475  0.586476  0.750000  1
  Ga  Ga6  1  0.240081  0.241589  0.499338  1
  Ga  Ga7  1  0.759910  0.001538  0.499304  1
  Ga  Ga8  1  0.000034  0.757266  0.499836  1
  Ga  Ga9  1  0.759910  0.001538  0.000696  1
  Ga  Ga10  1  0.240081  0.241589  0.000662  1
  Ga  Ga11  1  0.000034  0.757266  0.000164  1
  Pd  Pd12  1  0.337992  0.670811  0.502008  1
  Pd  Pd13  1  0.999942  0.000961  0.750000  1
  Pd  Pd14  1  0.999996  0.992700  0.250000  1
  Pd  Pd15  1  0.337992  0.670811  0.997992  1
  Pd  Pd16  1  0.662009  0.332793  0.502143  1
  Pd  Pd17  1  0.662009  0.332793  0.997857  1
