# generated using pymatgen
data_Tb4Tm(GeB4)2
_symmetry_space_group_name_H-M   'P 1'
_cell_length_a   7.25924200
_cell_length_b   7.25924200
_cell_length_c   8.15314400
_cell_angle_alpha   90.00000000
_cell_angle_beta   90.00000000
_cell_angle_gamma   90.00000000
_symmetry_Int_Tables_number   1
_chemical_formula_structural   Tb4Tm(GeB4)2
_chemical_formula_sum   'Tb8 Tm2 Ge4 B16'
_cell_volume   429.64292257
_cell_formula_units_Z   2
loop_
 _symmetry_equiv_pos_site_id
 _symmetry_equiv_pos_as_xyz
  1  'x, y, z'
loop_
 _atom_site_type_symbol
 _atom_site_label
 _atom_site_symmetry_multiplicity
 _atom_site_fract_x
 _atom_site_fract_y
 _atom_site_fract_z
 _atom_site_occupancy
  Tb  Tb0  1  0.680388  0.180388  0.222309  1
  Tb  Tb1  1  0.319612  0.819612  0.777691  1
  Tb  Tb2  1  0.319612  0.819612  0.222309  1
  Tb  Tb3  1  0.819612  0.680388  0.222309  1
  Tb  Tb4  1  0.819612  0.680388  0.777691  1
  Tb  Tb5  1  0.680388  0.180388  0.777691  1
  Tb  Tb6  1  0.180388  0.319612  0.777691  1
  Tb  Tb7  1  0.180388  0.319612  0.222309  1
  Tm  Tm8  1  0.000000  0.000000  0.500000  1
  Tm  Tm9  1  0.500000  0.500000  0.500000  1
  Ge  Ge10  1  0.120609  0.620609  0.500000  1
  Ge  Ge11  1  0.879391  0.379391  0.500000  1
  Ge  Ge12  1  0.379391  0.120609  0.500000  1
  Ge  Ge13  1  0.620609  0.879391  0.500000  1
  B  B14  1  0.171939  0.039424  0.000000  1
  B  B15  1  0.828061  0.960576  0.000000  1
  B  B16  1  0.960576  0.171939  0.000000  1
  B  B17  1  0.328061  0.539424  0.000000  1
  B  B18  1  0.039424  0.828061  0.000000  1
  B  B19  1  0.671939  0.460576  0.000000  1
  B  B20  1  0.539424  0.671939  0.000000  1
  B  B21  1  0.460576  0.328061  0.000000  1
  B  B22  1  0.090590  0.590590  0.000000  1
  B  B23  1  0.909410  0.409410  0.000000  1
  B  B24  1  0.409410  0.090590  0.000000  1
  B  B25  1  0.590590  0.909410  0.000000  1
  B  B26  1  0.000000  0.000000  0.161586  1
  B  B27  1  0.000000  0.000000  0.838414  1
  B  B28  1  0.500000  0.500000  0.838414  1
  B  B29  1  0.500000  0.500000  0.161586  1
