# generated using pymatgen
data_Li6Tb(BO3)3
_symmetry_space_group_name_H-M   'P 1'
_cell_length_a   16.54186000
_cell_length_b   6.72409085
_cell_length_c   7.26765600
_cell_angle_alpha   74.58800129
_cell_angle_beta   90.00000000
_cell_angle_gamma   90.00000000
_symmetry_Int_Tables_number   1
_chemical_formula_structural   Li6Tb(BO3)3
_chemical_formula_sum   'Li24 Tb4 B12 O36'
_cell_volume   779.30457684
_cell_formula_units_Z   4
loop_
 _symmetry_equiv_pos_site_id
 _symmetry_equiv_pos_as_xyz
  1  'x, y, z'
loop_
 _atom_site_type_symbol
 _atom_site_label
 _atom_site_symmetry_multiplicity
 _atom_site_fract_x
 _atom_site_fract_y
 _atom_site_fract_z
 _atom_site_occupancy
  Li  Li0  1  0.552259  0.584115  0.861821  1
  Li  Li1  1  0.052259  0.915885  0.138179  1
  Li  Li2  1  0.447741  0.415885  0.138179  1
  Li  Li3  1  0.947741  0.084115  0.861821  1
  Li  Li4  1  0.795284  0.546268  0.438969  1
  Li  Li5  1  0.295284  0.953732  0.561031  1
  Li  Li6  1  0.204716  0.453732  0.561031  1
  Li  Li7  1  0.704716  0.046268  0.438969  1
  Li  Li8  1  0.964327  0.555770  0.307266  1
  Li  Li9  1  0.464327  0.944230  0.692734  1
  Li  Li10  1  0.035673  0.444230  0.692734  1
  Li  Li11  1  0.535673  0.055770  0.307266  1
  Li  Li12  1  0.706166  0.634306  0.714409  1
  Li  Li13  1  0.206166  0.865694  0.285591  1
  Li  Li14  1  0.293834  0.365694  0.285591  1
  Li  Li15  1  0.793834  0.134306  0.714409  1
  Li  Li16  1  0.969785  0.829190  0.546974  1
  Li  Li17  1  0.469785  0.670810  0.453026  1
  Li  Li18  1  0.030215  0.170810  0.453026  1
  Li  Li19  1  0.530215  0.329190  0.546974  1
  Li  Li20  1  0.003758  0.324128  0.071253  1
  Li  Li21  1  0.503758  0.175872  0.928747  1
  Li  Li22  1  0.996242  0.675872  0.928747  1
  Li  Li23  1  0.496242  0.824128  0.071253  1
  Tb  Tb24  1  0.810094  0.347521  0.079791  1
  Tb  Tb25  1  0.310094  0.152479  0.920209  1
  Tb  Tb26  1  0.189906  0.652479  0.920209  1
  Tb  Tb27  1  0.689906  0.847521  0.079791  1
  B  B28  1  0.635313  0.338303  0.083434  1
  B  B29  1  0.135313  0.161697  0.916566  1
  B  B30  1  0.364687  0.661697  0.916566  1
  B  B31  1  0.864687  0.838303  0.083434  1
  B  B32  1  0.620587  0.999780  0.713483  1
  B  B33  1  0.120587  0.500220  0.286517  1
  B  B34  1  0.379413  0.000220  0.286517  1
  B  B35  1  0.879413  0.499780  0.713483  1
  B  B36  1  0.885061  0.189146  0.439910  1
  B  B37  1  0.385061  0.310854  0.560090  1
  B  B38  1  0.114939  0.810854  0.560090  1
  B  B39  1  0.614939  0.689146  0.439910  1
  O  O40  1  0.826256  0.027428  0.006800  1
  O  O41  1  0.326256  0.472572  0.993200  1
  O  O42  1  0.173744  0.972572  0.993200  1
  O  O43  1  0.673744  0.527428  0.006800  1
  O  O44  1  0.685001  0.166254  0.147031  1
  O  O45  1  0.185001  0.333746  0.852969  1
  O  O46  1  0.314999  0.833746  0.852969  1
  O  O47  1  0.814999  0.666254  0.147031  1
  O  O48  1  0.552929  0.323856  0.086929  1
  O  O49  1  0.052929  0.176144  0.913071  1
  O  O50  1  0.447071  0.676144  0.913071  1
  O  O51  1  0.947071  0.823856  0.086929  1
  O  O52  1  0.573813  0.958594  0.879265  1
  O  O53  1  0.073813  0.541406  0.120735  1
  O  O54  1  0.426187  0.041406  0.120735  1
  O  O55  1  0.926187  0.458594  0.879265  1
  O  O56  1  0.797889  0.443525  0.738845  1
  O  O57  1  0.297889  0.056475  0.261155  1
  O  O58  1  0.202111  0.556475  0.261155  1
  O  O59  1  0.702111  0.943525  0.738845  1
  O  O60  1  0.588204  0.087055  0.536737  1
  O  O61  1  0.088204  0.412945  0.463263  1
  O  O62  1  0.411796  0.912945  0.463263  1
  O  O63  1  0.911796  0.587055  0.536737  1
  O  O64  1  0.568418  0.771787  0.276907  1
  O  O65  1  0.068418  0.728213  0.723093  1
  O  O66  1  0.431582  0.228213  0.723093  1
  O  O67  1  0.931582  0.271787  0.276907  1
  O  O68  1  0.802234  0.227461  0.422668  1
  O  O69  1  0.302234  0.272539  0.577332  1
  O  O70  1  0.197766  0.772539  0.577332  1
  O  O71  1  0.697766  0.727461  0.422668  1
  O  O72  1  0.921870  0.076749  0.605391  1
  O  O73  1  0.421870  0.423251  0.394609  1
  O  O74  1  0.078130  0.923251  0.394609  1
  O  O75  1  0.578130  0.576749  0.605391  1
