# generated using pymatgen
data_Ac17La3Si15Sn
_symmetry_space_group_name_H-M   'P 1'
_cell_length_a   8.27877989
_cell_length_b   8.25375369
_cell_length_c   16.40850657
_cell_angle_alpha   90.15931247
_cell_angle_beta   90.07112220
_cell_angle_gamma   90.02089160
_symmetry_Int_Tables_number   1
_chemical_formula_structural   Ac17La3Si15Sn
_chemical_formula_sum   'Ac17 La3 Si15 Sn1'
_cell_volume   1121.20455368
_cell_formula_units_Z   1
loop_
 _symmetry_equiv_pos_site_id
 _symmetry_equiv_pos_as_xyz
  1  'x, y, z'
loop_
 _atom_site_type_symbol
 _atom_site_label
 _atom_site_symmetry_multiplicity
 _atom_site_fract_x
 _atom_site_fract_y
 _atom_site_fract_z
 _atom_site_occupancy
  Ac  Ac0  1  0.381985  0.471831  0.370151  1
  Ac  Ac1  1  0.867438  0.036389  0.372644  1
  Ac  Ac2  1  0.975143  0.125376  0.121332  1
  Ac  Ac3  1  0.025261  0.877209  0.626599  1
  Ac  Ac4  1  0.624024  0.523963  0.872830  1
  Ac  Ac5  1  0.477201  0.372174  0.631364  1
  Ac  Ac6  1  0.524304  0.623311  0.126658  1
  Ac  Ac7  1  0.124467  0.975201  0.878794  1
  Ac  Ac8  1  0.986502  0.618016  0.052720  1
  Ac  Ac9  1  0.012589  0.373393  0.558114  1
  Ac  Ac10  1  0.619518  0.987456  0.945352  1
  Ac  Ac11  1  0.119275  0.514763  0.805276  1
  Ac  Ac12  1  0.875931  0.480291  0.296038  1
  Ac  Ac13  1  0.514415  0.118162  0.193363  1
  Ac  Ac14  1  0.486808  0.884642  0.698587  1
  Ac  Ac15  1  0.383543  0.015800  0.444753  1
  Ac  Ac16  1  0.683496  0.692712  0.502478  1
  La  La17  1  0.810403  0.190246  0.751895  1
  La  La18  1  0.192813  0.810245  0.242104  1
  La  La19  1  0.309559  0.309140  0.999728  1
  Si  Si20  1  0.918372  0.288995  0.938998  1
  Si  Si21  1  0.714902  0.083612  0.562538  1
  Si  Si22  1  0.212551  0.418202  0.188166  1
  Si  Si23  1  0.791196  0.579904  0.692536  1
  Si  Si24  1  0.416817  0.212730  0.813540  1
  Si  Si25  1  0.580861  0.789910  0.308020  1
  Si  Si26  1  0.287651  0.918378  0.059152  1
  Si  Si27  1  0.826420  0.809150  0.790829  1
  Si  Si28  1  0.175510  0.190728  0.287110  1
  Si  Si29  1  0.808904  0.826352  0.209271  1
  Si  Si30  1  0.311282  0.668053  0.548115  1
  Si  Si31  1  0.692740  0.328316  0.038823  1
  Si  Si32  1  0.670936  0.305728  0.463487  1
  Si  Si33  1  0.328330  0.691821  0.960665  1
  Si  Si34  1  0.190943  0.173731  0.713698  1
  Sn  Sn35  1  0.077912  0.714071  0.434270  1
