# generated using pymatgen
data_YEr2Ni9
_symmetry_space_group_name_H-M   'P 1'
_cell_length_a   8.57993825
_cell_length_b   8.57993821
_cell_length_c   8.57993765
_cell_angle_alpha   33.41037307
_cell_angle_beta   33.41037302
_cell_angle_gamma   33.41037558
_symmetry_Int_Tables_number   1
_chemical_formula_structural   YEr2Ni9
_chemical_formula_sum   'Y1 Er2 Ni9'
_cell_volume   170.53493939
_cell_formula_units_Z   1
loop_
 _symmetry_equiv_pos_site_id
 _symmetry_equiv_pos_as_xyz
  1  'x, y, z'
loop_
 _atom_site_type_symbol
 _atom_site_label
 _atom_site_symmetry_multiplicity
 _atom_site_fract_x
 _atom_site_fract_y
 _atom_site_fract_z
 _atom_site_occupancy
  Y  Y0  1  0.000000  0.000000  0.000000  1
  Er  Er1  1  0.861030  0.861030  0.861030  1
  Er  Er2  1  0.138970  0.138970  0.138970  1
  Ni  Ni3  1  0.500000  0.500000  0.500000  1
  Ni  Ni4  1  0.666830  0.666830  0.666830  1
  Ni  Ni5  1  0.333170  0.333170  0.333170  1
  Ni  Ni6  1  0.416872  0.918718  0.416872  1
  Ni  Ni7  1  0.416872  0.416872  0.918718  1
  Ni  Ni8  1  0.918718  0.416872  0.416872  1
  Ni  Ni9  1  0.583128  0.081282  0.583128  1
  Ni  Ni10  1  0.583128  0.583128  0.081282  1
  Ni  Ni11  1  0.081282  0.583128  0.583128  1
