# generated using pymatgen
data_Pr4Cd4In3Ga
_symmetry_space_group_name_H-M   'P 1'
_cell_length_a   4.91180300
_cell_length_b   4.91180173
_cell_length_c   15.55177100
_cell_angle_alpha   90.00000000
_cell_angle_beta   90.00000000
_cell_angle_gamma   120.00000181
_symmetry_Int_Tables_number   1
_chemical_formula_structural   Pr4Cd4In3Ga
_chemical_formula_sum   'Pr4 Cd4 In3 Ga1'
_cell_volume   324.93182087
_cell_formula_units_Z   1
loop_
 _symmetry_equiv_pos_site_id
 _symmetry_equiv_pos_as_xyz
  1  'x, y, z'
loop_
 _atom_site_type_symbol
 _atom_site_label
 _atom_site_symmetry_multiplicity
 _atom_site_fract_x
 _atom_site_fract_y
 _atom_site_fract_z
 _atom_site_occupancy
  Pr  Pr0  1  0.000000  0.000000  0.505994  1
  Pr  Pr1  1  0.000000  0.000000  0.998676  1
  Pr  Pr2  1  0.000000  0.000000  0.252117  1
  Pr  Pr3  1  0.000000  0.000000  0.746989  1
  Cd  Cd4  1  0.333333  0.666667  0.401792  1
  Cd  Cd5  1  0.666667  0.333333  0.643922  1
  Cd  Cd6  1  0.666667  0.333333  0.849682  1
  Cd  Cd7  1  0.333333  0.666667  0.102430  1
  In  In8  1  0.333333  0.666667  0.890844  1
  In  In9  1  0.666667  0.333333  0.143041  1
  In  In10  1  0.666667  0.333333  0.360358  1
  Ga  Ga11  1  0.333333  0.666667  0.604156  1
