# generated using pymatgen
data_Nd8GaNiI10
_symmetry_space_group_name_H-M   'P 1'
_cell_length_a   4.25556500
_cell_length_b   9.12552900
_cell_length_c   19.19380200
_cell_angle_alpha   90.00000000
_cell_angle_beta   90.00000000
_cell_angle_gamma   90.00000000
_symmetry_Int_Tables_number   1
_chemical_formula_structural   Nd8GaNiI10
_chemical_formula_sum   'Nd8 Ga1 Ni1 I10'
_cell_volume   745.37751604
_cell_formula_units_Z   1
loop_
 _symmetry_equiv_pos_site_id
 _symmetry_equiv_pos_as_xyz
  1  'x, y, z'
loop_
 _atom_site_type_symbol
 _atom_site_label
 _atom_site_symmetry_multiplicity
 _atom_site_fract_x
 _atom_site_fract_y
 _atom_site_fract_z
 _atom_site_occupancy
  Nd  Nd0  1  0.000000  0.370541  0.855459  1
  Nd  Nd1  1  0.500000  0.573505  0.000000  1
  Nd  Nd2  1  0.000000  0.370541  0.144541  1
  Nd  Nd3  1  0.000000  0.849103  0.500000  1
  Nd  Nd4  1  0.500000  0.629425  0.349944  1
  Nd  Nd5  1  0.000000  0.404766  0.500000  1
  Nd  Nd6  1  0.500000  0.629425  0.650056  1
  Nd  Nd7  1  0.500000  0.170676  0.000000  1
  Ga  Ga8  1  0.500000  0.626520  0.500000  1
  Ni  Ni9  1  0.000000  0.373618  0.000000  1
  I  I10  1  0.500000  0.111942  0.168166  1
  I  I11  1  0.000000  0.368440  0.671845  1
  I  I12  1  0.000000  0.870445  0.000000  1
  I  I13  1  0.000000  0.885656  0.332796  1
  I  I14  1  0.500000  0.111942  0.831834  1
  I  I15  1  0.500000  0.635344  0.827067  1
  I  I16  1  0.000000  0.885656  0.667204  1
  I  I17  1  0.000000  0.368440  0.328155  1
  I  I18  1  0.500000  0.635344  0.172933  1
  I  I19  1  0.500000  0.128672  0.500000  1
