# generated using pymatgen
data_Dy3Ho3TmRh3
_symmetry_space_group_name_H-M   'P 1'
_cell_length_a   9.75315400
_cell_length_b   9.75315389
_cell_length_c   6.16530200
_cell_angle_alpha   90.00000000
_cell_angle_beta   90.00000000
_cell_angle_gamma   120.00000038
_symmetry_Int_Tables_number   1
_chemical_formula_structural   Dy3Ho3TmRh3
_chemical_formula_sum   'Dy6 Ho6 Tm2 Rh6'
_cell_volume   507.89641009
_cell_formula_units_Z   2
loop_
 _symmetry_equiv_pos_site_id
 _symmetry_equiv_pos_as_xyz
  1  'x, y, z'
loop_
 _atom_site_type_symbol
 _atom_site_label
 _atom_site_symmetry_multiplicity
 _atom_site_fract_x
 _atom_site_fract_y
 _atom_site_fract_z
 _atom_site_occupancy
  Dy  Dy0  1  0.123931  0.876069  0.253389  1
  Dy  Dy1  1  0.752139  0.876069  0.253389  1
  Dy  Dy2  1  0.123931  0.247861  0.253389  1
  Dy  Dy3  1  0.876069  0.123931  0.753389  1
  Dy  Dy4  1  0.247861  0.123931  0.753389  1
  Dy  Dy5  1  0.876069  0.752139  0.753389  1
  Ho  Ho6  1  0.540822  0.459178  0.447518  1
  Ho  Ho7  1  0.918356  0.459178  0.447518  1
  Ho  Ho8  1  0.540822  0.081644  0.447518  1
  Ho  Ho9  1  0.459178  0.540822  0.947518  1
  Ho  Ho10  1  0.081644  0.540822  0.947518  1
  Ho  Ho11  1  0.459178  0.918356  0.947518  1
  Tm  Tm12  1  0.333333  0.666667  0.456698  1
  Tm  Tm13  1  0.666667  0.333333  0.956698  1
  Rh  Rh14  1  0.809283  0.190717  0.180784  1
  Rh  Rh15  1  0.381433  0.190717  0.180784  1
  Rh  Rh16  1  0.809283  0.618567  0.180784  1
  Rh  Rh17  1  0.190717  0.809283  0.680784  1
  Rh  Rh18  1  0.618567  0.809283  0.680784  1
  Rh  Rh19  1  0.190717  0.381433  0.680784  1
