# generated using pymatgen
data_RbNb6SbSe12
_symmetry_space_group_name_H-M   'P 1'
_cell_length_a   6.09894600
_cell_length_b   6.09894535
_cell_length_c   15.97342500
_cell_angle_alpha   90.00000000
_cell_angle_beta   90.00000000
_cell_angle_gamma   119.99999267
_symmetry_Int_Tables_number   1
_chemical_formula_structural   RbNb6SbSe12
_chemical_formula_sum   'Rb1 Nb6 Sb1 Se12'
_cell_volume   514.56262796
_cell_formula_units_Z   1
loop_
 _symmetry_equiv_pos_site_id
 _symmetry_equiv_pos_as_xyz
  1  'x, y, z'
loop_
 _atom_site_type_symbol
 _atom_site_label
 _atom_site_symmetry_multiplicity
 _atom_site_fract_x
 _atom_site_fract_y
 _atom_site_fract_z
 _atom_site_occupancy
  Rb  Rb0  1  0.000000  0.000000  0.500000  1
  Nb  Nb1  1  0.000000  0.000000  0.773399  1
  Nb  Nb2  1  0.000000  0.000000  0.226601  1
  Nb  Nb3  1  0.333333  0.666667  0.227297  1
  Nb  Nb4  1  0.666667  0.333333  0.772703  1
  Nb  Nb5  1  0.666667  0.333333  0.227297  1
  Nb  Nb6  1  0.333333  0.666667  0.772703  1
  Sb  Sb7  1  0.000000  0.000000  0.000000  1
  Se  Se8  1  0.339606  0.000000  0.123085  1
  Se  Se9  1  0.000000  0.339606  0.123085  1
  Se  Se10  1  0.660394  0.660394  0.123085  1
  Se  Se11  1  0.334602  0.334602  0.669151  1
  Se  Se12  1  0.665398  0.665398  0.330849  1
  Se  Se13  1  0.665398  0.000000  0.669151  1
  Se  Se14  1  0.000000  0.665398  0.669151  1
  Se  Se15  1  0.000000  0.660394  0.876915  1
  Se  Se16  1  0.339606  0.339606  0.876915  1
  Se  Se17  1  0.000000  0.334602  0.330849  1
  Se  Se18  1  0.334602  0.000000  0.330849  1
  Se  Se19  1  0.660394  0.000000  0.876915  1
