# generated using pymatgen
data_RbCeB12
_symmetry_space_group_name_H-M   'P 1'
_cell_length_a   5.90513100
_cell_length_b   5.90513100
_cell_length_c   4.17146700
_cell_angle_alpha   90.00000000
_cell_angle_beta   90.00000000
_cell_angle_gamma   90.00000000
_symmetry_Int_Tables_number   1
_chemical_formula_structural   RbCeB12
_chemical_formula_sum   'Rb1 Ce1 B12'
_cell_volume   145.46144090
_cell_formula_units_Z   1
loop_
 _symmetry_equiv_pos_site_id
 _symmetry_equiv_pos_as_xyz
  1  'x, y, z'
loop_
 _atom_site_type_symbol
 _atom_site_label
 _atom_site_symmetry_multiplicity
 _atom_site_fract_x
 _atom_site_fract_y
 _atom_site_fract_z
 _atom_site_occupancy
  Rb  Rb0  1  0.000000  0.000000  0.000000  1
  Ce  Ce1  1  0.500000  0.500000  0.000000  1
  B  B2  1  0.000000  0.500000  0.201885  1
  B  B3  1  0.500000  0.000000  0.201885  1
  B  B4  1  0.149532  0.649137  0.500000  1
  B  B5  1  0.649137  0.149532  0.500000  1
  B  B6  1  0.149532  0.350863  0.500000  1
  B  B7  1  0.649137  0.850468  0.500000  1
  B  B8  1  0.850468  0.350863  0.500000  1
  B  B9  1  0.350863  0.850468  0.500000  1
  B  B10  1  0.850468  0.649137  0.500000  1
  B  B11  1  0.350863  0.149532  0.500000  1
  B  B12  1  0.000000  0.500000  0.798115  1
  B  B13  1  0.500000  0.000000  0.798115  1
