# generated using pymatgen
data_V8CoBiS16
_symmetry_space_group_name_H-M   'P 1'
_cell_length_a   6.37275800
_cell_length_b   6.37275859
_cell_length_c   13.08785500
_cell_angle_alpha   90.00000000
_cell_angle_beta   90.00000000
_cell_angle_gamma   119.99999694
_symmetry_Int_Tables_number   1
_chemical_formula_structural   V8CoBiS16
_chemical_formula_sum   'V8 Co1 Bi1 S16'
_cell_volume   460.31381975
_cell_formula_units_Z   1
loop_
 _symmetry_equiv_pos_site_id
 _symmetry_equiv_pos_as_xyz
  1  'x, y, z'
loop_
 _atom_site_type_symbol
 _atom_site_label
 _atom_site_symmetry_multiplicity
 _atom_site_fract_x
 _atom_site_fract_y
 _atom_site_fract_z
 _atom_site_occupancy
  V  V0  1  0.986574  0.493287  0.282736  1
  V  V1  1  0.013426  0.506713  0.717264  1
  V  V2  1  0.493287  0.506713  0.717264  1
  V  V3  1  0.506713  0.013426  0.282736  1
  V  V4  1  0.000000  0.000000  0.718181  1
  V  V5  1  0.000000  0.000000  0.281819  1
  V  V6  1  0.506713  0.493287  0.282736  1
  V  V7  1  0.493287  0.986574  0.717264  1
  Co  Co8  1  0.000000  0.000000  0.500000  1
  Bi  Bi9  1  0.000000  0.000000  0.000000  1
  S  S10  1  0.333333  0.666667  0.601810  1
  S  S11  1  0.666667  0.333333  0.165784  1
  S  S12  1  0.666667  0.333333  0.398190  1
  S  S13  1  0.333333  0.666667  0.834216  1
  S  S14  1  0.166319  0.332639  0.391844  1
  S  S15  1  0.832507  0.167493  0.830346  1
  S  S16  1  0.334988  0.167493  0.830346  1
  S  S17  1  0.667361  0.833681  0.391844  1
  S  S18  1  0.166319  0.833681  0.391844  1
  S  S19  1  0.832507  0.665012  0.830346  1
  S  S20  1  0.167493  0.334988  0.169654  1
  S  S21  1  0.833681  0.166319  0.608156  1
  S  S22  1  0.332639  0.166319  0.608156  1
  S  S23  1  0.665012  0.832507  0.169654  1
  S  S24  1  0.167493  0.832507  0.169654  1
  S  S25  1  0.833681  0.667361  0.608156  1
