# generated using pymatgen
data_Tb3Dy8HoRh4
_symmetry_space_group_name_H-M   'P 1'
_cell_length_a   6.29010635
_cell_length_b   7.17760184
_cell_length_c   9.51488347
_cell_angle_alpha   89.99190584
_cell_angle_beta   89.96490838
_cell_angle_gamma   89.96482122
_symmetry_Int_Tables_number   1
_chemical_formula_structural   Tb3Dy8HoRh4
_chemical_formula_sum   'Tb3 Dy8 Ho1 Rh4'
_cell_volume   429.57664118
_cell_formula_units_Z   1
loop_
 _symmetry_equiv_pos_site_id
 _symmetry_equiv_pos_as_xyz
  1  'x, y, z'
loop_
 _atom_site_type_symbol
 _atom_site_label
 _atom_site_symmetry_multiplicity
 _atom_site_fract_x
 _atom_site_fract_y
 _atom_site_fract_z
 _atom_site_occupancy
  Tb  Tb0  1  0.866031  0.533044  0.249847  1
  Tb  Tb1  1  0.634070  0.032416  0.249879  1
  Tb  Tb2  1  0.134447  0.467255  0.750123  1
  Dy  Dy3  1  0.170293  0.176685  0.437217  1
  Dy  Dy4  1  0.669986  0.323081  0.563109  1
  Dy  Dy5  1  0.829542  0.823228  0.937009  1
  Dy  Dy6  1  0.669926  0.323234  0.937028  1
  Dy  Dy7  1  0.829606  0.823255  0.563184  1
  Dy  Dy8  1  0.329956  0.676961  0.436786  1
  Dy  Dy9  1  0.170382  0.176637  0.062721  1
  Dy  Dy10  1  0.365295  0.966914  0.750170  1
  Ho  Ho11  1  0.329983  0.676921  0.063247  1
  Rh  Rh12  1  0.061655  0.882025  0.249804  1
  Rh  Rh13  1  0.438862  0.382452  0.249696  1
  Rh  Rh14  1  0.939658  0.117620  0.749921  1
  Rh  Rh15  1  0.560310  0.618273  0.750257  1
