# generated using pymatgen
data_Pr3AgIrRh3O14
_symmetry_space_group_name_H-M   'P 1'
_cell_length_a   7.47896380
_cell_length_b   7.47896405
_cell_length_c   7.26706494
_cell_angle_alpha   58.96649763
_cell_angle_beta   58.96649814
_cell_angle_gamma   59.94431085
_symmetry_Int_Tables_number   1
_chemical_formula_structural   Pr3AgIrRh3O14
_chemical_formula_sum   'Pr3 Ag1 Ir1 Rh3 O14'
_cell_volume   282.73906605
_cell_formula_units_Z   1
loop_
 _symmetry_equiv_pos_site_id
 _symmetry_equiv_pos_as_xyz
  1  'x, y, z'
loop_
 _atom_site_type_symbol
 _atom_site_label
 _atom_site_symmetry_multiplicity
 _atom_site_fract_x
 _atom_site_fract_y
 _atom_site_fract_z
 _atom_site_occupancy
  Pr  Pr0  1  0.125000  0.125000  0.125000  1
  Pr  Pr1  1  0.625000  0.125000  0.125000  1
  Pr  Pr2  1  0.125000  0.625000  0.125000  1
  Ag  Ag3  1  0.125000  0.125000  0.625000  1
  Ir  Ir4  1  0.625000  0.625000  0.625000  1
  Rh  Rh5  1  0.125000  0.625000  0.625000  1
  Rh  Rh6  1  0.625000  0.125000  0.625000  1
  Rh  Rh7  1  0.625000  0.625000  0.125000  1
  O  O8  1  0.942048  0.555988  0.552277  1
  O  O9  1  0.301738  0.301738  0.698668  1
  O  O10  1  0.957215  0.542690  0.962771  1
  O  O11  1  0.707310  0.292785  0.287229  1
  O  O12  1  0.543016  0.543016  0.957189  1
  O  O13  1  0.555988  0.942048  0.552277  1
  O  O14  1  0.542690  0.957215  0.962771  1
  O  O15  1  0.243868  0.243868  0.270313  1
  O  O16  1  0.307952  0.694012  0.697723  1
  O  O17  1  0.694012  0.307952  0.697723  1
  O  O18  1  0.006132  0.006132  0.979687  1
  O  O19  1  0.948262  0.948262  0.551332  1
  O  O20  1  0.292785  0.707310  0.287229  1
  O  O21  1  0.706984  0.706984  0.292811  1
