# generated using pymatgen
data_Cr20ReNiWC6
_symmetry_space_group_name_H-M   'P 1'
_cell_length_a   7.52630807
_cell_length_b   7.52630850
_cell_length_c   7.52630900
_cell_angle_alpha   60.00000220
_cell_angle_beta   60.00000029
_cell_angle_gamma   59.99999449
_symmetry_Int_Tables_number   1
_chemical_formula_structural   Cr20ReNiWC6
_chemical_formula_sum   'Cr20 Re1 Ni1 W1 C6'
_cell_volume   301.46093633
_cell_formula_units_Z   1
loop_
 _symmetry_equiv_pos_site_id
 _symmetry_equiv_pos_as_xyz
  1  'x, y, z'
loop_
 _atom_site_type_symbol
 _atom_site_label
 _atom_site_symmetry_multiplicity
 _atom_site_fract_x
 _atom_site_fract_y
 _atom_site_fract_z
 _atom_site_occupancy
  Cr  Cr0  1  0.617280  0.617280  0.148161  1
  Cr  Cr1  1  0.617280  0.148160  0.617280  1
  Cr  Cr2  1  0.148161  0.617280  0.617280  1
  Cr  Cr3  1  0.617280  0.617280  0.617280  1
  Cr  Cr4  1  0.384636  0.384636  0.846093  1
  Cr  Cr5  1  0.384636  0.846093  0.384636  1
  Cr  Cr6  1  0.846093  0.384636  0.384636  1
  Cr  Cr7  1  0.384636  0.384636  0.384636  1
  Cr  Cr8  1  0.000189  0.000189  0.332700  1
  Cr  Cr9  1  0.666923  0.000189  0.332700  1
  Cr  Cr10  1  0.000189  0.666923  0.332700  1
  Cr  Cr11  1  0.666923  0.332700  0.000189  1
  Cr  Cr12  1  0.000189  0.332700  0.000189  1
  Cr  Cr13  1  0.000189  0.332700  0.666923  1
  Cr  Cr14  1  0.332700  0.666923  0.000189  1
  Cr  Cr15  1  0.332700  0.000189  0.666923  1
  Cr  Cr16  1  0.332700  0.000189  0.000189  1
  Cr  Cr17  1  0.000189  0.000189  0.666923  1
  Cr  Cr18  1  0.000189  0.666923  0.000189  1
  Cr  Cr19  1  0.666923  0.000189  0.000189  1
  Re  Re20  1  0.750000  0.750000  0.750000  1
  Ni  Ni21  1  0.000000  0.000000  0.000000  1
  W  W22  1  0.250000  0.250000  0.250000  1
  C  C23  1  0.723699  0.723699  0.276301  1
  C  C24  1  0.276301  0.723699  0.276301  1
  C  C25  1  0.723699  0.276301  0.276301  1
  C  C26  1  0.276301  0.276301  0.723699  1
  C  C27  1  0.723699  0.276301  0.723699  1
  C  C28  1  0.276301  0.723699  0.723699  1
