# generated using pymatgen
data_Sc(NbSe2)4
_symmetry_space_group_name_H-M   'P 1'
_cell_length_a   7.00844500
_cell_length_b   7.00844439
_cell_length_c   13.57564900
_cell_angle_alpha   90.00000000
_cell_angle_beta   90.00000000
_cell_angle_gamma   119.99999814
_symmetry_Int_Tables_number   1
_chemical_formula_structural   Sc(NbSe2)4
_chemical_formula_sum   'Sc2 Nb8 Se16'
_cell_volume   577.47680100
_cell_formula_units_Z   2
loop_
 _symmetry_equiv_pos_site_id
 _symmetry_equiv_pos_as_xyz
  1  'x, y, z'
loop_
 _atom_site_type_symbol
 _atom_site_label
 _atom_site_symmetry_multiplicity
 _atom_site_fract_x
 _atom_site_fract_y
 _atom_site_fract_z
 _atom_site_occupancy
  Sc  Sc0  1  0.000000  0.000000  0.000000  1
  Sc  Sc1  1  0.000000  0.000000  0.500000  1
  Nb  Nb2  1  0.985727  0.492863  0.250000  1
  Nb  Nb3  1  0.014273  0.507137  0.750000  1
  Nb  Nb4  1  0.492863  0.507137  0.750000  1
  Nb  Nb5  1  0.507137  0.014273  0.250000  1
  Nb  Nb6  1  0.000000  0.000000  0.750000  1
  Nb  Nb7  1  0.000000  0.000000  0.250000  1
  Nb  Nb8  1  0.507137  0.492863  0.250000  1
  Nb  Nb9  1  0.492863  0.985727  0.750000  1
  Se  Se10  1  0.333333  0.666667  0.622673  1
  Se  Se11  1  0.666667  0.333333  0.122673  1
  Se  Se12  1  0.666667  0.333333  0.377327  1
  Se  Se13  1  0.333333  0.666667  0.877327  1
  Se  Se14  1  0.169379  0.338759  0.372607  1
  Se  Se15  1  0.830621  0.169379  0.872607  1
  Se  Se16  1  0.338759  0.169379  0.872607  1
  Se  Se17  1  0.661241  0.830621  0.372607  1
  Se  Se18  1  0.169379  0.830621  0.372607  1
  Se  Se19  1  0.830621  0.661241  0.872607  1
  Se  Se20  1  0.169379  0.338759  0.127393  1
  Se  Se21  1  0.830621  0.169379  0.627393  1
  Se  Se22  1  0.338759  0.169379  0.627393  1
  Se  Se23  1  0.661241  0.830621  0.127393  1
  Se  Se24  1  0.169379  0.830621  0.127393  1
  Se  Se25  1  0.830621  0.661241  0.627393  1
