# generated using pymatgen
data_Ho3Er2InSb2
_symmetry_space_group_name_H-M   'P 1'
_cell_length_a   8.91984414
_cell_length_b   8.91779241
_cell_length_c   6.40355600
_cell_angle_alpha   90.00000000
_cell_angle_beta   90.00000000
_cell_angle_gamma   119.99239275
_symmetry_Int_Tables_number   1
_chemical_formula_structural   Ho3Er2InSb2
_chemical_formula_sum   'Ho6 Er4 In2 Sb4'
_cell_volume   441.16368324
_cell_formula_units_Z   2
loop_
 _symmetry_equiv_pos_site_id
 _symmetry_equiv_pos_as_xyz
  1  'x, y, z'
loop_
 _atom_site_type_symbol
 _atom_site_label
 _atom_site_symmetry_multiplicity
 _atom_site_fract_x
 _atom_site_fract_y
 _atom_site_fract_z
 _atom_site_occupancy
  Ho  Ho0  1  0.002244  0.760425  0.750000  1
  Ho  Ho1  1  0.002244  0.241820  0.250000  1
  Ho  Ho2  1  0.758371  0.759679  0.250000  1
  Ho  Ho3  1  0.758371  0.998692  0.750000  1
  Ho  Ho4  1  0.240728  0.237349  0.750000  1
  Ho  Ho5  1  0.240728  0.003380  0.250000  1
  Er  Er6  1  0.334421  0.667211  0.500000  1
  Er  Er7  1  0.663323  0.331661  0.000000  1
  Er  Er8  1  0.663323  0.331661  0.500000  1
  Er  Er9  1  0.334421  0.667211  0.000000  1
  In  In10  1  0.395231  0.998354  0.750000  1
  In  In11  1  0.395231  0.396877  0.250000  1
  Sb  Sb12  1  0.999032  0.607146  0.250000  1
  Sb  Sb13  1  0.999032  0.391886  0.750000  1
  Sb  Sb14  1  0.606650  0.606289  0.750000  1
  Sb  Sb15  1  0.606650  0.000361  0.250000  1
