# generated using pymatgen
data_YbPa3(Al3Ir)6
_symmetry_space_group_name_H-M   'P 1'
_cell_length_a   7.61070310
_cell_length_b   7.61098514
_cell_length_c   9.37409800
_cell_angle_alpha   90.00000000
_cell_angle_beta   90.00000000
_cell_angle_gamma   119.62188208
_symmetry_Int_Tables_number   1
_chemical_formula_structural   YbPa3(Al3Ir)6
_chemical_formula_sum   'Yb1 Pa3 Al18 Ir6'
_cell_volume   472.02818580
_cell_formula_units_Z   1
loop_
 _symmetry_equiv_pos_site_id
 _symmetry_equiv_pos_as_xyz
  1  'x, y, z'
loop_
 _atom_site_type_symbol
 _atom_site_label
 _atom_site_symmetry_multiplicity
 _atom_site_fract_x
 _atom_site_fract_y
 _atom_site_fract_z
 _atom_site_occupancy
  Yb  Yb0  1  0.329113  0.005379  0.750000  1
  Pa  Pa1  1  0.996210  0.670311  0.250000  1
  Pa  Pa2  1  0.001272  0.328556  0.750000  1
  Pa  Pa3  1  0.672932  0.997562  0.250000  1
  Al  Al4  1  0.132613  0.130960  0.250000  1
  Al  Al5  1  0.871840  0.873440  0.750000  1
  Al  Al6  1  0.004557  0.335722  0.075330  1
  Al  Al7  1  0.001353  0.668871  0.921753  1
  Al  Al8  1  0.001353  0.668871  0.578247  1
  Al  Al9  1  0.335362  0.003468  0.428220  1
  Al  Al10  1  0.004557  0.335722  0.424670  1
  Al  Al11  1  0.660207  0.996321  0.578318  1
  Al  Al12  1  0.660207  0.996321  0.921682  1
  Al  Al13  1  0.335362  0.003468  0.071780  1
  Al  Al14  1  0.334525  0.331789  0.556757  1
  Al  Al15  1  0.663944  0.663671  0.449185  1
  Al  Al16  1  0.663944  0.663671  0.050815  1
  Al  Al17  1  0.334525  0.331789  0.943243  1
  Al  Al18  1  0.341880  0.547262  0.250000  1
  Al  Al19  1  0.660397  0.450741  0.750000  1
  Al  Al20  1  0.545936  0.340123  0.250000  1
  Al  Al21  1  0.448731  0.656755  0.750000  1
  Ir  Ir22  1  0.676162  0.329022  0.001817  1
  Ir  Ir23  1  0.327150  0.672066  0.002348  1
  Ir  Ir24  1  0.327150  0.672066  0.497652  1
  Ir  Ir25  1  0.676162  0.329022  0.498183  1
  Ir  Ir26  1  0.996279  0.998524  0.002836  1
  Ir  Ir27  1  0.996279  0.998524  0.497164  1
