# generated using pymatgen
data_NdPa3(AsSe)4
_symmetry_space_group_name_H-M   'P 1'
_cell_length_a   4.02326944
_cell_length_b   4.02332999
_cell_length_c   17.00489601
_cell_angle_alpha   89.99642240
_cell_angle_beta   89.99588154
_cell_angle_gamma   89.99730632
_symmetry_Int_Tables_number   1
_chemical_formula_structural   NdPa3(AsSe)4
_chemical_formula_sum   'Nd1 Pa3 As4 Se4'
_cell_volume   275.25723963
_cell_formula_units_Z   1
loop_
 _symmetry_equiv_pos_site_id
 _symmetry_equiv_pos_as_xyz
  1  'x, y, z'
loop_
 _atom_site_type_symbol
 _atom_site_label
 _atom_site_symmetry_multiplicity
 _atom_site_fract_x
 _atom_site_fract_y
 _atom_site_fract_z
 _atom_site_occupancy
  Nd  Nd0  1  0.747977  0.747978  0.365589  1
  Pa  Pa1  1  0.247793  0.247795  0.131867  1
  Pa  Pa2  1  0.252128  0.252126  0.637510  1
  Pa  Pa3  1  0.751885  0.751884  0.865371  1
  As  As4  1  0.751531  0.249696  0.506623  1
  As  As5  1  0.748850  0.250860  0.998179  1
  As  As6  1  0.249695  0.751531  0.506623  1
  As  As7  1  0.250860  0.748850  0.998179  1
  Se  Se8  1  0.247616  0.247617  0.309426  1
  Se  Se9  1  0.251828  0.251828  0.819161  1
  Se  Se10  1  0.751991  0.751990  0.685276  1
  Se  Se11  1  0.747847  0.747845  0.176193  1
