# generated using pymatgen
data_La5Si3H
_symmetry_space_group_name_H-M   'P 1'
_cell_length_a   9.00867472
_cell_length_b   9.00867445
_cell_length_c   9.00867423
_cell_angle_alpha   127.10621048
_cell_angle_beta   127.10620659
_cell_angle_gamma   78.07747732
_symmetry_Int_Tables_number   1
_chemical_formula_structural   La5Si3H
_chemical_formula_sum   'La10 Si6 H2'
_cell_volume   450.55275263
_cell_formula_units_Z   2
loop_
 _symmetry_equiv_pos_site_id
 _symmetry_equiv_pos_as_xyz
  1  'x, y, z'
loop_
 _atom_site_type_symbol
 _atom_site_label
 _atom_site_symmetry_multiplicity
 _atom_site_fract_x
 _atom_site_fract_y
 _atom_site_fract_z
 _atom_site_occupancy
  La  La0  1  0.500000  0.500000  0.000000  1
  La  La1  1  0.000000  0.000000  0.000000  1
  La  La2  1  0.525350  0.025350  0.848835  1
  La  La3  1  0.176516  0.676516  0.151165  1
  La  La4  1  0.025350  0.176516  0.500000  1
  La  La5  1  0.676516  0.525350  0.500000  1
  La  La6  1  0.474650  0.974650  0.151165  1
  La  La7  1  0.823484  0.323484  0.848835  1
  La  La8  1  0.974650  0.823484  0.500000  1
  La  La9  1  0.323484  0.474650  0.500000  1
  Si  Si10  1  0.250000  0.250000  0.000000  1
  Si  Si11  1  0.750000  0.750000  0.000000  1
  Si  Si12  1  0.887090  0.387090  0.274180  1
  Si  Si13  1  0.112910  0.612910  0.725820  1
  Si  Si14  1  0.387090  0.112910  0.500000  1
  Si  Si15  1  0.612910  0.887090  0.500000  1
  H  H16  1  0.250000  0.750000  0.500000  1
  H  H17  1  0.750000  0.250000  0.500000  1
