# generated using pymatgen
data_Lu3Sc2AlPt3
_symmetry_space_group_name_H-M   'P 1'
_cell_length_a   7.12084952
_cell_length_b   7.12084858
_cell_length_c   4.33656100
_cell_angle_alpha   90.00000000
_cell_angle_beta   90.00000000
_cell_angle_gamma   121.15787540
_symmetry_Int_Tables_number   1
_chemical_formula_structural   Lu3Sc2AlPt3
_chemical_formula_sum   'Lu3 Sc2 Al1 Pt3'
_cell_volume   188.17127717
_cell_formula_units_Z   1
loop_
 _symmetry_equiv_pos_site_id
 _symmetry_equiv_pos_as_xyz
  1  'x, y, z'
loop_
 _atom_site_type_symbol
 _atom_site_label
 _atom_site_symmetry_multiplicity
 _atom_site_fract_x
 _atom_site_fract_y
 _atom_site_fract_z
 _atom_site_occupancy
  Lu  Lu0  1  0.587297  0.981941  0.500001  1
  Lu  Lu1  1  0.426810  0.426810  0.500001  1
  Lu  Lu2  1  0.981941  0.587298  0.500001  1
  Sc  Sc3  1  0.246033  0.992180  0.000000  1
  Sc  Sc4  1  0.992180  0.246034  0.000000  1
  Al  Al5  1  0.753679  0.753680  0.000000  1
  Pt  Pt6  1  0.663912  0.343135  0.000000  1
  Pt  Pt7  1  0.343135  0.663912  0.000000  1
  Pt  Pt8  1  0.005012  0.005012  0.500001  1
