# generated using pymatgen
data_BaSr2FeO4F
_symmetry_space_group_name_H-M   'P 1'
_cell_length_a   7.63041433
_cell_length_b   7.63041518
_cell_length_c   7.63041501
_cell_angle_alpha   125.44597909
_cell_angle_beta   125.44598134
_cell_angle_gamma   80.80063566
_symmetry_Int_Tables_number   1
_chemical_formula_structural   BaSr2FeO4F
_chemical_formula_sum   'Ba2 Sr4 Fe2 O8 F2'
_cell_volume   284.23693467
_cell_formula_units_Z   2
loop_
 _symmetry_equiv_pos_site_id
 _symmetry_equiv_pos_as_xyz
  1  'x, y, z'
loop_
 _atom_site_type_symbol
 _atom_site_label
 _atom_site_symmetry_multiplicity
 _atom_site_fract_x
 _atom_site_fract_y
 _atom_site_fract_z
 _atom_site_occupancy
  Ba  Ba0  1  0.250000  0.250000  0.000000  1
  Ba  Ba1  1  0.750000  0.750000  0.000000  1
  Sr  Sr2  1  0.832239  0.332239  0.164480  1
  Sr  Sr3  1  0.332239  0.167761  0.500000  1
  Sr  Sr4  1  0.667761  0.832239  0.500000  1
  Sr  Sr5  1  0.167761  0.667761  0.835520  1
  Fe  Fe6  1  0.750000  0.250000  0.500000  1
  Fe  Fe7  1  0.250000  0.750000  0.500000  1
  O  O8  1  0.496681  0.996681  0.210443  1
  O  O9  1  0.213761  0.713761  0.210443  1
  O  O10  1  0.503319  0.003319  0.789557  1
  O  O11  1  0.003319  0.213761  0.500000  1
  O  O12  1  0.713761  0.503319  0.500000  1
  O  O13  1  0.996681  0.786239  0.500000  1
  O  O14  1  0.286239  0.496681  0.500000  1
  O  O15  1  0.786239  0.286239  0.789557  1
  F  F16  1  0.500000  0.500000  0.000000  1
  F  F17  1  0.000000  0.000000  0.000000  1
