# generated using pymatgen
data_Dy2Mn7V(FeP3)2
_symmetry_space_group_name_H-M   'P 1'
_cell_length_a   3.62242600
_cell_length_b   10.55638900
_cell_length_c   12.23548900
_cell_angle_alpha   90.00000000
_cell_angle_beta   90.00000000
_cell_angle_gamma   90.00000000
_symmetry_Int_Tables_number   1
_chemical_formula_structural   Dy2Mn7V(FeP3)2
_chemical_formula_sum   'Dy4 Mn14 V2 Fe4 P12'
_cell_volume   467.88189341
_cell_formula_units_Z   2
loop_
 _symmetry_equiv_pos_site_id
 _symmetry_equiv_pos_as_xyz
  1  'x, y, z'
loop_
 _atom_site_type_symbol
 _atom_site_label
 _atom_site_symmetry_multiplicity
 _atom_site_fract_x
 _atom_site_fract_y
 _atom_site_fract_z
 _atom_site_occupancy
  Dy  Dy0  1  0.250000  0.583232  0.708351  1
  Dy  Dy1  1  0.250000  0.916768  0.208351  1
  Dy  Dy2  1  0.750000  0.417640  0.292014  1
  Dy  Dy3  1  0.750000  0.082360  0.792014  1
  Mn  Mn4  1  0.750000  0.294522  0.011652  1
  Mn  Mn5  1  0.750000  0.205478  0.511652  1
  Mn  Mn6  1  0.250000  0.405604  0.493957  1
  Mn  Mn7  1  0.250000  0.094396  0.993957  1
  Mn  Mn8  1  0.750000  0.589077  0.507919  1
  Mn  Mn9  1  0.750000  0.910923  0.007919  1
  Mn  Mn10  1  0.250000  0.218249  0.175518  1
  Mn  Mn11  1  0.250000  0.281751  0.675518  1
  Mn  Mn12  1  0.750000  0.782677  0.823393  1
  Mn  Mn13  1  0.750000  0.717323  0.323393  1
  Mn  Mn14  1  0.250000  0.877671  0.698216  1
  Mn  Mn15  1  0.250000  0.622329  0.198216  1
  Mn  Mn16  1  0.750000  0.124381  0.301263  1
  Mn  Mn17  1  0.750000  0.375619  0.801263  1
  V  V18  1  0.250000  0.702872  0.986482  1
  V  V19  1  0.250000  0.797128  0.486482  1
  Fe  Fe20  1  0.250000  0.460504  0.935304  1
  Fe  Fe21  1  0.250000  0.039496  0.435304  1
  Fe  Fe22  1  0.750000  0.534656  0.065343  1
  Fe  Fe23  1  0.750000  0.965344  0.565343  1
  P  P24  1  0.250000  0.422842  0.112234  1
  P  P25  1  0.250000  0.077158  0.612234  1
  P  P26  1  0.750000  0.575357  0.888166  1
  P  P27  1  0.750000  0.924643  0.388166  1
  P  P28  1  0.250000  0.264478  0.870545  1
  P  P29  1  0.250000  0.235522  0.370545  1
  P  P30  1  0.750000  0.733750  0.128834  1
  P  P31  1  0.750000  0.766250  0.628834  1
  P  P32  1  0.250000  0.592907  0.387169  1
  P  P33  1  0.250000  0.907093  0.887169  1
  P  P34  1  0.750000  0.403699  0.613638  1
  P  P35  1  0.750000  0.096301  0.113638  1
