# generated using pymatgen
data_Tb3Pr3Co16(P6Ru)2
_symmetry_space_group_name_H-M   'P 1'
_cell_length_a   3.75593400
_cell_length_b   10.62763593
_cell_length_c   12.37832907
_cell_angle_alpha   90.04775094
_cell_angle_beta   90.00000000
_cell_angle_gamma   90.00000000
_symmetry_Int_Tables_number   1
_chemical_formula_structural   Tb3Pr3Co16(P6Ru)2
_chemical_formula_sum   'Tb3 Pr3 Co16 P12 Ru2'
_cell_volume   494.10186546
_cell_formula_units_Z   1
loop_
 _symmetry_equiv_pos_site_id
 _symmetry_equiv_pos_as_xyz
  1  'x, y, z'
loop_
 _atom_site_type_symbol
 _atom_site_label
 _atom_site_symmetry_multiplicity
 _atom_site_fract_x
 _atom_site_fract_y
 _atom_site_fract_z
 _atom_site_occupancy
  Tb  Tb0  1  0.500000  0.184679  0.205238  1
  Tb  Tb1  1  0.000000  0.682892  0.794714  1
  Tb  Tb2  1  0.000000  0.316478  0.793834  1
  Pr  Pr3  1  0.000000  0.499702  0.525095  1
  Pr  Pr4  1  0.500000  0.000474  0.475910  1
  Pr  Pr5  1  0.500000  0.817406  0.206437  1
  Co  Co6  1  0.500000  0.499404  0.707493  1
  Co  Co7  1  0.000000  0.003789  0.292824  1
  Co  Co8  1  0.000000  0.498387  0.985268  1
  Co  Co9  1  0.500000  0.001799  0.011465  1
  Co  Co10  1  0.500000  0.332083  0.990215  1
  Co  Co11  1  0.500000  0.666195  0.989908  1
  Co  Co12  1  0.000000  0.169363  0.007857  1
  Co  Co13  1  0.000000  0.832727  0.006203  1
  Co  Co14  1  0.500000  0.296995  0.429370  1
  Co  Co15  1  0.500000  0.702268  0.432140  1
  Co  Co16  1  0.000000  0.203324  0.570996  1
  Co  Co17  1  0.000000  0.797068  0.573276  1
  Co  Co18  1  0.500000  0.880148  0.712044  1
  Co  Co19  1  0.500000  0.119901  0.710570  1
  Co  Co20  1  0.000000  0.617197  0.290842  1
  Co  Co21  1  0.000000  0.379462  0.288907  1
  P  P22  1  0.500000  0.499120  0.883165  1
  P  P23  1  0.000000  0.003055  0.113773  1
  P  P24  1  0.500000  0.500110  0.345116  1
  P  P25  1  0.000000  0.999672  0.655263  1
  P  P26  1  0.500000  0.306945  0.617453  1
  P  P27  1  0.500000  0.692512  0.618984  1
  P  P28  1  0.000000  0.193699  0.382606  1
  P  P29  1  0.000000  0.805493  0.387492  1
  P  P30  1  0.500000  0.846317  0.894949  1
  P  P31  1  0.500000  0.154124  0.893695  1
  P  P32  1  0.000000  0.650793  0.102673  1
  P  P33  1  0.000000  0.346963  0.104863  1
  Ru  Ru34  1  0.500000  0.498183  0.156704  1
  Ru  Ru35  1  0.000000  0.001272  0.842661  1
