# generated using pymatgen
data_Yb4IrRu3O14
_symmetry_space_group_name_H-M   'P 1'
_cell_length_a   7.21189711
_cell_length_b   7.21189697
_cell_length_c   7.21189728
_cell_angle_alpha   60.17260104
_cell_angle_beta   60.17259952
_cell_angle_gamma   60.17260354
_symmetry_Int_Tables_number   1
_chemical_formula_structural   Yb4IrRu3O14
_chemical_formula_sum   'Yb4 Ir1 Ru3 O14'
_cell_volume   266.27348867
_cell_formula_units_Z   1
loop_
 _symmetry_equiv_pos_site_id
 _symmetry_equiv_pos_as_xyz
  1  'x, y, z'
loop_
 _atom_site_type_symbol
 _atom_site_label
 _atom_site_symmetry_multiplicity
 _atom_site_fract_x
 _atom_site_fract_y
 _atom_site_fract_z
 _atom_site_occupancy
  Yb  Yb0  1  0.125000  0.125000  0.125000  1
  Yb  Yb1  1  0.625000  0.125000  0.125000  1
  Yb  Yb2  1  0.125000  0.125000  0.625000  1
  Yb  Yb3  1  0.125000  0.625000  0.125000  1
  Ir  Ir4  1  0.625000  0.625000  0.625000  1
  Ru  Ru5  1  0.125000  0.625000  0.625000  1
  Ru  Ru6  1  0.625000  0.625000  0.125000  1
  Ru  Ru7  1  0.625000  0.125000  0.625000  1
  O  O8  1  0.999901  0.999901  0.999901  1
  O  O9  1  0.250099  0.250099  0.250099  1
  O  O10  1  0.305652  0.305652  0.696567  1
  O  O11  1  0.549912  0.549912  0.950189  1
  O  O12  1  0.700088  0.299811  0.700088  1
  O  O13  1  0.696567  0.305652  0.305652  1
  O  O14  1  0.299811  0.700088  0.700088  1
  O  O15  1  0.305652  0.696567  0.305652  1
  O  O16  1  0.700088  0.700088  0.299811  1
  O  O17  1  0.950189  0.549912  0.549912  1
  O  O18  1  0.553433  0.944348  0.944348  1
  O  O19  1  0.944348  0.944348  0.553433  1
  O  O20  1  0.944348  0.553433  0.944348  1
  O  O21  1  0.549912  0.950189  0.549912  1
