# generated using pymatgen
data_K2Rb6TiBi4
_symmetry_space_group_name_H-M   'P 1'
_cell_length_a   12.09131529
_cell_length_b   12.09131496
_cell_length_c   12.09131500
_cell_angle_alpha   59.99999716
_cell_angle_beta   59.99999805
_cell_angle_gamma   59.99999781
_symmetry_Int_Tables_number   1
_chemical_formula_structural   K2Rb6TiBi4
_chemical_formula_sum   'K4 Rb12 Ti2 Bi8'
_cell_volume   1249.98728315
_cell_formula_units_Z   2
loop_
 _symmetry_equiv_pos_site_id
 _symmetry_equiv_pos_as_xyz
  1  'x, y, z'
loop_
 _atom_site_type_symbol
 _atom_site_label
 _atom_site_symmetry_multiplicity
 _atom_site_fract_x
 _atom_site_fract_y
 _atom_site_fract_z
 _atom_site_occupancy
  K  K0  1  0.625000  0.125000  0.625000  1
  K  K1  1  0.625000  0.625000  0.125000  1
  K  K2  1  0.125000  0.625000  0.625000  1
  K  K3  1  0.625000  0.625000  0.625000  1
  Rb  Rb4  1  0.025221  0.025221  0.474779  1
  Rb  Rb5  1  0.775221  0.224779  0.224779  1
  Rb  Rb6  1  0.224779  0.775221  0.775221  1
  Rb  Rb7  1  0.775221  0.775221  0.224779  1
  Rb  Rb8  1  0.775221  0.224779  0.775221  1
  Rb  Rb9  1  0.224779  0.775221  0.224779  1
  Rb  Rb10  1  0.474779  0.025221  0.474779  1
  Rb  Rb11  1  0.474779  0.025221  0.025221  1
  Rb  Rb12  1  0.025221  0.474779  0.474779  1
  Rb  Rb13  1  0.025221  0.474779  0.025221  1
  Rb  Rb14  1  0.224779  0.224779  0.775221  1
  Rb  Rb15  1  0.474779  0.474779  0.025221  1
  Ti  Ti16  1  0.750000  0.750000  0.750000  1
  Ti  Ti17  1  0.500000  0.500000  0.500000  1
  Bi  Bi18  1  0.403560  0.789318  0.403560  1
  Bi  Bi19  1  0.846440  0.846440  0.460682  1
  Bi  Bi20  1  0.460682  0.846440  0.846440  1
  Bi  Bi21  1  0.846440  0.846440  0.846440  1
  Bi  Bi22  1  0.789318  0.403560  0.403560  1
  Bi  Bi23  1  0.403560  0.403560  0.403560  1
  Bi  Bi24  1  0.403560  0.403560  0.789318  1
  Bi  Bi25  1  0.846440  0.460682  0.846440  1
