# generated using pymatgen
data_Ac2B8OsRu7
_symmetry_space_group_name_H-M   'P 1'
_cell_length_a   7.69997744
_cell_length_b   7.69316020
_cell_length_c   4.01544124
_cell_angle_alpha   90.01086237
_cell_angle_beta   90.12064377
_cell_angle_gamma   89.93682920
_symmetry_Int_Tables_number   1
_chemical_formula_structural   Ac2B8OsRu7
_chemical_formula_sum   'Ac2 B8 Os1 Ru7'
_cell_volume   237.86265928
_cell_formula_units_Z   1
loop_
 _symmetry_equiv_pos_site_id
 _symmetry_equiv_pos_as_xyz
  1  'x, y, z'
loop_
 _atom_site_type_symbol
 _atom_site_label
 _atom_site_symmetry_multiplicity
 _atom_site_fract_x
 _atom_site_fract_y
 _atom_site_fract_z
 _atom_site_occupancy
  Ac  Ac0  1  0.500109  0.501382  0.999874  1
  Ac  Ac1  1  0.999321  0.999837  0.502404  1
  B  B2  1  0.667036  0.787189  0.607465  1
  B  B3  1  0.285033  0.835804  0.107546  1
  B  B4  1  0.834055  0.711889  0.892002  1
  B  B5  1  0.212490  0.666406  0.392001  1
  B  B6  1  0.787789  0.333762  0.391985  1
  B  B7  1  0.166407  0.285675  0.892592  1
  B  B8  1  0.712253  0.166824  0.108069  1
  B  B9  1  0.332653  0.211806  0.607015  1
  Os  Os10  1  0.356446  0.105987  0.106634  1
  Ru  Ru11  1  0.394239  0.855754  0.607021  1
  Ru  Ru12  1  0.106806  0.644098  0.892819  1
  Ru  Ru13  1  0.143889  0.393351  0.392942  1
  Ru  Ru14  1  0.856615  0.606818  0.392480  1
  Ru  Ru15  1  0.892876  0.356039  0.892934  1
  Ru  Ru16  1  0.644700  0.893113  0.107337  1
  Ru  Ru17  1  0.607283  0.144268  0.606879  1
