# generated using pymatgen
data_La15Nd(MgTc)4
_symmetry_space_group_name_H-M   'P 1'
_cell_length_a   10.14989041
_cell_length_b   10.14890482
_cell_length_c   10.14880439
_cell_angle_alpha   60.00170309
_cell_angle_beta   59.97392220
_cell_angle_gamma   60.00754266
_symmetry_Int_Tables_number   1
_chemical_formula_structural   La15Nd(MgTc)4
_chemical_formula_sum   'La15 Nd1 Mg4 Tc4'
_cell_volume   739.13723357
_cell_formula_units_Z   1
loop_
 _symmetry_equiv_pos_site_id
 _symmetry_equiv_pos_as_xyz
  1  'x, y, z'
loop_
 _atom_site_type_symbol
 _atom_site_label
 _atom_site_symmetry_multiplicity
 _atom_site_fract_x
 _atom_site_fract_y
 _atom_site_fract_z
 _atom_site_occupancy
  La  La0  1  0.187870  0.186609  0.811752  1
  La  La1  1  0.555126  0.559733  0.941479  1
  La  La2  1  0.970092  0.343469  0.342992  1
  La  La3  1  0.813868  0.186147  0.813848  1
  La  La4  1  0.188215  0.811783  0.188228  1
  La  La5  1  0.343013  0.343449  0.970069  1
  La  La6  1  0.343334  0.970418  0.343350  1
  La  La7  1  0.941470  0.943710  0.555108  1
  La  La8  1  0.941509  0.559706  0.555099  1
  La  La9  1  0.343366  0.342871  0.343347  1
  La  La10  1  0.811768  0.813775  0.187878  1
  La  La11  1  0.811785  0.186590  0.187870  1
  La  La12  1  0.555105  0.943647  0.941483  1
  La  La13  1  0.945393  0.554586  0.945412  1
  La  La14  1  0.187869  0.813768  0.811778  1
  Nd  Nd15  1  0.559518  0.940444  0.559582  1
  Mg  Mg16  1  0.577084  0.580080  0.577125  1
  Mg  Mg17  1  0.577112  0.265710  0.577119  1
  Mg  Mg18  1  0.577042  0.577691  0.267571  1
  Mg  Mg19  1  0.267601  0.577679  0.577055  1
  Tc  Tc20  1  0.133502  0.599382  0.133474  1
  Tc  Tc21  1  0.602035  0.132568  0.132830  1
  Tc  Tc22  1  0.132834  0.132551  0.602081  1
  Tc  Tc23  1  0.133489  0.133636  0.133472  1
