# generated using pymatgen
data_Dy2Co3P7IrRu8
_symmetry_space_group_name_H-M   'P 1'
_cell_length_a   9.35567947
_cell_length_b   9.33399005
_cell_length_c   3.83572100
_cell_angle_alpha   90.00000000
_cell_angle_beta   90.00000000
_cell_angle_gamma   120.17557127
_symmetry_Int_Tables_number   1
_chemical_formula_structural   Dy2Co3P7IrRu8
_chemical_formula_sum   'Dy2 Co3 P7 Ir1 Ru8'
_cell_volume   289.56711966
_cell_formula_units_Z   1
loop_
 _symmetry_equiv_pos_site_id
 _symmetry_equiv_pos_as_xyz
  1  'x, y, z'
loop_
 _atom_site_type_symbol
 _atom_site_label
 _atom_site_symmetry_multiplicity
 _atom_site_fract_x
 _atom_site_fract_y
 _atom_site_fract_z
 _atom_site_occupancy
  Dy  Dy0  1  0.332839  0.666425  0.000000  1
  Dy  Dy1  1  0.667254  0.333190  0.500000  1
  Co  Co2  1  0.157688  0.889493  0.000000  1
  Co  Co3  1  0.112849  0.271584  0.000000  1
  Co  Co4  1  0.728760  0.840438  0.000000  1
  P  P5  1  0.411102  0.105675  0.000000  1
  P  P6  1  0.890253  0.300754  0.000000  1
  P  P7  1  0.702660  0.592762  0.000000  1
  P  P8  1  0.115311  0.715346  0.500000  1
  P  P9  1  0.280334  0.401925  0.500000  1
  P  P10  1  0.598684  0.883166  0.500000  1
  P  P11  1  0.999020  0.000184  0.000000  1
  Ir  Ir12  1  0.428559  0.362364  0.000000  1
  Ru  Ru13  1  0.636471  0.061504  0.000000  1
  Ru  Ru14  1  0.937755  0.574429  0.000000  1
  Ru  Ru15  1  0.382745  0.946994  0.500000  1
  Ru  Ru16  1  0.050876  0.435413  0.500000  1
  Ru  Ru17  1  0.562721  0.614622  0.500000  1
  Ru  Ru18  1  0.211252  0.125251  0.500000  1
  Ru  Ru19  1  0.878318  0.084676  0.500000  1
  Ru  Ru20  1  0.914551  0.793807  0.500000  1
