# generated using pymatgen
data_LiTb19Rh12
_symmetry_space_group_name_H-M   'P 1'
_cell_length_a   10.92644600
_cell_length_b   10.92644600
_cell_length_c   6.32088500
_cell_angle_alpha   90.00000000
_cell_angle_beta   90.00000000
_cell_angle_gamma   90.00000000
_symmetry_Int_Tables_number   1
_chemical_formula_structural   LiTb19Rh12
_chemical_formula_sum   'Li1 Tb19 Rh12'
_cell_volume   754.63290194
_cell_formula_units_Z   1
loop_
 _symmetry_equiv_pos_site_id
 _symmetry_equiv_pos_as_xyz
  1  'x, y, z'
loop_
 _atom_site_type_symbol
 _atom_site_label
 _atom_site_symmetry_multiplicity
 _atom_site_fract_x
 _atom_site_fract_y
 _atom_site_fract_z
 _atom_site_occupancy
  Li  Li0  1  0.000000  0.000000  0.500000  1
  Tb  Tb1  1  0.278803  0.083692  0.381242  1
  Tb  Tb2  1  0.291748  0.910901  0.881418  1
  Tb  Tb3  1  0.708252  0.089099  0.881418  1
  Tb  Tb4  1  0.721197  0.916308  0.381242  1
  Tb  Tb5  1  0.590665  0.791581  0.881206  1
  Tb  Tb6  1  0.586689  0.208037  0.378991  1
  Tb  Tb7  1  0.413311  0.791963  0.378991  1
  Tb  Tb8  1  0.409335  0.208419  0.881206  1
  Tb  Tb9  1  0.208037  0.413311  0.621009  1
  Tb  Tb10  1  0.208419  0.590665  0.118794  1
  Tb  Tb11  1  0.791581  0.409335  0.118794  1
  Tb  Tb12  1  0.791963  0.586689  0.621009  1
  Tb  Tb13  1  0.910901  0.708252  0.118582  1
  Tb  Tb14  1  0.916308  0.278803  0.618758  1
  Tb  Tb15  1  0.083692  0.721197  0.618758  1
  Tb  Tb16  1  0.089099  0.291748  0.118582  1
  Tb  Tb17  1  0.000000  0.000000  0.000000  1
  Tb  Tb18  1  0.500000  0.500000  0.000000  1
  Tb  Tb19  1  0.500000  0.500000  0.500000  1
  Rh  Rh20  1  0.845174  0.156055  0.243018  1
  Rh  Rh21  1  0.843945  0.845174  0.756982  1
  Rh  Rh22  1  0.156055  0.154826  0.756982  1
  Rh  Rh23  1  0.154826  0.843945  0.243018  1
  Rh  Rh24  1  0.655257  0.345113  0.747388  1
  Rh  Rh25  1  0.654887  0.655257  0.252612  1
  Rh  Rh26  1  0.345113  0.344743  0.252612  1
  Rh  Rh27  1  0.344743  0.654887  0.747388  1
  Rh  Rh28  1  0.500000  0.000000  0.125252  1
  Rh  Rh29  1  0.500000  0.000000  0.619244  1
  Rh  Rh30  1  0.000000  0.500000  0.874748  1
  Rh  Rh31  1  0.000000  0.500000  0.380756  1
