# generated using pymatgen
data_Lu2BIr5Rh
_symmetry_space_group_name_H-M   'P 1'
_cell_length_a   5.78836048
_cell_length_b   5.78836080
_cell_length_c   5.77753000
_cell_angle_alpha   60.06187733
_cell_angle_beta   60.06187551
_cell_angle_gamma   59.87623623
_symmetry_Int_Tables_number   1
_chemical_formula_structural   Lu2BIr5Rh
_chemical_formula_sum   'Lu2 B1 Ir5 Rh1'
_cell_volume   136.87852069
_cell_formula_units_Z   1
loop_
 _symmetry_equiv_pos_site_id
 _symmetry_equiv_pos_as_xyz
  1  'x, y, z'
loop_
 _atom_site_type_symbol
 _atom_site_label
 _atom_site_symmetry_multiplicity
 _atom_site_fract_x
 _atom_site_fract_y
 _atom_site_fract_z
 _atom_site_occupancy
  Lu  Lu0  1  0.749890  0.749890  0.750110  1
  Lu  Lu1  1  0.249890  0.249890  0.250110  1
  B  B2  1  0.000944  0.000944  0.999056  1
  Ir  Ir3  1  0.258103  0.741017  0.258983  1
  Ir  Ir4  1  0.741017  0.258103  0.258983  1
  Ir  Ir5  1  0.259364  0.259364  0.740636  1
  Ir  Ir6  1  0.741017  0.258103  0.741897  1
  Ir  Ir7  1  0.258103  0.741017  0.741897  1
  Rh  Rh8  1  0.741670  0.741670  0.258330  1
