# generated using pymatgen
data_La4InNi4Hg
_symmetry_space_group_name_H-M   'P 1'
_cell_length_a   7.68850500
_cell_length_b   7.68850500
_cell_length_c   3.85318500
_cell_angle_alpha   90.00000000
_cell_angle_beta   90.00000000
_cell_angle_gamma   90.00000000
_symmetry_Int_Tables_number   1
_chemical_formula_structural   La4InNi4Hg
_chemical_formula_sum   'La4 In1 Ni4 Hg1'
_cell_volume   227.77374542
_cell_formula_units_Z   1
loop_
 _symmetry_equiv_pos_site_id
 _symmetry_equiv_pos_as_xyz
  1  'x, y, z'
loop_
 _atom_site_type_symbol
 _atom_site_label
 _atom_site_symmetry_multiplicity
 _atom_site_fract_x
 _atom_site_fract_y
 _atom_site_fract_z
 _atom_site_occupancy
  La  La0  1  0.675673  0.180485  0.500000  1
  La  La1  1  0.324327  0.819515  0.500000  1
  La  La2  1  0.180485  0.324327  0.500000  1
  La  La3  1  0.819515  0.675673  0.500000  1
  In  In4  1  0.000000  0.000000  0.000000  1
  Ni  Ni5  1  0.107718  0.624679  0.000000  1
  Ni  Ni6  1  0.892282  0.375321  0.000000  1
  Ni  Ni7  1  0.624679  0.892282  0.000000  1
  Ni  Ni8  1  0.375321  0.107718  0.000000  1
  Hg  Hg9  1  0.500000  0.500000  0.000000  1
