# generated using pymatgen
data_Tb4Pr16Si15P
_symmetry_space_group_name_H-M   'P 1'
_cell_length_a   7.82529197
_cell_length_b   7.82875933
_cell_length_c   15.36723975
_cell_angle_alpha   89.89997022
_cell_angle_beta   89.80829054
_cell_angle_gamma   90.14131495
_symmetry_Int_Tables_number   1
_chemical_formula_structural   Tb4Pr16Si15P
_chemical_formula_sum   'Tb4 Pr16 Si15 P1'
_cell_volume   941.42329334
_cell_formula_units_Z   1
loop_
 _symmetry_equiv_pos_site_id
 _symmetry_equiv_pos_as_xyz
  1  'x, y, z'
loop_
 _atom_site_type_symbol
 _atom_site_label
 _atom_site_symmetry_multiplicity
 _atom_site_fract_x
 _atom_site_fract_y
 _atom_site_fract_z
 _atom_site_occupancy
  Tb  Tb0  1  0.310455  0.309428  0.999638  1
  Tb  Tb1  1  0.190663  0.807197  0.249885  1
  Tb  Tb2  1  0.806883  0.191932  0.750217  1
  Tb  Tb3  1  0.690028  0.690122  0.500183  1
  Pr  Pr4  1  0.381123  0.010229  0.442790  1
  Pr  Pr5  1  0.484830  0.880247  0.695595  1
  Pr  Pr6  1  0.513288  0.119827  0.193903  1
  Pr  Pr7  1  0.878957  0.485818  0.304988  1
  Pr  Pr8  1  0.122826  0.511168  0.804734  1
  Pr  Pr9  1  0.622513  0.987319  0.944044  1
  Pr  Pr10  1  0.011071  0.377804  0.556158  1
  Pr  Pr11  1  0.987999  0.619896  0.055258  1
  Pr  Pr12  1  0.127990  0.980099  0.876376  1
  Pr  Pr13  1  0.523706  0.626107  0.127599  1
  Pr  Pr14  1  0.471355  0.370490  0.629887  1
  Pr  Pr15  1  0.626512  0.523753  0.871208  1
  Pr  Pr16  1  0.372888  0.474129  0.372775  1
  Pr  Pr17  1  0.876116  0.023421  0.379196  1
  Pr  Pr18  1  0.976761  0.124725  0.121292  1
  Pr  Pr19  1  0.027091  0.881206  0.622433  1
  Si  Si20  1  0.328069  0.689952  0.957070  1
  Si  Si21  1  0.671526  0.311590  0.459685  1
  Si  Si22  1  0.690392  0.329076  0.041871  1
  Si  Si23  1  0.310759  0.671305  0.542935  1
  Si  Si24  1  0.812217  0.827549  0.208672  1
  Si  Si25  1  0.172672  0.187240  0.290602  1
  Si  Si26  1  0.830037  0.811971  0.790892  1
  Si  Si27  1  0.286530  0.921014  0.062074  1
  Si  Si28  1  0.579461  0.784215  0.312751  1
  Si  Si29  1  0.425598  0.213529  0.815399  1
  Si  Si30  1  0.786533  0.580432  0.686047  1
  Si  Si31  1  0.213656  0.421235  0.186815  1
  Si  Si32  1  0.709832  0.076966  0.563508  1
  Si  Si33  1  0.922919  0.287672  0.936952  1
  Si  Si34  1  0.078605  0.712563  0.437835  1
  P  P35  1  0.178141  0.178769  0.708735  1
