# generated using pymatgen
data_Tb5DyTa2O14
_symmetry_space_group_name_H-M   'P 1'
_cell_length_a   6.52399316
_cell_length_b   6.52869888
_cell_length_c   7.50286413
_cell_angle_alpha   90.01687233
_cell_angle_beta   90.00653465
_cell_angle_gamma   108.61286723
_symmetry_Int_Tables_number   1
_chemical_formula_structural   Tb5DyTa2O14
_chemical_formula_sum   'Tb5 Dy1 Ta2 O14'
_cell_volume   302.85627869
_cell_formula_units_Z   1
loop_
 _symmetry_equiv_pos_site_id
 _symmetry_equiv_pos_as_xyz
  1  'x, y, z'
loop_
 _atom_site_type_symbol
 _atom_site_label
 _atom_site_symmetry_multiplicity
 _atom_site_fract_x
 _atom_site_fract_y
 _atom_site_fract_z
 _atom_site_occupancy
  Tb  Tb0  1  0.000135  0.534860  0.241760  1
  Tb  Tb1  1  0.464519  0.000362  0.258250  1
  Tb  Tb2  1  0.463116  0.462206  0.999596  1
  Tb  Tb3  1  0.537439  0.538577  0.499799  1
  Tb  Tb4  1  0.000240  0.465024  0.741745  1
  Dy  Dy5  1  0.535389  0.000259  0.758363  1
  Ta  Ta6  1  0.002463  0.002364  0.500060  1
  Ta  Ta7  1  0.997509  0.997515  0.999483  1
  O  O8  1  0.932124  0.067367  0.749907  1
  O  O9  1  0.639002  0.359450  0.749599  1
  O  O10  1  0.305583  0.045573  0.544883  1
  O  O11  1  0.949699  0.692862  0.957353  1
  O  O12  1  0.628781  0.370852  0.250144  1
  O  O13  1  0.917408  0.672920  0.523928  1
  O  O14  1  0.326917  0.081009  0.974408  1
  O  O15  1  0.082650  0.326918  0.024360  1
  O  O16  1  0.672952  0.918813  0.476186  1
  O  O17  1  0.371943  0.630066  0.750573  1
  O  O18  1  0.693439  0.952448  0.042719  1
  O  O19  1  0.050287  0.306890  0.457134  1
  O  O20  1  0.361007  0.639829  0.249903  1
  O  O21  1  0.067397  0.933835  0.249848  1
