# generated using pymatgen
data_NdEu2YH10
_symmetry_space_group_name_H-M   'P 1'
_cell_length_a   6.59885574
_cell_length_b   6.59885464
_cell_length_c   6.59885623
_cell_angle_alpha   131.32764286
_cell_angle_beta   130.56577328
_cell_angle_gamma   71.89950696
_symmetry_Int_Tables_number   1
_chemical_formula_structural   NdEu2YH10
_chemical_formula_sum   'Nd1 Eu2 Y1 H10'
_cell_volume   160.32891510
_cell_formula_units_Z   1
loop_
 _symmetry_equiv_pos_site_id
 _symmetry_equiv_pos_as_xyz
  1  'x, y, z'
loop_
 _atom_site_type_symbol
 _atom_site_label
 _atom_site_symmetry_multiplicity
 _atom_site_fract_x
 _atom_site_fract_y
 _atom_site_fract_z
 _atom_site_occupancy
  Nd  Nd0  1  0.264800  0.264800  0.000000  1
  Eu  Eu1  1  0.489081  0.989081  0.500000  1
  Eu  Eu2  1  0.739008  0.739008  0.000000  1
  Y  Y3  1  0.014430  0.514430  0.500000  1
  H  H4  1  0.358132  0.349606  0.463684  1
  H  H5  1  0.885922  0.894447  0.536316  1
  H  H6  1  0.662121  0.141603  0.047509  1
  H  H7  1  0.094093  0.614613  0.952491  1
  H  H8  1  0.358132  0.894447  0.008525  1
  H  H9  1  0.885922  0.349606  0.991475  1
  H  H10  1  0.662121  0.614613  0.520519  1
  H  H11  1  0.094093  0.141603  0.479481  1
  H  H12  1  0.246526  0.746526  0.500000  1
  H  H13  1  0.495618  0.495618  0.000000  1
