# generated using pymatgen
data_Nd2Al6(GaIr)3
_symmetry_space_group_name_H-M   'P 1'
_cell_length_a   7.59668203
_cell_length_b   7.59668221
_cell_length_c   9.69976600
_cell_angle_alpha   90.00000000
_cell_angle_beta   90.00000000
_cell_angle_gamma   119.55826902
_symmetry_Int_Tables_number   1
_chemical_formula_structural   Nd2Al6(GaIr)3
_chemical_formula_sum   'Nd4 Al12 Ga6 Ir6'
_cell_volume   486.91792095
_cell_formula_units_Z   2
loop_
 _symmetry_equiv_pos_site_id
 _symmetry_equiv_pos_as_xyz
  1  'x, y, z'
loop_
 _atom_site_type_symbol
 _atom_site_label
 _atom_site_symmetry_multiplicity
 _atom_site_fract_x
 _atom_site_fract_y
 _atom_site_fract_z
 _atom_site_occupancy
  Nd  Nd0  1  0.995937  0.669463  0.250000  1
  Nd  Nd1  1  0.004063  0.330537  0.750000  1
  Nd  Nd2  1  0.669463  0.995937  0.250000  1
  Nd  Nd3  1  0.330537  0.004063  0.750000  1
  Al  Al4  1  0.002960  0.334710  0.071948  1
  Al  Al5  1  0.997040  0.665290  0.928052  1
  Al  Al6  1  0.997040  0.665290  0.571948  1
  Al  Al7  1  0.334710  0.002960  0.428052  1
  Al  Al8  1  0.002960  0.334710  0.428052  1
  Al  Al9  1  0.665290  0.997040  0.571948  1
  Al  Al10  1  0.665290  0.997040  0.928052  1
  Al  Al11  1  0.334710  0.002960  0.071948  1
  Al  Al12  1  0.334694  0.334694  0.550113  1
  Al  Al13  1  0.665306  0.665306  0.449887  1
  Al  Al14  1  0.665306  0.665306  0.050113  1
  Al  Al15  1  0.334694  0.334694  0.949887  1
  Ga  Ga16  1  0.128902  0.128902  0.250000  1
  Ga  Ga17  1  0.871098  0.871098  0.750000  1
  Ga  Ga18  1  0.338403  0.545561  0.250000  1
  Ga  Ga19  1  0.661597  0.454439  0.750000  1
  Ga  Ga20  1  0.545561  0.338403  0.250000  1
  Ga  Ga21  1  0.454439  0.661597  0.750000  1
  Ir  Ir22  1  0.670813  0.329187  0.000000  1
  Ir  Ir23  1  0.329187  0.670813  0.000000  1
  Ir  Ir24  1  0.329187  0.670813  0.500000  1
  Ir  Ir25  1  0.670813  0.329187  0.500000  1
  Ir  Ir26  1  0.000000  0.000000  0.000000  1
  Ir  Ir27  1  0.000000  0.000000  0.500000  1
