# generated using pymatgen
data_LiIn(BrO3)4
_symmetry_space_group_name_H-M   'P 1'
_cell_length_a   4.99133300
_cell_length_b   6.93394616
_cell_length_c   16.38996757
_cell_angle_alpha   78.60017208
_cell_angle_beta   90.00000000
_cell_angle_gamma   90.00000000
_symmetry_Int_Tables_number   1
_chemical_formula_structural   LiIn(BrO3)4
_chemical_formula_sum   'Li2 In2 Br8 O24'
_cell_volume   556.05992915
_cell_formula_units_Z   2
loop_
 _symmetry_equiv_pos_site_id
 _symmetry_equiv_pos_as_xyz
  1  'x, y, z'
loop_
 _atom_site_type_symbol
 _atom_site_label
 _atom_site_symmetry_multiplicity
 _atom_site_fract_x
 _atom_site_fract_y
 _atom_site_fract_z
 _atom_site_occupancy
  Li  Li0  1  0.500000  0.500000  0.000000  1
  Li  Li1  1  0.000000  0.500000  0.500000  1
  In  In2  1  0.500000  0.000000  0.000000  1
  In  In3  1  0.000000  0.000000  0.500000  1
  Br  Br4  1  0.837239  0.669617  0.161405  1
  Br  Br5  1  0.337239  0.330383  0.338595  1
  Br  Br6  1  0.162761  0.330383  0.838595  1
  Br  Br7  1  0.662761  0.669617  0.661405  1
  Br  Br8  1  0.007953  0.196986  0.119638  1
  Br  Br9  1  0.507953  0.803014  0.380362  1
  Br  Br10  1  0.992047  0.803014  0.880362  1
  Br  Br11  1  0.492047  0.196986  0.619638  1
  O  O12  1  0.638499  0.721041  0.068373  1
  O  O13  1  0.138499  0.278959  0.431627  1
  O  O14  1  0.361501  0.278959  0.931627  1
  O  O15  1  0.861501  0.721041  0.568373  1
  O  O16  1  0.733170  0.836425  0.214248  1
  O  O17  1  0.233170  0.163575  0.285752  1
  O  O18  1  0.266830  0.163575  0.785752  1
  O  O19  1  0.766830  0.836425  0.714248  1
  O  O20  1  0.718060  0.449161  0.203413  1
  O  O21  1  0.218060  0.550839  0.296587  1
  O  O22  1  0.281940  0.550839  0.796587  1
  O  O23  1  0.781940  0.449161  0.703413  1
  O  O24  1  0.746984  0.222572  0.048098  1
  O  O25  1  0.246984  0.777428  0.451902  1
  O  O26  1  0.253016  0.777428  0.951902  1
  O  O27  1  0.753016  0.222572  0.548098  1
  O  O28  1  0.189253  0.004042  0.096322  1
  O  O29  1  0.689253  0.995958  0.403678  1
  O  O30  1  0.810747  0.995958  0.903678  1
  O  O31  1  0.310747  0.004042  0.596322  1
  O  O32  1  0.185876  0.398166  0.087760  1
  O  O33  1  0.685876  0.601834  0.412240  1
  O  O34  1  0.814124  0.601834  0.912240  1
  O  O35  1  0.314124  0.398166  0.587760  1
