# generated using pymatgen
data_HoErCo2(P3Ru4)2
_symmetry_space_group_name_H-M   'P 1'
_cell_length_a   3.85705300
_cell_length_b   10.63995000
_cell_length_c   12.31877700
_cell_angle_alpha   90.00000000
_cell_angle_beta   90.00000000
_cell_angle_gamma   90.00000000
_symmetry_Int_Tables_number   1
_chemical_formula_structural   HoErCo2(P3Ru4)2
_chemical_formula_sum   'Ho2 Er2 Co4 P12 Ru16'
_cell_volume   505.54845463
_cell_formula_units_Z   2
loop_
 _symmetry_equiv_pos_site_id
 _symmetry_equiv_pos_as_xyz
  1  'x, y, z'
loop_
 _atom_site_type_symbol
 _atom_site_label
 _atom_site_symmetry_multiplicity
 _atom_site_fract_x
 _atom_site_fract_y
 _atom_site_fract_z
 _atom_site_occupancy
  Ho  Ho0  1  0.250000  0.584390  0.707319  1
  Ho  Ho1  1  0.250000  0.915610  0.207319  1
  Er  Er2  1  0.750000  0.415584  0.292768  1
  Er  Er3  1  0.750000  0.084416  0.792768  1
  Co  Co4  1  0.250000  0.463257  0.937431  1
  Co  Co5  1  0.250000  0.036743  0.437431  1
  Co  Co6  1  0.750000  0.536585  0.062752  1
  Co  Co7  1  0.750000  0.963415  0.562752  1
  P  P8  1  0.250000  0.423285  0.109669  1
  P  P9  1  0.250000  0.076715  0.609669  1
  P  P10  1  0.750000  0.576734  0.890588  1
  P  P11  1  0.750000  0.923266  0.390588  1
  P  P12  1  0.250000  0.271306  0.868844  1
  P  P13  1  0.250000  0.228694  0.368844  1
  P  P14  1  0.750000  0.728554  0.130883  1
  P  P15  1  0.750000  0.771446  0.630883  1
  P  P16  1  0.250000  0.601238  0.392014  1
  P  P17  1  0.250000  0.898762  0.892014  1
  P  P18  1  0.750000  0.398460  0.607867  1
  P  P19  1  0.750000  0.101540  0.107867  1
  Ru  Ru20  1  0.250000  0.705765  0.985682  1
  Ru  Ru21  1  0.250000  0.794235  0.485682  1
  Ru  Ru22  1  0.750000  0.294075  0.014705  1
  Ru  Ru23  1  0.750000  0.205925  0.514705  1
  Ru  Ru24  1  0.250000  0.404939  0.484290  1
  Ru  Ru25  1  0.250000  0.095061  0.984290  1
  Ru  Ru26  1  0.750000  0.595185  0.514977  1
  Ru  Ru27  1  0.750000  0.904815  0.014977  1
  Ru  Ru28  1  0.250000  0.226698  0.176330  1
  Ru  Ru29  1  0.250000  0.273302  0.676330  1
  Ru  Ru30  1  0.750000  0.773255  0.823631  1
  Ru  Ru31  1  0.750000  0.726745  0.323631  1
  Ru  Ru32  1  0.250000  0.887718  0.698489  1
  Ru  Ru33  1  0.250000  0.612282  0.198489  1
  Ru  Ru34  1  0.750000  0.112834  0.301760  1
  Ru  Ru35  1  0.750000  0.387166  0.801760  1
