# generated using pymatgen
data_Hg5SO6
_symmetry_space_group_name_H-M   'P 1'
_cell_length_a   8.12382676
_cell_length_b   8.12382685
_cell_length_c   7.09135156
_cell_angle_alpha   85.45401018
_cell_angle_beta   85.45401486
_cell_angle_gamma   93.77230112
_symmetry_Int_Tables_number   1
_chemical_formula_structural   Hg5SO6
_chemical_formula_sum   'Hg10 S2 O12'
_cell_volume   463.83995946
_cell_formula_units_Z   2
loop_
 _symmetry_equiv_pos_site_id
 _symmetry_equiv_pos_as_xyz
  1  'x, y, z'
loop_
 _atom_site_type_symbol
 _atom_site_label
 _atom_site_symmetry_multiplicity
 _atom_site_fract_x
 _atom_site_fract_y
 _atom_site_fract_z
 _atom_site_occupancy
  Hg  Hg0  1  0.353076  0.217092  0.694917  1
  Hg  Hg1  1  0.782908  0.646924  0.805083  1
  Hg  Hg2  1  0.646924  0.782908  0.305083  1
  Hg  Hg3  1  0.217092  0.353076  0.194917  1
  Hg  Hg4  1  0.929293  0.390552  0.704312  1
  Hg  Hg5  1  0.390552  0.929293  0.204312  1
  Hg  Hg6  1  0.070707  0.609448  0.295688  1
  Hg  Hg7  1  0.609448  0.070707  0.795688  1
  Hg  Hg8  1  0.000000  0.000000  0.000000  1
  Hg  Hg9  1  0.000000  0.000000  0.500000  1
  S  S10  1  0.314265  0.685735  0.750000  1
  S  S11  1  0.685735  0.314265  0.250000  1
  O  O12  1  0.275577  0.501662  0.788215  1
  O  O13  1  0.498338  0.724423  0.711785  1
  O  O14  1  0.724423  0.498338  0.211785  1
  O  O15  1  0.501662  0.275577  0.288215  1
  O  O16  1  0.251279  0.768587  0.919659  1
  O  O17  1  0.231413  0.748721  0.580341  1
  O  O18  1  0.748721  0.231413  0.080341  1
  O  O19  1  0.768587  0.251279  0.419659  1
  O  O20  1  0.806793  0.913471  0.850788  1
  O  O21  1  0.086529  0.193207  0.649212  1
  O  O22  1  0.193207  0.086529  0.149212  1
  O  O23  1  0.913471  0.806793  0.350788  1
