# generated using pymatgen
data_Ce3Zr(CuRh2)4
_symmetry_space_group_name_H-M   'P 1'
_cell_length_a   5.93212701
_cell_length_b   5.93212600
_cell_length_c   7.08084600
_cell_angle_alpha   90.00005795
_cell_angle_beta   90.00311971
_cell_angle_gamma   89.99966195
_symmetry_Int_Tables_number   1
_chemical_formula_structural   Ce3Zr(CuRh2)4
_chemical_formula_sum   'Ce3 Zr1 Cu4 Rh8'
_cell_volume   249.17585451
_cell_formula_units_Z   1
loop_
 _symmetry_equiv_pos_site_id
 _symmetry_equiv_pos_as_xyz
  1  'x, y, z'
loop_
 _atom_site_type_symbol
 _atom_site_label
 _atom_site_symmetry_multiplicity
 _atom_site_fract_x
 _atom_site_fract_y
 _atom_site_fract_z
 _atom_site_occupancy
  Ce  Ce0  1  0.750050  0.250004  0.000153  1
  Ce  Ce1  1  0.249956  0.749976  0.000178  1
  Ce  Ce2  1  0.250028  0.749993  0.499792  1
  Zr  Zr3  1  0.749956  0.250014  0.499879  1
  Cu  Cu4  1  0.249986  0.250082  0.000012  1
  Cu  Cu5  1  0.750032  0.749907  0.000028  1
  Cu  Cu6  1  0.750023  0.749981  0.500010  1
  Cu  Cu7  1  0.249991  0.250070  0.500055  1
  Rh  Rh8  1  0.501512  0.001590  0.252773  1
  Rh  Rh9  1  0.501511  0.498448  0.252676  1
  Rh  Rh10  1  0.998421  0.001573  0.252795  1
  Rh  Rh11  1  0.998387  0.498405  0.252775  1
  Rh  Rh12  1  0.998435  0.001558  0.747274  1
  Rh  Rh13  1  0.998429  0.498380  0.747143  1
  Rh  Rh14  1  0.501665  0.001610  0.747234  1
  Rh  Rh15  1  0.501621  0.498407  0.747218  1
