# generated using pymatgen
data_Dy9Tm8Lu3Sn16
_symmetry_space_group_name_H-M   'P 1'
_cell_length_a   7.97986304
_cell_length_b   8.11055811
_cell_length_c   15.34290405
_cell_angle_alpha   90.02697926
_cell_angle_beta   90.00928023
_cell_angle_gamma   90.07374862
_symmetry_Int_Tables_number   1
_chemical_formula_structural   Dy9Tm8Lu3Sn16
_chemical_formula_sum   'Dy9 Tm8 Lu3 Sn16'
_cell_volume   993.00933973
_cell_formula_units_Z   1
loop_
 _symmetry_equiv_pos_site_id
 _symmetry_equiv_pos_as_xyz
  1  'x, y, z'
loop_
 _atom_site_type_symbol
 _atom_site_label
 _atom_site_symmetry_multiplicity
 _atom_site_fract_x
 _atom_site_fract_y
 _atom_site_fract_z
 _atom_site_occupancy
  Dy  Dy0  1  0.866023  0.663526  0.877786  1
  Dy  Dy1  1  0.520301  0.321148  0.904135  1
  Dy  Dy2  1  0.020378  0.178656  0.595639  1
  Dy  Dy3  1  0.479396  0.678406  0.403864  1
  Dy  Dy4  1  0.978977  0.822416  0.097411  1
  Dy  Dy5  1  0.480806  0.677916  0.096265  1
  Dy  Dy6  1  0.979643  0.821732  0.403449  1
  Dy  Dy7  1  0.519589  0.321113  0.595430  1
  Dy  Dy8  1  0.020168  0.178355  0.903678  1
  Tm  Tm9  1  0.364631  0.837539  0.876277  1
  Tm  Tm10  1  0.865066  0.662003  0.622982  1
  Tm  Tm11  1  0.634915  0.161590  0.376754  1
  Tm  Tm12  1  0.135002  0.337924  0.123565  1
  Tm  Tm13  1  0.633822  0.161957  0.124505  1
  Tm  Tm14  1  0.134694  0.337475  0.376681  1
  Tm  Tm15  1  0.365991  0.838161  0.622671  1
  Tm  Tm16  1  0.196831  0.504452  0.749717  1
  Lu  Lu17  1  0.696365  0.995908  0.749302  1
  Lu  Lu18  1  0.803438  0.495276  0.250394  1
  Lu  Lu19  1  0.303058  0.004374  0.250016  1
  Sn  Sn20  1  0.296315  0.038945  0.041553  1
  Sn  Sn21  1  0.796540  0.460908  0.458206  1
  Sn  Sn22  1  0.704177  0.960638  0.541342  1
  Sn  Sn23  1  0.206429  0.538143  0.958884  1
  Sn  Sn24  1  0.701434  0.963595  0.958597  1
  Sn  Sn25  1  0.202898  0.539299  0.541228  1
  Sn  Sn26  1  0.296267  0.039114  0.458119  1
  Sn  Sn27  1  0.796494  0.459546  0.042861  1
  Sn  Sn28  1  0.562440  0.619509  0.749197  1
  Sn  Sn29  1  0.062505  0.881753  0.749162  1
  Sn  Sn30  1  0.438077  0.380635  0.250653  1
  Sn  Sn31  1  0.938007  0.119401  0.250110  1
  Sn  Sn32  1  0.330260  0.149533  0.749701  1
  Sn  Sn33  1  0.829745  0.349772  0.749548  1
  Sn  Sn34  1  0.669494  0.849416  0.250217  1
  Sn  Sn35  1  0.169825  0.649866  0.250100  1
