# generated using pymatgen
data_Er5Tm3(B6Rh)4
_symmetry_space_group_name_H-M   'P 1'
_cell_length_a   3.62726300
_cell_length_b   9.12858803
_cell_length_c   11.45789004
_cell_angle_alpha   89.99073742
_cell_angle_beta   90.00000000
_cell_angle_gamma   90.00000000
_symmetry_Int_Tables_number   1
_chemical_formula_structural   Er5Tm3(B6Rh)4
_chemical_formula_sum   'Er5 Tm3 B24 Rh4'
_cell_volume   379.39123925
_cell_formula_units_Z   1
loop_
 _symmetry_equiv_pos_site_id
 _symmetry_equiv_pos_as_xyz
  1  'x, y, z'
loop_
 _atom_site_type_symbol
 _atom_site_label
 _atom_site_symmetry_multiplicity
 _atom_site_fract_x
 _atom_site_fract_y
 _atom_site_fract_z
 _atom_site_occupancy
  Er  Er0  1  0.500000  0.322025  0.413599  1
  Er  Er1  1  0.500000  0.677975  0.586513  1
  Er  Er2  1  0.500000  0.177728  0.913417  1
  Er  Er3  1  0.500000  0.822304  0.086406  1
  Er  Er4  1  0.500000  0.444417  0.126512  1
  Tm  Tm5  1  0.500000  0.555663  0.873249  1
  Tm  Tm6  1  0.500000  0.055609  0.626602  1
  Tm  Tm7  1  0.500000  0.944425  0.373494  1
  B  B8  1  0.000000  0.109183  0.470373  1
  B  B9  1  0.000000  0.890808  0.529711  1
  B  B10  1  0.000000  0.390286  0.969901  1
  B  B11  1  0.000000  0.609941  0.029565  1
  B  B12  1  0.000000  0.132832  0.316287  1
  B  B13  1  0.000000  0.867115  0.683801  1
  B  B14  1  0.000000  0.367051  0.816088  1
  B  B15  1  0.000000  0.633275  0.183932  1
  B  B16  1  0.000000  0.053750  0.065245  1
  B  B17  1  0.000000  0.946072  0.934638  1
  B  B18  1  0.000000  0.446056  0.565360  1
  B  B19  1  0.000000  0.553999  0.434797  1
  B  B20  1  0.000000  0.482560  0.286907  1
  B  B21  1  0.000000  0.517609  0.713363  1
  B  B22  1  0.000000  0.017649  0.786582  1
  B  B23  1  0.000000  0.982332  0.213452  1
  B  B24  1  0.000000  0.249467  0.079063  1
  B  B25  1  0.000000  0.750166  0.920752  1
  B  B26  1  0.000000  0.250076  0.579153  1
  B  B27  1  0.000000  0.749969  0.420936  1
  B  B28  1  0.000000  0.294377  0.236017  1
  B  B29  1  0.000000  0.705321  0.764125  1
  B  B30  1  0.000000  0.205250  0.735789  1
  B  B31  1  0.000000  0.794840  0.264231  1
  Rh  Rh32  1  0.500000  0.139455  0.178971  1
  Rh  Rh33  1  0.500000  0.860191  0.821003  1
  Rh  Rh34  1  0.500000  0.360149  0.678908  1
  Rh  Rh35  1  0.500000  0.640071  0.321257  1
