# generated using pymatgen
data_Pr16TcHg4Pt3
_symmetry_space_group_name_H-M   'P 1'
_cell_length_a   10.10079573
_cell_length_b   10.10079675
_cell_length_c   10.10079613
_cell_angle_alpha   59.50266186
_cell_angle_beta   59.50265717
_cell_angle_gamma   59.50265752
_symmetry_Int_Tables_number   1
_chemical_formula_structural   Pr16TcHg4Pt3
_chemical_formula_sum   'Pr16 Tc1 Hg4 Pt3'
_cell_volume   720.46297484
_cell_formula_units_Z   1
loop_
 _symmetry_equiv_pos_site_id
 _symmetry_equiv_pos_as_xyz
  1  'x, y, z'
loop_
 _atom_site_type_symbol
 _atom_site_label
 _atom_site_symmetry_multiplicity
 _atom_site_fract_x
 _atom_site_fract_y
 _atom_site_fract_z
 _atom_site_occupancy
  Pr  Pr0  1  0.352840  0.352840  0.352840  1
  Pr  Pr1  1  0.348427  0.348427  0.950244  1
  Pr  Pr2  1  0.348427  0.950244  0.348427  1
  Pr  Pr3  1  0.950244  0.348427  0.348427  1
  Pr  Pr4  1  0.815481  0.189127  0.189127  1
  Pr  Pr5  1  0.189490  0.806844  0.806844  1
  Pr  Pr6  1  0.189127  0.815481  0.189127  1
  Pr  Pr7  1  0.806844  0.189490  0.806844  1
  Pr  Pr8  1  0.189127  0.189127  0.815481  1
  Pr  Pr9  1  0.806844  0.806844  0.189490  1
  Pr  Pr10  1  0.936984  0.563471  0.563471  1
  Pr  Pr11  1  0.555964  0.938623  0.938623  1
  Pr  Pr12  1  0.563471  0.936984  0.563471  1
  Pr  Pr13  1  0.938623  0.555964  0.938623  1
  Pr  Pr14  1  0.563471  0.563471  0.936984  1
  Pr  Pr15  1  0.938623  0.938623  0.555964  1
  Tc  Tc16  1  0.142407  0.142407  0.142407  1
  Hg  Hg17  1  0.583344  0.583344  0.583344  1
  Hg  Hg18  1  0.584505  0.584505  0.246467  1
  Hg  Hg19  1  0.584505  0.246467  0.584505  1
  Hg  Hg20  1  0.246467  0.584505  0.584505  1
  Pt  Pt21  1  0.145844  0.145844  0.573095  1
  Pt  Pt22  1  0.145844  0.573095  0.145844  1
  Pt  Pt23  1  0.573095  0.145844  0.145844  1
