# generated using pymatgen
data_Na4MnZnI8
_symmetry_space_group_name_H-M   'P 1'
_cell_length_a   7.41698200
_cell_length_b   9.39236000
_cell_length_c   15.97241600
_cell_angle_alpha   90.00000000
_cell_angle_beta   90.00000000
_cell_angle_gamma   90.00000000
_symmetry_Int_Tables_number   1
_chemical_formula_structural   Na4MnZnI8
_chemical_formula_sum   'Na8 Mn2 Zn2 I16'
_cell_volume   1112.68585769
_cell_formula_units_Z   2
loop_
 _symmetry_equiv_pos_site_id
 _symmetry_equiv_pos_as_xyz
  1  'x, y, z'
loop_
 _atom_site_type_symbol
 _atom_site_label
 _atom_site_symmetry_multiplicity
 _atom_site_fract_x
 _atom_site_fract_y
 _atom_site_fract_z
 _atom_site_occupancy
  Na  Na0  1  0.000749  0.999567  0.000151  1
  Na  Na1  1  0.500749  0.000433  0.499849  1
  Na  Na2  1  0.000749  0.500433  0.000151  1
  Na  Na3  1  0.500749  0.499567  0.499849  1
  Na  Na4  1  0.007062  0.750000  0.267891  1
  Na  Na5  1  0.507062  0.250000  0.232109  1
  Na  Na6  1  0.994122  0.250000  0.731854  1
  Na  Na7  1  0.494122  0.750000  0.768146  1
  Mn  Mn8  1  0.399953  0.250000  0.909632  1
  Mn  Mn9  1  0.899953  0.750000  0.590368  1
  Zn  Zn10  1  0.598207  0.750000  0.090534  1
  Zn  Zn11  1  0.098207  0.250000  0.409466  1
  I  I12  1  0.244100  0.750000  0.092375  1
  I  I13  1  0.744100  0.250000  0.407625  1
  I  I14  1  0.762755  0.250000  0.907960  1
  I  I15  1  0.262755  0.750000  0.592040  1
  I  I16  1  0.759813  0.750000  0.433374  1
  I  I17  1  0.259813  0.250000  0.066626  1
  I  I18  1  0.237507  0.250000  0.563630  1
  I  I19  1  0.737507  0.750000  0.936370  1
  I  I20  1  0.744307  0.974867  0.166315  1
  I  I21  1  0.244307  0.025133  0.333685  1
  I  I22  1  0.253184  0.479557  0.832261  1
  I  I23  1  0.753184  0.520443  0.667739  1
  I  I24  1  0.253184  0.020443  0.832261  1
  I  I25  1  0.753184  0.979557  0.667739  1
  I  I26  1  0.744307  0.525133  0.166315  1
  I  I27  1  0.244307  0.474867  0.333685  1
