# generated using pymatgen
data_Y6Ho2Si8Pd5Pt3
_symmetry_space_group_name_H-M   'P 1'
_cell_length_a   4.31497300
_cell_length_b   7.49302920
_cell_length_c   14.04585778
_cell_angle_alpha   89.99407979
_cell_angle_beta   90.00000000
_cell_angle_gamma   90.00000000
_symmetry_Int_Tables_number   1
_chemical_formula_structural   Y6Ho2Si8Pd5Pt3
_chemical_formula_sum   'Y6 Ho2 Si8 Pd5 Pt3'
_cell_volume   454.13374260
_cell_formula_units_Z   1
loop_
 _symmetry_equiv_pos_site_id
 _symmetry_equiv_pos_as_xyz
  1  'x, y, z'
loop_
 _atom_site_type_symbol
 _atom_site_label
 _atom_site_symmetry_multiplicity
 _atom_site_fract_x
 _atom_site_fract_y
 _atom_site_fract_z
 _atom_site_occupancy
  Y  Y0  1  0.500000  0.792060  0.250341  1
  Y  Y1  1  0.000000  0.206642  0.250019  1
  Y  Y2  1  0.500000  0.708854  0.999618  1
  Y  Y3  1  0.000000  0.291298  0.500096  1
  Y  Y4  1  0.500000  0.702572  0.500468  1
  Y  Y5  1  0.000000  0.298704  0.999886  1
  Ho  Ho6  1  0.500000  0.793444  0.750138  1
  Ho  Ho7  1  0.000000  0.206565  0.750202  1
  Si  Si8  1  0.500000  0.406433  0.643798  1
  Si  Si9  1  0.000000  0.593583  0.856070  1
  Si  Si10  1  0.500000  0.406861  0.356291  1
  Si  Si11  1  0.000000  0.591503  0.144551  1
  Si  Si12  1  0.500000  0.092019  0.093581  1
  Si  Si13  1  0.000000  0.910310  0.406929  1
  Si  Si14  1  0.500000  0.089111  0.908312  1
  Si  Si15  1  0.000000  0.910592  0.593047  1
  Pd  Pd16  1  0.000000  0.923364  0.106631  1
  Pd  Pd17  1  0.500000  0.421762  0.156742  1
  Pd  Pd18  1  0.000000  0.579132  0.342708  1
  Pd  Pd19  1  0.500000  0.420878  0.842587  1
  Pd  Pd20  1  0.000000  0.578937  0.657896  1
  Pt  Pt21  1  0.500000  0.074827  0.610040  1
  Pt  Pt22  1  0.000000  0.925269  0.889351  1
  Pt  Pt23  1  0.500000  0.075279  0.390695  1
