# generated using pymatgen
data_La2Zn20CuNi
_symmetry_space_group_name_H-M   'P 1'
_cell_length_a   8.26023367
_cell_length_b   8.24877676
_cell_length_c   8.27675934
_cell_angle_alpha   99.71440112
_cell_angle_beta   100.03793256
_cell_angle_gamma   131.01484864
_symmetry_Int_Tables_number   1
_chemical_formula_structural   La2Zn20CuNi
_chemical_formula_sum   'La2 Zn20 Cu1 Ni1'
_cell_volume   387.39653149
_cell_formula_units_Z   1
loop_
 _symmetry_equiv_pos_site_id
 _symmetry_equiv_pos_as_xyz
  1  'x, y, z'
loop_
 _atom_site_type_symbol
 _atom_site_label
 _atom_site_symmetry_multiplicity
 _atom_site_fract_x
 _atom_site_fract_y
 _atom_site_fract_z
 _atom_site_occupancy
  La  La0  1  0.253135  0.751149  0.506160  1
  La  La1  1  0.996865  0.998851  0.993840  1
  Zn  Zn2  1  0.900227  0.571111  0.092063  1
  Zn  Zn3  1  0.432385  0.510090  0.323515  1
  Zn  Zn4  1  0.488374  0.573891  0.670196  1
  Zn  Zn5  1  0.431683  0.109086  0.926389  1
  Zn  Zn6  1  0.761626  0.176109  0.829804  1
  Zn  Zn7  1  0.492432  0.817301  0.922277  1
  Zn  Zn8  1  0.504877  0.500817  0.012900  1
  Zn  Zn9  1  0.757568  0.932699  0.577723  1
  Zn  Zn10  1  0.745123  0.249183  0.487100  1
  Zn  Zn11  1  0.066931  0.653492  0.830812  1
  Zn  Zn12  1  0.125000  0.375000  0.750000  1
  Zn  Zn13  1  0.349773  0.178889  0.407937  1
  Zn  Zn14  1  0.818317  0.640914  0.573611  1
  Zn  Zn15  1  0.894022  0.809251  0.325752  1
  Zn  Zn16  1  0.183069  0.096508  0.669188  1
  Zn  Zn17  1  0.061602  0.231223  0.410139  1
  Zn  Zn18  1  0.355978  0.940749  0.174248  1
  Zn  Zn19  1  0.817615  0.239910  0.176485  1
  Zn  Zn20  1  0.188398  0.518777  0.089861  1
  Zn  Zn21  1  0.625000  0.375000  0.750000  1
  Cu  Cu22  1  0.625000  0.875000  0.250000  1
  Ni  Ni23  1  0.625000  0.375000  0.250000  1
