# generated using pymatgen
data_Er8Re3B24Ru
_symmetry_space_group_name_H-M   'P 1'
_cell_length_a   3.65251400
_cell_length_b   9.12190314
_cell_length_c   11.49614022
_cell_angle_alpha   90.10923179
_cell_angle_beta   90.00000000
_cell_angle_gamma   90.00000000
_symmetry_Int_Tables_number   1
_chemical_formula_structural   Er8Re3B24Ru
_chemical_formula_sum   'Er8 Re3 B24 Ru1'
_cell_volume   383.02631217
_cell_formula_units_Z   1
loop_
 _symmetry_equiv_pos_site_id
 _symmetry_equiv_pos_as_xyz
  1  'x, y, z'
loop_
 _atom_site_type_symbol
 _atom_site_label
 _atom_site_symmetry_multiplicity
 _atom_site_fract_x
 _atom_site_fract_y
 _atom_site_fract_z
 _atom_site_occupancy
  Er  Er0  1  0.000000  0.321420  0.414088  1
  Er  Er1  1  0.000000  0.677533  0.587832  1
  Er  Er2  1  0.000000  0.824755  0.084097  1
  Er  Er3  1  0.000000  0.176830  0.913778  1
  Er  Er4  1  0.000000  0.941741  0.369808  1
  Er  Er5  1  0.000000  0.056360  0.629147  1
  Er  Er6  1  0.000000  0.443141  0.130427  1
  Er  Er7  1  0.000000  0.556908  0.871160  1
  Re  Re8  1  0.000000  0.362167  0.678227  1
  Re  Re9  1  0.000000  0.138083  0.179674  1
  Re  Re10  1  0.000000  0.861859  0.820742  1
  B  B11  1  0.500000  0.553800  0.432965  1
  B  B12  1  0.500000  0.447397  0.566339  1
  B  B13  1  0.500000  0.053042  0.066550  1
  B  B14  1  0.500000  0.947209  0.933199  1
  B  B15  1  0.500000  0.748756  0.418784  1
  B  B16  1  0.500000  0.250309  0.580784  1
  B  B17  1  0.500000  0.249667  0.081100  1
  B  B18  1  0.500000  0.751038  0.919095  1
  B  B19  1  0.500000  0.791250  0.265154  1
  B  B20  1  0.500000  0.207628  0.734496  1
  B  B21  1  0.500000  0.292252  0.235273  1
  B  B22  1  0.500000  0.707580  0.765557  1
  B  B23  1  0.500000  0.631428  0.185340  1
  B  B24  1  0.500000  0.369514  0.814459  1
  B  B25  1  0.500000  0.130899  0.315389  1
  B  B26  1  0.500000  0.868802  0.685121  1
  B  B27  1  0.500000  0.981769  0.211811  1
  B  B28  1  0.500000  0.018176  0.787716  1
  B  B29  1  0.500000  0.483164  0.288249  1
  B  B30  1  0.500000  0.518764  0.711942  1
  B  B31  1  0.500000  0.601844  0.028919  1
  B  B32  1  0.500000  0.398690  0.972241  1
  B  B33  1  0.500000  0.100265  0.471506  1
  B  B34  1  0.500000  0.897514  0.528024  1
  Ru  Ru35  1  0.000000  0.638447  0.321007  1
