# generated using pymatgen
data_Ho2Zr2CuNi5P6
_symmetry_space_group_name_H-M   'P 1'
_cell_length_a   3.73188900
_cell_length_b   10.20650063
_cell_length_c   12.36615432
_cell_angle_alpha   89.73813207
_cell_angle_beta   90.00000000
_cell_angle_gamma   90.00000000
_symmetry_Int_Tables_number   1
_chemical_formula_structural   Ho2Zr2CuNi5P6
_chemical_formula_sum   'Ho4 Zr4 Cu2 Ni10 P12'
_cell_volume   471.01605437
_cell_formula_units_Z   2
loop_
 _symmetry_equiv_pos_site_id
 _symmetry_equiv_pos_as_xyz
  1  'x, y, z'
loop_
 _atom_site_type_symbol
 _atom_site_label
 _atom_site_symmetry_multiplicity
 _atom_site_fract_x
 _atom_site_fract_y
 _atom_site_fract_z
 _atom_site_occupancy
  Ho  Ho0  1  0.250000  0.069290  0.204992  1
  Ho  Ho1  1  0.750000  0.930710  0.795008  1
  Ho  Ho2  1  0.750000  0.572720  0.293178  1
  Ho  Ho3  1  0.250000  0.427280  0.706822  1
  Zr  Zr4  1  0.250000  0.160754  0.497179  1
  Zr  Zr5  1  0.750000  0.839246  0.502821  1
  Zr  Zr6  1  0.750000  0.659009  0.002692  1
  Zr  Zr7  1  0.250000  0.340991  0.997308  1
  Cu  Cu8  1  0.250000  0.728883  0.665401  1
  Cu  Cu9  1  0.750000  0.271117  0.334599  1
  Ni  Ni10  1  0.750000  0.229009  0.835528  1
  Ni  Ni11  1  0.250000  0.770991  0.164472  1
  Ni  Ni12  1  0.250000  0.365877  0.221182  1
  Ni  Ni13  1  0.750000  0.634123  0.778818  1
  Ni  Ni14  1  0.750000  0.865433  0.280777  1
  Ni  Ni15  1  0.250000  0.134567  0.719223  1
  Ni  Ni16  1  0.250000  0.603555  0.483297  1
  Ni  Ni17  1  0.750000  0.396445  0.516703  1
  Ni  Ni18  1  0.750000  0.097266  0.015586  1
  Ni  Ni19  1  0.250000  0.902734  0.984414  1
  P  P20  1  0.250000  0.948754  0.624385  1
  P  P21  1  0.750000  0.051246  0.375615  1
  P  P22  1  0.750000  0.445926  0.874917  1
  P  P23  1  0.250000  0.554074  0.125083  1
  P  P24  1  0.250000  0.400077  0.405533  1
  P  P25  1  0.750000  0.599923  0.594467  1
  P  P26  1  0.750000  0.892982  0.098025  1
  P  P27  1  0.250000  0.107018  0.901975  1
  P  P28  1  0.250000  0.771231  0.353944  1
  P  P29  1  0.750000  0.228769  0.646056  1
  P  P30  1  0.750000  0.268632  0.142664  1
  P  P31  1  0.250000  0.731368  0.857336  1
