# generated using pymatgen
data_CrGaNi2Ag4F14
_symmetry_space_group_name_H-M   'P 1'
_cell_length_a   7.51395054
_cell_length_b   7.51300231
_cell_length_c   7.51300048
_cell_angle_alpha   120.87293042
_cell_angle_beta   116.72998643
_cell_angle_gamma   92.12174432
_symmetry_Int_Tables_number   1
_chemical_formula_structural   CrGaNi2Ag4F14
_chemical_formula_sum   'Cr1 Ga1 Ni2 Ag4 F14'
_cell_volume   304.64059700
_cell_formula_units_Z   1
loop_
 _symmetry_equiv_pos_site_id
 _symmetry_equiv_pos_as_xyz
  1  'x, y, z'
loop_
 _atom_site_type_symbol
 _atom_site_label
 _atom_site_symmetry_multiplicity
 _atom_site_fract_x
 _atom_site_fract_y
 _atom_site_fract_z
 _atom_site_occupancy
  Cr  Cr0  1  0.500000  0.000000  0.500000  1
  Ga  Ga1  1  0.000000  0.500000  0.500000  1
  Ni  Ni2  1  0.500000  0.500000  0.500000  1
  Ni  Ni3  1  0.500000  0.000000  0.000000  1
  Ag  Ag4  1  0.000000  0.000000  0.500000  1
  Ag  Ag5  1  0.000000  0.000000  0.000000  1
  Ag  Ag6  1  0.000000  0.500000  0.000000  1
  Ag  Ag7  1  0.500000  0.500000  0.000000  1
  F  F8  1  0.402016  0.249821  0.152209  1
  F  F9  1  0.125868  0.409905  0.715965  1
  F  F10  1  0.185712  0.425064  0.382757  1
  F  F11  1  0.543019  0.306647  0.619049  1
  F  F12  1  0.809153  0.091145  0.718007  1
  F  F13  1  0.456978  0.076066  0.763645  1
  F  F14  1  0.185711  0.802969  0.760655  1
  F  F15  1  0.543022  0.923934  0.236355  1
  F  F16  1  0.597984  0.750179  0.847791  1
  F  F17  1  0.814289  0.197031  0.239345  1
  F  F18  1  0.874132  0.590095  0.284035  1
  F  F19  1  0.814288  0.574936  0.617243  1
  F  F20  1  0.456981  0.693353  0.380951  1
  F  F21  1  0.190847  0.908855  0.281993  1
