# generated using pymatgen
data_Tb9Dy3Tc4
_symmetry_space_group_name_H-M   'P 1'
_cell_length_a   6.29570304
_cell_length_b   7.43467895
_cell_length_c   9.23566202
_cell_angle_alpha   89.95847122
_cell_angle_beta   90.07746230
_cell_angle_gamma   89.97709379
_symmetry_Int_Tables_number   1
_chemical_formula_structural   Tb9Dy3Tc4
_chemical_formula_sum   'Tb9 Dy3 Tc4'
_cell_volume   432.28875621
_cell_formula_units_Z   1
loop_
 _symmetry_equiv_pos_site_id
 _symmetry_equiv_pos_as_xyz
  1  'x, y, z'
loop_
 _atom_site_type_symbol
 _atom_site_label
 _atom_site_symmetry_multiplicity
 _atom_site_fract_x
 _atom_site_fract_y
 _atom_site_fract_z
 _atom_site_occupancy
  Tb  Tb0  1  0.128709  0.457980  0.749589  1
  Tb  Tb1  1  0.663453  0.323831  0.936280  1
  Tb  Tb2  1  0.371362  0.958244  0.749814  1
  Tb  Tb3  1  0.871139  0.542006  0.250193  1
  Tb  Tb4  1  0.627918  0.041474  0.250287  1
  Tb  Tb5  1  0.163109  0.176315  0.436903  1
  Tb  Tb6  1  0.836421  0.823687  0.563363  1
  Tb  Tb7  1  0.164078  0.176288  0.063289  1
  Tb  Tb8  1  0.836927  0.824030  0.936483  1
  Dy  Dy9  1  0.662823  0.323955  0.563419  1
  Dy  Dy10  1  0.337081  0.675756  0.063686  1
  Dy  Dy11  1  0.336867  0.676090  0.436599  1
  Tc  Tc12  1  0.538726  0.612608  0.750172  1
  Tc  Tc13  1  0.959899  0.112985  0.749480  1
  Tc  Tc14  1  0.040469  0.886975  0.249709  1
  Tc  Tc15  1  0.461017  0.387774  0.250731  1
