# generated using pymatgen
data_Tb3In3CuPdAu
_symmetry_space_group_name_H-M   'P 1'
_cell_length_a   7.66907900
_cell_length_b   7.66907768
_cell_length_c   3.95728300
_cell_angle_alpha   90.00000000
_cell_angle_beta   90.00000000
_cell_angle_gamma   120.00000139
_symmetry_Int_Tables_number   1
_chemical_formula_structural   Tb3In3CuPdAu
_chemical_formula_sum   'Tb3 In3 Cu1 Pd1 Au1'
_cell_volume   201.56451745
_cell_formula_units_Z   1
loop_
 _symmetry_equiv_pos_site_id
 _symmetry_equiv_pos_as_xyz
  1  'x, y, z'
loop_
 _atom_site_type_symbol
 _atom_site_label
 _atom_site_symmetry_multiplicity
 _atom_site_fract_x
 _atom_site_fract_y
 _atom_site_fract_z
 _atom_site_occupancy
  Tb  Tb0  1  0.007165  0.593562  0.500000  1
  Tb  Tb1  1  0.406438  0.413603  0.500000  1
  Tb  Tb2  1  0.586397  0.992835  0.500000  1
  In  In3  1  0.751099  0.754670  0.000000  1
  In  In4  1  0.003571  0.248901  0.000000  1
  In  In5  1  0.245330  0.996429  0.000000  1
  Cu  Cu6  1  0.000000  0.000000  0.500000  1
  Pd  Pd7  1  0.333333  0.666667  0.000000  1
  Au  Au8  1  0.666667  0.333333  0.000000  1
