# generated using pymatgen
data_SrTb4EuSe8
_symmetry_space_group_name_H-M   'P 1'
_cell_length_a   4.15104000
_cell_length_b   12.69336000
_cell_length_c   15.00593500
_cell_angle_alpha   90.00000000
_cell_angle_beta   90.00000000
_cell_angle_gamma   90.00000000
_symmetry_Int_Tables_number   1
_chemical_formula_structural   SrTb4EuSe8
_chemical_formula_sum   'Sr2 Tb8 Eu2 Se16'
_cell_volume   790.67239539
_cell_formula_units_Z   2
loop_
 _symmetry_equiv_pos_site_id
 _symmetry_equiv_pos_as_xyz
  1  'x, y, z'
loop_
 _atom_site_type_symbol
 _atom_site_label
 _atom_site_symmetry_multiplicity
 _atom_site_fract_x
 _atom_site_fract_y
 _atom_site_fract_z
 _atom_site_occupancy
  Sr  Sr0  1  0.250000  0.260033  0.833462  1
  Sr  Sr1  1  0.250000  0.760033  0.666538  1
  Tb  Tb2  1  0.750000  0.059752  0.112316  1
  Tb  Tb3  1  0.750000  0.559752  0.387684  1
  Tb  Tb4  1  0.250000  0.939798  0.889111  1
  Tb  Tb5  1  0.250000  0.439798  0.610889  1
  Tb  Tb6  1  0.750000  0.086678  0.595785  1
  Tb  Tb7  1  0.750000  0.586678  0.904215  1
  Tb  Tb8  1  0.250000  0.913701  0.402560  1
  Tb  Tb9  1  0.250000  0.413701  0.097440  1
  Eu  Eu10  1  0.750000  0.740960  0.166759  1
  Eu  Eu11  1  0.750000  0.240960  0.333241  1
  Se  Se12  1  0.750000  0.297441  0.673900  1
  Se  Se13  1  0.750000  0.797441  0.826100  1
  Se  Se14  1  0.250000  0.702822  0.322818  1
  Se  Se15  1  0.250000  0.202822  0.177182  1
  Se  Se16  1  0.750000  0.371179  0.967796  1
  Se  Se17  1  0.750000  0.871179  0.532204  1
  Se  Se18  1  0.250000  0.630197  0.035022  1
  Se  Se19  1  0.250000  0.130197  0.464978  1
  Se  Se20  1  0.750000  0.466858  0.216156  1
  Se  Se21  1  0.750000  0.966858  0.283844  1
  Se  Se22  1  0.250000  0.532559  0.784701  1
  Se  Se23  1  0.250000  0.032559  0.715299  1
  Se  Se24  1  0.750000  0.091848  0.923993  1
  Se  Se25  1  0.750000  0.591848  0.576007  1
  Se  Se26  1  0.250000  0.906173  0.077816  1
  Se  Se27  1  0.250000  0.406173  0.422184  1
