# generated using pymatgen
data_ScNb4Sn(B2Ru5)2
_symmetry_space_group_name_H-M   'P 1'
_cell_length_a   9.47000139
_cell_length_b   9.49880243
_cell_length_c   3.05584200
_cell_angle_alpha   90.00000000
_cell_angle_beta   90.00000000
_cell_angle_gamma   90.17772180
_symmetry_Int_Tables_number   1
_chemical_formula_structural   ScNb4Sn(B2Ru5)2
_chemical_formula_sum   'Sc1 Nb4 Sn1 B4 Ru10'
_cell_volume   274.88288704
_cell_formula_units_Z   1
loop_
 _symmetry_equiv_pos_site_id
 _symmetry_equiv_pos_as_xyz
  1  'x, y, z'
loop_
 _atom_site_type_symbol
 _atom_site_label
 _atom_site_symmetry_multiplicity
 _atom_site_fract_x
 _atom_site_fract_y
 _atom_site_fract_z
 _atom_site_occupancy
  Sc  Sc0  1  0.822808  0.674846  0.000000  1
  Nb  Nb1  1  0.175965  0.323951  0.000000  1
  Nb  Nb2  1  0.323486  0.824171  0.000000  1
  Nb  Nb3  1  0.677190  0.173960  0.000000  1
  Nb  Nb4  1  0.999146  0.997410  0.000000  1
  Sn  Sn5  1  0.503618  0.501996  0.000000  1
  B  B6  1  0.620627  0.877276  0.000000  1
  B  B7  1  0.379590  0.124167  0.000000  1
  B  B8  1  0.122812  0.619984  0.000000  1
  B  B9  1  0.878850  0.379724  0.000000  1
  Ru  Ru10  1  0.564522  0.726559  0.500000  1
  Ru  Ru11  1  0.424853  0.280384  0.500000  1
  Ru  Ru12  1  0.074714  0.782326  0.500000  1
  Ru  Ru13  1  0.933106  0.216981  0.500000  1
  Ru  Ru14  1  0.280232  0.573372  0.500000  1
  Ru  Ru15  1  0.720459  0.415454  0.500000  1
  Ru  Ru16  1  0.217740  0.071208  0.500000  1
  Ru  Ru17  1  0.778492  0.937349  0.500000  1
  Ru  Ru18  1  0.498466  0.002691  0.500000  1
  Ru  Ru19  1  0.003322  0.496190  0.500000  1
