# generated using pymatgen
data_Pr8Ho2RuRh3
_symmetry_space_group_name_H-M   'P 1'
_cell_length_a   6.59469870
_cell_length_b   7.29939807
_cell_length_c   9.03144185
_cell_angle_alpha   96.51615848
_cell_angle_beta   111.14118046
_cell_angle_gamma   90.06989484
_symmetry_Int_Tables_number   1
_chemical_formula_structural   Pr8Ho2RuRh3
_chemical_formula_sum   'Pr8 Ho2 Ru1 Rh3'
_cell_volume   402.45203228
_cell_formula_units_Z   1
loop_
 _symmetry_equiv_pos_site_id
 _symmetry_equiv_pos_as_xyz
  1  'x, y, z'
loop_
 _atom_site_type_symbol
 _atom_site_label
 _atom_site_symmetry_multiplicity
 _atom_site_fract_x
 _atom_site_fract_y
 _atom_site_fract_z
 _atom_site_occupancy
  Pr  Pr0  1  0.986659  0.923083  0.185169  1
  Pr  Pr1  1  0.798668  0.577983  0.813406  1
  Pr  Pr2  1  0.018477  0.078780  0.818348  1
  Pr  Pr3  1  0.205506  0.420119  0.187970  1
  Pr  Pr4  1  0.640383  0.813142  0.425209  1
  Pr  Pr5  1  0.210708  0.688715  0.572799  1
  Pr  Pr6  1  0.357460  0.187654  0.569663  1
  Pr  Pr7  1  0.783300  0.310910  0.425894  1
  Ho  Ho8  1  0.435538  0.751824  0.001473  1
  Ho  Ho9  1  0.565794  0.248497  0.000286  1
  Ru  Ru10  1  0.404743  0.071674  0.211976  1
  Rh  Rh11  1  0.801606  0.572314  0.206477  1
  Rh  Rh12  1  0.591452  0.927013  0.788953  1
  Rh  Rh13  1  0.199706  0.428293  0.792377  1
