# generated using pymatgen
data_Tb7Sn23Os5Pd
_symmetry_space_group_name_H-M   'P 1'
_cell_length_a   9.90584063
_cell_length_b   9.90583934
_cell_length_c   10.15380053
_cell_angle_alpha   89.67220497
_cell_angle_beta   90.32780004
_cell_angle_gamma   120.09411396
_symmetry_Int_Tables_number   1
_chemical_formula_structural   Tb7Sn23Os5Pd
_chemical_formula_sum   'Tb7 Sn23 Os5 Pd1'
_cell_volume   862.02480134
_cell_formula_units_Z   1
loop_
 _symmetry_equiv_pos_site_id
 _symmetry_equiv_pos_as_xyz
  1  'x, y, z'
loop_
 _atom_site_type_symbol
 _atom_site_label
 _atom_site_symmetry_multiplicity
 _atom_site_fract_x
 _atom_site_fract_y
 _atom_site_fract_z
 _atom_site_occupancy
  Tb  Tb0  1  0.004521  0.995479  0.994403  1
  Tb  Tb1  1  0.482381  0.517619  0.304050  1
  Tb  Tb2  1  0.518107  0.481893  0.696510  1
  Tb  Tb3  1  0.477284  0.962466  0.306427  1
  Tb  Tb4  1  0.515310  0.032765  0.696383  1
  Tb  Tb5  1  0.037534  0.522716  0.306427  1
  Tb  Tb6  1  0.967235  0.484690  0.696383  1
  Sn  Sn7  1  0.350215  0.000330  0.000186  1
  Sn  Sn8  1  0.645408  0.993673  0.998685  1
  Sn  Sn9  1  0.006327  0.354592  0.998685  1
  Sn  Sn10  1  0.999670  0.649785  0.000186  1
  Sn  Sn11  1  0.650692  0.649182  0.999058  1
  Sn  Sn12  1  0.350818  0.349308  0.999058  1
  Sn  Sn13  1  0.333923  0.666077  0.820965  1
  Sn  Sn14  1  0.662923  0.337077  0.180416  1
  Sn  Sn15  1  0.998552  0.001448  0.498251  1
  Sn  Sn16  1  0.776940  0.223060  0.460607  1
  Sn  Sn17  1  0.218871  0.781129  0.541544  1
  Sn  Sn18  1  0.780630  0.561650  0.459497  1
  Sn  Sn19  1  0.220641  0.440796  0.541499  1
  Sn  Sn20  1  0.438350  0.219370  0.459497  1
  Sn  Sn21  1  0.559204  0.779359  0.541499  1
  Sn  Sn22  1  0.333733  0.666267  0.123932  1
  Sn  Sn23  1  0.668193  0.331807  0.878258  1
  Sn  Sn24  1  0.117396  0.882604  0.274793  1
  Sn  Sn25  1  0.882943  0.117057  0.723841  1
  Sn  Sn26  1  0.119986  0.236184  0.277875  1
  Sn  Sn27  1  0.883373  0.765906  0.723719  1
  Sn  Sn28  1  0.763816  0.880014  0.277875  1
  Sn  Sn29  1  0.234094  0.116627  0.723719  1
  Os  Os30  1  0.169038  0.830962  0.800726  1
  Os  Os31  1  0.831263  0.660996  0.199922  1
  Os  Os32  1  0.170119  0.337639  0.798416  1
  Os  Os33  1  0.339004  0.168737  0.199922  1
  Os  Os34  1  0.662361  0.829881  0.798416  1
  Pd  Pd35  1  0.829146  0.170854  0.198370  1
