# generated using pymatgen
data_Ac4Zn10SnGe
_symmetry_space_group_name_H-M   'P 1'
_cell_length_a   8.79975700
_cell_length_b   8.79975649
_cell_length_c   9.21791800
_cell_angle_alpha   90.00000000
_cell_angle_beta   90.00000000
_cell_angle_gamma   149.10484081
_symmetry_Int_Tables_number   1
_chemical_formula_structural   Ac4Zn10SnGe
_chemical_formula_sum   'Ac4 Zn10 Sn1 Ge1'
_cell_volume   366.51199707
_cell_formula_units_Z   1
loop_
 _symmetry_equiv_pos_site_id
 _symmetry_equiv_pos_as_xyz
  1  'x, y, z'
loop_
 _atom_site_type_symbol
 _atom_site_label
 _atom_site_symmetry_multiplicity
 _atom_site_fract_x
 _atom_site_fract_y
 _atom_site_fract_z
 _atom_site_occupancy
  Ac  Ac0  1  0.207710  0.792290  0.250000  1
  Ac  Ac1  1  0.791070  0.208930  0.750000  1
  Ac  Ac2  1  0.000322  0.999678  0.490166  1
  Ac  Ac3  1  0.000322  0.999678  0.009834  1
  Zn  Zn4  1  0.814596  0.185404  0.391033  1
  Zn  Zn5  1  0.184266  0.815734  0.608165  1
  Zn  Zn6  1  0.814596  0.185404  0.108967  1
  Zn  Zn7  1  0.184266  0.815734  0.891835  1
  Zn  Zn8  1  0.651437  0.348563  0.482144  1
  Zn  Zn9  1  0.344968  0.655032  0.510482  1
  Zn  Zn10  1  0.651437  0.348563  0.017856  1
  Zn  Zn11  1  0.344968  0.655032  0.989518  1
  Zn  Zn12  1  0.407094  0.592906  0.250000  1
  Zn  Zn13  1  0.600178  0.399822  0.750000  1
  Sn  Sn14  1  0.442364  0.557636  0.750000  1
  Ge  Ge15  1  0.560404  0.439596  0.250000  1
