# generated using pymatgen
data_CaZn(MoN2)2
_symmetry_space_group_name_H-M   'P 1'
_cell_length_a   2.98547600
_cell_length_b   2.98547595
_cell_length_c   11.12578700
_cell_angle_alpha   90.00000000
_cell_angle_beta   90.00000000
_cell_angle_gamma   120.00000056
_symmetry_Int_Tables_number   1
_chemical_formula_structural   CaZn(MoN2)2
_chemical_formula_sum   'Ca1 Zn1 Mo2 N4'
_cell_volume   85.87930708
_cell_formula_units_Z   1
loop_
 _symmetry_equiv_pos_site_id
 _symmetry_equiv_pos_as_xyz
  1  'x, y, z'
loop_
 _atom_site_type_symbol
 _atom_site_label
 _atom_site_symmetry_multiplicity
 _atom_site_fract_x
 _atom_site_fract_y
 _atom_site_fract_z
 _atom_site_occupancy
  Ca  Ca0  1  0.000000  0.000000  0.500000  1
  Zn  Zn1  1  0.000000  0.000000  0.000000  1
  Mo  Mo2  1  0.333333  0.666667  0.758098  1
  Mo  Mo3  1  0.666667  0.333333  0.241902  1
  N  N4  1  0.666667  0.333333  0.645235  1
  N  N5  1  0.666667  0.333333  0.874991  1
  N  N6  1  0.333333  0.666667  0.125009  1
  N  N7  1  0.333333  0.666667  0.354765  1
