# generated using pymatgen
data_YbY6PdI12
_symmetry_space_group_name_H-M   'P 1'
_cell_length_a   9.81319620
_cell_length_b   9.81319433
_cell_length_c   9.81319489
_cell_angle_alpha   106.89162411
_cell_angle_beta   106.89161778
_cell_angle_gamma   106.89161309
_symmetry_Int_Tables_number   1
_chemical_formula_structural   YbY6PdI12
_chemical_formula_sum   'Yb1 Y6 Pd1 I12'
_cell_volume   789.31937477
_cell_formula_units_Z   1
loop_
 _symmetry_equiv_pos_site_id
 _symmetry_equiv_pos_as_xyz
  1  'x, y, z'
loop_
 _atom_site_type_symbol
 _atom_site_label
 _atom_site_symmetry_multiplicity
 _atom_site_fract_x
 _atom_site_fract_y
 _atom_site_fract_z
 _atom_site_occupancy
  Yb  Yb0  1  0.500000  0.500000  0.500000  1
  Y  Y1  1  0.697443  0.973771  0.901703  1
  Y  Y2  1  0.973771  0.901703  0.697443  1
  Y  Y3  1  0.098297  0.302557  0.026229  1
  Y  Y4  1  0.302557  0.026229  0.098297  1
  Y  Y5  1  0.901703  0.697443  0.973771  1
  Y  Y6  1  0.026229  0.098297  0.302557  1
  Pd  Pd7  1  0.000000  0.000000  0.000000  1
  I  I8  1  0.072052  0.223400  0.677845  1
  I  I9  1  0.379936  0.152390  0.457308  1
  I  I10  1  0.620064  0.847610  0.542692  1
  I  I11  1  0.223400  0.677845  0.072052  1
  I  I12  1  0.776600  0.322155  0.927948  1
  I  I13  1  0.677845  0.072052  0.223400  1
  I  I14  1  0.542692  0.620064  0.847610  1
  I  I15  1  0.847610  0.542692  0.620064  1
  I  I16  1  0.927948  0.776600  0.322155  1
  I  I17  1  0.322155  0.927948  0.776600  1
  I  I18  1  0.457308  0.379936  0.152390  1
  I  I19  1  0.152390  0.457308  0.379936  1
