# generated using pymatgen
data_PrBPPt6
_symmetry_space_group_name_H-M   'P 1'
_cell_length_a   8.39647000
_cell_length_b   8.39647000
_cell_length_c   8.39647000
_cell_angle_alpha   90.00000000
_cell_angle_beta   90.00000000
_cell_angle_gamma   90.00000000
_symmetry_Int_Tables_number   1
_chemical_formula_structural   PrBPPt6
_chemical_formula_sum   'Pr4 B4 P4 Pt24'
_cell_volume   591.95708357
_cell_formula_units_Z   4
loop_
 _symmetry_equiv_pos_site_id
 _symmetry_equiv_pos_as_xyz
  1  'x, y, z'
loop_
 _atom_site_type_symbol
 _atom_site_label
 _atom_site_symmetry_multiplicity
 _atom_site_fract_x
 _atom_site_fract_y
 _atom_site_fract_z
 _atom_site_occupancy
  Pr  Pr0  1  0.494012  0.505988  0.005988  1
  Pr  Pr1  1  0.505988  0.005988  0.494012  1
  Pr  Pr2  1  0.005988  0.494012  0.505988  1
  Pr  Pr3  1  0.994012  0.994012  0.994012  1
  B  B4  1  0.801899  0.301899  0.198101  1
  B  B5  1  0.198101  0.801899  0.301899  1
  B  B6  1  0.698101  0.698101  0.698101  1
  B  B7  1  0.301899  0.198101  0.801899  1
  P  P8  1  0.188008  0.688008  0.811992  1
  P  P9  1  0.811992  0.188008  0.688008  1
  P  P10  1  0.311992  0.311992  0.311992  1
  P  P11  1  0.688008  0.811992  0.188008  1
  Pt  Pt12  1  0.407640  0.858580  0.158863  1
  Pt  Pt13  1  0.592360  0.358580  0.341137  1
  Pt  Pt14  1  0.092360  0.141420  0.658863  1
  Pt  Pt15  1  0.907640  0.641420  0.841137  1
  Pt  Pt16  1  0.158863  0.407640  0.858580  1
  Pt  Pt17  1  0.341137  0.592360  0.358580  1
  Pt  Pt18  1  0.658863  0.092360  0.141420  1
  Pt  Pt19  1  0.841137  0.907640  0.641420  1
  Pt  Pt20  1  0.858580  0.158863  0.407640  1
  Pt  Pt21  1  0.358580  0.341137  0.592360  1
  Pt  Pt22  1  0.141420  0.658863  0.092360  1
  Pt  Pt23  1  0.641420  0.841137  0.907640  1
  Pt  Pt24  1  0.560773  0.165524  0.823173  1
  Pt  Pt25  1  0.439227  0.665524  0.676827  1
  Pt  Pt26  1  0.939227  0.834476  0.323173  1
  Pt  Pt27  1  0.060773  0.334476  0.176827  1
  Pt  Pt28  1  0.823173  0.560773  0.165524  1
  Pt  Pt29  1  0.676827  0.439227  0.665524  1
  Pt  Pt30  1  0.323173  0.939227  0.834476  1
  Pt  Pt31  1  0.176827  0.060773  0.334476  1
  Pt  Pt32  1  0.165524  0.823173  0.560773  1
  Pt  Pt33  1  0.665524  0.676827  0.439227  1
  Pt  Pt34  1  0.834476  0.323173  0.939227  1
  Pt  Pt35  1  0.334476  0.176827  0.060773  1
