# generated using pymatgen
data_Gd2Dy4TaO12
_symmetry_space_group_name_H-M   'P 1'
_cell_length_a   6.50486472
_cell_length_b   6.52603351
_cell_length_c   6.49673279
_cell_angle_alpha   98.85619001
_cell_angle_beta   98.57799142
_cell_angle_gamma   98.77331572
_symmetry_Int_Tables_number   1
_chemical_formula_structural   Gd2Dy4TaO12
_chemical_formula_sum   'Gd2 Dy4 Ta1 O12'
_cell_volume   265.07404413
_cell_formula_units_Z   1
loop_
 _symmetry_equiv_pos_site_id
 _symmetry_equiv_pos_as_xyz
  1  'x, y, z'
loop_
 _atom_site_type_symbol
 _atom_site_label
 _atom_site_symmetry_multiplicity
 _atom_site_fract_x
 _atom_site_fract_y
 _atom_site_fract_z
 _atom_site_occupancy
  Gd  Gd0  1  0.392172  0.695571  0.858316  1
  Gd  Gd1  1  0.137201  0.607638  0.303656  1
  Dy  Dy2  1  0.859310  0.386813  0.696476  1
  Dy  Dy3  1  0.612595  0.298820  0.139007  1
  Dy  Dy4  1  0.304930  0.141621  0.610824  1
  Dy  Dy5  1  0.700783  0.865118  0.390241  1
  Ta  Ta6  1  0.001636  0.999003  0.999228  1
  O  O7  1  0.926792  0.040703  0.696934  1
  O  O8  1  0.956028  0.301675  0.069753  1
  O  O9  1  0.587649  0.178474  0.437147  1
  O  O10  1  0.819834  0.563905  0.411236  1
  O  O11  1  0.302404  0.074923  0.958968  1
  O  O12  1  0.563981  0.411212  0.824483  1
  O  O13  1  0.437272  0.588257  0.178463  1
  O  O14  1  0.697842  0.930351  0.045103  1
  O  O15  1  0.175397  0.433494  0.587493  1
  O  O16  1  0.414095  0.823053  0.563999  1
  O  O17  1  0.037489  0.697861  0.925344  1
  O  O18  1  0.072589  0.961508  0.303330  1
