# generated using pymatgen
data_Li4Pr3SmPt4
_symmetry_space_group_name_H-M   'P 1'
_cell_length_a   4.10086400
_cell_length_b   7.25614965
_cell_length_c   8.66501305
_cell_angle_alpha   90.35680974
_cell_angle_beta   90.00000000
_cell_angle_gamma   90.00000000
_symmetry_Int_Tables_number   1
_chemical_formula_structural   Li4Pr3SmPt4
_chemical_formula_sum   'Li4 Pr3 Sm1 Pt4'
_cell_volume   257.83531278
_cell_formula_units_Z   1
loop_
 _symmetry_equiv_pos_site_id
 _symmetry_equiv_pos_as_xyz
  1  'x, y, z'
loop_
 _atom_site_type_symbol
 _atom_site_label
 _atom_site_symmetry_multiplicity
 _atom_site_fract_x
 _atom_site_fract_y
 _atom_site_fract_z
 _atom_site_occupancy
  Li  Li0  1  0.250000  0.875658  0.947418  1
  Li  Li1  1  0.750000  0.124604  0.056588  1
  Li  Li2  1  0.750000  0.628399  0.442732  1
  Li  Li3  1  0.250000  0.371499  0.553993  1
  Pr  Pr4  1  0.250000  0.454299  0.186013  1
  Pr  Pr5  1  0.750000  0.547871  0.815976  1
  Pr  Pr6  1  0.750000  0.044652  0.683225  1
  Sm  Sm7  1  0.250000  0.953250  0.316869  1
  Pt  Pt8  1  0.250000  0.750856  0.614269  1
  Pt  Pt9  1  0.750000  0.244074  0.379326  1
  Pt  Pt10  1  0.750000  0.752605  0.122573  1
  Pt  Pt11  1  0.250000  0.252233  0.881022  1
