# generated using pymatgen
data_Er5Nb3Co16(GeP5)2
_symmetry_space_group_name_H-M   'P 1'
_cell_length_a   12.21604583
_cell_length_b   12.24550525
_cell_length_c   3.70305600
_cell_angle_alpha   90.00000000
_cell_angle_beta   90.00000000
_cell_angle_gamma   119.87842183
_symmetry_Int_Tables_number   1
_chemical_formula_structural   Er5Nb3Co16(GeP5)2
_chemical_formula_sum   'Er5 Nb3 Co16 Ge2 P10'
_cell_volume   480.31818129
_cell_formula_units_Z   1
loop_
 _symmetry_equiv_pos_site_id
 _symmetry_equiv_pos_as_xyz
  1  'x, y, z'
loop_
 _atom_site_type_symbol
 _atom_site_label
 _atom_site_symmetry_multiplicity
 _atom_site_fract_x
 _atom_site_fract_y
 _atom_site_fract_z
 _atom_site_occupancy
  Er  Er0  1  0.818358  0.999235  0.500000  1
  Er  Er1  1  0.001637  0.816600  0.500000  1
  Er  Er2  1  0.181817  0.183002  0.500000  1
  Er  Er3  1  0.325266  0.657567  0.000000  1
  Er  Er4  1  0.666673  0.334502  0.000000  1
  Nb  Nb5  1  0.446450  0.007516  0.000000  1
  Nb  Nb6  1  0.997313  0.440984  0.000000  1
  Nb  Nb7  1  0.559010  0.553999  0.000000  1
  Co  Co8  1  0.278944  0.006379  0.500000  1
  Co  Co9  1  0.997475  0.276862  0.500000  1
  Co  Co10  1  0.727716  0.720586  0.500000  1
  Co  Co11  1  0.635276  0.809609  0.000000  1
  Co  Co12  1  0.191439  0.823407  0.000000  1
  Co  Co13  1  0.172501  0.369895  0.000000  1
  Co  Co14  1  0.373742  0.180804  0.000000  1
  Co  Co15  1  0.805646  0.624932  0.000000  1
  Co  Co16  1  0.821805  0.196203  0.000000  1
  Co  Co17  1  0.536109  0.889444  0.500000  1
  Co  Co18  1  0.118856  0.639245  0.500000  1
  Co  Co19  1  0.345753  0.468322  0.500000  1
  Co  Co20  1  0.481866  0.354714  0.500000  1
  Co  Co21  1  0.871689  0.516630  0.500000  1
  Co  Co22  1  0.646516  0.132671  0.500000  1
  Co  Co23  1  0.000086  0.000057  0.000000  1
  Ge  Ge24  1  0.517064  0.687968  0.500000  1
  Ge  Ge25  1  0.315903  0.831351  0.500000  1
  P  P26  1  0.178972  0.001081  0.000000  1
  P  P27  1  0.997896  0.176788  0.000000  1
  P  P28  1  0.823426  0.820258  0.000000  1
  P  P29  1  0.164552  0.475582  0.500000  1
  P  P30  1  0.479248  0.171185  0.500000  1
  P  P31  1  0.690119  0.520545  0.500000  1
  P  P32  1  0.830228  0.310961  0.500000  1
  P  P33  1  0.646919  0.001458  0.000000  1
  P  P34  1  0.000143  0.644080  0.000000  1
  P  P35  1  0.353589  0.355580  0.000000  1
