# generated using pymatgen
data_Tb2Y3Lu5(Si5Ir2)4
_symmetry_space_group_name_H-M   'P 1'
_cell_length_a   12.60718402
_cell_length_b   12.60718434
_cell_length_c   4.24223300
_cell_angle_alpha   90.00000000
_cell_angle_beta   90.00000000
_cell_angle_gamma   89.97684933
_symmetry_Int_Tables_number   1
_chemical_formula_structural   Tb2Y3Lu5(Si5Ir2)4
_chemical_formula_sum   'Tb2 Y3 Lu5 Si20 Ir8'
_cell_volume   674.26509467
_cell_formula_units_Z   1
loop_
 _symmetry_equiv_pos_site_id
 _symmetry_equiv_pos_as_xyz
  1  'x, y, z'
loop_
 _atom_site_type_symbol
 _atom_site_label
 _atom_site_symmetry_multiplicity
 _atom_site_fract_x
 _atom_site_fract_y
 _atom_site_fract_z
 _atom_site_occupancy
  Tb  Tb0  1  0.883801  0.383578  0.500000  1
  Tb  Tb1  1  0.116422  0.616199  0.500000  1
  Y  Y2  1  0.823414  0.676586  0.500000  1
  Y  Y3  1  0.383869  0.116131  0.500000  1
  Y  Y4  1  0.615650  0.884350  0.500000  1
  Lu  Lu5  1  0.499873  0.500121  0.000000  1
  Lu  Lu6  1  0.999879  0.000127  0.000000  1
  Lu  Lu7  1  0.676341  0.175560  0.500000  1
  Lu  Lu8  1  0.324440  0.823659  0.500000  1
  Lu  Lu9  1  0.176147  0.323853  0.500000  1
  Si  Si10  1  0.566144  0.066587  0.000000  1
  Si  Si11  1  0.433413  0.933856  0.000000  1
  Si  Si12  1  0.066731  0.433269  0.000000  1
  Si  Si13  1  0.934360  0.565640  0.000000  1
  Si  Si14  1  0.662168  0.701218  0.000000  1
  Si  Si15  1  0.336605  0.298938  0.000000  1
  Si  Si16  1  0.164031  0.799359  0.000000  1
  Si  Si17  1  0.836641  0.201154  0.000000  1
  Si  Si18  1  0.298846  0.663359  0.000000  1
  Si  Si19  1  0.700641  0.335969  0.000000  1
  Si  Si20  1  0.201062  0.163395  0.000000  1
  Si  Si21  1  0.798782  0.837832  0.000000  1
  Si  Si22  1  0.654069  0.501984  0.500000  1
  Si  Si23  1  0.345210  0.496066  0.500000  1
  Si  Si24  1  0.154295  0.995990  0.500000  1
  Si  Si25  1  0.845149  0.003418  0.500000  1
  Si  Si26  1  0.496582  0.654851  0.500000  1
  Si  Si27  1  0.504010  0.345705  0.500000  1
  Si  Si28  1  0.003934  0.154790  0.500000  1
  Si  Si29  1  0.998016  0.845931  0.500000  1
  Ir  Ir30  1  0.743603  0.520966  0.000000  1
  Ir  Ir31  1  0.255514  0.477507  0.000000  1
  Ir  Ir32  1  0.244809  0.978082  0.000000  1
  Ir  Ir33  1  0.755120  0.023014  0.000000  1
  Ir  Ir34  1  0.476986  0.744880  0.000000  1
  Ir  Ir35  1  0.521918  0.255191  0.000000  1
  Ir  Ir36  1  0.022493  0.244486  0.000000  1
  Ir  Ir37  1  0.979034  0.756397  0.000000  1
