# generated using pymatgen
data_Dy3Er8Ni4Hg9
_symmetry_space_group_name_H-M   'P 1'
_cell_length_a   3.58376000
_cell_length_b   12.85811126
_cell_length_c   12.85811130
_cell_angle_alpha   112.43939468
_cell_angle_beta   90.00000000
_cell_angle_gamma   90.00000000
_symmetry_Int_Tables_number   1
_chemical_formula_structural   Dy3Er8Ni4Hg9
_chemical_formula_sum   'Dy3 Er8 Ni4 Hg9'
_cell_volume   547.64436195
_cell_formula_units_Z   1
loop_
 _symmetry_equiv_pos_site_id
 _symmetry_equiv_pos_as_xyz
  1  'x, y, z'
loop_
 _atom_site_type_symbol
 _atom_site_label
 _atom_site_symmetry_multiplicity
 _atom_site_fract_x
 _atom_site_fract_y
 _atom_site_fract_z
 _atom_site_occupancy
  Dy  Dy0  1  0.000000  0.690605  0.690605  1
  Dy  Dy1  1  0.000000  0.309395  0.309395  1
  Dy  Dy2  1  0.000000  0.000000  0.000000  1
  Er  Er3  1  0.000000  0.918587  0.582838  1
  Er  Er4  1  0.000000  0.081413  0.417162  1
  Er  Er5  1  0.000000  0.582838  0.918587  1
  Er  Er6  1  0.000000  0.417162  0.081413  1
  Er  Er7  1  0.000000  0.165185  0.834815  1
  Er  Er8  1  0.000000  0.834815  0.165185  1
  Er  Er9  1  0.000000  0.372991  0.627009  1
  Er  Er10  1  0.000000  0.627009  0.372991  1
  Ni  Ni11  1  0.500000  0.749051  0.548138  1
  Ni  Ni12  1  0.500000  0.250949  0.451862  1
  Ni  Ni13  1  0.500000  0.548138  0.749051  1
  Ni  Ni14  1  0.500000  0.451862  0.250949  1
  Hg  Hg15  1  0.500000  0.153954  0.629542  1
  Hg  Hg16  1  0.500000  0.846046  0.370458  1
  Hg  Hg17  1  0.500000  0.629542  0.153954  1
  Hg  Hg18  1  0.500000  0.370458  0.846046  1
  Hg  Hg19  1  0.500000  0.927866  0.780275  1
  Hg  Hg20  1  0.500000  0.072134  0.219725  1
  Hg  Hg21  1  0.500000  0.780275  0.927866  1
  Hg  Hg22  1  0.500000  0.219725  0.072134  1
  Hg  Hg23  1  0.500000  0.500000  0.500000  1
