# generated using pymatgen
data_Ag4AsRh3F28
_symmetry_space_group_name_H-M   'P 1'
_cell_length_a   7.12464900
_cell_length_b   7.92683822
_cell_length_c   10.35598919
_cell_angle_alpha   90.55915872
_cell_angle_beta   90.00000000
_cell_angle_gamma   90.00000000
_symmetry_Int_Tables_number   1
_chemical_formula_structural   Ag4AsRh3F28
_chemical_formula_sum   'Ag4 As1 Rh3 F28'
_cell_volume   584.83637239
_cell_formula_units_Z   1
loop_
 _symmetry_equiv_pos_site_id
 _symmetry_equiv_pos_as_xyz
  1  'x, y, z'
loop_
 _atom_site_type_symbol
 _atom_site_label
 _atom_site_symmetry_multiplicity
 _atom_site_fract_x
 _atom_site_fract_y
 _atom_site_fract_z
 _atom_site_occupancy
  Ag  Ag0  1  0.250000  0.645005  0.744344  1
  Ag  Ag1  1  0.750000  0.353771  0.258049  1
  Ag  Ag2  1  0.250000  0.144684  0.756286  1
  Ag  Ag3  1  0.750000  0.851922  0.244260  1
  As  As4  1  0.750000  0.698901  0.558353  1
  Rh  Rh5  1  0.250000  0.799724  0.060061  1
  Rh  Rh6  1  0.750000  0.198572  0.940637  1
  Rh  Rh7  1  0.250000  0.304469  0.442238  1
  F  F8  1  0.936298  0.120636  0.819007  1
  F  F9  1  0.436870  0.877545  0.182275  1
  F  F10  1  0.573796  0.626126  0.666845  1
  F  F11  1  0.063948  0.382633  0.321594  1
  F  F12  1  0.063130  0.877545  0.182275  1
  F  F13  1  0.563702  0.120636  0.819007  1
  F  F14  1  0.436052  0.382633  0.321594  1
  F  F15  1  0.926204  0.626126  0.666845  1
  F  F16  1  0.750000  0.598367  0.197048  1
  F  F17  1  0.250000  0.397628  0.801456  1
  F  F18  1  0.750000  0.103026  0.300697  1
  F  F19  1  0.250000  0.896338  0.697455  1
  F  F20  1  0.750000  0.494480  0.484232  1
  F  F21  1  0.250000  0.521823  0.520810  1
  F  F22  1  0.750000  0.981778  0.014665  1
  F  F23  1  0.250000  0.017420  0.986332  1
  F  F24  1  0.750000  0.897229  0.631946  1
  F  F25  1  0.250000  0.093337  0.363412  1
  F  F26  1  0.750000  0.410906  0.867218  1
  F  F27  1  0.250000  0.586265  0.131774  1
  F  F28  1  0.925197  0.764466  0.445571  1
  F  F29  1  0.433563  0.231923  0.564254  1
  F  F30  1  0.566225  0.270154  0.064618  1
  F  F31  1  0.066671  0.728693  0.935200  1
  F  F32  1  0.066437  0.231923  0.564254  1
  F  F33  1  0.574803  0.764466  0.445571  1
  F  F34  1  0.433329  0.728693  0.935200  1
  F  F35  1  0.933775  0.270154  0.064618  1
