# generated using pymatgen
data_Tm4CrFe8P12Ir11
_symmetry_space_group_name_H-M   'P 1'
_cell_length_a   3.81700100
_cell_length_b   10.45738214
_cell_length_c   12.30498602
_cell_angle_alpha   90.33840472
_cell_angle_beta   90.00000000
_cell_angle_gamma   90.00000000
_symmetry_Int_Tables_number   1
_chemical_formula_structural   Tm4CrFe8P12Ir11
_chemical_formula_sum   'Tm4 Cr1 Fe8 P12 Ir11'
_cell_volume   491.15526289
_cell_formula_units_Z   1
loop_
 _symmetry_equiv_pos_site_id
 _symmetry_equiv_pos_as_xyz
  1  'x, y, z'
loop_
 _atom_site_type_symbol
 _atom_site_label
 _atom_site_symmetry_multiplicity
 _atom_site_fract_x
 _atom_site_fract_y
 _atom_site_fract_z
 _atom_site_occupancy
  Tm  Tm0  1  0.250000  0.580131  0.715207  1
  Tm  Tm1  1  0.250000  0.919440  0.211052  1
  Tm  Tm2  1  0.750000  0.421297  0.287622  1
  Tm  Tm3  1  0.750000  0.077177  0.787282  1
  Cr  Cr4  1  0.250000  0.706130  0.991364  1
  Fe  Fe5  1  0.250000  0.876463  0.695412  1
  Fe  Fe6  1  0.250000  0.625427  0.197759  1
  Fe  Fe7  1  0.750000  0.124789  0.301776  1
  Fe  Fe8  1  0.750000  0.378264  0.803543  1
  Fe  Fe9  1  0.250000  0.456608  0.938358  1
  Fe  Fe10  1  0.250000  0.043591  0.435807  1
  Fe  Fe11  1  0.750000  0.537524  0.064928  1
  Fe  Fe12  1  0.750000  0.957843  0.561670  1
  P  P13  1  0.250000  0.441262  0.114178  1
  P  P14  1  0.250000  0.059318  0.612027  1
  P  P15  1  0.750000  0.564284  0.890924  1
  P  P16  1  0.750000  0.941550  0.385806  1
  P  P17  1  0.250000  0.271335  0.862227  1
  P  P18  1  0.250000  0.229186  0.362274  1
  P  P19  1  0.750000  0.727218  0.134653  1
  P  P20  1  0.750000  0.772602  0.637423  1
  P  P21  1  0.250000  0.599567  0.377109  1
  P  P22  1  0.250000  0.898254  0.878350  1
  P  P23  1  0.750000  0.401805  0.624160  1
  P  P24  1  0.750000  0.098402  0.121086  1
  Ir  Ir25  1  0.250000  0.783762  0.488880  1
  Ir  Ir26  1  0.750000  0.285316  0.010368  1
  Ir  Ir27  1  0.750000  0.217433  0.510255  1
  Ir  Ir28  1  0.250000  0.409255  0.474821  1
  Ir  Ir29  1  0.250000  0.092495  0.973290  1
  Ir  Ir30  1  0.750000  0.591569  0.526554  1
  Ir  Ir31  1  0.750000  0.905742  0.024321  1
  Ir  Ir32  1  0.250000  0.232099  0.173677  1
  Ir  Ir33  1  0.250000  0.268914  0.673888  1
  Ir  Ir34  1  0.750000  0.771579  0.826583  1
  Ir  Ir35  1  0.750000  0.732369  0.325364  1
