# generated using pymatgen
data_RbUNbBr11
_symmetry_space_group_name_H-M   'P 1'
_cell_length_a   7.80837094
_cell_length_b   7.87125662
_cell_length_c   19.27460134
_cell_angle_alpha   78.62513437
_cell_angle_beta   78.48683175
_cell_angle_gamma   88.41268328
_symmetry_Int_Tables_number   1
_chemical_formula_structural   RbUNbBr11
_chemical_formula_sum   'Rb2 U2 Nb2 Br22'
_cell_volume   1137.92825727
_cell_formula_units_Z   2
loop_
 _symmetry_equiv_pos_site_id
 _symmetry_equiv_pos_as_xyz
  1  'x, y, z'
loop_
 _atom_site_type_symbol
 _atom_site_label
 _atom_site_symmetry_multiplicity
 _atom_site_fract_x
 _atom_site_fract_y
 _atom_site_fract_z
 _atom_site_occupancy
  Rb  Rb0  1  0.747450  0.747874  0.504014  1
  Rb  Rb1  1  0.252550  0.252126  0.495986  1
  U  U2  1  0.323195  0.820376  0.342793  1
  U  U3  1  0.676805  0.179624  0.657207  1
  Nb  Nb4  1  0.832827  0.331590  0.085986  1
  Nb  Nb5  1  0.167173  0.668410  0.914014  1
  Br  Br6  1  0.250434  0.770137  0.492252  1
  Br  Br7  1  0.749566  0.229863  0.507748  1
  Br  Br8  1  0.584376  0.034860  0.345078  1
  Br  Br9  1  0.415624  0.965140  0.654922  1
  Br  Br10  1  0.545078  0.550651  0.353530  1
  Br  Br11  1  0.454922  0.449349  0.646470  1
  Br  Br12  1  0.389304  0.863961  0.200918  1
  Br  Br13  1  0.610696  0.136039  0.799082  1
  Br  Br14  1  0.055975  0.597451  0.355029  1
  Br  Br15  1  0.944025  0.402549  0.644971  1
  Br  Br16  1  0.100091  0.087196  0.340811  1
  Br  Br17  1  0.899909  0.912804  0.659189  1
  Br  Br18  1  0.900319  0.040414  0.145514  1
  Br  Br19  1  0.099681  0.959586  0.854486  1
  Br  Br20  1  0.536373  0.381409  0.148210  1
  Br  Br21  1  0.463627  0.618591  0.851790  1
  Br  Br22  1  0.726355  0.222005  0.988797  1
  Br  Br23  1  0.273645  0.777995  0.011203  1
  Br  Br24  1  0.970694  0.475399  0.166557  1
  Br  Br25  1  0.029306  0.524601  0.833443  1
  Br  Br26  1  0.161270  0.346106  0.999669  1
  Br  Br27  1  0.838730  0.653894  0.000331  1
