# generated using pymatgen
data_Y6Ho10CdIn3Ir4
_symmetry_space_group_name_H-M   'P 1'
_cell_length_a   9.64860589
_cell_length_b   9.65335859
_cell_length_c   9.65335800
_cell_angle_alpha   60.00000203
_cell_angle_beta   59.98370631
_cell_angle_gamma   59.98371056
_symmetry_Int_Tables_number   1
_chemical_formula_structural   Y6Ho10CdIn3Ir4
_chemical_formula_sum   'Y6 Ho10 Cd1 In3 Ir4'
_cell_volume   635.62276105
_cell_formula_units_Z   1
loop_
 _symmetry_equiv_pos_site_id
 _symmetry_equiv_pos_as_xyz
  1  'x, y, z'
loop_
 _atom_site_type_symbol
 _atom_site_label
 _atom_site_symmetry_multiplicity
 _atom_site_fract_x
 _atom_site_fract_y
 _atom_site_fract_z
 _atom_site_occupancy
  Y  Y0  1  0.940055  0.561242  0.561242  1
  Y  Y1  1  0.561263  0.939385  0.939385  1
  Y  Y2  1  0.561263  0.939385  0.559969  1
  Y  Y3  1  0.940055  0.561242  0.937462  1
  Y  Y4  1  0.561263  0.559969  0.939385  1
  Y  Y5  1  0.940055  0.937462  0.561242  1
  Ho  Ho6  1  0.349194  0.349242  0.349242  1
  Ho  Ho7  1  0.349194  0.349242  0.952322  1
  Ho  Ho8  1  0.349194  0.952322  0.349242  1
  Ho  Ho9  1  0.952482  0.349173  0.349173  1
  Ho  Ho10  1  0.809238  0.190526  0.190526  1
  Ho  Ho11  1  0.189568  0.810577  0.810577  1
  Ho  Ho12  1  0.189568  0.810577  0.189278  1
  Ho  Ho13  1  0.809238  0.190526  0.809709  1
  Ho  Ho14  1  0.189568  0.189278  0.810577  1
  Ho  Ho15  1  0.809238  0.809709  0.190526  1
  Cd  Cd16  1  0.253502  0.582166  0.582166  1
  In  In17  1  0.582263  0.583489  0.583489  1
  In  In18  1  0.582263  0.583489  0.250761  1
  In  In19  1  0.582263  0.250761  0.583489  1
  Ir  Ir20  1  0.141461  0.141258  0.141258  1
  Ir  Ir21  1  0.141461  0.141258  0.576024  1
  Ir  Ir22  1  0.141461  0.576024  0.141258  1
  Ir  Ir23  1  0.574893  0.141703  0.141703  1
