# generated using pymatgen
data_Gd8In3SnAu8
_symmetry_space_group_name_H-M   'P 1'
_cell_length_a   8.11542300
_cell_length_b   8.11542300
_cell_length_c   7.38366800
_cell_angle_alpha   90.00000000
_cell_angle_beta   90.00000000
_cell_angle_gamma   90.00000000
_symmetry_Int_Tables_number   1
_chemical_formula_structural   Gd8In3SnAu8
_chemical_formula_sum   'Gd8 In3 Sn1 Au8'
_cell_volume   486.28904247
_cell_formula_units_Z   1
loop_
 _symmetry_equiv_pos_site_id
 _symmetry_equiv_pos_as_xyz
  1  'x, y, z'
loop_
 _atom_site_type_symbol
 _atom_site_label
 _atom_site_symmetry_multiplicity
 _atom_site_fract_x
 _atom_site_fract_y
 _atom_site_fract_z
 _atom_site_occupancy
  Gd  Gd0  1  0.838458  0.160146  0.500647  1
  Gd  Gd1  1  0.161542  0.839854  0.500647  1
  Gd  Gd2  1  0.339854  0.338458  0.999353  1
  Gd  Gd3  1  0.660146  0.661542  0.999353  1
  Gd  Gd4  1  0.680426  0.682163  0.500592  1
  Gd  Gd5  1  0.319574  0.317837  0.500592  1
  Gd  Gd6  1  0.182164  0.819574  0.999408  1
  Gd  Gd7  1  0.817837  0.180427  0.999408  1
  In  In8  1  0.000000  0.500000  0.750000  1
  In  In9  1  0.500000  0.000000  0.750000  1
  In  In10  1  0.000000  0.500000  0.250000  1
  Sn  Sn11  1  0.500000  0.000000  0.250000  1
  Au  Au12  1  0.629752  0.375533  0.271155  1
  Au  Au13  1  0.370248  0.624467  0.271155  1
  Au  Au14  1  0.127183  0.128023  0.770683  1
  Au  Au15  1  0.872817  0.871977  0.770683  1
  Au  Au16  1  0.371977  0.627183  0.729317  1
  Au  Au17  1  0.628023  0.372817  0.729317  1
  Au  Au18  1  0.875533  0.870248  0.228845  1
  Au  Au19  1  0.124467  0.129752  0.228845  1
