# generated using pymatgen
data_La3Pr7(PPb3)2
_symmetry_space_group_name_H-M   'P 1'
_cell_length_a   9.62246600
_cell_length_b   9.62246550
_cell_length_c   7.17225300
_cell_angle_alpha   90.00000000
_cell_angle_beta   90.00000000
_cell_angle_gamma   119.99999485
_symmetry_Int_Tables_number   1
_chemical_formula_structural   La3Pr7(PPb3)2
_chemical_formula_sum   'La3 Pr7 P2 Pb6'
_cell_volume   575.12070481
_cell_formula_units_Z   1
loop_
 _symmetry_equiv_pos_site_id
 _symmetry_equiv_pos_as_xyz
  1  'x, y, z'
loop_
 _atom_site_type_symbol
 _atom_site_label
 _atom_site_symmetry_multiplicity
 _atom_site_fract_x
 _atom_site_fract_y
 _atom_site_fract_z
 _atom_site_occupancy
  La  La0  1  0.237678  0.237678  0.750000  1
  La  La1  1  0.762322  0.000000  0.750000  1
  La  La2  1  0.000000  0.762322  0.750000  1
  Pr  Pr3  1  0.762740  0.762740  0.250000  1
  Pr  Pr4  1  0.237260  0.000000  0.250000  1
  Pr  Pr5  1  0.000000  0.237260  0.250000  1
  Pr  Pr6  1  0.666667  0.333333  0.498930  1
  Pr  Pr7  1  0.333333  0.666667  0.498930  1
  Pr  Pr8  1  0.333333  0.666667  0.001070  1
  Pr  Pr9  1  0.666667  0.333333  0.001070  1
  P  P10  1  0.000000  0.000000  0.498730  1
  P  P11  1  0.000000  0.000000  0.001270  1
  Pb  Pb12  1  0.400465  0.400465  0.250000  1
  Pb  Pb13  1  0.599535  0.000000  0.250000  1
  Pb  Pb14  1  0.000000  0.599535  0.250000  1
  Pb  Pb15  1  0.598473  0.598473  0.750000  1
  Pb  Pb16  1  0.401527  0.000000  0.750000  1
  Pb  Pb17  1  0.000000  0.401527  0.750000  1
