# generated using pymatgen
data_Er5Lu11(Ga3Ir)2
_symmetry_space_group_name_H-M   'P 1'
_cell_length_a   9.88650037
_cell_length_b   9.88650158
_cell_length_c   6.89150708
_cell_angle_alpha   89.98443727
_cell_angle_beta   90.01556145
_cell_angle_gamma   119.97282858
_symmetry_Int_Tables_number   1
_chemical_formula_structural   Er5Lu11(Ga3Ir)2
_chemical_formula_sum   'Er5 Lu11 Ga6 Ir2'
_cell_volume   583.51078565
_cell_formula_units_Z   1
loop_
 _symmetry_equiv_pos_site_id
 _symmetry_equiv_pos_as_xyz
  1  'x, y, z'
loop_
 _atom_site_type_symbol
 _atom_site_label
 _atom_site_symmetry_multiplicity
 _atom_site_fract_x
 _atom_site_fract_y
 _atom_site_fract_z
 _atom_site_occupancy
  Er  Er0  1  0.533149  0.466851  0.795426  1
  Er  Er1  1  0.466716  0.933293  0.295404  1
  Er  Er2  1  0.066707  0.533284  0.295404  1
  Er  Er3  1  0.933434  0.466716  0.795454  1
  Er  Er4  1  0.533284  0.066566  0.795454  1
  Lu  Lu5  1  0.000006  0.999994  0.267114  1
  Lu  Lu6  1  0.000033  0.999967  0.767154  1
  Lu  Lu7  1  0.170946  0.829054  0.991182  1
  Lu  Lu8  1  0.829041  0.170959  0.491166  1
  Lu  Lu9  1  0.171233  0.342126  0.991454  1
  Lu  Lu10  1  0.657874  0.828767  0.991454  1
  Lu  Lu11  1  0.342074  0.171348  0.490843  1
  Lu  Lu12  1  0.828652  0.657926  0.490843  1
  Lu  Lu13  1  0.333534  0.666466  0.663138  1
  Lu  Lu14  1  0.666505  0.333495  0.163331  1
  Lu  Lu15  1  0.466275  0.533725  0.295239  1
  Ga  Ga16  1  0.163353  0.836647  0.542772  1
  Ga  Ga17  1  0.836597  0.163403  0.042606  1
  Ga  Ga18  1  0.163708  0.327023  0.542494  1
  Ga  Ga19  1  0.672977  0.836292  0.542494  1
  Ga  Ga20  1  0.326799  0.163404  0.042875  1
  Ga  Ga21  1  0.836596  0.673201  0.042875  1
  Ir  Ir22  1  0.333842  0.666158  0.055314  1
  Ir  Ir23  1  0.666666  0.333334  0.554634  1
