# generated using pymatgen
data_Tb8Sc11Si16Mo
_symmetry_space_group_name_H-M   'P 1'
_cell_length_a   7.06443577
_cell_length_b   7.38033108
_cell_length_c   13.94723900
_cell_angle_alpha   90.00000000
_cell_angle_beta   90.00000000
_cell_angle_gamma   90.18512089
_symmetry_Int_Tables_number   1
_chemical_formula_structural   Tb8Sc11Si16Mo
_chemical_formula_sum   'Tb8 Sc11 Si16 Mo1'
_cell_volume   727.17560582
_cell_formula_units_Z   1
loop_
 _symmetry_equiv_pos_site_id
 _symmetry_equiv_pos_as_xyz
  1  'x, y, z'
loop_
 _atom_site_type_symbol
 _atom_site_label
 _atom_site_symmetry_multiplicity
 _atom_site_fract_x
 _atom_site_fract_y
 _atom_site_fract_z
 _atom_site_occupancy
  Tb  Tb0  1  0.013175  0.176705  0.094207  1
  Tb  Tb1  1  0.991531  0.819331  0.900352  1
  Tb  Tb2  1  0.485347  0.672743  0.901359  1
  Tb  Tb3  1  0.991531  0.819331  0.599648  1
  Tb  Tb4  1  0.512063  0.323747  0.095800  1
  Tb  Tb5  1  0.013175  0.176705  0.405793  1
  Tb  Tb6  1  0.512063  0.323747  0.404200  1
  Tb  Tb7  1  0.485347  0.672743  0.598641  1
  Sc  Sc8  1  0.841776  0.496957  0.250000  1
  Sc  Sc9  1  0.342311  0.003270  0.250000  1
  Sc  Sc10  1  0.657512  0.996150  0.750000  1
  Sc  Sc11  1  0.326870  0.178418  0.627747  1
  Sc  Sc12  1  0.672200  0.824130  0.374470  1
  Sc  Sc13  1  0.172899  0.673840  0.376507  1
  Sc  Sc14  1  0.672200  0.824130  0.125530  1
  Sc  Sc15  1  0.827942  0.330203  0.628389  1
  Sc  Sc16  1  0.326870  0.178418  0.872253  1
  Sc  Sc17  1  0.827942  0.330203  0.871611  1
  Sc  Sc18  1  0.172899  0.673840  0.123493  1
  Si  Si19  1  0.030431  0.123788  0.750000  1
  Si  Si20  1  0.972340  0.883841  0.250000  1
  Si  Si21  1  0.468708  0.617030  0.250000  1
  Si  Si22  1  0.521684  0.392852  0.750000  1
  Si  Si23  1  0.283289  0.864036  0.750000  1
  Si  Si24  1  0.717592  0.127743  0.250000  1
  Si  Si25  1  0.214413  0.372849  0.250000  1
  Si  Si26  1  0.792431  0.626521  0.750000  1
  Si  Si27  1  0.153409  0.465811  0.547620  1
  Si  Si28  1  0.844210  0.535624  0.462622  1
  Si  Si29  1  0.347046  0.964683  0.462654  1
  Si  Si30  1  0.844210  0.535624  0.037378  1
  Si  Si31  1  0.656570  0.034610  0.539855  1
  Si  Si32  1  0.153409  0.465811  0.952380  1
  Si  Si33  1  0.656570  0.034610  0.960145  1
  Si  Si34  1  0.347046  0.964683  0.037346  1
  Mo  Mo35  1  0.150990  0.495274  0.750000  1
