# generated using pymatgen
data_Er3Tm5Re3B24Rh
_symmetry_space_group_name_H-M   'P 1'
_cell_length_a   3.64484900
_cell_length_b   9.10123010
_cell_length_c   11.47371401
_cell_angle_alpha   90.15200000
_cell_angle_beta   90.00000000
_cell_angle_gamma   90.00000000
_symmetry_Int_Tables_number   1
_chemical_formula_structural   Er3Tm5Re3B24Rh
_chemical_formula_sum   'Er3 Tm5 Re3 B24 Rh1'
_cell_volume   380.61169425
_cell_formula_units_Z   1
loop_
 _symmetry_equiv_pos_site_id
 _symmetry_equiv_pos_as_xyz
  1  'x, y, z'
loop_
 _atom_site_type_symbol
 _atom_site_label
 _atom_site_symmetry_multiplicity
 _atom_site_fract_x
 _atom_site_fract_y
 _atom_site_fract_z
 _atom_site_occupancy
  Er  Er0  1  0.000000  0.317790  0.415393  1
  Er  Er1  1  0.000000  0.678803  0.591078  1
  Er  Er2  1  0.000000  0.826757  0.081249  1
  Tm  Tm3  1  0.000000  0.177633  0.912662  1
  Tm  Tm4  1  0.000000  0.943475  0.370402  1
  Tm  Tm5  1  0.000000  0.055703  0.628752  1
  Tm  Tm6  1  0.000000  0.441630  0.128703  1
  Tm  Tm7  1  0.000000  0.556479  0.871731  1
  Re  Re8  1  0.000000  0.362217  0.677902  1
  Re  Re9  1  0.000000  0.138413  0.180065  1
  Re  Re10  1  0.000000  0.861771  0.820818  1
  B  B11  1  0.500000  0.554065  0.433991  1
  B  B12  1  0.500000  0.446736  0.566330  1
  B  B13  1  0.500000  0.053429  0.066249  1
  B  B14  1  0.500000  0.947357  0.932912  1
  B  B15  1  0.500000  0.749573  0.420603  1
  B  B16  1  0.500000  0.249816  0.580694  1
  B  B17  1  0.500000  0.249939  0.080820  1
  B  B18  1  0.500000  0.750942  0.919166  1
  B  B19  1  0.500000  0.791552  0.264732  1
  B  B20  1  0.500000  0.207691  0.734506  1
  B  B21  1  0.500000  0.292603  0.235538  1
  B  B22  1  0.500000  0.707537  0.765616  1
  B  B23  1  0.500000  0.631749  0.183577  1
  B  B24  1  0.500000  0.369496  0.814787  1
  B  B25  1  0.500000  0.130615  0.315455  1
  B  B26  1  0.500000  0.868747  0.684986  1
  B  B27  1  0.500000  0.982109  0.212091  1
  B  B28  1  0.500000  0.018265  0.786992  1
  B  B29  1  0.500000  0.482714  0.287861  1
  B  B30  1  0.500000  0.518657  0.712586  1
  B  B31  1  0.500000  0.603149  0.029150  1
  B  B32  1  0.500000  0.397923  0.972267  1
  B  B33  1  0.500000  0.101003  0.471330  1
  B  B34  1  0.500000  0.895742  0.527982  1
  Rh  Rh35  1  0.000000  0.637919  0.321029  1
