# generated using pymatgen
data_DyY4V3(Co4P3)4
_symmetry_space_group_name_H-M   'P 1'
_cell_length_a   12.05688900
_cell_length_b   12.05688811
_cell_length_c   3.67200000
_cell_angle_alpha   90.00000000
_cell_angle_beta   90.00000000
_cell_angle_gamma   119.99999422
_symmetry_Int_Tables_number   1
_chemical_formula_structural   DyY4V3(Co4P3)4
_chemical_formula_sum   'Dy1 Y4 V3 Co16 P12'
_cell_volume   462.27863549
_cell_formula_units_Z   1
loop_
 _symmetry_equiv_pos_site_id
 _symmetry_equiv_pos_as_xyz
  1  'x, y, z'
loop_
 _atom_site_type_symbol
 _atom_site_label
 _atom_site_symmetry_multiplicity
 _atom_site_fract_x
 _atom_site_fract_y
 _atom_site_fract_z
 _atom_site_occupancy
  Dy  Dy0  1  0.333333  0.666667  0.000000  1
  Y  Y1  1  0.666667  0.333333  0.000000  1
  Y  Y2  1  0.186384  0.186385  0.500000  1
  Y  Y3  1  0.813615  0.999999  0.500000  1
  Y  Y4  1  0.000001  0.813616  0.500000  1
  V  V5  1  0.556999  0.557011  0.000000  1
  V  V6  1  0.442989  0.999988  0.000000  1
  V  V7  1  0.000012  0.443001  0.000000  1
  Co  Co8  1  0.823138  0.199998  0.000000  1
  Co  Co9  1  0.800002  0.623140  0.000000  1
  Co  Co10  1  0.376860  0.176862  0.000000  1
  Co  Co11  1  0.200011  0.823123  0.000000  1
  Co  Co12  1  0.623112  0.799989  0.000000  1
  Co  Co13  1  0.176877  0.376888  0.000000  1
  Co  Co14  1  0.644392  0.125797  0.500000  1
  Co  Co15  1  0.874203  0.518595  0.500000  1
  Co  Co16  1  0.481405  0.355608  0.500000  1
  Co  Co17  1  0.125841  0.644398  0.500000  1
  Co  Co18  1  0.518557  0.874159  0.500000  1
  Co  Co19  1  0.355602  0.481443  0.500000  1
  Co  Co20  1  0.717874  0.717875  0.500000  1
  Co  Co21  1  0.282125  0.999999  0.500000  1
  Co  Co22  1  0.000001  0.282126  0.500000  1
  Co  Co23  1  0.000000  0.000000  0.000000  1
  P  P24  1  0.363683  0.363686  0.000000  1
  P  P25  1  0.636314  0.999997  0.000000  1
  P  P26  1  0.000003  0.636317  0.000000  1
  P  P27  1  0.835864  0.315920  0.500000  1
  P  P28  1  0.684080  0.519945  0.500000  1
  P  P29  1  0.480055  0.164136  0.500000  1
  P  P30  1  0.315925  0.835813  0.500000  1
  P  P31  1  0.519889  0.684075  0.500000  1
  P  P32  1  0.164187  0.480111  0.500000  1
  P  P33  1  0.820264  0.820264  0.000000  1
  P  P34  1  0.179736  0.000000  0.000000  1
  P  P35  1  0.000000  0.179736  0.000000  1
