# generated using pymatgen
data_PrThSn5Rh3
_symmetry_space_group_name_H-M   'P 1'
_cell_length_a   13.69926180
_cell_length_b   13.69926262
_cell_length_c   7.33907200
_cell_angle_alpha   90.00000000
_cell_angle_beta   90.00000000
_cell_angle_gamma   160.97913187
_symmetry_Int_Tables_number   1
_chemical_formula_structural   PrThSn5Rh3
_chemical_formula_sum   'Pr2 Th2 Sn10 Rh6'
_cell_volume   448.88648775
_cell_formula_units_Z   2
loop_
 _symmetry_equiv_pos_site_id
 _symmetry_equiv_pos_as_xyz
  1  'x, y, z'
loop_
 _atom_site_type_symbol
 _atom_site_label
 _atom_site_symmetry_multiplicity
 _atom_site_fract_x
 _atom_site_fract_y
 _atom_site_fract_z
 _atom_site_occupancy
  Pr  Pr0  1  0.173093  0.826907  0.751707  1
  Pr  Pr1  1  0.826907  0.173093  0.251707  1
  Th  Th2  1  0.474285  0.525715  0.737291  1
  Th  Th3  1  0.525715  0.474285  0.237291  1
  Sn  Sn4  1  0.877486  0.122514  0.736263  1
  Sn  Sn5  1  0.122514  0.877486  0.236263  1
  Sn  Sn6  1  0.703693  0.296307  0.048685  1
  Sn  Sn7  1  0.296307  0.703693  0.548685  1
  Sn  Sn8  1  0.597239  0.402761  0.613308  1
  Sn  Sn9  1  0.402761  0.597239  0.113308  1
  Sn  Sn10  1  0.950773  0.049227  0.395412  1
  Sn  Sn11  1  0.049227  0.950773  0.895412  1
  Sn  Sn12  1  0.288971  0.711029  0.973385  1
  Sn  Sn13  1  0.711029  0.288971  0.473385  1
  Rh  Rh14  1  0.050180  0.949820  0.515008  1
  Rh  Rh15  1  0.949820  0.050180  0.015008  1
  Rh  Rh16  1  0.776703  0.223297  0.764770  1
  Rh  Rh17  1  0.223297  0.776703  0.264770  1
  Rh  Rh18  1  0.397083  0.602917  0.492168  1
  Rh  Rh19  1  0.602917  0.397083  0.992168  1
