# generated using pymatgen
data_Tb2HoTm17Pt16
_symmetry_space_group_name_H-M   'P 1'
_cell_length_a   7.40567505
_cell_length_b   7.49103209
_cell_length_c   14.58853800
_cell_angle_alpha   90.00728145
_cell_angle_beta   89.99339282
_cell_angle_gamma   89.96995721
_symmetry_Int_Tables_number   1
_chemical_formula_structural   Tb2HoTm17Pt16
_chemical_formula_sum   'Tb2 Ho1 Tm17 Pt16'
_cell_volume   809.31579109
_cell_formula_units_Z   1
loop_
 _symmetry_equiv_pos_site_id
 _symmetry_equiv_pos_as_xyz
  1  'x, y, z'
loop_
 _atom_site_type_symbol
 _atom_site_label
 _atom_site_symmetry_multiplicity
 _atom_site_fract_x
 _atom_site_fract_y
 _atom_site_fract_z
 _atom_site_occupancy
  Tb  Tb0  1  0.499078  0.678815  0.407745  1
  Tb  Tb1  1  0.999173  0.821256  0.092345  1
  Ho  Ho2  1  0.501107  0.321104  0.907169  1
  Tm  Tm3  1  0.680921  0.989906  0.250202  1
  Tm  Tm4  1  0.180925  0.510144  0.250088  1
  Tm  Tm5  1  0.818933  0.489591  0.749592  1
  Tm  Tm6  1  0.319007  0.010290  0.749726  1
  Tm  Tm7  1  0.656981  0.833313  0.622470  1
  Tm  Tm8  1  0.156318  0.667010  0.877033  1
  Tm  Tm9  1  0.844727  0.332241  0.377879  1
  Tm  Tm10  1  0.344230  0.167478  0.122433  1
  Tm  Tm11  1  0.344077  0.167429  0.378185  1
  Tm  Tm12  1  0.844108  0.332385  0.122031  1
  Tm  Tm13  1  0.155775  0.667838  0.622084  1
  Tm  Tm14  1  0.655931  0.832256  0.877593  1
  Tm  Tm15  1  0.998064  0.820510  0.407140  1
  Tm  Tm16  1  0.497748  0.680101  0.093168  1
  Tm  Tm17  1  0.502266  0.319092  0.593319  1
  Tm  Tm18  1  0.002151  0.180791  0.906619  1
  Tm  Tm19  1  0.001764  0.179797  0.592815  1
  Pt  Pt20  1  0.817538  0.643164  0.250909  1
  Pt  Pt21  1  0.317570  0.856712  0.249486  1
  Pt  Pt22  1  0.682644  0.143749  0.749207  1
  Pt  Pt23  1  0.181309  0.355638  0.749556  1
  Pt  Pt24  1  0.546560  0.385399  0.249556  1
  Pt  Pt25  1  0.046482  0.114542  0.250644  1
  Pt  Pt26  1  0.953766  0.886670  0.750002  1
  Pt  Pt27  1  0.453219  0.613668  0.749465  1
  Pt  Pt28  1  0.815937  0.531151  0.542720  1
  Pt  Pt29  1  0.315501  0.967165  0.957838  1
  Pt  Pt30  1  0.685208  0.034512  0.459002  1
  Pt  Pt31  1  0.185093  0.466099  0.041423  1
  Pt  Pt32  1  0.181932  0.465642  0.458711  1
  Pt  Pt33  1  0.681858  0.033576  0.041618  1
  Pt  Pt34  1  0.315126  0.969007  0.542493  1
  Pt  Pt35  1  0.816971  0.531959  0.957735  1
