# generated using pymatgen
data_Dy2Er2B12IrRu
_symmetry_space_group_name_H-M   'P 1'
_cell_length_a   3.64409700
_cell_length_b   9.14884693
_cell_length_c   11.48558120
_cell_angle_alpha   90.05195669
_cell_angle_beta   90.00000000
_cell_angle_gamma   90.00000000
_symmetry_Int_Tables_number   1
_chemical_formula_structural   Dy2Er2B12IrRu
_chemical_formula_sum   'Dy4 Er4 B24 Ir2 Ru2'
_cell_volume   382.92091485
_cell_formula_units_Z   2
loop_
 _symmetry_equiv_pos_site_id
 _symmetry_equiv_pos_as_xyz
  1  'x, y, z'
loop_
 _atom_site_type_symbol
 _atom_site_label
 _atom_site_symmetry_multiplicity
 _atom_site_fract_x
 _atom_site_fract_y
 _atom_site_fract_z
 _atom_site_occupancy
  Dy  Dy0  1  0.000000  0.319095  0.412185  1
  Dy  Dy1  1  0.000000  0.680905  0.587815  1
  Dy  Dy2  1  0.000000  0.823037  0.085044  1
  Dy  Dy3  1  0.000000  0.176963  0.914956  1
  Er  Er4  1  0.000000  0.945903  0.372708  1
  Er  Er5  1  0.000000  0.054097  0.627292  1
  Er  Er6  1  0.000000  0.442538  0.125953  1
  Er  Er7  1  0.000000  0.557462  0.874047  1
  B  B8  1  0.500000  0.553328  0.433485  1
  B  B9  1  0.500000  0.446672  0.566515  1
  B  B10  1  0.500000  0.054420  0.067024  1
  B  B11  1  0.500000  0.945580  0.932976  1
  B  B12  1  0.500000  0.750927  0.420036  1
  B  B13  1  0.500000  0.249073  0.579964  1
  B  B14  1  0.500000  0.248536  0.080337  1
  B  B15  1  0.500000  0.751464  0.919663  1
  B  B16  1  0.500000  0.792914  0.265750  1
  B  B17  1  0.500000  0.207086  0.734250  1
  B  B18  1  0.500000  0.291980  0.234281  1
  B  B19  1  0.500000  0.708020  0.765719  1
  B  B20  1  0.500000  0.631551  0.183937  1
  B  B21  1  0.500000  0.368449  0.816063  1
  B  B22  1  0.500000  0.132021  0.315056  1
  B  B23  1  0.500000  0.867979  0.684944  1
  B  B24  1  0.500000  0.983811  0.213116  1
  B  B25  1  0.500000  0.016189  0.786884  1
  B  B26  1  0.500000  0.482102  0.286262  1
  B  B27  1  0.500000  0.517898  0.713738  1
  B  B28  1  0.500000  0.608706  0.030002  1
  B  B29  1  0.500000  0.391294  0.969998  1
  B  B30  1  0.500000  0.108408  0.470644  1
  B  B31  1  0.500000  0.891592  0.529356  1
  Ir  Ir32  1  0.000000  0.638019  0.321773  1
  Ir  Ir33  1  0.000000  0.361981  0.678227  1
  Ru  Ru34  1  0.000000  0.138252  0.179257  1
  Ru  Ru35  1  0.000000  0.861748  0.820743  1
