# generated using pymatgen
data_Pr3Ni2Sn3Ir
_symmetry_space_group_name_H-M   'P 1'
_cell_length_a   7.51651600
_cell_length_b   7.51651567
_cell_length_c   4.06090700
_cell_angle_alpha   90.00000000
_cell_angle_beta   90.00000000
_cell_angle_gamma   119.99999265
_symmetry_Int_Tables_number   1
_chemical_formula_structural   Pr3Ni2Sn3Ir
_chemical_formula_sum   'Pr3 Ni2 Sn3 Ir1'
_cell_volume   198.69496451
_cell_formula_units_Z   1
loop_
 _symmetry_equiv_pos_site_id
 _symmetry_equiv_pos_as_xyz
  1  'x, y, z'
loop_
 _atom_site_type_symbol
 _atom_site_label
 _atom_site_symmetry_multiplicity
 _atom_site_fract_x
 _atom_site_fract_y
 _atom_site_fract_z
 _atom_site_occupancy
  Pr  Pr0  1  0.589618  0.002373  0.000000  1
  Pr  Pr1  1  0.997627  0.587245  0.000000  1
  Pr  Pr2  1  0.412755  0.410382  0.000000  1
  Ni  Ni3  1  0.333333  0.666667  0.500000  1
  Ni  Ni4  1  0.000000  0.000000  0.000000  1
  Sn  Sn5  1  0.246595  0.996601  0.500000  1
  Sn  Sn6  1  0.003399  0.249994  0.500000  1
  Sn  Sn7  1  0.750006  0.753405  0.500000  1
  Ir  Ir8  1  0.666667  0.333333  0.500000  1
