# generated using pymatgen
data_Nb2ZnB2IrRu4
_symmetry_space_group_name_H-M   'P 1'
_cell_length_a   9.41069212
_cell_length_b   9.34730419
_cell_length_c   2.97973700
_cell_angle_alpha   90.00000000
_cell_angle_beta   90.00000000
_cell_angle_gamma   90.16860277
_symmetry_Int_Tables_number   1
_chemical_formula_structural   Nb2ZnB2IrRu4
_chemical_formula_sum   'Nb4 Zn2 B4 Ir2 Ru8'
_cell_volume   262.11024390
_cell_formula_units_Z   2
loop_
 _symmetry_equiv_pos_site_id
 _symmetry_equiv_pos_as_xyz
  1  'x, y, z'
loop_
 _atom_site_type_symbol
 _atom_site_label
 _atom_site_symmetry_multiplicity
 _atom_site_fract_x
 _atom_site_fract_y
 _atom_site_fract_z
 _atom_site_occupancy
  Nb  Nb0  1  0.827297  0.676571  0.000000  1
  Nb  Nb1  1  0.172703  0.323429  0.000000  1
  Nb  Nb2  1  0.319410  0.823934  0.000000  1
  Nb  Nb3  1  0.680590  0.176066  0.000000  1
  Zn  Zn4  1  0.500000  0.500000  0.000000  1
  Zn  Zn5  1  0.000000  0.000000  0.000000  1
  B  B6  1  0.627922  0.878689  0.000000  1
  B  B7  1  0.372078  0.121311  0.000000  1
  B  B8  1  0.125084  0.625410  0.000000  1
  B  B9  1  0.874916  0.374590  0.000000  1
  Ir  Ir10  1  0.568511  0.716140  0.500000  1
  Ir  Ir11  1  0.431489  0.283860  0.500000  1
  Ru  Ru12  1  0.069499  0.783720  0.500000  1
  Ru  Ru13  1  0.930501  0.216280  0.500000  1
  Ru  Ru14  1  0.283599  0.568159  0.500000  1
  Ru  Ru15  1  0.716401  0.431841  0.500000  1
  Ru  Ru16  1  0.216320  0.069106  0.500000  1
  Ru  Ru17  1  0.783680  0.930894  0.500000  1
  Ru  Ru18  1  0.500000  0.000000  0.500000  1
  Ru  Ru19  1  0.000000  0.500000  0.500000  1
