# generated using pymatgen
data_Sm2Sn5Pd3
_symmetry_space_group_name_H-M   'P 1'
_cell_length_a   13.61973400
_cell_length_b   13.61973575
_cell_length_c   7.40909700
_cell_angle_alpha   90.00000000
_cell_angle_beta   90.00000000
_cell_angle_gamma   160.65781805
_symmetry_Int_Tables_number   1
_chemical_formula_structural   Sm2Sn5Pd3
_chemical_formula_sum   'Sm4 Sn10 Pd6'
_cell_volume   455.20277839
_cell_formula_units_Z   2
loop_
 _symmetry_equiv_pos_site_id
 _symmetry_equiv_pos_as_xyz
  1  'x, y, z'
loop_
 _atom_site_type_symbol
 _atom_site_label
 _atom_site_symmetry_multiplicity
 _atom_site_fract_x
 _atom_site_fract_y
 _atom_site_fract_z
 _atom_site_occupancy
  Sm  Sm0  1  0.478105  0.521895  0.740824  1
  Sm  Sm1  1  0.521895  0.478105  0.240824  1
  Sm  Sm2  1  0.173012  0.826988  0.749099  1
  Sm  Sm3  1  0.826988  0.173012  0.249099  1
  Sn  Sn4  1  0.880192  0.119808  0.735429  1
  Sn  Sn5  1  0.119808  0.880192  0.235429  1
  Sn  Sn6  1  0.702118  0.297882  0.048913  1
  Sn  Sn7  1  0.297882  0.702118  0.548913  1
  Sn  Sn8  1  0.599048  0.400952  0.602090  1
  Sn  Sn9  1  0.400952  0.599048  0.102090  1
  Sn  Sn10  1  0.952814  0.047186  0.403255  1
  Sn  Sn11  1  0.047186  0.952814  0.903255  1
  Sn  Sn12  1  0.288435  0.711565  0.976373  1
  Sn  Sn13  1  0.711565  0.288435  0.476373  1
  Pd  Pd14  1  0.051280  0.948720  0.521968  1
  Pd  Pd15  1  0.948720  0.051280  0.021968  1
  Pd  Pd16  1  0.776769  0.223231  0.774521  1
  Pd  Pd17  1  0.223231  0.776769  0.274521  1
  Pd  Pd18  1  0.397194  0.602806  0.475528  1
  Pd  Pd19  1  0.602806  0.397194  0.975528  1
