# generated using pymatgen
data_Li(LaAs)2
_symmetry_space_group_name_H-M   'P 1'
_cell_length_a   4.36567700
_cell_length_b   4.36567795
_cell_length_c   15.33139200
_cell_angle_alpha   90.00000000
_cell_angle_beta   90.00000000
_cell_angle_gamma   120.00000035
_symmetry_Int_Tables_number   1
_chemical_formula_structural   Li(LaAs)2
_chemical_formula_sum   'Li2 La4 As4'
_cell_volume   253.05534488
_cell_formula_units_Z   2
loop_
 _symmetry_equiv_pos_site_id
 _symmetry_equiv_pos_as_xyz
  1  'x, y, z'
loop_
 _atom_site_type_symbol
 _atom_site_label
 _atom_site_symmetry_multiplicity
 _atom_site_fract_x
 _atom_site_fract_y
 _atom_site_fract_z
 _atom_site_occupancy
  Li  Li0  1  0.000000  0.000000  0.250000  1
  Li  Li1  1  0.000000  0.000000  0.750000  1
  La  La2  1  0.333333  0.666667  0.110861  1
  La  La3  1  0.333333  0.666667  0.389139  1
  La  La4  1  0.666667  0.333332  0.610861  1
  La  La5  1  0.666667  0.333332  0.889139  1
  As  As6  1  0.000000  0.000000  0.000000  1
  As  As7  1  0.666667  0.333332  0.250000  1
  As  As8  1  0.000000  0.000000  0.500000  1
  As  As9  1  0.333333  0.666667  0.750000  1
