# generated using pymatgen
data_Ho5Tm3Sc12Si15Rh
_symmetry_space_group_name_H-M   'P 1'
_cell_length_a   7.07357825
_cell_length_b   7.34101625
_cell_length_c   13.93523701
_cell_angle_alpha   89.89078252
_cell_angle_beta   89.83635416
_cell_angle_gamma   90.19777404
_symmetry_Int_Tables_number   1
_chemical_formula_structural   Ho5Tm3Sc12Si15Rh
_chemical_formula_sum   'Ho5 Tm3 Sc12 Si15 Rh1'
_cell_volume   723.60998536
_cell_formula_units_Z   1
loop_
 _symmetry_equiv_pos_site_id
 _symmetry_equiv_pos_as_xyz
  1  'x, y, z'
loop_
 _atom_site_type_symbol
 _atom_site_label
 _atom_site_symmetry_multiplicity
 _atom_site_fract_x
 _atom_site_fract_y
 _atom_site_fract_z
 _atom_site_occupancy
  Ho  Ho0  1  0.012368  0.176120  0.096690  1
  Ho  Ho1  1  0.988091  0.823974  0.903147  1
  Ho  Ho2  1  0.486943  0.677171  0.903216  1
  Ho  Ho3  1  0.989229  0.821378  0.596085  1
  Ho  Ho4  1  0.512234  0.323711  0.095974  1
  Tm  Tm5  1  0.011641  0.180954  0.403599  1
  Tm  Tm6  1  0.507864  0.324130  0.403749  1
  Tm  Tm7  1  0.485807  0.670940  0.597541  1
  Sc  Sc8  1  0.163282  0.503449  0.744970  1
  Sc  Sc9  1  0.838157  0.497208  0.252174  1
  Sc  Sc10  1  0.339320  0.000392  0.250627  1
  Sc  Sc11  1  0.662214  0.996425  0.749292  1
  Sc  Sc12  1  0.330582  0.187475  0.621182  1
  Sc  Sc13  1  0.668104  0.823461  0.373875  1
  Sc  Sc14  1  0.171144  0.665054  0.378221  1
  Sc  Sc15  1  0.671396  0.824210  0.126626  1
  Sc  Sc16  1  0.834383  0.326565  0.623380  1
  Sc  Sc17  1  0.328182  0.177077  0.875452  1
  Sc  Sc18  1  0.831441  0.321898  0.875414  1
  Sc  Sc19  1  0.169962  0.676864  0.125268  1
  Si  Si20  1  0.033608  0.113112  0.749685  1
  Si  Si21  1  0.970041  0.884894  0.251694  1
  Si  Si22  1  0.467399  0.612994  0.248588  1
  Si  Si23  1  0.537013  0.385677  0.752745  1
  Si  Si24  1  0.286337  0.875411  0.750174  1
  Si  Si25  1  0.714010  0.130207  0.250060  1
  Si  Si26  1  0.215841  0.368829  0.248238  1
  Si  Si27  1  0.783787  0.628154  0.752469  1
  Si  Si28  1  0.834901  0.535488  0.460606  1
  Si  Si29  1  0.342653  0.963823  0.460972  1
  Si  Si30  1  0.842779  0.536080  0.038703  1
  Si  Si31  1  0.656204  0.033607  0.538737  1
  Si  Si32  1  0.156417  0.465711  0.961028  1
  Si  Si33  1  0.657785  0.034260  0.961798  1
  Si  Si34  1  0.343579  0.964661  0.038885  1
  Rh  Rh35  1  0.155299  0.468634  0.539135  1
