# generated using pymatgen
data_TbTm7(TcCl4)2
_symmetry_space_group_name_H-M   'P 1'
_cell_length_a   8.69272696
_cell_length_b   8.67809576
_cell_length_c   6.40902400
_cell_angle_alpha   89.49977360
_cell_angle_beta   89.36019559
_cell_angle_gamma   89.34528480
_symmetry_Int_Tables_number   1
_chemical_formula_structural   TbTm7(TcCl4)2
_chemical_formula_sum   'Tb1 Tm7 Tc2 Cl8'
_cell_volume   483.39356745
_cell_formula_units_Z   1
loop_
 _symmetry_equiv_pos_site_id
 _symmetry_equiv_pos_as_xyz
  1  'x, y, z'
loop_
 _atom_site_type_symbol
 _atom_site_label
 _atom_site_symmetry_multiplicity
 _atom_site_fract_x
 _atom_site_fract_y
 _atom_site_fract_z
 _atom_site_occupancy
  Tb  Tb0  1  0.257597  0.895994  0.011520  1
  Tm  Tm1  1  0.747329  0.102400  0.986726  1
  Tm  Tm2  1  0.100962  0.746900  0.486192  1
  Tm  Tm3  1  0.897172  0.253626  0.513187  1
  Tm  Tm4  1  0.747247  0.899528  0.507707  1
  Tm  Tm5  1  0.251431  0.101723  0.491188  1
  Tm  Tm6  1  0.099813  0.253567  0.991305  1
  Tm  Tm7  1  0.898567  0.747281  0.008035  1
  Tc  Tc8  1  0.992583  0.007548  0.249885  1
  Tc  Tc9  1  0.006251  0.993301  0.748871  1
  Cl  Cl10  1  0.417911  0.822627  0.410842  1
  Cl  Cl11  1  0.582419  0.176642  0.594206  1
  Cl  Cl12  1  0.175196  0.580628  0.094271  1
  Cl  Cl13  1  0.822835  0.417929  0.906108  1
  Cl  Cl14  1  0.413288  0.186719  0.094044  1
  Cl  Cl15  1  0.589863  0.813051  0.905888  1
  Cl  Cl16  1  0.814836  0.586705  0.405709  1
  Cl  Cl17  1  0.184703  0.413831  0.594317  1
