# generated using pymatgen
data_Tb7Nd8Tm5Sn16
_symmetry_space_group_name_H-M   'P 1'
_cell_length_a   8.05662705
_cell_length_b   8.21439806
_cell_length_c   15.52974500
_cell_angle_alpha   89.99291336
_cell_angle_beta   90.00647870
_cell_angle_gamma   89.97177978
_symmetry_Int_Tables_number   1
_chemical_formula_structural   Tb7Nd8Tm5Sn16
_chemical_formula_sum   'Tb7 Nd8 Tm5 Sn16'
_cell_volume   1027.76369021
_cell_formula_units_Z   1
loop_
 _symmetry_equiv_pos_site_id
 _symmetry_equiv_pos_as_xyz
  1  'x, y, z'
loop_
 _atom_site_type_symbol
 _atom_site_label
 _atom_site_symmetry_multiplicity
 _atom_site_fract_x
 _atom_site_fract_y
 _atom_site_fract_z
 _atom_site_occupancy
  Tb  Tb0  1  0.362451  0.836394  0.877734  1
  Tb  Tb1  1  0.862157  0.663949  0.623156  1
  Tb  Tb2  1  0.637946  0.164141  0.377467  1
  Tb  Tb3  1  0.138005  0.335797  0.122521  1
  Tb  Tb4  1  0.638466  0.164076  0.121333  1
  Tb  Tb5  1  0.137826  0.336111  0.377430  1
  Tb  Tb6  1  0.361801  0.835920  0.623404  1
  Nd  Nd7  1  0.514765  0.321689  0.903502  1
  Nd  Nd8  1  0.014840  0.178642  0.597143  1
  Nd  Nd9  1  0.485213  0.678840  0.403444  1
  Nd  Nd10  1  0.985128  0.820922  0.095645  1
  Nd  Nd11  1  0.484608  0.678837  0.096163  1
  Nd  Nd12  1  0.985149  0.821258  0.403629  1
  Nd  Nd13  1  0.515289  0.321585  0.596974  1
  Nd  Nd14  1  0.014826  0.178447  0.903667  1
  Tm  Tm15  1  0.861230  0.663072  0.876061  1
  Tm  Tm16  1  0.194869  0.502801  0.750348  1
  Tm  Tm17  1  0.695522  0.997064  0.750620  1
  Tm  Tm18  1  0.805022  0.497492  0.249593  1
  Tm  Tm19  1  0.305230  0.002699  0.249992  1
  Sn  Sn20  1  0.300342  0.039007  0.042726  1
  Sn  Sn21  1  0.800510  0.461108  0.457415  1
  Sn  Sn22  1  0.698973  0.961083  0.542806  1
  Sn  Sn23  1  0.195406  0.539849  0.957096  1
  Sn  Sn24  1  0.701279  0.958333  0.956969  1
  Sn  Sn25  1  0.199552  0.538949  0.542828  1
  Sn  Sn26  1  0.300734  0.038967  0.457751  1
  Sn  Sn27  1  0.801620  0.462515  0.040985  1
  Sn  Sn28  1  0.561955  0.621039  0.750864  1
  Sn  Sn29  1  0.060570  0.878144  0.750705  1
  Sn  Sn30  1  0.439202  0.378745  0.249656  1
  Sn  Sn31  1  0.938861  0.121052  0.249785  1
  Sn  Sn32  1  0.324930  0.144738  0.750252  1
  Sn  Sn33  1  0.825105  0.356190  0.750682  1
  Sn  Sn34  1  0.675337  0.855839  0.249778  1
  Sn  Sn35  1  0.175277  0.644705  0.249876  1
