# generated using pymatgen
data_VCoTe4
_symmetry_space_group_name_H-M   'P 1'
_cell_length_a   3.64755100
_cell_length_b   12.46756200
_cell_length_c   13.15352400
_cell_angle_alpha   90.00000000
_cell_angle_beta   90.00000000
_cell_angle_gamma   90.00000000
_symmetry_Int_Tables_number   1
_chemical_formula_structural   VCoTe4
_chemical_formula_sum   'V4 Co4 Te16'
_cell_volume   598.17055503
_cell_formula_units_Z   4
loop_
 _symmetry_equiv_pos_site_id
 _symmetry_equiv_pos_as_xyz
  1  'x, y, z'
loop_
 _atom_site_type_symbol
 _atom_site_label
 _atom_site_symmetry_multiplicity
 _atom_site_fract_x
 _atom_site_fract_y
 _atom_site_fract_z
 _atom_site_occupancy
  V  V0  1  0.000000  0.052267  0.002795  1
  V  V1  1  0.500000  0.947733  0.502795  1
  V  V2  1  0.000000  0.269467  0.491816  1
  V  V3  1  0.500000  0.730533  0.991816  1
  Co  Co4  1  0.000000  0.533690  0.999745  1
  Co  Co5  1  0.500000  0.466310  0.499745  1
  Co  Co6  1  0.000000  0.752257  0.492401  1
  Co  Co7  1  0.500000  0.247743  0.992401  1
  Te  Te8  1  0.500000  0.111553  0.139760  1
  Te  Te9  1  0.000000  0.888447  0.639760  1
  Te  Te10  1  0.500000  0.148420  0.600054  1
  Te  Te11  1  0.000000  0.851580  0.100054  1
  Te  Te12  1  0.500000  0.328359  0.354519  1
  Te  Te13  1  0.000000  0.671641  0.854519  1
  Te  Te14  1  0.500000  0.434533  0.902731  1
  Te  Te15  1  0.000000  0.565467  0.402731  1
  Te  Te16  1  0.000000  0.069154  0.397992  1
  Te  Te17  1  0.500000  0.930846  0.897992  1
  Te  Te18  1  0.000000  0.190867  0.861160  1
  Te  Te19  1  0.500000  0.809133  0.361160  1
  Te  Te20  1  0.000000  0.346967  0.088941  1
  Te  Te21  1  0.500000  0.653033  0.588941  1
  Te  Te22  1  0.000000  0.410797  0.631143  1
  Te  Te23  1  0.500000  0.589203  0.131143  1
