# generated using pymatgen
data_Sc2AsSe
_symmetry_space_group_name_H-M   'P 1'
_cell_length_a   6.77146759
_cell_length_b   6.77146735
_cell_length_c   6.77146641
_cell_angle_alpha   33.24975164
_cell_angle_beta   33.24975394
_cell_angle_gamma   33.24975731
_symmetry_Int_Tables_number   1
_chemical_formula_structural   Sc2AsSe
_chemical_formula_sum   'Sc2 As1 Se1'
_cell_volume   83.09838907
_cell_formula_units_Z   1
loop_
 _symmetry_equiv_pos_site_id
 _symmetry_equiv_pos_as_xyz
  1  'x, y, z'
loop_
 _atom_site_type_symbol
 _atom_site_label
 _atom_site_symmetry_multiplicity
 _atom_site_fract_x
 _atom_site_fract_y
 _atom_site_fract_z
 _atom_site_occupancy
  Sc  Sc0  1  0.254684  0.254684  0.254684  1
  Sc  Sc1  1  0.745316  0.745316  0.745316  1
  As  As2  1  0.000000  0.000000  0.000000  1
  Se  Se3  1  0.500000  0.500000  0.500000  1
