# generated using pymatgen
data_Li3La2LuPt3
_symmetry_space_group_name_H-M   'P 1'
_cell_length_a   7.26243213
_cell_length_b   7.28772283
_cell_length_c   4.14089600
_cell_angle_alpha   90.00000000
_cell_angle_beta   90.00000000
_cell_angle_gamma   120.11524597
_symmetry_Int_Tables_number   1
_chemical_formula_structural   Li3La2LuPt3
_chemical_formula_sum   'Li3 La2 Lu1 Pt3'
_cell_volume   189.58037265
_cell_formula_units_Z   1
loop_
 _symmetry_equiv_pos_site_id
 _symmetry_equiv_pos_as_xyz
  1  'x, y, z'
loop_
 _atom_site_type_symbol
 _atom_site_label
 _atom_site_symmetry_multiplicity
 _atom_site_fract_x
 _atom_site_fract_y
 _atom_site_fract_z
 _atom_site_occupancy
  Li  Li0  1  0.777491  0.767883  0.500000  1
  Li  Li1  1  0.222509  0.990392  0.500000  1
  Li  Li2  1  0.000000  0.232850  0.500000  1
  La  La3  1  0.410843  0.413600  0.000000  1
  La  La4  1  0.589157  0.002756  0.000000  1
  Lu  Lu5  1  0.000000  0.594947  0.000000  1
  Pt  Pt6  1  0.000000  0.986665  0.000000  1
  Pt  Pt7  1  0.689326  0.350115  0.500000  1
  Pt  Pt8  1  0.310674  0.660789  0.500000  1
