# generated using pymatgen
data_La9Pr5(NdIr2)6
_symmetry_space_group_name_H-M   'P 1'
_cell_length_a   11.37217834
_cell_length_b   11.36227605
_cell_length_c   6.63280002
_cell_angle_alpha   90.15518257
_cell_angle_beta   90.00062892
_cell_angle_gamma   89.86348610
_symmetry_Int_Tables_number   1
_chemical_formula_structural   La9Pr5(NdIr2)6
_chemical_formula_sum   'La9 Pr5 Nd6 Ir12'
_cell_volume   857.04391474
_cell_formula_units_Z   1
loop_
 _symmetry_equiv_pos_site_id
 _symmetry_equiv_pos_as_xyz
  1  'x, y, z'
loop_
 _atom_site_type_symbol
 _atom_site_label
 _atom_site_symmetry_multiplicity
 _atom_site_fract_x
 _atom_site_fract_y
 _atom_site_fract_z
 _atom_site_occupancy
  La  La0  1  0.091065  0.291520  0.113813  1
  La  La1  1  0.790960  0.408599  0.113499  1
  La  La2  1  0.208973  0.591823  0.112209  1
  La  La3  1  0.908349  0.708568  0.112540  1
  La  La4  1  0.408492  0.791449  0.387580  1
  La  La5  1  0.592693  0.208752  0.387336  1
  La  La6  1  0.290455  0.090632  0.387155  1
  La  La7  1  0.708599  0.908286  0.387071  1
  La  La8  1  0.410275  0.208035  0.886640  1
  Pr  Pr9  1  0.709602  0.088799  0.884724  1
  Pr  Pr10  1  0.291053  0.909543  0.884925  1
  Pr  Pr11  1  0.589291  0.791594  0.884741  1
  Pr  Pr12  1  0.088754  0.708296  0.614608  1
  Pr  Pr13  1  0.911045  0.292006  0.615085  1
  Nd  Nd14  1  0.207383  0.411515  0.613665  1
  Nd  Nd15  1  0.791992  0.589206  0.614477  1
  Nd  Nd16  1  0.000147  0.999517  0.998806  1
  Nd  Nd17  1  0.500792  0.500990  0.998545  1
  Nd  Nd18  1  0.499737  0.500059  0.500928  1
  Nd  Nd19  1  0.999947  0.000024  0.501748  1
  Ir  Ir20  1  0.152624  0.846829  0.249927  1
  Ir  Ir21  1  0.347212  0.346331  0.249405  1
  Ir  Ir22  1  0.653134  0.653233  0.251097  1
  Ir  Ir23  1  0.847247  0.152907  0.250040  1
  Ir  Ir24  1  0.346151  0.653281  0.749588  1
  Ir  Ir25  1  0.153696  0.154301  0.750533  1
  Ir  Ir26  1  0.846003  0.846042  0.749329  1
  Ir  Ir27  1  0.654517  0.346985  0.749243  1
  Ir  Ir28  1  0.000356  0.499959  0.375582  1
  Ir  Ir29  1  0.500392  0.999892  0.124411  1
  Ir  Ir30  1  0.499453  0.000871  0.618781  1
  Ir  Ir31  1  0.999615  0.500156  0.881968  1
