# generated using pymatgen
data_BaNa3MoO5
_symmetry_space_group_name_H-M   'P 1'
_cell_length_a   5.94194123
_cell_length_b   5.94194204
_cell_length_c   9.28466901
_cell_angle_alpha   79.04600935
_cell_angle_beta   79.04600900
_cell_angle_gamma   77.75792798
_symmetry_Int_Tables_number   1
_chemical_formula_structural   BaNa3MoO5
_chemical_formula_sum   'Ba2 Na6 Mo2 O10'
_cell_volume   310.66621046
_cell_formula_units_Z   2
loop_
 _symmetry_equiv_pos_site_id
 _symmetry_equiv_pos_as_xyz
  1  'x, y, z'
loop_
 _atom_site_type_symbol
 _atom_site_label
 _atom_site_symmetry_multiplicity
 _atom_site_fract_x
 _atom_site_fract_y
 _atom_site_fract_z
 _atom_site_occupancy
  Ba  Ba0  1  0.249675  0.750325  0.500000  1
  Ba  Ba1  1  0.750325  0.249675  0.500000  1
  Na  Na2  1  0.353427  0.840361  0.113158  1
  Na  Na3  1  0.159639  0.646573  0.886842  1
  Na  Na4  1  0.646573  0.159639  0.886842  1
  Na  Na5  1  0.814000  0.814000  0.256942  1
  Na  Na6  1  0.840361  0.353427  0.113158  1
  Na  Na7  1  0.186000  0.186000  0.743058  1
  Mo  Mo8  1  0.307097  0.307097  0.263764  1
  Mo  Mo9  1  0.692903  0.692903  0.736236  1
  O  O10  1  0.747927  0.747927  0.523743  1
  O  O11  1  0.252073  0.252073  0.476257  1
  O  O12  1  0.552585  0.122412  0.148600  1
  O  O13  1  0.916542  0.916542  0.728680  1
  O  O14  1  0.526083  0.526083  0.279068  1
  O  O15  1  0.122412  0.552585  0.148600  1
  O  O16  1  0.877588  0.447415  0.851400  1
  O  O17  1  0.473917  0.473917  0.720932  1
  O  O18  1  0.083458  0.083458  0.271320  1
  O  O19  1  0.447415  0.877588  0.851400  1
