# generated using pymatgen
data_Tb7Sn23(Ru2Rh)2
_symmetry_space_group_name_H-M   'P 1'
_cell_length_a   9.86060626
_cell_length_b   9.85107705
_cell_length_c   10.13066027
_cell_angle_alpha   89.99999929
_cell_angle_beta   89.86318507
_cell_angle_gamma   119.96804094
_symmetry_Int_Tables_number   1
_chemical_formula_structural   Tb7Sn23(Ru2Rh)2
_chemical_formula_sum   'Tb7 Sn23 Ru4 Rh2'
_cell_volume   852.49892021
_cell_formula_units_Z   1
loop_
 _symmetry_equiv_pos_site_id
 _symmetry_equiv_pos_as_xyz
  1  'x, y, z'
loop_
 _atom_site_type_symbol
 _atom_site_label
 _atom_site_symmetry_multiplicity
 _atom_site_fract_x
 _atom_site_fract_y
 _atom_site_fract_z
 _atom_site_occupancy
  Tb  Tb0  1  0.000000  0.000000  0.000000  1
  Tb  Tb1  1  0.482879  0.520308  0.306374  1
  Tb  Tb2  1  0.517121  0.479692  0.693626  1
  Tb  Tb3  1  0.482879  0.962571  0.306374  1
  Tb  Tb4  1  0.517121  0.037429  0.693626  1
  Tb  Tb5  1  0.036847  0.518423  0.304712  1
  Tb  Tb6  1  0.963153  0.481577  0.695288  1
  Sn  Sn7  1  0.349469  0.998212  0.999527  1
  Sn  Sn8  1  0.650531  0.001788  0.000473  1
  Sn  Sn9  1  0.000000  0.349247  0.000000  1
  Sn  Sn10  1  0.000000  0.650753  0.000000  1
  Sn  Sn11  1  0.650531  0.648743  0.000473  1
  Sn  Sn12  1  0.349469  0.351257  0.999527  1
  Sn  Sn13  1  0.331308  0.665654  0.816546  1
  Sn  Sn14  1  0.668692  0.334346  0.183454  1
  Sn  Sn15  1  0.000000  0.000000  0.500000  1
  Sn  Sn16  1  0.780928  0.218861  0.458401  1
  Sn  Sn17  1  0.219072  0.781139  0.541599  1
  Sn  Sn18  1  0.780928  0.562067  0.458401  1
  Sn  Sn19  1  0.219072  0.437933  0.541599  1
  Sn  Sn20  1  0.437082  0.218541  0.457211  1
  Sn  Sn21  1  0.562918  0.781459  0.542789  1
  Sn  Sn22  1  0.333294  0.666648  0.120774  1
  Sn  Sn23  1  0.666706  0.333352  0.879226  1
  Sn  Sn24  1  0.118019  0.882473  0.274146  1
  Sn  Sn25  1  0.881981  0.117527  0.725854  1
  Sn  Sn26  1  0.118019  0.235546  0.274146  1
  Sn  Sn27  1  0.881981  0.764454  0.725854  1
  Sn  Sn28  1  0.762718  0.881359  0.272650  1
  Sn  Sn29  1  0.237282  0.118641  0.727350  1
  Ru  Ru30  1  0.831031  0.168743  0.200224  1
  Ru  Ru31  1  0.168969  0.831257  0.799776  1
  Ru  Ru32  1  0.831031  0.662287  0.200224  1
  Ru  Ru33  1  0.168969  0.337713  0.799776  1
  Rh  Rh34  1  0.340245  0.170122  0.198556  1
  Rh  Rh35  1  0.659755  0.829878  0.801444  1
