# generated using pymatgen
data_Y3Er5Ti11Si16Ir
_symmetry_space_group_name_H-M   'P 1'
_cell_length_a   7.02187161
_cell_length_b   7.02093340
_cell_length_c   12.84720327
_cell_angle_alpha   90.12789812
_cell_angle_beta   89.87066433
_cell_angle_gamma   89.82953025
_symmetry_Int_Tables_number   1
_chemical_formula_structural   Y3Er5Ti11Si16Ir
_chemical_formula_sum   'Y3 Er5 Ti11 Si16 Ir1'
_cell_volume   633.36231045
_cell_formula_units_Z   1
loop_
 _symmetry_equiv_pos_site_id
 _symmetry_equiv_pos_as_xyz
  1  'x, y, z'
loop_
 _atom_site_type_symbol
 _atom_site_label
 _atom_site_symmetry_multiplicity
 _atom_site_fract_x
 _atom_site_fract_y
 _atom_site_fract_z
 _atom_site_occupancy
  Y  Y0  1  0.340543  0.004724  0.467435  1
  Y  Y1  1  0.495975  0.841382  0.718318  1
  Y  Y2  1  0.501579  0.158138  0.214780  1
  Er  Er3  1  0.842018  0.496772  0.281840  1
  Er  Er4  1  0.157489  0.500636  0.785379  1
  Er  Er5  1  0.656991  0.997853  0.968754  1
  Er  Er6  1  0.003733  0.341323  0.532679  1
  Er  Er7  1  0.997929  0.656927  0.031177  1
  Ti  Ti8  1  0.174770  0.826609  0.247795  1
  Ti  Ti9  1  0.827327  0.175477  0.752149  1
  Ti  Ti10  1  0.674471  0.673570  0.499880  1
  Ti  Ti11  1  0.148307  0.001866  0.875713  1
  Ti  Ti12  1  0.493596  0.656297  0.124753  1
  Ti  Ti13  1  0.506932  0.350304  0.628497  1
  Ti  Ti14  1  0.656611  0.493544  0.875314  1
  Ti  Ti15  1  0.350050  0.506825  0.371724  1
  Ti  Ti16  1  0.849498  0.994362  0.374789  1
  Ti  Ti17  1  0.001698  0.148652  0.124373  1
  Ti  Ti18  1  0.994358  0.849262  0.625365  1
  Si  Si19  1  0.201720  0.134825  0.685471  1
  Si  Si20  1  0.371384  0.701415  0.933528  1
  Si  Si21  1  0.632846  0.297017  0.434228  1
  Si  Si22  1  0.702532  0.372318  0.066343  1
  Si  Si23  1  0.295211  0.630265  0.565787  1
  Si  Si24  1  0.796992  0.865907  0.183273  1
  Si  Si25  1  0.132281  0.203524  0.314590  1
  Si  Si26  1  0.867672  0.796032  0.816954  1
  Si  Si27  1  0.285541  0.950827  0.063434  1
  Si  Si28  1  0.548452  0.791274  0.315523  1
  Si  Si29  1  0.448802  0.210170  0.818849  1
  Si  Si30  1  0.793432  0.546941  0.684279  1
  Si  Si31  1  0.208540  0.449836  0.181372  1
  Si  Si32  1  0.709833  0.049305  0.565673  1
  Si  Si33  1  0.951678  0.286130  0.936198  1
  Si  Si34  1  0.047762  0.707660  0.434123  1
  Ir  Ir35  1  0.331451  0.332034  0.999660  1
