# generated using pymatgen
data_Yb21Ga8Sn6Bi
_symmetry_space_group_name_H-M   'P 1'
_cell_length_a   11.34302852
_cell_length_b   11.34302912
_cell_length_c   11.34302800
_cell_angle_alpha   60.00000327
_cell_angle_beta   60.00000151
_cell_angle_gamma   60.00000445
_symmetry_Int_Tables_number   1
_chemical_formula_structural   Yb21Ga8Sn6Bi
_chemical_formula_sum   'Yb21 Ga8 Sn6 Bi1'
_cell_volume   1031.98196485
_cell_formula_units_Z   1
loop_
 _symmetry_equiv_pos_site_id
 _symmetry_equiv_pos_as_xyz
  1  'x, y, z'
loop_
 _atom_site_type_symbol
 _atom_site_label
 _atom_site_symmetry_multiplicity
 _atom_site_fract_x
 _atom_site_fract_y
 _atom_site_fract_z
 _atom_site_occupancy
  Yb  Yb0  1  0.869605  0.869605  0.391183  1
  Yb  Yb1  1  0.608817  0.130395  0.130395  1
  Yb  Yb2  1  0.869605  0.391183  0.869605  1
  Yb  Yb3  1  0.130395  0.130395  0.130395  1
  Yb  Yb4  1  0.391183  0.869605  0.869605  1
  Yb  Yb5  1  0.869605  0.869605  0.869605  1
  Yb  Yb6  1  0.177803  0.822197  0.500000  1
  Yb  Yb7  1  0.822197  0.500000  0.500000  1
  Yb  Yb8  1  0.130395  0.130395  0.608817  1
  Yb  Yb9  1  0.822197  0.177803  0.500000  1
  Yb  Yb10  1  0.177803  0.500000  0.500000  1
  Yb  Yb11  1  0.130395  0.608817  0.130395  1
  Yb  Yb12  1  0.500000  0.500000  0.177803  1
  Yb  Yb13  1  0.500000  0.177803  0.822197  1
  Yb  Yb14  1  0.500000  0.822197  0.177803  1
  Yb  Yb15  1  0.500000  0.500000  0.822197  1
  Yb  Yb16  1  0.500000  0.177803  0.500000  1
  Yb  Yb17  1  0.177803  0.500000  0.822197  1
  Yb  Yb18  1  0.000000  0.000000  0.000000  1
  Yb  Yb19  1  0.500000  0.822197  0.500000  1
  Yb  Yb20  1  0.822197  0.500000  0.177803  1
  Ga  Ga21  1  0.690324  0.929031  0.690324  1
  Ga  Ga22  1  0.690324  0.690324  0.929031  1
  Ga  Ga23  1  0.690324  0.690324  0.690324  1
  Ga  Ga24  1  0.309676  0.070969  0.309676  1
  Ga  Ga25  1  0.929031  0.690324  0.690324  1
  Ga  Ga26  1  0.309676  0.309676  0.070969  1
  Ga  Ga27  1  0.070969  0.309676  0.309676  1
  Ga  Ga28  1  0.309676  0.309676  0.309676  1
  Sn  Sn29  1  0.787751  0.212249  0.787751  1
  Sn  Sn30  1  0.787751  0.212249  0.212249  1
  Sn  Sn31  1  0.212249  0.787751  0.212249  1
  Sn  Sn32  1  0.212249  0.787751  0.787751  1
  Sn  Sn33  1  0.787751  0.787751  0.212249  1
  Sn  Sn34  1  0.212249  0.212249  0.787751  1
  Bi  Bi35  1  0.500000  0.500000  0.500000  1
