# generated using pymatgen
data_DyErMgNi7B2
_symmetry_space_group_name_H-M   'P 1'
_cell_length_a   4.97753200
_cell_length_b   4.97753186
_cell_length_c   14.20662600
_cell_angle_alpha   90.00000000
_cell_angle_beta   90.00000000
_cell_angle_gamma   120.00000092
_symmetry_Int_Tables_number   1
_chemical_formula_structural   DyErMgNi7B2
_chemical_formula_sum   'Dy2 Er2 Mg2 Ni14 B4'
_cell_volume   304.82436974
_cell_formula_units_Z   2
loop_
 _symmetry_equiv_pos_site_id
 _symmetry_equiv_pos_as_xyz
  1  'x, y, z'
loop_
 _atom_site_type_symbol
 _atom_site_label
 _atom_site_symmetry_multiplicity
 _atom_site_fract_x
 _atom_site_fract_y
 _atom_site_fract_z
 _atom_site_occupancy
  Dy  Dy0  1  0.666667  0.333333  0.530233  1
  Dy  Dy1  1  0.333333  0.666667  0.030233  1
  Er  Er2  1  0.666667  0.333333  0.755421  1
  Er  Er3  1  0.333333  0.666667  0.255421  1
  Mg  Mg4  1  0.333333  0.666667  0.466640  1
  Mg  Mg5  1  0.666667  0.333333  0.966640  1
  Ni  Ni6  1  0.834585  0.165415  0.352603  1
  Ni  Ni7  1  0.834585  0.669169  0.352603  1
  Ni  Ni8  1  0.000000  0.000000  0.998671  1
  Ni  Ni9  1  0.000000  0.000000  0.498671  1
  Ni  Ni10  1  0.833784  0.667569  0.147798  1
  Ni  Ni11  1  0.166216  0.833784  0.647798  1
  Ni  Ni12  1  0.667569  0.833784  0.647798  1
  Ni  Ni13  1  0.332431  0.166216  0.147798  1
  Ni  Ni14  1  0.833784  0.166216  0.147798  1
  Ni  Ni15  1  0.165415  0.330831  0.852603  1
  Ni  Ni16  1  0.165415  0.834585  0.852603  1
  Ni  Ni17  1  0.166216  0.332431  0.647798  1
  Ni  Ni18  1  0.669169  0.834585  0.852603  1
  Ni  Ni19  1  0.330831  0.165415  0.352603  1
  B  B20  1  0.666667  0.333333  0.249890  1
  B  B21  1  0.333333  0.666667  0.749890  1
  B  B22  1  0.000000  0.000000  0.747944  1
  B  B23  1  0.000000  0.000000  0.247944  1
