# generated using pymatgen
data_Er12IrOs2Pt
_symmetry_space_group_name_H-M   'P 1'
_cell_length_a   6.38185565
_cell_length_b   7.28145013
_cell_length_c   9.01124600
_cell_angle_alpha   90.00000000
_cell_angle_beta   90.00000000
_cell_angle_gamma   90.12163416
_symmetry_Int_Tables_number   1
_chemical_formula_structural   Er12IrOs2Pt
_chemical_formula_sum   'Er12 Ir1 Os2 Pt1'
_cell_volume   418.74412140
_cell_formula_units_Z   1
loop_
 _symmetry_equiv_pos_site_id
 _symmetry_equiv_pos_as_xyz
  1  'x, y, z'
loop_
 _atom_site_type_symbol
 _atom_site_label
 _atom_site_symmetry_multiplicity
 _atom_site_fract_x
 _atom_site_fract_y
 _atom_site_fract_z
 _atom_site_occupancy
  Er  Er0  1  0.335300  0.672022  0.058780  1
  Er  Er1  1  0.174431  0.182565  0.439735  1
  Er  Er2  1  0.669350  0.323985  0.561160  1
  Er  Er3  1  0.823268  0.821855  0.934923  1
  Er  Er4  1  0.669350  0.323985  0.938840  1
  Er  Er5  1  0.823268  0.821855  0.565077  1
  Er  Er6  1  0.335300  0.672022  0.441220  1
  Er  Er7  1  0.174431  0.182565  0.060265  1
  Er  Er8  1  0.874761  0.532054  0.250000  1
  Er  Er9  1  0.622853  0.037840  0.250000  1
  Er  Er10  1  0.122546  0.465254  0.750000  1
  Er  Er11  1  0.372864  0.963052  0.750000  1
  Ir  Ir12  1  0.962806  0.114622  0.750000  1
  Os  Os13  1  0.462685  0.384091  0.250000  1
  Os  Os14  1  0.533837  0.614914  0.750000  1
  Pt  Pt15  1  0.042950  0.887317  0.250000  1
