# generated using pymatgen
data_Tb2Sm3(Hg2Ir)2
_symmetry_space_group_name_H-M   'P 1'
_cell_length_a   8.09354600
_cell_length_b   18.26582800
_cell_length_c   3.72365200
_cell_angle_alpha   90.00000000
_cell_angle_beta   90.00000000
_cell_angle_gamma   90.00000000
_symmetry_Int_Tables_number   1
_chemical_formula_structural   Tb2Sm3(Hg2Ir)2
_chemical_formula_sum   'Tb4 Sm6 Hg8 Ir4'
_cell_volume   550.48728181
_cell_formula_units_Z   2
loop_
 _symmetry_equiv_pos_site_id
 _symmetry_equiv_pos_as_xyz
  1  'x, y, z'
loop_
 _atom_site_type_symbol
 _atom_site_label
 _atom_site_symmetry_multiplicity
 _atom_site_fract_x
 _atom_site_fract_y
 _atom_site_fract_z
 _atom_site_occupancy
  Tb  Tb0  1  0.609018  0.089784  0.000000  1
  Tb  Tb1  1  0.390982  0.910216  0.000000  1
  Tb  Tb2  1  0.890982  0.589784  0.000000  1
  Tb  Tb3  1  0.109018  0.410216  0.000000  1
  Sm  Sm4  1  0.500000  0.500000  0.000000  1
  Sm  Sm5  1  0.000000  0.000000  0.000000  1
  Sm  Sm6  1  0.734340  0.283377  0.000000  1
  Sm  Sm7  1  0.265660  0.716623  0.000000  1
  Sm  Sm8  1  0.765660  0.783377  0.000000  1
  Sm  Sm9  1  0.234340  0.216623  0.000000  1
  Hg  Hg10  1  0.706034  0.939697  0.500000  1
  Hg  Hg11  1  0.293966  0.060303  0.500000  1
  Hg  Hg12  1  0.793966  0.439697  0.500000  1
  Hg  Hg13  1  0.206034  0.560303  0.500000  1
  Hg  Hg14  1  0.587114  0.646675  0.500000  1
  Hg  Hg15  1  0.412886  0.353325  0.500000  1
  Hg  Hg16  1  0.912886  0.146675  0.500000  1
  Hg  Hg17  1  0.087114  0.853325  0.500000  1
  Ir  Ir18  1  0.520070  0.196881  0.500000  1
  Ir  Ir19  1  0.479930  0.803119  0.500000  1
  Ir  Ir20  1  0.979930  0.696881  0.500000  1
  Ir  Ir21  1  0.020070  0.303119  0.500000  1
