# generated using pymatgen
data_PrNd(Hg2O)2
_symmetry_space_group_name_H-M   'P 1'
_cell_length_a   5.95757533
_cell_length_b   5.86317512
_cell_length_c   10.93876900
_cell_angle_alpha   90.04616360
_cell_angle_beta   98.04717075
_cell_angle_gamma   89.97819163
_symmetry_Int_Tables_number   1
_chemical_formula_structural   PrNd(Hg2O)2
_chemical_formula_sum   'Pr2 Nd2 Hg8 O4'
_cell_volume   378.33200096
_cell_formula_units_Z   2
loop_
 _symmetry_equiv_pos_site_id
 _symmetry_equiv_pos_as_xyz
  1  'x, y, z'
loop_
 _atom_site_type_symbol
 _atom_site_label
 _atom_site_symmetry_multiplicity
 _atom_site_fract_x
 _atom_site_fract_y
 _atom_site_fract_z
 _atom_site_occupancy
  Pr  Pr0  1  0.526045  0.181869  0.104855  1
  Pr  Pr1  1  0.026272  0.682214  0.104798  1
  Nd  Nd2  1  0.973772  0.182311  0.896272  1
  Nd  Nd3  1  0.473997  0.681914  0.896184  1
  Hg  Hg4  1  0.531802  0.167914  0.416698  1
  Hg  Hg5  1  0.028727  0.659588  0.416660  1
  Hg  Hg6  1  0.971369  0.159075  0.583892  1
  Hg  Hg7  1  0.468236  0.667657  0.583782  1
  Hg  Hg8  1  0.548865  0.675358  0.292464  1
  Hg  Hg9  1  0.051491  0.169797  0.292334  1
  Hg  Hg10  1  0.948895  0.668144  0.708448  1
  Hg  Hg11  1  0.451775  0.174219  0.708137  1
  O  O12  1  0.749683  0.931243  0.998808  1
  O  O13  1  0.249585  0.933712  0.998578  1
  O  O14  1  0.749672  0.433706  0.999106  1
  O  O15  1  0.249825  0.431239  0.998985  1
