# generated using pymatgen
data_LaPrTa6O18
_symmetry_space_group_name_H-M   'P 1'
_cell_length_a   7.63728400
_cell_length_b   5.48966448
_cell_length_c   8.30227722
_cell_angle_alpha   87.64933976
_cell_angle_beta   90.00000000
_cell_angle_gamma   90.00000000
_symmetry_Int_Tables_number   1
_chemical_formula_structural   LaPrTa6O18
_chemical_formula_sum   'La1 Pr1 Ta6 O18'
_cell_volume   347.78942222
_cell_formula_units_Z   1
loop_
 _symmetry_equiv_pos_site_id
 _symmetry_equiv_pos_as_xyz
  1  'x, y, z'
loop_
 _atom_site_type_symbol
 _atom_site_label
 _atom_site_symmetry_multiplicity
 _atom_site_fract_x
 _atom_site_fract_y
 _atom_site_fract_z
 _atom_site_occupancy
  La  La0  1  0.250000  0.967170  0.435703  1
  Pr  Pr1  1  0.750000  0.034885  0.566226  1
  Ta  Ta2  1  0.000302  0.000969  0.999529  1
  Ta  Ta3  1  0.499698  0.000969  0.999529  1
  Ta  Ta4  1  0.006071  0.526087  0.699035  1
  Ta  Ta5  1  0.493929  0.526087  0.699035  1
  Ta  Ta6  1  0.992627  0.474418  0.301383  1
  Ta  Ta7  1  0.507373  0.474418  0.301383  1
  O  O8  1  0.250000  0.918359  0.982749  1
  O  O9  1  0.945225  0.842975  0.787407  1
  O  O10  1  0.554775  0.842975  0.787407  1
  O  O11  1  0.960989  0.732499  0.468288  1
  O  O12  1  0.539011  0.732499  0.468288  1
  O  O13  1  0.250000  0.640639  0.662388  1
  O  O14  1  0.954936  0.686456  0.124238  1
  O  O15  1  0.545064  0.686456  0.124238  1
  O  O16  1  0.250000  0.553719  0.314652  1
  O  O17  1  0.750000  0.439842  0.689609  1
  O  O18  1  0.046506  0.315672  0.876732  1
  O  O19  1  0.453494  0.315672  0.876732  1
  O  O20  1  0.750000  0.354022  0.336890  1
  O  O21  1  0.035006  0.267057  0.532204  1
  O  O22  1  0.464994  0.267057  0.532204  1
  O  O23  1  0.054175  0.159508  0.209878  1
  O  O24  1  0.445825  0.159508  0.209878  1
  O  O25  1  0.750000  0.080080  0.014396  1
