# generated using pymatgen
data_Ac3Cd3Ag2Ru
_symmetry_space_group_name_H-M   'P 1'
_cell_length_a   8.10202500
_cell_length_b   8.10202484
_cell_length_c   4.28230900
_cell_angle_alpha   90.00000000
_cell_angle_beta   90.00000000
_cell_angle_gamma   120.00000473
_symmetry_Int_Tables_number   1
_chemical_formula_structural   Ac3Cd3Ag2Ru
_chemical_formula_sum   'Ac3 Cd3 Ag2 Ru1'
_cell_volume   243.44214274
_cell_formula_units_Z   1
loop_
 _symmetry_equiv_pos_site_id
 _symmetry_equiv_pos_as_xyz
  1  'x, y, z'
loop_
 _atom_site_type_symbol
 _atom_site_label
 _atom_site_symmetry_multiplicity
 _atom_site_fract_x
 _atom_site_fract_y
 _atom_site_fract_z
 _atom_site_occupancy
  Ac  Ac0  1  0.569298  0.973595  0.000000  1
  Ac  Ac1  1  0.026405  0.595703  0.000000  1
  Ac  Ac2  1  0.404297  0.430702  0.000000  1
  Cd  Cd3  1  0.245210  0.998348  0.500000  1
  Cd  Cd4  1  0.001652  0.246861  0.500000  1
  Cd  Cd5  1  0.753139  0.754790  0.500000  1
  Ag  Ag6  1  0.666667  0.333333  0.500000  1
  Ag  Ag7  1  0.000000  0.000000  0.000000  1
  Ru  Ru8  1  0.333333  0.666667  0.500000  1
