# generated using pymatgen
data_Pr2Dy2Zn10SiSn
_symmetry_space_group_name_H-M   'P 1'
_cell_length_a   8.39611544
_cell_length_b   8.39611699
_cell_length_c   8.92444400
_cell_angle_alpha   90.00000000
_cell_angle_beta   90.00000000
_cell_angle_gamma   149.60654588
_symmetry_Int_Tables_number   1
_chemical_formula_structural   Pr2Dy2Zn10SiSn
_chemical_formula_sum   'Pr2 Dy2 Zn10 Si1 Sn1'
_cell_volume   318.29730814
_cell_formula_units_Z   1
loop_
 _symmetry_equiv_pos_site_id
 _symmetry_equiv_pos_as_xyz
  1  'x, y, z'
loop_
 _atom_site_type_symbol
 _atom_site_label
 _atom_site_symmetry_multiplicity
 _atom_site_fract_x
 _atom_site_fract_y
 _atom_site_fract_z
 _atom_site_occupancy
  Pr  Pr0  1  0.001130  0.998870  0.487027  1
  Pr  Pr1  1  0.001130  0.998870  0.012973  1
  Dy  Dy2  1  0.201286  0.798714  0.250000  1
  Dy  Dy3  1  0.795024  0.204976  0.750000  1
  Zn  Zn4  1  0.812025  0.187975  0.390367  1
  Zn  Zn5  1  0.187124  0.812876  0.607347  1
  Zn  Zn6  1  0.812025  0.187975  0.109633  1
  Zn  Zn7  1  0.187124  0.812876  0.892653  1
  Zn  Zn8  1  0.652786  0.347214  0.472744  1
  Zn  Zn9  1  0.342206  0.657794  0.515928  1
  Zn  Zn10  1  0.652786  0.347214  0.027256  1
  Zn  Zn11  1  0.342206  0.657794  0.984072  1
  Zn  Zn12  1  0.403335  0.596665  0.250000  1
  Zn  Zn13  1  0.606655  0.393345  0.750000  1
  Si  Si14  1  0.559002  0.440998  0.250000  1
  Sn  Sn15  1  0.444159  0.555841  0.750000  1
