# generated using pymatgen
data_Eu2DyNbO6
_symmetry_space_group_name_H-M   'P 1'
_cell_length_a   5.77148732
_cell_length_b   5.95992300
_cell_length_c   10.06487962
_cell_angle_alpha   90.00000000
_cell_angle_beta   124.80844867
_cell_angle_gamma   90.00000000
_symmetry_Int_Tables_number   1
_chemical_formula_structural   Eu2DyNbO6
_chemical_formula_sum   'Eu4 Dy2 Nb2 O12'
_cell_volume   284.25920864
_cell_formula_units_Z   2
loop_
 _symmetry_equiv_pos_site_id
 _symmetry_equiv_pos_as_xyz
  1  'x, y, z'
loop_
 _atom_site_type_symbol
 _atom_site_label
 _atom_site_symmetry_multiplicity
 _atom_site_fract_x
 _atom_site_fract_y
 _atom_site_fract_z
 _atom_site_occupancy
  Eu  Eu0  1  0.236945  0.447342  0.752215  1
  Eu  Eu1  1  0.236945  0.052658  0.252215  1
  Eu  Eu2  1  0.763055  0.552658  0.247785  1
  Eu  Eu3  1  0.763055  0.947342  0.747785  1
  Dy  Dy4  1  0.500000  0.500000  0.500000  1
  Dy  Dy5  1  0.500000  0.000000  0.000000  1
  Nb  Nb6  1  0.000000  0.500000  0.000000  1
  Nb  Nb7  1  0.000000  0.000000  0.500000  1
  O  O8  1  0.338367  0.037424  0.736180  1
  O  O9  1  0.338367  0.462576  0.236180  1
  O  O10  1  0.661633  0.962576  0.263820  1
  O  O11  1  0.661633  0.537424  0.763820  1
  O  O12  1  0.764317  0.191874  0.550011  1
  O  O13  1  0.764317  0.308126  0.050011  1
  O  O14  1  0.235683  0.808126  0.449989  1
  O  O15  1  0.235683  0.691874  0.949989  1
  O  O16  1  0.129479  0.218166  0.941334  1
  O  O17  1  0.129479  0.281834  0.441334  1
  O  O18  1  0.870521  0.781834  0.058666  1
  O  O19  1  0.870521  0.718166  0.558666  1
