# generated using pymatgen
data_Mn2CuSb12Os
_symmetry_space_group_name_H-M   'P 1'
_cell_length_a   8.13332956
_cell_length_b   8.11521626
_cell_length_c   9.35507958
_cell_angle_alpha   54.75912793
_cell_angle_beta   54.72968839
_cell_angle_gamma   70.43536107
_symmetry_Int_Tables_number   1
_chemical_formula_structural   Mn2CuSb12Os
_chemical_formula_sum   'Mn2 Cu1 Sb12 Os1'
_cell_volume   411.73478977
_cell_formula_units_Z   1
loop_
 _symmetry_equiv_pos_site_id
 _symmetry_equiv_pos_as_xyz
  1  'x, y, z'
loop_
 _atom_site_type_symbol
 _atom_site_label
 _atom_site_symmetry_multiplicity
 _atom_site_fract_x
 _atom_site_fract_y
 _atom_site_fract_z
 _atom_site_occupancy
  Mn  Mn0  1  0.500000  0.000000  0.500000  1
  Mn  Mn1  1  0.000000  0.500000  0.500000  1
  Cu  Cu2  1  0.500000  0.000000  0.000000  1
  Sb  Sb3  1  0.663193  0.664792  0.494695  1
  Sb  Sb4  1  0.336807  0.335208  0.505305  1
  Sb  Sb5  1  0.661492  0.656433  0.186380  1
  Sb  Sb6  1  0.338508  0.343567  0.813620  1
  Sb  Sb7  1  0.158112  0.844748  0.663410  1
  Sb  Sb8  1  0.841888  0.155252  0.336590  1
  Sb  Sb9  1  0.850045  0.159986  0.652816  1
  Sb  Sb10  1  0.149955  0.840014  0.347184  1
  Sb  Sb11  1  0.822110  0.491291  0.841348  1
  Sb  Sb12  1  0.177890  0.508709  0.158652  1
  Sb  Sb13  1  0.503227  0.185876  0.160617  1
  Sb  Sb14  1  0.496773  0.814124  0.839383  1
  Os  Os15  1  0.000000  0.500000  0.000000  1
