# generated using pymatgen
data_CaMn(ClO4)4
_symmetry_space_group_name_H-M   'P 1'
_cell_length_a   5.13066834
_cell_length_b   7.51234338
_cell_length_c   9.18048700
_cell_angle_alpha   89.87596387
_cell_angle_beta   91.29197776
_cell_angle_gamma   98.33058237
_symmetry_Int_Tables_number   1
_chemical_formula_structural   CaMn(ClO4)4
_chemical_formula_sum   'Ca1 Mn1 Cl4 O16'
_cell_volume   350.02384999
_cell_formula_units_Z   1
loop_
 _symmetry_equiv_pos_site_id
 _symmetry_equiv_pos_as_xyz
  1  'x, y, z'
loop_
 _atom_site_type_symbol
 _atom_site_label
 _atom_site_symmetry_multiplicity
 _atom_site_fract_x
 _atom_site_fract_y
 _atom_site_fract_z
 _atom_site_occupancy
  Ca  Ca0  1  0.500000  0.500000  0.500000  1
  Mn  Mn1  1  0.000000  0.000000  0.000000  1
  Cl  Cl2  1  0.563202  0.246194  0.159391  1
  Cl  Cl3  1  0.952161  0.242012  0.676594  1
  Cl  Cl4  1  0.436798  0.753806  0.840609  1
  Cl  Cl5  1  0.047839  0.757988  0.323406  1
  O  O6  1  0.568881  0.285193  0.315925  1
  O  O7  1  0.954184  0.213233  0.834979  1
  O  O8  1  0.431119  0.714807  0.684075  1
  O  O9  1  0.045816  0.786767  0.165021  1
  O  O10  1  0.284300  0.203436  0.112407  1
  O  O11  1  0.226473  0.271890  0.628443  1
  O  O12  1  0.715700  0.796564  0.887593  1
  O  O13  1  0.773527  0.728110  0.371557  1
  O  O14  1  0.688798  0.082486  0.139363  1
  O  O15  1  0.841152  0.410300  0.648992  1
  O  O16  1  0.311202  0.917514  0.860637  1
  O  O17  1  0.158848  0.589700  0.351008  1
  O  O18  1  0.694358  0.394436  0.079367  1
  O  O19  1  0.801913  0.093706  0.601679  1
  O  O20  1  0.305642  0.605564  0.920633  1
  O  O21  1  0.198087  0.906294  0.398321  1
