# generated using pymatgen
data_Na2BeH8
_symmetry_space_group_name_H-M   'P 1'
_cell_length_a   4.78142507
_cell_length_b   4.81212218
_cell_length_c   9.45110602
_cell_angle_alpha   78.60927682
_cell_angle_beta   91.66677454
_cell_angle_gamma   62.64363622
_symmetry_Int_Tables_number   1
_chemical_formula_structural   Na2BeH8
_chemical_formula_sum   'Na2 Be1 H8'
_cell_volume   187.53293039
_cell_formula_units_Z   1
loop_
 _symmetry_equiv_pos_site_id
 _symmetry_equiv_pos_as_xyz
  1  'x, y, z'
loop_
 _atom_site_type_symbol
 _atom_site_label
 _atom_site_symmetry_multiplicity
 _atom_site_fract_x
 _atom_site_fract_y
 _atom_site_fract_z
 _atom_site_occupancy
  Na  Na0  1  0.784705  0.905226  0.654663  1
  Na  Na1  1  0.024902  0.358795  0.449190  1
  Be  Be2  1  0.390894  0.718350  0.550782  1
  H  H3  1  0.616840  0.786058  0.237955  1
  H  H4  1  0.455398  0.399970  0.927227  1
  H  H5  1  0.660473  0.407170  0.596581  1
  H  H6  1  0.481136  0.917188  0.447283  1
  H  H7  1  0.697297  0.717648  0.175925  1
  H  H8  1  0.314481  0.865233  0.675089  1
  H  H9  1  0.452570  0.306480  0.000673  1
  H  H10  1  0.109970  0.737757  0.484752  1
