# generated using pymatgen
data_Rb3TiVBr9
_symmetry_space_group_name_H-M   'P 1'
_cell_length_a   7.66126800
_cell_length_b   7.66126861
_cell_length_c   19.11319300
_cell_angle_alpha   90.00000000
_cell_angle_beta   90.00000000
_cell_angle_gamma   119.99998871
_symmetry_Int_Tables_number   1
_chemical_formula_structural   Rb3TiVBr9
_chemical_formula_sum   'Rb6 Ti2 V2 Br18'
_cell_volume   971.55025612
_cell_formula_units_Z   2
loop_
 _symmetry_equiv_pos_site_id
 _symmetry_equiv_pos_as_xyz
  1  'x, y, z'
loop_
 _atom_site_type_symbol
 _atom_site_label
 _atom_site_symmetry_multiplicity
 _atom_site_fract_x
 _atom_site_fract_y
 _atom_site_fract_z
 _atom_site_occupancy
  Rb  Rb0  1  0.666667  0.333333  0.569458  1
  Rb  Rb1  1  0.333333  0.666667  0.060115  1
  Rb  Rb2  1  0.333333  0.666667  0.430542  1
  Rb  Rb3  1  0.666667  0.333333  0.939885  1
  Rb  Rb4  1  0.000000  0.000000  0.237315  1
  Rb  Rb5  1  0.000000  0.000000  0.762685  1
  Ti  Ti6  1  0.333333  0.666667  0.663727  1
  Ti  Ti7  1  0.666667  0.333333  0.336273  1
  V  V8  1  0.333333  0.666667  0.833182  1
  V  V9  1  0.666667  0.333333  0.166818  1
  Br  Br10  1  0.824818  0.649636  0.409304  1
  Br  Br11  1  0.175182  0.824818  0.590696  1
  Br  Br12  1  0.649636  0.824818  0.590696  1
  Br  Br13  1  0.824818  0.175182  0.409304  1
  Br  Br14  1  0.350364  0.175182  0.409304  1
  Br  Br15  1  0.174688  0.349376  0.905250  1
  Br  Br16  1  0.019502  0.509751  0.746991  1
  Br  Br17  1  0.650624  0.825312  0.905250  1
  Br  Br18  1  0.825312  0.650624  0.094750  1
  Br  Br19  1  0.175182  0.350364  0.590696  1
  Br  Br20  1  0.490249  0.980498  0.746991  1
  Br  Br21  1  0.509751  0.490249  0.253009  1
  Br  Br22  1  0.490249  0.509751  0.746991  1
  Br  Br23  1  0.174688  0.825312  0.905250  1
  Br  Br24  1  0.349376  0.174688  0.094750  1
  Br  Br25  1  0.980498  0.490249  0.253009  1
  Br  Br26  1  0.509751  0.019502  0.253009  1
  Br  Br27  1  0.825312  0.174688  0.094750  1
