# generated using pymatgen
data_Dy20HgBi8Os3
_symmetry_space_group_name_H-M   'P 1'
_cell_length_a   8.02541284
_cell_length_b   9.14072000
_cell_length_c   12.41035954
_cell_angle_alpha   90.00000000
_cell_angle_beta   90.02184235
_cell_angle_gamma   90.00000000
_symmetry_Int_Tables_number   1
_chemical_formula_structural   Dy20HgBi8Os3
_chemical_formula_sum   'Dy20 Hg1 Bi8 Os3'
_cell_volume   910.39972945
_cell_formula_units_Z   1
loop_
 _symmetry_equiv_pos_site_id
 _symmetry_equiv_pos_as_xyz
  1  'x, y, z'
loop_
 _atom_site_type_symbol
 _atom_site_label
 _atom_site_symmetry_multiplicity
 _atom_site_fract_x
 _atom_site_fract_y
 _atom_site_fract_z
 _atom_site_occupancy
  Dy  Dy0  1  0.822893  0.750000  0.773916  1
  Dy  Dy1  1  0.161655  0.250000  0.210061  1
  Dy  Dy2  1  0.340489  0.250000  0.707606  1
  Dy  Dy3  1  0.657170  0.750000  0.295110  1
  Dy  Dy4  1  0.373164  0.750000  0.697065  1
  Dy  Dy5  1  0.620772  0.250000  0.305690  1
  Dy  Dy6  1  0.876837  0.250000  0.806836  1
  Dy  Dy7  1  0.139970  0.750000  0.208243  1
  Dy  Dy8  1  0.948326  0.750000  0.500293  1
  Dy  Dy9  1  0.060839  0.250000  0.496846  1
  Dy  Dy10  1  0.451438  0.250000  0.997792  1
  Dy  Dy11  1  0.533195  0.750000  0.999171  1
  Dy  Dy12  1  0.673932  0.038251  0.562193  1
  Dy  Dy13  1  0.324904  0.955975  0.437871  1
  Dy  Dy14  1  0.182434  0.972959  0.931986  1
  Dy  Dy15  1  0.324904  0.544025  0.437871  1
  Dy  Dy16  1  0.821366  0.060044  0.066737  1
  Dy  Dy17  1  0.673932  0.461749  0.562193  1
  Dy  Dy18  1  0.821366  0.439956  0.066737  1
  Dy  Dy19  1  0.182434  0.527041  0.931986  1
  Hg  Hg20  1  0.923123  0.750000  0.013419  1
  Bi  Bi21  1  0.572431  0.490256  0.828732  1
  Bi  Bi22  1  0.430469  0.508813  0.171277  1
  Bi  Bi23  1  0.066894  0.508325  0.672406  1
  Bi  Bi24  1  0.430469  0.991187  0.171277  1
  Bi  Bi25  1  0.931618  0.491240  0.325958  1
  Bi  Bi26  1  0.572431  0.009744  0.828732  1
  Bi  Bi27  1  0.931618  0.008760  0.325958  1
  Bi  Bi28  1  0.066894  0.991675  0.672406  1
  Os  Os29  1  0.578307  0.750000  0.515390  1
  Os  Os30  1  0.425258  0.250000  0.489013  1
  Os  Os31  1  0.078467  0.250000  0.989229  1
