# generated using pymatgen
data_YSc(NbSe2)8
_symmetry_space_group_name_H-M   'P 1'
_cell_length_a   7.01519900
_cell_length_b   7.01519914
_cell_length_c   14.03336300
_cell_angle_alpha   90.00000000
_cell_angle_beta   90.00000000
_cell_angle_gamma   119.99999461
_symmetry_Int_Tables_number   1
_chemical_formula_structural   YSc(NbSe2)8
_chemical_formula_sum   'Y1 Sc1 Nb8 Se16'
_cell_volume   598.09808743
_cell_formula_units_Z   1
loop_
 _symmetry_equiv_pos_site_id
 _symmetry_equiv_pos_as_xyz
  1  'x, y, z'
loop_
 _atom_site_type_symbol
 _atom_site_label
 _atom_site_symmetry_multiplicity
 _atom_site_fract_x
 _atom_site_fract_y
 _atom_site_fract_z
 _atom_site_occupancy
  Y  Y0  1  0.000000  0.000000  0.500000  1
  Sc  Sc1  1  0.000000  0.000000  0.000000  1
  Nb  Nb2  1  0.000000  0.000000  0.240263  1
  Nb  Nb3  1  0.000000  0.000000  0.759737  1
  Nb  Nb4  1  0.507160  0.014322  0.239967  1
  Nb  Nb5  1  0.985678  0.492840  0.239967  1
  Nb  Nb6  1  0.507160  0.492840  0.239967  1
  Nb  Nb7  1  0.492840  0.985678  0.760033  1
  Nb  Nb8  1  0.014322  0.507160  0.760033  1
  Nb  Nb9  1  0.492840  0.507160  0.760033  1
  Se  Se10  1  0.333333  0.666667  0.883090  1
  Se  Se11  1  0.666667  0.333333  0.116910  1
  Se  Se12  1  0.666667  0.333333  0.363374  1
  Se  Se13  1  0.333333  0.666667  0.636626  1
  Se  Se14  1  0.169355  0.830645  0.358807  1
  Se  Se15  1  0.169355  0.338710  0.358807  1
  Se  Se16  1  0.661290  0.830645  0.358807  1
  Se  Se17  1  0.830645  0.169355  0.641193  1
  Se  Se18  1  0.830645  0.661290  0.641193  1
  Se  Se19  1  0.338710  0.169355  0.641193  1
  Se  Se20  1  0.830500  0.169500  0.877951  1
  Se  Se21  1  0.830500  0.661001  0.877951  1
  Se  Se22  1  0.338999  0.169500  0.877951  1
  Se  Se23  1  0.169500  0.830500  0.122049  1
  Se  Se24  1  0.169500  0.338999  0.122049  1
  Se  Se25  1  0.661001  0.830500  0.122049  1
