# generated using pymatgen
data_Dy2Co3Si6PRu9
_symmetry_space_group_name_H-M   'P 1'
_cell_length_a   9.44307518
_cell_length_b   9.47194007
_cell_length_c   3.84021600
_cell_angle_alpha   90.00000000
_cell_angle_beta   90.00000000
_cell_angle_gamma   119.97679245
_symmetry_Int_Tables_number   1
_chemical_formula_structural   Dy2Co3Si6PRu9
_chemical_formula_sum   'Dy2 Co3 Si6 P1 Ru9'
_cell_volume   297.53645720
_cell_formula_units_Z   1
loop_
 _symmetry_equiv_pos_site_id
 _symmetry_equiv_pos_as_xyz
  1  'x, y, z'
loop_
 _atom_site_type_symbol
 _atom_site_label
 _atom_site_symmetry_multiplicity
 _atom_site_fract_x
 _atom_site_fract_y
 _atom_site_fract_z
 _atom_site_occupancy
  Dy  Dy0  1  0.333759  0.666480  0.000000  1
  Dy  Dy1  1  0.666149  0.335657  0.500000  1
  Co  Co2  1  0.150958  0.877153  0.000000  1
  Co  Co3  1  0.120055  0.269480  0.000000  1
  Co  Co4  1  0.728203  0.850964  0.000000  1
  Si  Si5  1  0.401317  0.107511  0.000000  1
  Si  Si6  1  0.891832  0.292709  0.000000  1
  Si  Si7  1  0.706066  0.600304  0.000000  1
  Si  Si8  1  0.108774  0.716691  0.500000  1
  Si  Si9  1  0.283631  0.391338  0.500000  1
  Si  Si10  1  0.001588  0.999299  0.000000  1
  P  P11  1  0.608319  0.893509  0.500000  1
  Ru  Ru12  1  0.426623  0.370605  0.000000  1
  Ru  Ru13  1  0.631120  0.054806  0.000000  1
  Ru  Ru14  1  0.943194  0.573858  0.000000  1
  Ru  Ru15  1  0.383587  0.943342  0.500000  1
  Ru  Ru16  1  0.053687  0.434216  0.500000  1
  Ru  Ru17  1  0.564104  0.625803  0.500000  1
  Ru  Ru18  1  0.205797  0.106671  0.500000  1
  Ru  Ru19  1  0.887961  0.093255  0.500000  1
  Ru  Ru20  1  0.903276  0.796348  0.500000  1
