# generated using pymatgen
data_Dy11Y9(IrPt2)4
_symmetry_space_group_name_H-M   'P 1'
_cell_length_a   11.09136105
_cell_length_b   11.09129601
_cell_length_c   6.34225203
_cell_angle_alpha   90.00319124
_cell_angle_beta   90.01100580
_cell_angle_gamma   90.00302702
_symmetry_Int_Tables_number   1
_chemical_formula_structural   Dy11Y9(IrPt2)4
_chemical_formula_sum   'Dy11 Y9 Ir4 Pt8'
_cell_volume   780.20840766
_cell_formula_units_Z   1
loop_
 _symmetry_equiv_pos_site_id
 _symmetry_equiv_pos_as_xyz
  1  'x, y, z'
loop_
 _atom_site_type_symbol
 _atom_site_label
 _atom_site_symmetry_multiplicity
 _atom_site_fract_x
 _atom_site_fract_y
 _atom_site_fract_z
 _atom_site_occupancy
  Dy  Dy0  1  0.204825  0.587657  0.125179  1
  Dy  Dy1  1  0.794964  0.412347  0.125406  1
  Dy  Dy2  1  0.795212  0.587589  0.625420  1
  Dy  Dy3  1  0.912312  0.704973  0.125376  1
  Dy  Dy4  1  0.912417  0.295228  0.625415  1
  Dy  Dy5  1  0.087570  0.704769  0.625406  1
  Dy  Dy6  1  0.087569  0.295192  0.125170  1
  Dy  Dy7  1  0.000032  0.000025  0.500354  1
  Dy  Dy8  1  0.999946  0.999942  0.000397  1
  Dy  Dy9  1  0.499945  0.500053  0.000099  1
  Dy  Dy10  1  0.500176  0.500043  0.500211  1
  Y  Y11  1  0.294386  0.087898  0.374104  1
  Y  Y12  1  0.294418  0.911999  0.874157  1
  Y  Y13  1  0.705605  0.087967  0.874117  1
  Y  Y14  1  0.705567  0.912095  0.374151  1
  Y  Y15  1  0.587945  0.794393  0.874237  1
  Y  Y16  1  0.587877  0.205679  0.374182  1
  Y  Y17  1  0.412005  0.794312  0.374021  1
  Y  Y18  1  0.412120  0.205408  0.874004  1
  Y  Y19  1  0.205517  0.412292  0.625774  1
  Ir  Ir20  1  0.500018  0.000033  0.121108  1
  Ir  Ir21  1  0.500003  0.999980  0.620951  1
  Ir  Ir22  1  0.999562  0.500187  0.879512  1
  Ir  Ir23  1  0.999508  0.500178  0.378466  1
  Pt  Pt24  1  0.847215  0.154059  0.250424  1
  Pt  Pt25  1  0.847167  0.846019  0.750331  1
  Pt  Pt26  1  0.152853  0.153582  0.750641  1
  Pt  Pt27  1  0.152791  0.845983  0.250458  1
  Pt  Pt28  1  0.654049  0.347158  0.750371  1
  Pt  Pt29  1  0.654034  0.652830  0.250490  1
  Pt  Pt30  1  0.346240  0.347096  0.249589  1
  Pt  Pt31  1  0.346150  0.653034  0.750480  1
