# generated using pymatgen
data_Ho5Er3Re(B8Ir)3
_symmetry_space_group_name_H-M   'P 1'
_cell_length_a   3.64732400
_cell_length_b   9.15607521
_cell_length_c   11.48817701
_cell_angle_alpha   90.13402480
_cell_angle_beta   90.00000000
_cell_angle_gamma   90.00000000
_symmetry_Int_Tables_number   1
_chemical_formula_structural   Ho5Er3Re(B8Ir)3
_chemical_formula_sum   'Ho5 Er3 Re1 B24 Ir3'
_cell_volume   383.64860739
_cell_formula_units_Z   1
loop_
 _symmetry_equiv_pos_site_id
 _symmetry_equiv_pos_as_xyz
  1  'x, y, z'
loop_
 _atom_site_type_symbol
 _atom_site_label
 _atom_site_symmetry_multiplicity
 _atom_site_fract_x
 _atom_site_fract_y
 _atom_site_fract_z
 _atom_site_occupancy
  Ho  Ho0  1  0.000000  0.320841  0.413604  1
  Ho  Ho1  1  0.000000  0.683132  0.590744  1
  Ho  Ho2  1  0.000000  0.820702  0.082764  1
  Ho  Ho3  1  0.000000  0.175908  0.912067  1
  Ho  Ho4  1  0.000000  0.943751  0.373158  1
  Er  Er5  1  0.000000  0.053902  0.626352  1
  Er  Er6  1  0.000000  0.443555  0.126058  1
  Er  Er7  1  0.000000  0.557231  0.875066  1
  Re  Re8  1  0.000000  0.862637  0.821377  1
  B  B9  1  0.500000  0.553352  0.434280  1
  B  B10  1  0.500000  0.447703  0.566662  1
  B  B11  1  0.500000  0.053255  0.066288  1
  B  B12  1  0.500000  0.946878  0.933213  1
  B  B13  1  0.500000  0.749983  0.420696  1
  B  B14  1  0.500000  0.250620  0.579045  1
  B  B15  1  0.500000  0.248997  0.078948  1
  B  B16  1  0.500000  0.751945  0.920059  1
  B  B17  1  0.500000  0.791813  0.265180  1
  B  B18  1  0.500000  0.207836  0.733204  1
  B  B19  1  0.500000  0.292947  0.234771  1
  B  B20  1  0.500000  0.707996  0.766314  1
  B  B21  1  0.500000  0.630930  0.184567  1
  B  B22  1  0.500000  0.368375  0.815627  1
  B  B23  1  0.500000  0.132235  0.315298  1
  B  B24  1  0.500000  0.868965  0.685585  1
  B  B25  1  0.500000  0.981634  0.212621  1
  B  B26  1  0.500000  0.017529  0.786465  1
  B  B27  1  0.500000  0.481024  0.287352  1
  B  B28  1  0.500000  0.518235  0.714201  1
  B  B29  1  0.500000  0.608463  0.031291  1
  B  B30  1  0.500000  0.389100  0.970078  1
  B  B31  1  0.500000  0.109985  0.469320  1
  B  B32  1  0.500000  0.891228  0.529085  1
  Ir  Ir33  1  0.000000  0.636799  0.322615  1
  Ir  Ir34  1  0.000000  0.362840  0.677979  1
  Ir  Ir35  1  0.000000  0.137670  0.178068  1
