# generated using pymatgen
data_Dy3Y12Pa(CdIr)4
_symmetry_space_group_name_H-M   'P 1'
_cell_length_a   9.69899296
_cell_length_b   9.69883839
_cell_length_c   9.69891649
_cell_angle_alpha   59.64086759
_cell_angle_beta   59.64094420
_cell_angle_gamma   59.64056752
_symmetry_Int_Tables_number   1
_chemical_formula_structural   Dy3Y12Pa(CdIr)4
_chemical_formula_sum   'Dy3 Y12 Pa1 Cd4 Ir4'
_cell_volume   639.87507555
_cell_formula_units_Z   1
loop_
 _symmetry_equiv_pos_site_id
 _symmetry_equiv_pos_as_xyz
  1  'x, y, z'
loop_
 _atom_site_type_symbol
 _atom_site_label
 _atom_site_symmetry_multiplicity
 _atom_site_fract_x
 _atom_site_fract_y
 _atom_site_fract_z
 _atom_site_occupancy
  Dy  Dy0  1  0.350253  0.350258  0.949309  1
  Dy  Dy1  1  0.350259  0.949303  0.350257  1
  Dy  Dy2  1  0.949312  0.350261  0.350254  1
  Y  Y3  1  0.810791  0.190336  0.190320  1
  Y  Y4  1  0.189584  0.810938  0.810938  1
  Y  Y5  1  0.190326  0.810790  0.190334  1
  Y  Y6  1  0.810929  0.189599  0.810926  1
  Y  Y7  1  0.190319  0.190334  0.810794  1
  Y  Y8  1  0.810935  0.810934  0.189591  1
  Y  Y9  1  0.941158  0.562536  0.562544  1
  Y  Y10  1  0.561536  0.938562  0.938565  1
  Y  Y11  1  0.562535  0.941165  0.562537  1
  Y  Y12  1  0.938567  0.561524  0.938573  1
  Y  Y13  1  0.562545  0.562542  0.941153  1
  Y  Y14  1  0.938567  0.938559  0.561530  1
  Pa  Pa15  1  0.342291  0.342285  0.342285  1
  Cd  Cd16  1  0.579320  0.579329  0.579322  1
  Cd  Cd17  1  0.578721  0.578726  0.256096  1
  Cd  Cd18  1  0.578725  0.256091  0.578728  1
  Cd  Cd19  1  0.256096  0.578725  0.578724  1
  Ir  Ir20  1  0.143293  0.143294  0.143300  1
  Ir  Ir21  1  0.147749  0.147740  0.568437  1
  Ir  Ir22  1  0.147750  0.568436  0.147742  1
  Ir  Ir23  1  0.568438  0.147733  0.147737  1
