# generated using pymatgen
data_CaPaF7
_symmetry_space_group_name_H-M   'P 1'
_cell_length_a   5.95980500
_cell_length_b   9.60687876
_cell_length_c   12.60546319
_cell_angle_alpha   60.86350998
_cell_angle_beta   90.00000000
_cell_angle_gamma   90.00000000
_symmetry_Int_Tables_number   1
_chemical_formula_structural   CaPaF7
_chemical_formula_sum   'Ca4 Pa4 F28'
_cell_volume   630.40164811
_cell_formula_units_Z   4
loop_
 _symmetry_equiv_pos_site_id
 _symmetry_equiv_pos_as_xyz
  1  'x, y, z'
loop_
 _atom_site_type_symbol
 _atom_site_label
 _atom_site_symmetry_multiplicity
 _atom_site_fract_x
 _atom_site_fract_y
 _atom_site_fract_z
 _atom_site_occupancy
  Ca  Ca0  1  0.751721  0.720636  0.041378  1
  Ca  Ca1  1  0.248279  0.279364  0.958622  1
  Ca  Ca2  1  0.251721  0.279364  0.458622  1
  Ca  Ca3  1  0.748279  0.720636  0.541378  1
  Pa  Pa4  1  0.250383  0.808202  0.262883  1
  Pa  Pa5  1  0.749617  0.191798  0.737117  1
  Pa  Pa6  1  0.750383  0.191798  0.237117  1
  Pa  Pa7  1  0.249617  0.808202  0.762883  1
  F  F8  1  0.975902  0.714521  0.398064  1
  F  F9  1  0.024098  0.285479  0.601936  1
  F  F10  1  0.475902  0.285479  0.101936  1
  F  F11  1  0.524098  0.714521  0.898064  1
  F  F12  1  0.508562  0.752305  0.167196  1
  F  F13  1  0.491438  0.247695  0.832804  1
  F  F14  1  0.008562  0.247695  0.332804  1
  F  F15  1  0.991438  0.752305  0.667196  1
  F  F16  1  0.000086  0.750947  0.167609  1
  F  F17  1  0.999914  0.249053  0.832391  1
  F  F18  1  0.500086  0.249053  0.332391  1
  F  F19  1  0.499914  0.750947  0.667609  1
  F  F20  1  0.778652  0.453496  0.149841  1
  F  F21  1  0.221348  0.546504  0.850159  1
  F  F22  1  0.278652  0.546504  0.350159  1
  F  F23  1  0.721348  0.453496  0.649841  1
  F  F24  1  0.931361  0.256378  0.069764  1
  F  F25  1  0.068639  0.743622  0.930236  1
  F  F26  1  0.431361  0.743622  0.430236  1
  F  F27  1  0.568639  0.256378  0.569764  1
  F  F28  1  0.747938  0.988742  0.422339  1
  F  F29  1  0.252062  0.011258  0.577661  1
  F  F30  1  0.247938  0.011258  0.077661  1
  F  F31  1  0.752062  0.988742  0.922339  1
  F  F32  1  0.584319  0.987776  0.230727  1
  F  F33  1  0.415681  0.012224  0.769273  1
  F  F34  1  0.084319  0.012224  0.269273  1
  F  F35  1  0.915681  0.987776  0.730727  1
