# generated using pymatgen
data_Tb5Y7Ni4
_symmetry_space_group_name_H-M   'P 1'
_cell_length_a   6.37711012
_cell_length_b   6.89739828
_cell_length_c   9.62821917
_cell_angle_alpha   89.98567788
_cell_angle_beta   89.92465450
_cell_angle_gamma   90.15392886
_symmetry_Int_Tables_number   1
_chemical_formula_structural   Tb5Y7Ni4
_chemical_formula_sum   'Tb5 Y7 Ni4'
_cell_volume   423.49982181
_cell_formula_units_Z   1
loop_
 _symmetry_equiv_pos_site_id
 _symmetry_equiv_pos_as_xyz
  1  'x, y, z'
loop_
 _atom_site_type_symbol
 _atom_site_label
 _atom_site_symmetry_multiplicity
 _atom_site_fract_x
 _atom_site_fract_y
 _atom_site_fract_z
 _atom_site_occupancy
  Tb  Tb0  1  0.822730  0.821970  0.933905  1
  Tb  Tb1  1  0.676739  0.321314  0.933733  1
  Tb  Tb2  1  0.823141  0.821731  0.566201  1
  Tb  Tb3  1  0.323009  0.678471  0.433563  1
  Tb  Tb4  1  0.176860  0.177970  0.066737  1
  Y  Y5  1  0.323787  0.678190  0.065564  1
  Y  Y6  1  0.176635  0.178477  0.434655  1
  Y  Y7  1  0.676562  0.321693  0.565355  1
  Y  Y8  1  0.858403  0.535251  0.249567  1
  Y  Y9  1  0.641964  0.035097  0.249939  1
  Y  Y10  1  0.141844  0.465202  0.749700  1
  Y  Y11  1  0.358408  0.965416  0.749804  1
  Ni  Ni12  1  0.057534  0.891047  0.249870  1
  Ni  Ni13  1  0.442324  0.391223  0.250339  1
  Ni  Ni14  1  0.941765  0.107732  0.750167  1
  Ni  Ni15  1  0.558293  0.609217  0.750902  1
