# generated using pymatgen
data_Cu7O8
_symmetry_space_group_name_H-M   'P 1'
_cell_length_a   6.43012200
_cell_length_b   6.43012139
_cell_length_c   6.43012200
_cell_angle_alpha   59.99999687
_cell_angle_beta   59.99999999
_cell_angle_gamma   59.99999984
_symmetry_Int_Tables_number   1
_chemical_formula_structural   Cu7O8
_chemical_formula_sum   'Cu7 O8'
_cell_volume   187.99339416
_cell_formula_units_Z   1
loop_
 _symmetry_equiv_pos_site_id
 _symmetry_equiv_pos_as_xyz
  1  'x, y, z'
loop_
 _atom_site_type_symbol
 _atom_site_label
 _atom_site_symmetry_multiplicity
 _atom_site_fract_x
 _atom_site_fract_y
 _atom_site_fract_z
 _atom_site_occupancy
  Cu  Cu0  1  0.500000  0.000000  0.500000  1
  Cu  Cu1  1  0.500000  0.000000  0.000000  1
  Cu  Cu2  1  0.000000  0.000000  0.500000  1
  Cu  Cu3  1  0.000000  0.500000  0.000000  1
  Cu  Cu4  1  0.000000  0.500000  0.500000  1
  Cu  Cu5  1  0.500000  0.500000  0.000000  1
  Cu  Cu6  1  0.500000  0.500000  0.500000  1
  O  O7  1  0.359754  0.359754  0.359754  1
  O  O8  1  0.920737  0.359754  0.359754  1
  O  O9  1  0.359754  0.359754  0.920737  1
  O  O10  1  0.079263  0.640246  0.640246  1
  O  O11  1  0.359754  0.920737  0.359754  1
  O  O12  1  0.640246  0.079263  0.640246  1
  O  O13  1  0.640246  0.640246  0.640246  1
  O  O14  1  0.640246  0.640246  0.079263  1
