# generated using pymatgen
data_La5Nd3(TmSn4)2
_symmetry_space_group_name_H-M   'P 1'
_cell_length_a   8.34909700
_cell_length_b   8.46573125
_cell_length_c   16.11036400
_cell_angle_alpha   90.06962885
_cell_angle_beta   90.00000000
_cell_angle_gamma   90.00000000
_symmetry_Int_Tables_number   1
_chemical_formula_structural   La5Nd3(TmSn4)2
_chemical_formula_sum   'La10 Nd6 Tm4 Sn16'
_cell_volume   1138.69920266
_cell_formula_units_Z   2
loop_
 _symmetry_equiv_pos_site_id
 _symmetry_equiv_pos_as_xyz
  1  'x, y, z'
loop_
 _atom_site_type_symbol
 _atom_site_label
 _atom_site_symmetry_multiplicity
 _atom_site_fract_x
 _atom_site_fract_y
 _atom_site_fract_z
 _atom_site_occupancy
  La  La0  1  0.368066  0.837651  0.619658  1
  La  La1  1  0.868066  0.662349  0.880342  1
  La  La2  1  0.519719  0.318733  0.902301  1
  La  La3  1  0.019719  0.181267  0.597699  1
  La  La4  1  0.480328  0.680931  0.401620  1
  La  La5  1  0.980328  0.819069  0.098380  1
  La  La6  1  0.480284  0.680639  0.098248  1
  La  La7  1  0.980284  0.819361  0.401752  1
  La  La8  1  0.519730  0.319234  0.597773  1
  La  La9  1  0.019730  0.180766  0.902227  1
  Nd  Nd10  1  0.366654  0.838323  0.879582  1
  Nd  Nd11  1  0.866654  0.661677  0.620418  1
  Nd  Nd12  1  0.632794  0.161322  0.379263  1
  Nd  Nd13  1  0.132794  0.338678  0.120737  1
  Nd  Nd14  1  0.632617  0.161617  0.121409  1
  Nd  Nd15  1  0.132617  0.338383  0.378591  1
  Tm  Tm16  1  0.200553  0.502015  0.750145  1
  Tm  Tm17  1  0.700553  0.997985  0.749855  1
  Tm  Tm18  1  0.799701  0.497348  0.250117  1
  Tm  Tm19  1  0.299701  0.002652  0.249883  1
  Sn  Sn20  1  0.292682  0.035316  0.045001  1
  Sn  Sn21  1  0.792682  0.464684  0.454999  1
  Sn  Sn22  1  0.710352  0.965903  0.544664  1
  Sn  Sn23  1  0.210352  0.534097  0.955336  1
  Sn  Sn24  1  0.705033  0.967416  0.955395  1
  Sn  Sn25  1  0.205033  0.532584  0.544605  1
  Sn  Sn26  1  0.292349  0.036308  0.453326  1
  Sn  Sn27  1  0.792349  0.463692  0.046674  1
  Sn  Sn28  1  0.564815  0.616368  0.749701  1
  Sn  Sn29  1  0.064815  0.883632  0.750299  1
  Sn  Sn30  1  0.435175  0.381706  0.249981  1
  Sn  Sn31  1  0.935175  0.118294  0.250019  1
  Sn  Sn32  1  0.324511  0.146126  0.750537  1
  Sn  Sn33  1  0.824511  0.353874  0.749463  1
  Sn  Sn34  1  0.674636  0.855013  0.250017  1
  Sn  Sn35  1  0.174636  0.644987  0.249983  1
