# generated using pymatgen
data_HoTaCoB6
_symmetry_space_group_name_H-M   'P 1'
_cell_length_a   3.35770600
_cell_length_b   8.91274100
_cell_length_c   11.26178600
_cell_angle_alpha   90.00000000
_cell_angle_beta   90.00000000
_cell_angle_gamma   90.00000000
_symmetry_Int_Tables_number   1
_chemical_formula_structural   HoTaCoB6
_chemical_formula_sum   'Ho4 Ta4 Co4 B24'
_cell_volume   337.02430636
_cell_formula_units_Z   4
loop_
 _symmetry_equiv_pos_site_id
 _symmetry_equiv_pos_as_xyz
  1  'x, y, z'
loop_
 _atom_site_type_symbol
 _atom_site_label
 _atom_site_symmetry_multiplicity
 _atom_site_fract_x
 _atom_site_fract_y
 _atom_site_fract_z
 _atom_site_occupancy
  Ho  Ho0  1  0.000000  0.822406  0.086995  1
  Ho  Ho1  1  0.000000  0.177594  0.913005  1
  Ho  Ho2  1  0.000000  0.322406  0.413005  1
  Ho  Ho3  1  0.000000  0.677594  0.586995  1
  Ta  Ta4  1  0.000000  0.445198  0.128337  1
  Ta  Ta5  1  0.000000  0.554802  0.871663  1
  Ta  Ta6  1  0.000000  0.945198  0.371663  1
  Ta  Ta7  1  0.000000  0.054802  0.628337  1
  Co  Co8  1  0.000000  0.143166  0.181701  1
  Co  Co9  1  0.000000  0.856834  0.818299  1
  Co  Co10  1  0.000000  0.643166  0.318299  1
  Co  Co11  1  0.000000  0.356834  0.681701  1
  B  B12  1  0.500000  0.054535  0.067035  1
  B  B13  1  0.500000  0.945465  0.932965  1
  B  B14  1  0.500000  0.554535  0.432965  1
  B  B15  1  0.500000  0.445465  0.567035  1
  B  B16  1  0.500000  0.252428  0.082382  1
  B  B17  1  0.500000  0.747572  0.917618  1
  B  B18  1  0.500000  0.752428  0.417618  1
  B  B19  1  0.500000  0.247572  0.582382  1
  B  B20  1  0.500000  0.297325  0.236104  1
  B  B21  1  0.500000  0.702675  0.763896  1
  B  B22  1  0.500000  0.797325  0.263896  1
  B  B23  1  0.500000  0.202675  0.736104  1
  B  B24  1  0.500000  0.130045  0.317862  1
  B  B25  1  0.500000  0.869955  0.682138  1
  B  B26  1  0.500000  0.630045  0.182138  1
  B  B27  1  0.500000  0.369955  0.817862  1
  B  B28  1  0.500000  0.482461  0.286325  1
  B  B29  1  0.500000  0.517539  0.713675  1
  B  B30  1  0.500000  0.982461  0.213675  1
  B  B31  1  0.500000  0.017539  0.786325  1
  B  B32  1  0.500000  0.099867  0.473651  1
  B  B33  1  0.500000  0.900133  0.526349  1
  B  B34  1  0.500000  0.599867  0.026349  1
  B  B35  1  0.500000  0.400133  0.973651  1
