# generated using pymatgen
data_DyHo2Mg2CdPb2Au
_symmetry_space_group_name_H-M   'P 1'
_cell_length_a   7.57084400
_cell_length_b   7.57084359
_cell_length_c   4.50038000
_cell_angle_alpha   90.00000000
_cell_angle_beta   90.00000000
_cell_angle_gamma   120.04230621
_symmetry_Int_Tables_number   1
_chemical_formula_structural   DyHo2Mg2CdPb2Au
_chemical_formula_sum   'Dy1 Ho2 Mg2 Cd1 Pb2 Au1'
_cell_volume   223.29710322
_cell_formula_units_Z   1
loop_
 _symmetry_equiv_pos_site_id
 _symmetry_equiv_pos_as_xyz
  1  'x, y, z'
loop_
 _atom_site_type_symbol
 _atom_site_label
 _atom_site_symmetry_multiplicity
 _atom_site_fract_x
 _atom_site_fract_y
 _atom_site_fract_z
 _atom_site_occupancy
  Dy  Dy0  1  0.404926  0.400612  0.000000  1
  Ho  Ho1  1  0.590451  0.000102  0.000000  1
  Ho  Ho2  1  0.004379  0.600231  0.000000  1
  Mg  Mg3  1  0.000740  0.230461  0.500000  1
  Mg  Mg4  1  0.769631  0.769260  0.500000  1
  Cd  Cd5  1  0.236335  0.000118  0.500000  1
  Pb  Pb6  1  0.334682  0.661867  0.500000  1
  Pb  Pb7  1  0.674236  0.338276  0.500000  1
  Au  Au8  1  0.984618  0.999070  0.000000  1
