# generated using pymatgen
data_Hf3Zr3Ti2(Pd2N)2
_symmetry_space_group_name_H-M   'P 1'
_cell_length_a   8.66859210
_cell_length_b   8.66859334
_cell_length_c   8.66859400
_cell_angle_alpha   60.00000510
_cell_angle_beta   60.00000037
_cell_angle_gamma   59.99999837
_symmetry_Int_Tables_number   1
_chemical_formula_structural   Hf3Zr3Ti2(Pd2N)2
_chemical_formula_sum   'Hf6 Zr6 Ti4 Pd8 N4'
_cell_volume   460.60736192
_cell_formula_units_Z   2
loop_
 _symmetry_equiv_pos_site_id
 _symmetry_equiv_pos_as_xyz
  1  'x, y, z'
loop_
 _atom_site_type_symbol
 _atom_site_label
 _atom_site_symmetry_multiplicity
 _atom_site_fract_x
 _atom_site_fract_y
 _atom_site_fract_z
 _atom_site_occupancy
  Hf  Hf0  1  0.816575  0.816575  0.183425  1
  Hf  Hf1  1  0.183425  0.183425  0.816575  1
  Hf  Hf2  1  0.816575  0.183425  0.816575  1
  Hf  Hf3  1  0.183425  0.816575  0.183425  1
  Hf  Hf4  1  0.183425  0.816575  0.816575  1
  Hf  Hf5  1  0.816575  0.183425  0.183425  1
  Zr  Zr6  1  0.434628  0.434628  0.065372  1
  Zr  Zr7  1  0.065372  0.065372  0.434628  1
  Zr  Zr8  1  0.434628  0.065372  0.434628  1
  Zr  Zr9  1  0.065372  0.434628  0.065372  1
  Zr  Zr10  1  0.065372  0.434628  0.434628  1
  Zr  Zr11  1  0.434628  0.065372  0.065372  1
  Ti  Ti12  1  0.125227  0.624924  0.624924  1
  Ti  Ti13  1  0.624924  0.125227  0.624924  1
  Ti  Ti14  1  0.624924  0.624924  0.125227  1
  Ti  Ti15  1  0.624924  0.624924  0.624924  1
  Pd  Pd16  1  0.755286  0.414905  0.414905  1
  Pd  Pd17  1  0.414905  0.755286  0.414905  1
  Pd  Pd18  1  0.414905  0.414905  0.755286  1
  Pd  Pd19  1  0.414905  0.414905  0.414905  1
  Pd  Pd20  1  0.488983  0.837006  0.837006  1
  Pd  Pd21  1  0.837006  0.488983  0.837006  1
  Pd  Pd22  1  0.837006  0.837006  0.488983  1
  Pd  Pd23  1  0.837006  0.837006  0.837006  1
  N  N24  1  0.632408  0.122531  0.122531  1
  N  N25  1  0.122531  0.632408  0.122531  1
  N  N26  1  0.122531  0.122531  0.632408  1
  N  N27  1  0.122531  0.122531  0.122531  1
