# generated using pymatgen
data_Rb3U2TlSe6
_symmetry_space_group_name_H-M   'P 1'
_cell_length_a   7.53432520
_cell_length_b   7.53432618
_cell_length_c   8.59050900
_cell_angle_alpha   81.49814166
_cell_angle_beta   81.49814055
_cell_angle_gamma   120.08345488
_symmetry_Int_Tables_number   1
_chemical_formula_structural   Rb3U2TlSe6
_chemical_formula_sum   'Rb3 U2 Tl1 Se6'
_cell_volume   403.04481654
_cell_formula_units_Z   1
loop_
 _symmetry_equiv_pos_site_id
 _symmetry_equiv_pos_as_xyz
  1  'x, y, z'
loop_
 _atom_site_type_symbol
 _atom_site_label
 _atom_site_symmetry_multiplicity
 _atom_site_fract_x
 _atom_site_fract_y
 _atom_site_fract_z
 _atom_site_occupancy
  Rb  Rb0  1  0.653234  0.346766  0.500000  1
  Rb  Rb1  1  0.346766  0.653234  0.500000  1
  Rb  Rb2  1  0.000000  0.000000  0.500000  1
  U  U3  1  0.832021  0.167979  0.000000  1
  U  U4  1  0.167979  0.832021  0.000000  1
  Tl  Tl5  1  0.500000  0.500000  0.000000  1
  Se  Se6  1  0.811402  0.811402  0.197225  1
  Se  Se7  1  0.188598  0.188598  0.802775  1
  Se  Se8  1  0.430915  0.050221  0.201497  1
  Se  Se9  1  0.569085  0.949779  0.798503  1
  Se  Se10  1  0.949779  0.569085  0.798503  1
  Se  Se11  1  0.050221  0.430915  0.201497  1
