# generated using pymatgen
data_Ba6Li2Tl2CdAg19
_symmetry_space_group_name_H-M   'P 1'
_cell_length_a   10.06484800
_cell_length_b   10.06484709
_cell_length_c   8.50140000
_cell_angle_alpha   90.00000000
_cell_angle_beta   90.00000000
_cell_angle_gamma   120.00000300
_symmetry_Int_Tables_number   1
_chemical_formula_structural   Ba6Li2Tl2CdAg19
_chemical_formula_sum   'Ba6 Li2 Tl2 Cd1 Ag19'
_cell_volume   745.82248270
_cell_formula_units_Z   1
loop_
 _symmetry_equiv_pos_site_id
 _symmetry_equiv_pos_as_xyz
  1  'x, y, z'
loop_
 _atom_site_type_symbol
 _atom_site_label
 _atom_site_symmetry_multiplicity
 _atom_site_fract_x
 _atom_site_fract_y
 _atom_site_fract_z
 _atom_site_occupancy
  Ba  Ba0  1  0.522320  0.044642  0.246835  1
  Ba  Ba1  1  0.475908  0.951816  0.752484  1
  Ba  Ba2  1  0.955358  0.477680  0.246835  1
  Ba  Ba3  1  0.048184  0.524092  0.752484  1
  Ba  Ba4  1  0.522320  0.477680  0.246835  1
  Ba  Ba5  1  0.475908  0.524092  0.752484  1
  Li  Li6  1  0.000000  0.000000  0.002842  1
  Li  Li7  1  0.000000  0.000000  0.500438  1
  Tl  Tl8  1  0.666667  0.333333  0.935042  1
  Tl  Tl9  1  0.666667  0.333333  0.562848  1
  Cd  Cd10  1  0.333333  0.666667  0.423986  1
  Ag  Ag11  1  0.163938  0.327875  0.065822  1
  Ag  Ag12  1  0.837543  0.675083  0.934519  1
  Ag  Ag13  1  0.672125  0.836062  0.065822  1
  Ag  Ag14  1  0.837531  0.675061  0.566261  1
  Ag  Ag15  1  0.324917  0.162457  0.934519  1
  Ag  Ag16  1  0.164746  0.329492  0.433845  1
  Ag  Ag17  1  0.163938  0.836062  0.065822  1
  Ag  Ag18  1  0.324939  0.162469  0.566261  1
  Ag  Ag19  1  0.837543  0.162457  0.934519  1
  Ag  Ag20  1  0.670508  0.835254  0.433845  1
  Ag  Ag21  1  0.837531  0.162469  0.566261  1
  Ag  Ag22  1  0.164746  0.835254  0.433845  1
  Ag  Ag23  1  0.900038  0.800077  0.251553  1
  Ag  Ag24  1  0.100422  0.200846  0.750100  1
  Ag  Ag25  1  0.199923  0.099962  0.251553  1
  Ag  Ag26  1  0.799154  0.899578  0.750100  1
  Ag  Ag27  1  0.900038  0.099962  0.251553  1
  Ag  Ag28  1  0.100422  0.899578  0.750100  1
  Ag  Ag29  1  0.333333  0.666667  0.070588  1
