# generated using pymatgen
data_Li2Mn3Co4Ni5As7
_symmetry_space_group_name_H-M   'P 1'
_cell_length_a   9.46201523
_cell_length_b   9.43643983
_cell_length_c   3.63781000
_cell_angle_alpha   90.00000000
_cell_angle_beta   90.00000000
_cell_angle_gamma   120.03112509
_symmetry_Int_Tables_number   1
_chemical_formula_structural   Li2Mn3Co4Ni5As7
_chemical_formula_sum   'Li2 Mn3 Co4 Ni5 As7'
_cell_volume   281.20702487
_cell_formula_units_Z   1
loop_
 _symmetry_equiv_pos_site_id
 _symmetry_equiv_pos_as_xyz
  1  'x, y, z'
loop_
 _atom_site_type_symbol
 _atom_site_label
 _atom_site_symmetry_multiplicity
 _atom_site_fract_x
 _atom_site_fract_y
 _atom_site_fract_z
 _atom_site_occupancy
  Li  Li0  1  0.333005  0.665864  0.000000  1
  Li  Li1  1  0.000758  0.002579  0.500000  1
  Mn  Mn2  1  0.763113  0.556708  0.500000  1
  Mn  Mn3  1  0.445471  0.208363  0.500000  1
  Mn  Mn4  1  0.794600  0.236531  0.500000  1
  Co  Co5  1  0.277381  0.378778  0.500000  1
  Co  Co6  1  0.505307  0.446845  0.000000  1
  Co  Co7  1  0.551595  0.055526  0.000000  1
  Co  Co8  1  0.945552  0.497805  0.000000  1
  Ni  Ni9  1  0.617578  0.894382  0.500000  1
  Ni  Ni10  1  0.102866  0.721929  0.500000  1
  Ni  Ni11  1  0.720569  0.760875  0.000000  1
  Ni  Ni12  1  0.238673  0.962681  0.000000  1
  Ni  Ni13  1  0.037485  0.278034  0.000000  1
  As  As14  1  0.963320  0.756953  0.000000  1
  As  As15  1  0.243830  0.211064  0.000000  1
  As  As16  1  0.791387  0.035958  0.000000  1
  As  As17  1  0.668685  0.333356  0.000000  1
  As  As18  1  0.528784  0.615746  0.500000  1
  As  As19  1  0.379671  0.912927  0.500000  1
  As  As20  1  0.090371  0.467095  0.500000  1
