# generated using pymatgen
data_VFeCu3NiO6
_symmetry_space_group_name_H-M   'P 1'
_cell_length_a   5.27460601
_cell_length_b   7.38897958
_cell_length_c   7.40219275
_cell_angle_alpha   103.96944407
_cell_angle_beta   83.06280964
_cell_angle_gamma   96.93776780
_symmetry_Int_Tables_number   1
_chemical_formula_structural   VFeCu3NiO6
_chemical_formula_sum   'V2 Fe2 Cu6 Ni2 O12'
_cell_volume   276.65071626
_cell_formula_units_Z   2
loop_
 _symmetry_equiv_pos_site_id
 _symmetry_equiv_pos_as_xyz
  1  'x, y, z'
loop_
 _atom_site_type_symbol
 _atom_site_label
 _atom_site_symmetry_multiplicity
 _atom_site_fract_x
 _atom_site_fract_y
 _atom_site_fract_z
 _atom_site_occupancy
  V  V0  1  0.750073  0.583403  0.083401  1
  V  V1  1  0.250009  0.083427  0.583424  1
  Fe  Fe2  1  0.750415  0.249873  0.749882  1
  Fe  Fe3  1  0.250285  0.750069  0.249931  1
  Cu  Cu4  1  0.496961  0.169542  0.169506  1
  Cu  Cu5  1  0.001666  0.669771  0.669753  1
  Cu  Cu6  1  0.003213  0.336469  0.336430  1
  Cu  Cu7  1  0.496708  0.836852  0.836780  1
  Cu  Cu8  1  0.004365  0.993709  0.993904  1
  Cu  Cu9  1  0.496787  0.493448  0.493572  1
  Ni  Ni10  1  0.749380  0.916843  0.416681  1
  Ni  Ni11  1  0.249745  0.416927  0.916944  1
  O  O12  1  0.934503  0.510956  0.831249  1
  O  O13  1  0.434321  0.010924  0.331298  1
  O  O14  1  0.565269  0.331367  0.010937  1
  O  O15  1  0.065430  0.831474  0.511004  1
  O  O16  1  0.946707  0.831366  0.152111  1
  O  O17  1  0.446072  0.331265  0.651890  1
  O  O18  1  0.460469  0.677126  0.997367  1
  O  O19  1  0.960550  0.176956  0.497445  1
  O  O20  1  0.039940  0.497415  0.176987  1
  O  O21  1  0.539832  0.997484  0.676843  1
  O  O22  1  0.553414  0.651713  0.331342  1
  O  O23  1  0.053891  0.151618  0.831322  1
