# generated using pymatgen
data_Sr2SmY(SbAu)4
_symmetry_space_group_name_H-M   'P 1'
_cell_length_a   4.63936900
_cell_length_b   4.63936803
_cell_length_c   17.51749600
_cell_angle_alpha   90.00000000
_cell_angle_beta   90.00000000
_cell_angle_gamma   120.00001406
_symmetry_Int_Tables_number   1
_chemical_formula_structural   Sr2SmY(SbAu)4
_chemical_formula_sum   'Sr2 Sm1 Y1 Sb4 Au4'
_cell_volume   326.52793258
_cell_formula_units_Z   1
loop_
 _symmetry_equiv_pos_site_id
 _symmetry_equiv_pos_as_xyz
  1  'x, y, z'
loop_
 _atom_site_type_symbol
 _atom_site_label
 _atom_site_symmetry_multiplicity
 _atom_site_fract_x
 _atom_site_fract_y
 _atom_site_fract_z
 _atom_site_occupancy
  Sr  Sr0  1  0.000000  0.000000  0.500588  1
  Sr  Sr1  1  0.000000  0.000000  0.999412  1
  Sm  Sm2  1  0.000000  0.000000  0.250000  1
  Y  Y3  1  0.000000  0.000000  0.750000  1
  Sb  Sb4  1  0.333333  0.666667  0.379196  1
  Sb  Sb5  1  0.666667  0.333333  0.621576  1
  Sb  Sb6  1  0.666667  0.333333  0.878424  1
  Sb  Sb7  1  0.333333  0.666667  0.120804  1
  Au  Au8  1  0.666667  0.333333  0.339333  1
  Au  Au9  1  0.333333  0.666667  0.663530  1
  Au  Au10  1  0.333333  0.666667  0.836470  1
  Au  Au11  1  0.666667  0.333333  0.160667  1
