# generated using pymatgen
data_Pr7Ho13(SnBi3)4
_symmetry_space_group_name_H-M   'P 1'
_cell_length_a   8.36309901
_cell_length_b   8.32325463
_cell_length_c   15.58627510
_cell_angle_alpha   90.01333228
_cell_angle_beta   90.16034965
_cell_angle_gamma   89.99710506
_symmetry_Int_Tables_number   1
_chemical_formula_structural   Pr7Ho13(SnBi3)4
_chemical_formula_sum   'Pr7 Ho13 Sn4 Bi12'
_cell_volume   1084.92831492
_cell_formula_units_Z   1
loop_
 _symmetry_equiv_pos_site_id
 _symmetry_equiv_pos_as_xyz
  1  'x, y, z'
loop_
 _atom_site_type_symbol
 _atom_site_label
 _atom_site_symmetry_multiplicity
 _atom_site_fract_x
 _atom_site_fract_y
 _atom_site_fract_z
 _atom_site_occupancy
  Pr  Pr0  1  0.024121  0.182092  0.599273  1
  Pr  Pr1  1  0.476751  0.681362  0.402092  1
  Pr  Pr2  1  0.974969  0.818690  0.097455  1
  Pr  Pr3  1  0.476203  0.681520  0.098205  1
  Pr  Pr4  1  0.976346  0.818992  0.402190  1
  Pr  Pr5  1  0.522891  0.318429  0.597575  1
  Pr  Pr6  1  0.023991  0.179681  0.901831  1
  Ho  Ho7  1  0.357459  0.848835  0.875434  1
  Ho  Ho8  1  0.856376  0.649684  0.625701  1
  Ho  Ho9  1  0.641142  0.150410  0.374763  1
  Ho  Ho10  1  0.139763  0.349216  0.125064  1
  Ho  Ho11  1  0.639811  0.151070  0.124527  1
  Ho  Ho12  1  0.141751  0.349601  0.374794  1
  Ho  Ho13  1  0.358941  0.850603  0.626537  1
  Ho  Ho14  1  0.860415  0.651544  0.874962  1
  Ho  Ho15  1  0.527508  0.318969  0.898861  1
  Ho  Ho16  1  0.186512  0.491832  0.749994  1
  Ho  Ho17  1  0.686721  0.009080  0.750401  1
  Ho  Ho18  1  0.812873  0.508620  0.249215  1
  Ho  Ho19  1  0.313018  0.991705  0.249925  1
  Sn  Sn20  1  0.341375  0.152879  0.753206  1
  Sn  Sn21  1  0.835737  0.350224  0.751101  1
  Sn  Sn22  1  0.662586  0.850254  0.249859  1
  Sn  Sn23  1  0.161753  0.650162  0.249785  1
  Bi  Bi24  1  0.292384  0.042776  0.045551  1
  Bi  Bi25  1  0.793648  0.457351  0.453939  1
  Bi  Bi26  1  0.707376  0.957643  0.546159  1
  Bi  Bi27  1  0.214387  0.535191  0.953312  1
  Bi  Bi28  1  0.704486  0.960598  0.953484  1
  Bi  Bi29  1  0.206305  0.543801  0.546181  1
  Bi  Bi30  1  0.293309  0.043056  0.454700  1
  Bi  Bi31  1  0.790042  0.455479  0.043077  1
  Bi  Bi32  1  0.554353  0.627697  0.751486  1
  Bi  Bi33  1  0.054722  0.870781  0.749890  1
  Bi  Bi34  1  0.445060  0.370852  0.249695  1
  Bi  Bi35  1  0.944918  0.129324  0.249778  1
