# generated using pymatgen
data_TbYbEr2(B6Os)2
_symmetry_space_group_name_H-M   'P 1'
_cell_length_a   3.63916100
_cell_length_b   9.13787694
_cell_length_c   11.53512102
_cell_angle_alpha   89.82979200
_cell_angle_beta   90.00000000
_cell_angle_gamma   90.00000000
_symmetry_Int_Tables_number   1
_chemical_formula_structural   TbYbEr2(B6Os)2
_chemical_formula_sum   'Tb2 Yb2 Er4 B24 Os4'
_cell_volume   383.58959065
_cell_formula_units_Z   2
loop_
 _symmetry_equiv_pos_site_id
 _symmetry_equiv_pos_as_xyz
  1  'x, y, z'
loop_
 _atom_site_type_symbol
 _atom_site_label
 _atom_site_symmetry_multiplicity
 _atom_site_fract_x
 _atom_site_fract_y
 _atom_site_fract_z
 _atom_site_occupancy
  Tb  Tb0  1  0.000000  0.822017  0.086447  1
  Tb  Tb1  1  0.000000  0.177983  0.913553  1
  Yb  Yb2  1  0.000000  0.324441  0.414575  1
  Yb  Yb3  1  0.000000  0.675559  0.585425  1
  Er  Er4  1  0.000000  0.942245  0.370561  1
  Er  Er5  1  0.000000  0.057755  0.629439  1
  Er  Er6  1  0.000000  0.442915  0.130303  1
  Er  Er7  1  0.000000  0.557085  0.869697  1
  B  B8  1  0.500000  0.554033  0.432537  1
  B  B9  1  0.500000  0.445967  0.567463  1
  B  B10  1  0.500000  0.053838  0.067038  1
  B  B11  1  0.500000  0.946162  0.932962  1
  B  B12  1  0.500000  0.748250  0.418094  1
  B  B13  1  0.500000  0.251750  0.581906  1
  B  B14  1  0.500000  0.248592  0.081512  1
  B  B15  1  0.500000  0.751408  0.918488  1
  B  B16  1  0.500000  0.791126  0.265225  1
  B  B17  1  0.500000  0.208874  0.734775  1
  B  B18  1  0.500000  0.290282  0.234379  1
  B  B19  1  0.500000  0.709718  0.765621  1
  B  B20  1  0.500000  0.631057  0.185461  1
  B  B21  1  0.500000  0.368943  0.814539  1
  B  B22  1  0.500000  0.130733  0.314018  1
  B  B23  1  0.500000  0.869267  0.685982  1
  B  B24  1  0.500000  0.983223  0.212053  1
  B  B25  1  0.500000  0.016777  0.787947  1
  B  B26  1  0.500000  0.483535  0.288021  1
  B  B27  1  0.500000  0.516465  0.711979  1
  B  B28  1  0.500000  0.602759  0.028306  1
  B  B29  1  0.500000  0.397241  0.971694  1
  B  B30  1  0.500000  0.099497  0.472426  1
  B  B31  1  0.500000  0.900503  0.527574  1
  Os  Os32  1  0.000000  0.639690  0.319220  1
  Os  Os33  1  0.000000  0.360310  0.680780  1
  Os  Os34  1  0.000000  0.137145  0.178314  1
  Os  Os35  1  0.000000  0.862855  0.821686  1
