# generated using pymatgen
data_LuScP7Ru11Rh
_symmetry_space_group_name_H-M   'P 1'
_cell_length_a   9.34564413
_cell_length_b   9.40122509
_cell_length_c   3.91837100
_cell_angle_alpha   90.00000000
_cell_angle_beta   90.00000000
_cell_angle_gamma   119.69931135
_symmetry_Int_Tables_number   1
_chemical_formula_structural   LuScP7Ru11Rh
_chemical_formula_sum   'Lu1 Sc1 P7 Ru11 Rh1'
_cell_volume   299.04586603
_cell_formula_units_Z   1
loop_
 _symmetry_equiv_pos_site_id
 _symmetry_equiv_pos_as_xyz
  1  'x, y, z'
loop_
 _atom_site_type_symbol
 _atom_site_label
 _atom_site_symmetry_multiplicity
 _atom_site_fract_x
 _atom_site_fract_y
 _atom_site_fract_z
 _atom_site_occupancy
  Lu  Lu0  1  0.330637  0.661542  0.000000  1
  Sc  Sc1  1  0.669643  0.335795  0.500000  1
  P  P2  1  0.598576  0.713571  0.500000  1
  P  P3  1  0.997127  0.999579  0.000000  1
  P  P4  1  0.278399  0.879702  0.500000  1
  P  P5  1  0.119259  0.401152  0.500000  1
  P  P6  1  0.884104  0.574864  0.000000  1
  P  P7  1  0.428830  0.309328  0.000000  1
  P  P8  1  0.695934  0.122816  0.000000  1
  Ru  Ru9  1  0.392880  0.442755  0.500000  1
  Ru  Ru10  1  0.912423  0.124646  0.500000  1
  Ru  Ru11  1  0.210391  0.086805  0.500000  1
  Ru  Ru12  1  0.877549  0.793784  0.500000  1
  Ru  Ru13  1  0.722534  0.890632  0.000000  1
  Ru  Ru14  1  0.109860  0.837456  0.000000  1
  Ru  Ru15  1  0.164350  0.271375  0.000000  1
  Ru  Ru16  1  0.430677  0.069313  0.000000  1
  Ru  Ru17  1  0.933439  0.361272  0.000000  1
  Ru  Ru18  1  0.641893  0.572942  0.000000  1
  Ru  Ru19  1  0.051939  0.607363  0.500000  1
  Rh  Rh20  1  0.549559  0.943308  0.500000  1
