# generated using pymatgen
data_Tb3YbY4(B6Ru)4
_symmetry_space_group_name_H-M   'P 1'
_cell_length_a   3.67083800
_cell_length_b   9.16432136
_cell_length_c   11.55030701
_cell_angle_alpha   89.90365067
_cell_angle_beta   90.00000000
_cell_angle_gamma   90.00000000
_symmetry_Int_Tables_number   1
_chemical_formula_structural   Tb3YbY4(B6Ru)4
_chemical_formula_sum   'Tb3 Yb1 Y4 B24 Ru4'
_cell_volume   388.56031525
_cell_formula_units_Z   1
loop_
 _symmetry_equiv_pos_site_id
 _symmetry_equiv_pos_as_xyz
  1  'x, y, z'
loop_
 _atom_site_type_symbol
 _atom_site_label
 _atom_site_symmetry_multiplicity
 _atom_site_fract_x
 _atom_site_fract_y
 _atom_site_fract_z
 _atom_site_occupancy
  Tb  Tb0  1  0.000000  0.675244  0.585015  1
  Tb  Tb1  1  0.000000  0.823070  0.086542  1
  Tb  Tb2  1  0.000000  0.177323  0.914396  1
  Yb  Yb3  1  0.000000  0.324123  0.413597  1
  Y  Y4  1  0.000000  0.944035  0.371452  1
  Y  Y5  1  0.000000  0.058189  0.627668  1
  Y  Y6  1  0.000000  0.442827  0.129629  1
  Y  Y7  1  0.000000  0.556132  0.872237  1
  B  B8  1  0.500000  0.553610  0.432336  1
  B  B9  1  0.500000  0.445673  0.567245  1
  B  B10  1  0.500000  0.053453  0.067094  1
  B  B11  1  0.500000  0.945867  0.932201  1
  B  B12  1  0.500000  0.747554  0.419141  1
  B  B13  1  0.500000  0.252903  0.580496  1
  B  B14  1  0.500000  0.246941  0.080812  1
  B  B15  1  0.500000  0.752388  0.919501  1
  B  B16  1  0.500000  0.790725  0.266439  1
  B  B17  1  0.500000  0.210411  0.733610  1
  B  B18  1  0.500000  0.289552  0.233732  1
  B  B19  1  0.500000  0.709774  0.766471  1
  B  B20  1  0.500000  0.632019  0.186457  1
  B  B21  1  0.500000  0.368257  0.814579  1
  B  B22  1  0.500000  0.131676  0.313949  1
  B  B23  1  0.500000  0.868494  0.685466  1
  B  B24  1  0.500000  0.983862  0.211928  1
  B  B25  1  0.500000  0.016266  0.787297  1
  B  B26  1  0.500000  0.483923  0.288084  1
  B  B27  1  0.500000  0.515904  0.712429  1
  B  B28  1  0.500000  0.608890  0.030504  1
  B  B29  1  0.500000  0.391127  0.970312  1
  B  B30  1  0.500000  0.105893  0.470536  1
  B  B31  1  0.500000  0.893649  0.529429  1
  Ru  Ru32  1  0.000000  0.639028  0.320844  1
  Ru  Ru33  1  0.000000  0.362196  0.679753  1
  Ru  Ru34  1  0.000000  0.136812  0.177689  1
  Ru  Ru35  1  0.000000  0.862209  0.821129  1
