# generated using pymatgen
data_LaY5(AuO7)2
_symmetry_space_group_name_H-M   'P 1'
_cell_length_a   6.55068939
_cell_length_b   6.55069016
_cell_length_c   7.52713678
_cell_angle_alpha   89.93580084
_cell_angle_beta   90.06419604
_cell_angle_gamma   108.75474870
_symmetry_Int_Tables_number   1
_chemical_formula_structural   LaY5(AuO7)2
_chemical_formula_sum   'La1 Y5 Au2 O14'
_cell_volume   305.85048655
_cell_formula_units_Z   1
loop_
 _symmetry_equiv_pos_site_id
 _symmetry_equiv_pos_as_xyz
  1  'x, y, z'
loop_
 _atom_site_type_symbol
 _atom_site_label
 _atom_site_symmetry_multiplicity
 _atom_site_fract_x
 _atom_site_fract_y
 _atom_site_fract_z
 _atom_site_occupancy
  La  La0  1  0.500000  0.500000  0.500000  1
  Y  Y1  1  0.500000  0.500000  0.000000  1
  Y  Y2  1  0.527909  0.998200  0.753368  1
  Y  Y3  1  0.998200  0.527909  0.246632  1
  Y  Y4  1  0.472091  0.001800  0.246632  1
  Y  Y5  1  0.001800  0.472091  0.753368  1
  Au  Au6  1  0.000000  0.000000  0.500000  1
  Au  Au7  1  0.000000  0.000000  0.000000  1
  O  O8  1  0.672652  0.927909  0.475915  1
  O  O9  1  0.927909  0.672652  0.524085  1
  O  O10  1  0.671986  0.918612  0.024018  1
  O  O11  1  0.918612  0.671986  0.975982  1
  O  O12  1  0.327348  0.072091  0.524085  1
  O  O13  1  0.072091  0.327348  0.475915  1
  O  O14  1  0.328014  0.081388  0.975982  1
  O  O15  1  0.081388  0.328014  0.024018  1
  O  O16  1  0.922377  0.077623  0.750195  1
  O  O17  1  0.077623  0.922377  0.249805  1
  O  O18  1  0.364150  0.635850  0.760909  1
  O  O19  1  0.635850  0.364150  0.239091  1
  O  O20  1  0.641815  0.358185  0.759805  1
  O  O21  1  0.358185  0.641815  0.240195  1
