# generated using pymatgen
data_TbTm3ReB12Ir
_symmetry_space_group_name_H-M   'P 1'
_cell_length_a   3.64527600
_cell_length_b   9.10911515
_cell_length_c   11.50455002
_cell_angle_alpha   90.30456410
_cell_angle_beta   90.00000000
_cell_angle_gamma   90.00000000
_symmetry_Int_Tables_number   1
_chemical_formula_structural   TbTm3ReB12Ir
_chemical_formula_sum   'Tb2 Tm6 Re2 B24 Ir2'
_cell_volume   382.00593401
_cell_formula_units_Z   2
loop_
 _symmetry_equiv_pos_site_id
 _symmetry_equiv_pos_as_xyz
  1  'x, y, z'
loop_
 _atom_site_type_symbol
 _atom_site_label
 _atom_site_symmetry_multiplicity
 _atom_site_fract_x
 _atom_site_fract_y
 _atom_site_fract_z
 _atom_site_occupancy
  Tb  Tb0  1  0.000000  0.317243  0.410015  1
  Tb  Tb1  1  0.000000  0.682757  0.589985  1
  Tm  Tm2  1  0.000000  0.826383  0.081874  1
  Tm  Tm3  1  0.000000  0.173617  0.918126  1
  Tm  Tm4  1  0.000000  0.946296  0.371999  1
  Tm  Tm5  1  0.000000  0.053704  0.628001  1
  Tm  Tm6  1  0.000000  0.441580  0.125257  1
  Tm  Tm7  1  0.000000  0.558420  0.874743  1
  Re  Re8  1  0.000000  0.137707  0.179339  1
  Re  Re9  1  0.000000  0.862293  0.820661  1
  B  B10  1  0.500000  0.554521  0.433436  1
  B  B11  1  0.500000  0.445479  0.566564  1
  B  B12  1  0.500000  0.052876  0.066650  1
  B  B13  1  0.500000  0.947124  0.933350  1
  B  B14  1  0.500000  0.750457  0.420574  1
  B  B15  1  0.500000  0.249543  0.579426  1
  B  B16  1  0.500000  0.248242  0.079948  1
  B  B17  1  0.500000  0.751758  0.920052  1
  B  B18  1  0.500000  0.791790  0.265233  1
  B  B19  1  0.500000  0.208210  0.734767  1
  B  B20  1  0.500000  0.292351  0.233609  1
  B  B21  1  0.500000  0.707649  0.766391  1
  B  B22  1  0.500000  0.631757  0.183090  1
  B  B23  1  0.500000  0.368243  0.816910  1
  B  B24  1  0.500000  0.130762  0.314542  1
  B  B25  1  0.500000  0.869238  0.685458  1
  B  B26  1  0.500000  0.981651  0.212814  1
  B  B27  1  0.500000  0.018349  0.787186  1
  B  B28  1  0.500000  0.482455  0.286338  1
  B  B29  1  0.500000  0.517545  0.713662  1
  B  B30  1  0.500000  0.606350  0.029775  1
  B  B31  1  0.500000  0.393650  0.970225  1
  B  B32  1  0.500000  0.104992  0.471541  1
  B  B33  1  0.500000  0.895008  0.528459  1
  Ir  Ir34  1  0.000000  0.637581  0.320886  1
  Ir  Ir35  1  0.000000  0.362419  0.679114  1
