# generated using pymatgen
data_Nd4CuPdPt2
_symmetry_space_group_name_H-M   'P 1'
_cell_length_a   4.61945900
_cell_length_b   5.72694897
_cell_length_c   7.33822307
_cell_angle_alpha   90.04066946
_cell_angle_beta   90.00000000
_cell_angle_gamma   90.00000000
_symmetry_Int_Tables_number   1
_chemical_formula_structural   Nd4CuPdPt2
_chemical_formula_sum   'Nd4 Cu1 Pd1 Pt2'
_cell_volume   194.13562148
_cell_formula_units_Z   1
loop_
 _symmetry_equiv_pos_site_id
 _symmetry_equiv_pos_as_xyz
  1  'x, y, z'
loop_
 _atom_site_type_symbol
 _atom_site_label
 _atom_site_symmetry_multiplicity
 _atom_site_fract_x
 _atom_site_fract_y
 _atom_site_fract_z
 _atom_site_occupancy
  Nd  Nd0  1  0.000000  0.642656  0.316163  1
  Nd  Nd1  1  0.000000  0.853884  0.817223  1
  Nd  Nd2  1  0.500000  0.366310  0.683797  1
  Nd  Nd3  1  0.500000  0.138512  0.181712  1
  Cu  Cu4  1  0.000000  0.135756  0.464117  1
  Pd  Pd5  1  0.000000  0.343491  0.957221  1
  Pt  Pt6  1  0.500000  0.868850  0.536164  1
  Pt  Pt7  1  0.500000  0.650542  0.043604  1
