# generated using pymatgen
data_CaEu4Si3
_symmetry_space_group_name_H-M   'P 1'
_cell_length_a   9.36571672
_cell_length_b   9.36571666
_cell_length_c   9.36571597
_cell_angle_alpha   130.76983373
_cell_angle_beta   130.76982837
_cell_angle_gamma   72.17902536
_symmetry_Int_Tables_number   1
_chemical_formula_structural   CaEu4Si3
_chemical_formula_sum   'Ca2 Eu8 Si6'
_cell_volume   460.70076155
_cell_formula_units_Z   2
loop_
 _symmetry_equiv_pos_site_id
 _symmetry_equiv_pos_as_xyz
  1  'x, y, z'
loop_
 _atom_site_type_symbol
 _atom_site_label
 _atom_site_symmetry_multiplicity
 _atom_site_fract_x
 _atom_site_fract_y
 _atom_site_fract_z
 _atom_site_occupancy
  Ca  Ca0  1  0.000000  0.000000  0.000000  1
  Ca  Ca1  1  0.500000  0.500000  0.000000  1
  Eu  Eu2  1  0.821509  0.321509  0.854700  1
  Eu  Eu3  1  0.178491  0.678491  0.145300  1
  Eu  Eu4  1  0.466810  0.966810  0.145300  1
  Eu  Eu5  1  0.321509  0.466810  0.500000  1
  Eu  Eu6  1  0.033190  0.178491  0.500000  1
  Eu  Eu7  1  0.533190  0.033190  0.854700  1
  Eu  Eu8  1  0.678491  0.533190  0.500000  1
  Eu  Eu9  1  0.966810  0.821509  0.500000  1
  Si  Si10  1  0.111360  0.611360  0.722722  1
  Si  Si11  1  0.888640  0.388640  0.277278  1
  Si  Si12  1  0.611360  0.888640  0.500000  1
  Si  Si13  1  0.388640  0.111360  0.500000  1
  Si  Si14  1  0.250000  0.250000  0.000000  1
  Si  Si15  1  0.750000  0.750000  0.000000  1
