# generated using pymatgen
data_Mn3Nb6Al8Ir
_symmetry_space_group_name_H-M   'P 1'
_cell_length_a   8.79353951
_cell_length_b   8.85957116
_cell_length_c   8.20972400
_cell_angle_alpha   90.00000000
_cell_angle_beta   90.00000000
_cell_angle_gamma   120.67953847
_symmetry_Int_Tables_number   1
_chemical_formula_structural   Mn3Nb6Al8Ir
_chemical_formula_sum   'Mn6 Nb12 Al16 Ir2'
_cell_volume   550.07368761
_cell_formula_units_Z   2
loop_
 _symmetry_equiv_pos_site_id
 _symmetry_equiv_pos_as_xyz
  1  'x, y, z'
loop_
 _atom_site_type_symbol
 _atom_site_label
 _atom_site_symmetry_multiplicity
 _atom_site_fract_x
 _atom_site_fract_y
 _atom_site_fract_z
 _atom_site_occupancy
  Mn  Mn0  1  0.176617  0.503305  0.750000  1
  Mn  Mn1  1  0.823383  0.496695  0.250000  1
  Mn  Mn2  1  0.488057  0.656946  0.750000  1
  Mn  Mn3  1  0.499144  0.166305  0.750000  1
  Mn  Mn4  1  0.511943  0.343054  0.250000  1
  Mn  Mn5  1  0.500856  0.833695  0.250000  1
  Nb  Nb6  1  0.337435  0.003754  0.064123  1
  Nb  Nb7  1  0.662565  0.996246  0.935877  1
  Nb  Nb8  1  0.999287  0.333158  0.062937  1
  Nb  Nb9  1  0.662565  0.996246  0.564123  1
  Nb  Nb10  1  0.999287  0.333158  0.437063  1
  Nb  Nb11  1  0.000713  0.666842  0.937063  1
  Nb  Nb12  1  0.337435  0.003754  0.435877  1
  Nb  Nb13  1  0.000713  0.666842  0.562937  1
  Nb  Nb14  1  0.662036  0.667146  0.064178  1
  Nb  Nb15  1  0.337964  0.332854  0.935822  1
  Nb  Nb16  1  0.337964  0.332854  0.564178  1
  Nb  Nb17  1  0.662036  0.667146  0.435822  1
  Al  Al18  1  0.339796  0.843272  0.750000  1
  Al  Al19  1  0.655710  0.503585  0.750000  1
  Al  Al20  1  0.660204  0.156728  0.250000  1
  Al  Al21  1  0.344290  0.496415  0.250000  1
  Al  Al22  1  0.844521  0.338883  0.750000  1
  Al  Al23  1  0.155479  0.661117  0.250000  1
  Al  Al24  1  0.337591  0.669134  0.500141  1
  Al  Al25  1  0.662409  0.330866  0.499859  1
  Al  Al26  1  0.662409  0.330866  0.000141  1
  Al  Al27  1  0.337591  0.669134  0.999859  1
  Al  Al28  1  0.175327  0.004675  0.750000  1
  Al  Al29  1  0.824673  0.995325  0.250000  1
  Al  Al30  1  0.011851  0.180566  0.750000  1
  Al  Al31  1  0.988149  0.819434  0.250000  1
  Al  Al32  1  0.819530  0.832212  0.750000  1
  Al  Al33  1  0.180470  0.167788  0.250000  1
  Ir  Ir34  1  0.000000  0.000000  0.500000  1
  Ir  Ir35  1  0.000000  0.000000  0.000000  1
