# generated using pymatgen
data_HoFe3P3Ir2
_symmetry_space_group_name_H-M   'P 1'
_cell_length_a   3.79196100
_cell_length_b   10.23775300
_cell_length_c   12.17525800
_cell_angle_alpha   90.00000000
_cell_angle_beta   90.00000000
_cell_angle_gamma   90.00000000
_symmetry_Int_Tables_number   1
_chemical_formula_structural   HoFe3P3Ir2
_chemical_formula_sum   'Ho4 Fe12 P12 Ir8'
_cell_volume   472.65764012
_cell_formula_units_Z   4
loop_
 _symmetry_equiv_pos_site_id
 _symmetry_equiv_pos_as_xyz
  1  'x, y, z'
loop_
 _atom_site_type_symbol
 _atom_site_label
 _atom_site_symmetry_multiplicity
 _atom_site_fract_x
 _atom_site_fract_y
 _atom_site_fract_z
 _atom_site_occupancy
  Ho  Ho0  1  0.250000  0.581140  0.713026  1
  Ho  Ho1  1  0.250000  0.918860  0.213026  1
  Ho  Ho2  1  0.750000  0.418860  0.286974  1
  Ho  Ho3  1  0.750000  0.081140  0.786974  1
  Fe  Fe4  1  0.250000  0.223014  0.170406  1
  Fe  Fe5  1  0.250000  0.276986  0.670406  1
  Fe  Fe6  1  0.750000  0.776986  0.829594  1
  Fe  Fe7  1  0.750000  0.723014  0.329594  1
  Fe  Fe8  1  0.250000  0.877627  0.695815  1
  Fe  Fe9  1  0.250000  0.622373  0.195815  1
  Fe  Fe10  1  0.750000  0.122373  0.304185  1
  Fe  Fe11  1  0.750000  0.377627  0.804185  1
  Fe  Fe12  1  0.250000  0.458111  0.937195  1
  Fe  Fe13  1  0.250000  0.041889  0.437195  1
  Fe  Fe14  1  0.750000  0.541889  0.062805  1
  Fe  Fe15  1  0.750000  0.958111  0.562805  1
  P  P16  1  0.250000  0.428451  0.113437  1
  P  P17  1  0.250000  0.071549  0.613437  1
  P  P18  1  0.750000  0.571549  0.886563  1
  P  P19  1  0.750000  0.928451  0.386563  1
  P  P20  1  0.250000  0.273180  0.851915  1
  P  P21  1  0.250000  0.226820  0.351915  1
  P  P22  1  0.750000  0.726820  0.148085  1
  P  P23  1  0.750000  0.773180  0.648085  1
  P  P24  1  0.250000  0.603940  0.375235  1
  P  P25  1  0.250000  0.896060  0.875235  1
  P  P26  1  0.750000  0.396060  0.624765  1
  P  P27  1  0.750000  0.103940  0.124765  1
  Ir  Ir28  1  0.250000  0.709620  0.983923  1
  Ir  Ir29  1  0.250000  0.790380  0.483923  1
  Ir  Ir30  1  0.750000  0.290380  0.016077  1
  Ir  Ir31  1  0.750000  0.209620  0.516077  1
  Ir  Ir32  1  0.250000  0.405132  0.475754  1
  Ir  Ir33  1  0.250000  0.094868  0.975754  1
  Ir  Ir34  1  0.750000  0.594868  0.524246  1
  Ir  Ir35  1  0.750000  0.905132  0.024246  1
