# generated using pymatgen
data_EuHoCo4(PRu)6
_symmetry_space_group_name_H-M   'P 1'
_cell_length_a   3.79076300
_cell_length_b   10.65250800
_cell_length_c   12.15597600
_cell_angle_alpha   90.00000000
_cell_angle_beta   90.00000000
_cell_angle_gamma   90.00000000
_symmetry_Int_Tables_number   1
_chemical_formula_structural   EuHoCo4(PRu)6
_chemical_formula_sum   'Eu2 Ho2 Co8 P12 Ru12'
_cell_volume   490.87208583
_cell_formula_units_Z   2
loop_
 _symmetry_equiv_pos_site_id
 _symmetry_equiv_pos_as_xyz
  1  'x, y, z'
loop_
 _atom_site_type_symbol
 _atom_site_label
 _atom_site_symmetry_multiplicity
 _atom_site_fract_x
 _atom_site_fract_y
 _atom_site_fract_z
 _atom_site_occupancy
  Eu  Eu0  1  0.250000  0.584217  0.707049  1
  Eu  Eu1  1  0.250000  0.915783  0.207049  1
  Ho  Ho2  1  0.750000  0.415366  0.293199  1
  Ho  Ho3  1  0.750000  0.084634  0.793199  1
  Co  Co4  1  0.250000  0.889174  0.695928  1
  Co  Co5  1  0.250000  0.610826  0.195928  1
  Co  Co6  1  0.750000  0.116335  0.306786  1
  Co  Co7  1  0.750000  0.383665  0.806786  1
  Co  Co8  1  0.250000  0.462456  0.936725  1
  Co  Co9  1  0.250000  0.037544  0.436725  1
  Co  Co10  1  0.750000  0.536256  0.065636  1
  Co  Co11  1  0.750000  0.963744  0.565636  1
  P  P12  1  0.250000  0.425707  0.112991  1
  P  P13  1  0.250000  0.074293  0.612991  1
  P  P14  1  0.750000  0.574533  0.888785  1
  P  P15  1  0.750000  0.925467  0.388785  1
  P  P16  1  0.250000  0.272498  0.870837  1
  P  P17  1  0.250000  0.227502  0.370837  1
  P  P18  1  0.750000  0.727680  0.127169  1
  P  P19  1  0.750000  0.772320  0.627169  1
  P  P20  1  0.250000  0.602046  0.387267  1
  P  P21  1  0.250000  0.897954  0.887267  1
  P  P22  1  0.750000  0.396213  0.612107  1
  P  P23  1  0.750000  0.103787  0.112107  1
  Ru  Ru24  1  0.250000  0.704863  0.985626  1
  Ru  Ru25  1  0.250000  0.795137  0.485626  1
  Ru  Ru26  1  0.750000  0.294778  0.014816  1
  Ru  Ru27  1  0.750000  0.205222  0.514816  1
  Ru  Ru28  1  0.250000  0.404079  0.484702  1
  Ru  Ru29  1  0.250000  0.095921  0.984702  1
  Ru  Ru30  1  0.750000  0.593297  0.510829  1
  Ru  Ru31  1  0.750000  0.906703  0.010829  1
  Ru  Ru32  1  0.250000  0.224749  0.180364  1
  Ru  Ru33  1  0.250000  0.275251  0.680364  1
  Ru  Ru34  1  0.750000  0.778572  0.819185  1
  Ru  Ru35  1  0.750000  0.721428  0.319185  1
