# generated using pymatgen
data_HoEr7Si8Pd5Pt3
_symmetry_space_group_name_H-M   'P 1'
_cell_length_a   4.27288300
_cell_length_b   7.47905510
_cell_length_c   13.91241900
_cell_angle_alpha   90.00927186
_cell_angle_beta   90.00000000
_cell_angle_gamma   90.00000000
_symmetry_Int_Tables_number   1
_chemical_formula_structural   HoEr7Si8Pd5Pt3
_chemical_formula_sum   'Ho1 Er7 Si8 Pd5 Pt3'
_cell_volume   444.60094077
_cell_formula_units_Z   1
loop_
 _symmetry_equiv_pos_site_id
 _symmetry_equiv_pos_as_xyz
  1  'x, y, z'
loop_
 _atom_site_type_symbol
 _atom_site_label
 _atom_site_symmetry_multiplicity
 _atom_site_fract_x
 _atom_site_fract_y
 _atom_site_fract_z
 _atom_site_occupancy
  Ho  Ho0  1  0.500000  0.701680  0.500224  1
  Er  Er1  1  0.000000  0.299449  0.000128  1
  Er  Er2  1  0.000000  0.291809  0.499887  1
  Er  Er3  1  0.500000  0.708222  0.999777  1
  Er  Er4  1  0.000000  0.205307  0.250369  1
  Er  Er5  1  0.500000  0.793524  0.250098  1
  Er  Er6  1  0.000000  0.204944  0.749761  1
  Er  Er7  1  0.500000  0.794951  0.750471  1
  Si  Si8  1  0.000000  0.908471  0.592582  1
  Si  Si9  1  0.500000  0.091551  0.908767  1
  Si  Si10  1  0.000000  0.908229  0.407044  1
  Si  Si11  1  0.500000  0.093876  0.093431  1
  Si  Si12  1  0.000000  0.593139  0.143821  1
  Si  Si13  1  0.500000  0.405434  0.356789  1
  Si  Si14  1  0.000000  0.594505  0.856790  1
  Si  Si15  1  0.500000  0.405170  0.642977  1
  Pd  Pd16  1  0.000000  0.923775  0.107223  1
  Pd  Pd17  1  0.500000  0.421395  0.157388  1
  Pd  Pd18  1  0.000000  0.579494  0.341928  1
  Pd  Pd19  1  0.500000  0.420816  0.842705  1
  Pd  Pd20  1  0.000000  0.578951  0.657944  1
  Pt  Pt21  1  0.500000  0.075155  0.609181  1
  Pt  Pt22  1  0.000000  0.925039  0.890414  1
  Pt  Pt23  1  0.500000  0.075110  0.390302  1
