# generated using pymatgen
data_Nd3Cd3In2Ag
_symmetry_space_group_name_H-M   'P 1'
_cell_length_a   7.74713800
_cell_length_b   7.74713773
_cell_length_c   4.58551600
_cell_angle_alpha   90.00000000
_cell_angle_beta   90.00000000
_cell_angle_gamma   120.00000116
_symmetry_Int_Tables_number   1
_chemical_formula_structural   Nd3Cd3In2Ag
_chemical_formula_sum   'Nd3 Cd3 In2 Ag1'
_cell_volume   238.34245519
_cell_formula_units_Z   1
loop_
 _symmetry_equiv_pos_site_id
 _symmetry_equiv_pos_as_xyz
  1  'x, y, z'
loop_
 _atom_site_type_symbol
 _atom_site_label
 _atom_site_symmetry_multiplicity
 _atom_site_fract_x
 _atom_site_fract_y
 _atom_site_fract_z
 _atom_site_occupancy
  Nd  Nd0  1  0.408834  0.408834  0.500000  1
  Nd  Nd1  1  0.591166  0.000000  0.500000  1
  Nd  Nd2  1  0.000000  0.591166  0.500000  1
  Cd  Cd3  1  0.759549  0.759549  0.000000  1
  Cd  Cd4  1  0.240451  0.000000  0.000000  1
  Cd  Cd5  1  0.000000  0.240451  0.000000  1
  In  In6  1  0.666667  0.333333  0.000000  1
  In  In7  1  0.333333  0.666667  0.000000  1
  Ag  Ag8  1  0.000000  0.000000  0.500000  1
