# generated using pymatgen
data_Y6Ga8SCl
_symmetry_space_group_name_H-M   'P 1'
_cell_length_a   7.77912152
_cell_length_b   7.77912082
_cell_length_c   7.77912009
_cell_angle_alpha   119.16296274
_cell_angle_beta   119.16296516
_cell_angle_gamma   91.45600569
_symmetry_Int_Tables_number   1
_chemical_formula_structural   Y6Ga8SCl
_chemical_formula_sum   'Y6 Ga8 S1 Cl1'
_cell_volume   336.96513178
_cell_formula_units_Z   1
loop_
 _symmetry_equiv_pos_site_id
 _symmetry_equiv_pos_as_xyz
  1  'x, y, z'
loop_
 _atom_site_type_symbol
 _atom_site_label
 _atom_site_symmetry_multiplicity
 _atom_site_fract_x
 _atom_site_fract_y
 _atom_site_fract_z
 _atom_site_occupancy
  Y  Y0  1  0.846754  0.670120  0.516872  1
  Y  Y1  1  0.670120  0.153246  0.823366  1
  Y  Y2  1  0.329880  0.846754  0.176634  1
  Y  Y3  1  0.153246  0.329880  0.483128  1
  Y  Y4  1  0.246003  0.246003  0.000000  1
  Y  Y5  1  0.753997  0.753997  0.000000  1
  Ga  Ga6  1  0.163653  0.952022  0.503032  1
  Ga  Ga7  1  0.448989  0.660622  0.496968  1
  Ga  Ga8  1  0.551011  0.339378  0.503032  1
  Ga  Ga9  1  0.660622  0.163653  0.211632  1
  Ga  Ga10  1  0.836347  0.047978  0.496968  1
  Ga  Ga11  1  0.047978  0.551011  0.211632  1
  Ga  Ga12  1  0.339378  0.836347  0.788368  1
  Ga  Ga13  1  0.952022  0.448989  0.788368  1
  S  S14  1  0.000000  0.000000  0.000000  1
  Cl  Cl15  1  0.500000  0.500000  0.000000  1
