# generated using pymatgen
data_Y20Ga2Si13Au
_symmetry_space_group_name_H-M   'P 1'
_cell_length_a   7.47711050
_cell_length_b   7.73495936
_cell_length_c   14.75706270
_cell_angle_alpha   90.09355632
_cell_angle_beta   90.16377075
_cell_angle_gamma   90.15707466
_symmetry_Int_Tables_number   1
_chemical_formula_structural   Y20Ga2Si13Au
_chemical_formula_sum   'Y20 Ga2 Si13 Au1'
_cell_volume   853.46903101
_cell_formula_units_Z   1
loop_
 _symmetry_equiv_pos_site_id
 _symmetry_equiv_pos_as_xyz
  1  'x, y, z'
loop_
 _atom_site_type_symbol
 _atom_site_label
 _atom_site_symmetry_multiplicity
 _atom_site_fract_x
 _atom_site_fract_y
 _atom_site_fract_z
 _atom_site_occupancy
  Y  Y0  1  0.681702  0.172802  0.622881  1
  Y  Y1  1  0.179922  0.324974  0.874738  1
  Y  Y2  1  0.321651  0.823395  0.123788  1
  Y  Y3  1  0.823240  0.678395  0.378093  1
  Y  Y4  1  0.317931  0.826210  0.378319  1
  Y  Y5  1  0.818340  0.677449  0.122057  1
  Y  Y6  1  0.680515  0.176344  0.877010  1
  Y  Y7  1  0.178082  0.321545  0.623409  1
  Y  Y8  1  0.526453  0.680366  0.600772  1
  Y  Y9  1  0.025016  0.816439  0.899114  1
  Y  Y10  1  0.475725  0.317456  0.100094  1
  Y  Y11  1  0.974871  0.182143  0.400259  1
  Y  Y12  1  0.470922  0.320979  0.400203  1
  Y  Y13  1  0.972247  0.179261  0.099725  1
  Y  Y14  1  0.527827  0.678462  0.898462  1
  Y  Y15  1  0.025643  0.817558  0.601102  1
  Y  Y16  1  0.848947  0.507500  0.749899  1
  Y  Y17  1  0.348849  0.990350  0.747422  1
  Y  Y18  1  0.151564  0.489879  0.251416  1
  Y  Y19  1  0.653453  0.011467  0.251107  1
  Ga  Ga20  1  0.153087  0.530977  0.040292  1
  Ga  Ga21  1  0.346128  0.031860  0.958978  1
  Si  Si22  1  0.851661  0.471450  0.541033  1
  Si  Si23  1  0.343156  0.028401  0.542481  1
  Si  Si24  1  0.850730  0.470037  0.959060  1
  Si  Si25  1  0.648369  0.971543  0.040635  1
  Si  Si26  1  0.147444  0.530663  0.461917  1
  Si  Si27  1  0.477997  0.393819  0.748573  1
  Si  Si28  1  0.976439  0.103712  0.751378  1
  Si  Si29  1  0.523552  0.605976  0.249931  1
  Si  Si30  1  0.025598  0.894387  0.248689  1
  Si  Si31  1  0.732215  0.870734  0.750852  1
  Si  Si32  1  0.232768  0.627097  0.749346  1
  Si  Si33  1  0.267000  0.126302  0.248545  1
  Si  Si34  1  0.767134  0.376701  0.250154  1
  Au  Au35  1  0.653824  0.973369  0.458264  1
