# generated using pymatgen
data_Ba4Yb(RuO4)3
_symmetry_space_group_name_H-M   'P 1'
_cell_length_a   10.38718604
_cell_length_b   10.38718581
_cell_length_c   10.38718566
_cell_angle_alpha   33.27245996
_cell_angle_beta   33.27246206
_cell_angle_gamma   33.27245898
_symmetry_Int_Tables_number   1
_chemical_formula_structural   Ba4Yb(RuO4)3
_chemical_formula_sum   'Ba4 Yb1 Ru3 O12'
_cell_volume   300.31627664
_cell_formula_units_Z   1
loop_
 _symmetry_equiv_pos_site_id
 _symmetry_equiv_pos_as_xyz
  1  'x, y, z'
loop_
 _atom_site_type_symbol
 _atom_site_label
 _atom_site_symmetry_multiplicity
 _atom_site_fract_x
 _atom_site_fract_y
 _atom_site_fract_z
 _atom_site_occupancy
  Ba  Ba0  1  0.712106  0.712106  0.712106  1
  Ba  Ba1  1  0.287894  0.287894  0.287894  1
  Ba  Ba2  1  0.872163  0.872163  0.872163  1
  Ba  Ba3  1  0.127837  0.127837  0.127837  1
  Yb  Yb4  1  0.000000  0.000000  0.000000  1
  Ru  Ru5  1  0.412472  0.412472  0.412472  1
  Ru  Ru6  1  0.500000  0.500000  0.500000  1
  Ru  Ru7  1  0.587528  0.587528  0.587528  1
  O  O8  1  0.221317  0.221317  0.688631  1
  O  O9  1  0.688631  0.221317  0.221317  1
  O  O10  1  0.221317  0.688631  0.221317  1
  O  O11  1  0.778683  0.311369  0.778683  1
  O  O12  1  0.778683  0.778683  0.311369  1
  O  O13  1  0.311369  0.778683  0.778683  1
  O  O14  1  0.387375  0.387375  0.851142  1
  O  O15  1  0.851142  0.387375  0.387375  1
  O  O16  1  0.148858  0.612625  0.612625  1
  O  O17  1  0.612625  0.612625  0.148858  1
  O  O18  1  0.612625  0.148858  0.612625  1
  O  O19  1  0.387375  0.851142  0.387375  1
