# generated using pymatgen
data_AlV3Cl16
_symmetry_space_group_name_H-M   'P 1'
_cell_length_a   6.85951543
_cell_length_b   9.98304043
_cell_length_c   10.14846167
_cell_angle_alpha   77.65433945
_cell_angle_beta   89.40997517
_cell_angle_gamma   90.38084089
_symmetry_Int_Tables_number   1
_chemical_formula_structural   AlV3Cl16
_chemical_formula_sum   'Al1 V3 Cl16'
_cell_volume   678.82034656
_cell_formula_units_Z   1
loop_
 _symmetry_equiv_pos_site_id
 _symmetry_equiv_pos_as_xyz
  1  'x, y, z'
loop_
 _atom_site_type_symbol
 _atom_site_label
 _atom_site_symmetry_multiplicity
 _atom_site_fract_x
 _atom_site_fract_y
 _atom_site_fract_z
 _atom_site_occupancy
  Al  Al0  1  0.074874  0.249044  0.635744  1
  V  V1  1  0.574999  0.752010  0.861560  1
  V  V2  1  0.925109  0.748194  0.367516  1
  V  V3  1  0.424036  0.249203  0.136385  1
  Cl  Cl4  1  0.372621  0.308312  0.580732  1
  Cl  Cl5  1  0.865165  0.692422  0.916321  1
  Cl  Cl6  1  0.629349  0.692221  0.417977  1
  Cl  Cl7  1  0.134036  0.304882  0.080110  1
  Cl  Cl8  1  0.928740  0.194436  0.466302  1
  Cl  Cl9  1  0.428622  0.803920  0.029595  1
  Cl  Cl10  1  0.071659  0.808092  0.528748  1
  Cl  Cl11  1  0.568507  0.199242  0.968612  1
  Cl  Cl12  1  0.927302  0.418265  0.695293  1
  Cl  Cl13  1  0.426998  0.585733  0.805244  1
  Cl  Cl14  1  0.074087  0.584908  0.307221  1
  Cl  Cl15  1  0.574934  0.412795  0.195653  1
  Cl  Cl16  1  0.072001  0.073202  0.804030  1
  Cl  Cl17  1  0.575749  0.925751  0.701016  1
  Cl  Cl18  1  0.926559  0.919563  0.201375  1
  Cl  Cl19  1  0.424651  0.077805  0.300567  1
