# generated using pymatgen
data_Hf8ScRe3BW
_symmetry_space_group_name_H-M   'P 1'
_cell_length_a   8.52167667
_cell_length_b   8.52810983
_cell_length_c   8.48233700
_cell_angle_alpha   90.00000000
_cell_angle_beta   90.00000000
_cell_angle_gamma   120.02497962
_symmetry_Int_Tables_number   1
_chemical_formula_structural   Hf8ScRe3BW
_chemical_formula_sum   'Hf16 Sc2 Re6 B2 W2'
_cell_volume   533.72140374
_cell_formula_units_Z   2
loop_
 _symmetry_equiv_pos_site_id
 _symmetry_equiv_pos_as_xyz
  1  'x, y, z'
loop_
 _atom_site_type_symbol
 _atom_site_label
 _atom_site_symmetry_multiplicity
 _atom_site_fract_x
 _atom_site_fract_y
 _atom_site_fract_z
 _atom_site_occupancy
  Hf  Hf0  1  0.202901  0.798700  0.444518  1
  Hf  Hf1  1  0.202901  0.404201  0.444518  1
  Hf  Hf2  1  0.594797  0.797398  0.443707  1
  Hf  Hf3  1  0.797659  0.201828  0.555038  1
  Hf  Hf4  1  0.797659  0.595831  0.555038  1
  Hf  Hf5  1  0.404302  0.202150  0.555726  1
  Hf  Hf6  1  0.797659  0.201828  0.944962  1
  Hf  Hf7  1  0.797659  0.595831  0.944962  1
  Hf  Hf8  1  0.404302  0.202150  0.944274  1
  Hf  Hf9  1  0.202901  0.798700  0.055482  1
  Hf  Hf10  1  0.202901  0.404201  0.055482  1
  Hf  Hf11  1  0.594797  0.797398  0.056293  1
  Hf  Hf12  1  0.920283  0.460141  0.250000  1
  Hf  Hf13  1  0.458914  0.541167  0.750000  1
  Hf  Hf14  1  0.458914  0.917746  0.750000  1
  Hf  Hf15  1  0.080726  0.540363  0.750000  1
  Sc  Sc16  1  0.542055  0.457580  0.250000  1
  Sc  Sc17  1  0.542055  0.084475  0.250000  1
  Re  Re18  1  0.888410  0.111927  0.250000  1
  Re  Re19  1  0.888410  0.776485  0.250000  1
  Re  Re20  1  0.223390  0.111696  0.250000  1
  Re  Re21  1  0.111168  0.888759  0.750000  1
  Re  Re22  1  0.111168  0.222409  0.750000  1
  Re  Re23  1  0.777638  0.888819  0.750000  1
  B  B24  1  0.328079  0.664039  0.250000  1
  B  B25  1  0.668186  0.334093  0.750000  1
  W  W26  1  0.000085  0.000042  0.497547  1
  W  W27  1  0.000085  0.000042  0.002453  1
