# generated using pymatgen
data_Zr8Ta3Ti9Si16
_symmetry_space_group_name_H-M   'P 1'
_cell_length_a   6.84491957
_cell_length_b   6.84491957
_cell_length_c   12.59399529
_cell_angle_alpha   89.96341584
_cell_angle_beta   90.03658416
_cell_angle_gamma   89.97082604
_symmetry_Int_Tables_number   1
_chemical_formula_structural   Zr8Ta3Ti9Si16
_chemical_formula_sum   'Zr8 Ta3 Ti9 Si16'
_cell_volume   590.06518585
_cell_formula_units_Z   1
loop_
 _symmetry_equiv_pos_site_id
 _symmetry_equiv_pos_as_xyz
  1  'x, y, z'
loop_
 _atom_site_type_symbol
 _atom_site_label
 _atom_site_symmetry_multiplicity
 _atom_site_fract_x
 _atom_site_fract_y
 _atom_site_fract_z
 _atom_site_occupancy
  Zr  Zr0  1  0.001917  0.658722  0.031506  1
  Zr  Zr1  1  0.998113  0.341540  0.531712  1
  Zr  Zr2  1  0.658722  0.001917  0.968494  1
  Zr  Zr3  1  0.157697  0.498191  0.781204  1
  Zr  Zr4  1  0.841598  0.501816  0.281519  1
  Zr  Zr5  1  0.498191  0.157697  0.218796  1
  Zr  Zr6  1  0.501816  0.841598  0.718481  1
  Zr  Zr7  1  0.341540  0.998113  0.468288  1
  Ta  Ta8  1  0.829262  0.171005  0.749712  1
  Ta  Ta9  1  0.171005  0.829262  0.250288  1
  Ta  Ta10  1  0.329680  0.329680  0.000000  1
  Ti  Ti11  1  0.345759  0.504867  0.377158  1
  Ti  Ti12  1  0.846836  0.995294  0.372925  1
  Ti  Ti13  1  0.005056  0.153285  0.127047  1
  Ti  Ti14  1  0.995294  0.846836  0.627075  1
  Ti  Ti15  1  0.654008  0.494897  0.876789  1
  Ti  Ti16  1  0.504867  0.345759  0.622842  1
  Ti  Ti17  1  0.494897  0.654008  0.123211  1
  Ti  Ti18  1  0.153285  0.005056  0.872953  1
  Ti  Ti19  1  0.670455  0.670455  0.500000  1
  Si  Si20  1  0.043659  0.704559  0.437941  1
  Si  Si21  1  0.954712  0.295069  0.937183  1
  Si  Si22  1  0.704559  0.043659  0.562059  1
  Si  Si23  1  0.205213  0.454713  0.187451  1
  Si  Si24  1  0.793726  0.546604  0.685324  1
  Si  Si25  1  0.454713  0.205213  0.812549  1
  Si  Si26  1  0.546604  0.793726  0.314676  1
  Si  Si27  1  0.295069  0.954712  0.062817  1
  Si  Si28  1  0.866486  0.792967  0.822568  1
  Si  Si29  1  0.133395  0.206924  0.323265  1
  Si  Si30  1  0.792967  0.866486  0.177432  1
  Si  Si31  1  0.294748  0.633851  0.572203  1
  Si  Si32  1  0.706659  0.366719  0.073120  1
  Si  Si33  1  0.633851  0.294748  0.427797  1
  Si  Si34  1  0.366719  0.706659  0.926880  1
  Si  Si35  1  0.206924  0.133395  0.676735  1
