# generated using pymatgen
data_Ca2YbTmSb3
_symmetry_space_group_name_H-M   'P 1'
_cell_length_a   8.17441060
_cell_length_b   8.15725979
_cell_length_c   8.09324258
_cell_angle_alpha   109.45585521
_cell_angle_beta   109.54203376
_cell_angle_gamma   109.77673078
_symmetry_Int_Tables_number   1
_chemical_formula_structural   Ca2YbTmSb3
_chemical_formula_sum   'Ca4 Yb2 Tm2 Sb6'
_cell_volume   413.56981287
_cell_formula_units_Z   2
loop_
 _symmetry_equiv_pos_site_id
 _symmetry_equiv_pos_as_xyz
  1  'x, y, z'
loop_
 _atom_site_type_symbol
 _atom_site_label
 _atom_site_symmetry_multiplicity
 _atom_site_fract_x
 _atom_site_fract_y
 _atom_site_fract_z
 _atom_site_occupancy
  Ca  Ca0  1  0.004041  0.355519  0.499257  1
  Ca  Ca1  1  0.351633  0.494300  0.996176  1
  Ca  Ca2  1  0.004784  0.856262  0.500743  1
  Ca  Ca3  1  0.855457  0.498124  0.003824  1
  Yb  Yb4  1  0.499055  0.003980  0.858489  1
  Yb  Yb5  1  0.140566  0.145490  0.141511  1
  Tm  Tm6  1  0.498824  0.000140  0.353626  1
  Tm  Tm7  1  0.645200  0.646514  0.646374  1
  Sb  Sb8  1  0.862972  0.113108  0.737333  1
  Sb  Sb9  1  0.383932  0.253401  0.619863  1
  Sb  Sb10  1  0.121998  0.752007  0.880167  1
  Sb  Sb11  1  0.741831  0.871841  0.119833  1
  Sb  Sb12  1  0.264069  0.633538  0.380137  1
  Sb  Sb13  1  0.625639  0.375775  0.262667  1
