# generated using pymatgen
data_Er11Tm9(Bi2Ru)4
_symmetry_space_group_name_H-M   'P 1'
_cell_length_a   7.89072252
_cell_length_b   8.96751100
_cell_length_c   12.38181002
_cell_angle_alpha   90.00000000
_cell_angle_beta   89.97569910
_cell_angle_gamma   90.00000000
_symmetry_Int_Tables_number   1
_chemical_formula_structural   Er11Tm9(Bi2Ru)4
_chemical_formula_sum   'Er11 Tm9 Bi8 Ru4'
_cell_volume   876.13854416
_cell_formula_units_Z   1
loop_
 _symmetry_equiv_pos_site_id
 _symmetry_equiv_pos_as_xyz
  1  'x, y, z'
loop_
 _atom_site_type_symbol
 _atom_site_label
 _atom_site_symmetry_multiplicity
 _atom_site_fract_x
 _atom_site_fract_y
 _atom_site_fract_z
 _atom_site_occupancy
  Er  Er0  1  0.341866  0.250000  0.292877  1
  Er  Er1  1  0.158495  0.250000  0.792668  1
  Er  Er2  1  0.841714  0.750000  0.207327  1
  Er  Er3  1  0.123531  0.750000  0.810681  1
  Er  Er4  1  0.876174  0.250000  0.189352  1
  Er  Er5  1  0.623776  0.250000  0.689372  1
  Er  Er6  1  0.376112  0.750000  0.310564  1
  Er  Er7  1  0.555011  0.750000  0.995543  1
  Er  Er8  1  0.445457  0.250000  0.004145  1
  Er  Er9  1  0.054853  0.250000  0.504468  1
  Er  Er10  1  0.944847  0.750000  0.495778  1
  Tm  Tm11  1  0.657915  0.750000  0.706641  1
  Tm  Tm12  1  0.826710  0.458400  0.935194  1
  Tm  Tm13  1  0.173392  0.541546  0.064696  1
  Tm  Tm14  1  0.326659  0.541799  0.564902  1
  Tm  Tm15  1  0.173392  0.958454  0.064696  1
  Tm  Tm16  1  0.673331  0.458403  0.435414  1
  Tm  Tm17  1  0.826710  0.041600  0.935194  1
  Tm  Tm18  1  0.673331  0.041597  0.435414  1
  Tm  Tm19  1  0.326659  0.958201  0.564902  1
  Bi  Bi20  1  0.932638  0.006057  0.672586  1
  Bi  Bi21  1  0.067077  0.993739  0.327584  1
  Bi  Bi22  1  0.433269  0.993353  0.827359  1
  Bi  Bi23  1  0.067077  0.506261  0.327584  1
  Bi  Bi24  1  0.567051  0.006296  0.172396  1
  Bi  Bi25  1  0.932638  0.493943  0.672586  1
  Bi  Bi26  1  0.567051  0.493704  0.172396  1
  Bi  Bi27  1  0.433269  0.506647  0.827359  1
  Ru  Ru28  1  0.927449  0.750000  0.990868  1
  Ru  Ru29  1  0.072700  0.250000  0.009148  1
  Ru  Ru30  1  0.427373  0.250000  0.509325  1
  Ru  Ru31  1  0.572472  0.750000  0.490978  1
