# generated using pymatgen
data_Y2ErHg3Pd2
_symmetry_space_group_name_H-M   'P 1'
_cell_length_a   7.62143063
_cell_length_b   7.65285762
_cell_length_c   3.71182600
_cell_angle_alpha   90.00000000
_cell_angle_beta   90.00000000
_cell_angle_gamma   120.13650101
_symmetry_Int_Tables_number   1
_chemical_formula_structural   Y2ErHg3Pd2
_chemical_formula_sum   'Y2 Er1 Hg3 Pd2'
_cell_volume   187.23169530
_cell_formula_units_Z   1
loop_
 _symmetry_equiv_pos_site_id
 _symmetry_equiv_pos_as_xyz
  1  'x, y, z'
loop_
 _atom_site_type_symbol
 _atom_site_label
 _atom_site_symmetry_multiplicity
 _atom_site_fract_x
 _atom_site_fract_y
 _atom_site_fract_z
 _atom_site_occupancy
  Y  Y0  1  0.584677  0.999781  0.500000  1
  Y  Y1  1  0.415322  0.415103  0.500000  1
  Er  Er2  1  0.000000  0.583801  0.500000  1
  Hg  Hg3  1  0.235099  0.999079  0.000000  1
  Hg  Hg4  1  0.000000  0.236820  0.000000  1
  Hg  Hg5  1  0.764901  0.763980  0.000000  1
  Pd  Pd6  1  0.669799  0.335618  0.000000  1
  Pd  Pd7  1  0.330201  0.665818  0.000000  1
