# generated using pymatgen
data_TbSm3Tc4F28
_symmetry_space_group_name_H-M   'P 1'
_cell_length_a   5.68026422
_cell_length_b   9.11431244
_cell_length_c   12.21661600
_cell_angle_alpha   62.18869678
_cell_angle_beta   90.01600778
_cell_angle_gamma   89.97518190
_symmetry_Int_Tables_number   1
_chemical_formula_structural   TbSm3Tc4F28
_chemical_formula_sum   'Tb1 Sm3 Tc4 F28'
_cell_volume   559.41702494
_cell_formula_units_Z   1
loop_
 _symmetry_equiv_pos_site_id
 _symmetry_equiv_pos_as_xyz
  1  'x, y, z'
loop_
 _atom_site_type_symbol
 _atom_site_label
 _atom_site_symmetry_multiplicity
 _atom_site_fract_x
 _atom_site_fract_y
 _atom_site_fract_z
 _atom_site_occupancy
  Tb  Tb0  1  0.759336  0.811850  0.764450  1
  Sm  Sm1  1  0.257905  0.185367  0.735513  1
  Sm  Sm2  1  0.241356  0.187266  0.235179  1
  Sm  Sm3  1  0.741506  0.811650  0.264762  1
  Tc  Tc4  1  0.756733  0.276293  0.955719  1
  Tc  Tc5  1  0.257929  0.726404  0.545361  1
  Tc  Tc6  1  0.243255  0.726490  0.040908  1
  Tc  Tc7  1  0.743639  0.272095  0.457995  1
  F  F8  1  0.448808  0.708784  0.918588  1
  F  F9  1  0.946440  0.290810  0.580897  1
  F  F10  1  0.553852  0.293254  0.079449  1
  F  F11  1  0.052701  0.708732  0.422624  1
  F  F12  1  0.456877  0.281144  0.546030  1
  F  F13  1  0.957404  0.719447  0.950862  1
  F  F14  1  0.542126  0.717579  0.455545  1
  F  F15  1  0.042995  0.283951  0.044597  1
  F  F16  1  0.766292  0.520039  0.858975  1
  F  F17  1  0.267345  0.483118  0.641698  1
  F  F18  1  0.231653  0.483362  0.138223  1
  F  F19  1  0.733255  0.515548  0.360888  1
  F  F20  1  0.758537  0.033818  0.051411  1
  F  F21  1  0.259201  0.968865  0.448856  1
  F  F22  1  0.242089  0.969272  0.947012  1
  F  F23  1  0.742126  0.029709  0.553773  1
  F  F24  1  0.983364  0.732467  0.641550  1
  F  F25  1  0.480720  0.269488  0.861161  1
  F  F26  1  0.020788  0.268052  0.363168  1
  F  F27  1  0.518825  0.730991  0.136715  1
  F  F28  1  0.042699  0.744115  0.166455  1
  F  F29  1  0.545060  0.254418  0.332106  1
  F  F30  1  0.955595  0.257650  0.830226  1
  F  F31  1  0.460601  0.746367  0.669630  1
  F  F32  1  0.416100  0.969971  0.231369  1
  F  F33  1  0.916519  0.029177  0.268377  1
  F  F34  1  0.580634  0.023134  0.767723  1
  F  F35  1  0.075735  0.969322  0.732203  1
