# generated using pymatgen
data_Pr2ErPa(Al3Ir)6
_symmetry_space_group_name_H-M   'P 1'
_cell_length_a   7.61471702
_cell_length_b   7.61235758
_cell_length_c   9.50696300
_cell_angle_alpha   90.00000000
_cell_angle_beta   90.00000000
_cell_angle_gamma   119.53657385
_symmetry_Int_Tables_number   1
_chemical_formula_structural   Pr2ErPa(Al3Ir)6
_chemical_formula_sum   'Pr2 Er1 Pa1 Al18 Ir6'
_cell_volume   479.46241184
_cell_formula_units_Z   1
loop_
 _symmetry_equiv_pos_site_id
 _symmetry_equiv_pos_as_xyz
  1  'x, y, z'
loop_
 _atom_site_type_symbol
 _atom_site_label
 _atom_site_symmetry_multiplicity
 _atom_site_fract_x
 _atom_site_fract_y
 _atom_site_fract_z
 _atom_site_occupancy
  Pr  Pr0  1  0.004934  0.329524  0.750000  1
  Pr  Pr1  1  0.330060  0.004646  0.750000  1
  Er  Er2  1  0.673099  0.994604  0.250000  1
  Pa  Pa3  1  0.996351  0.672514  0.250000  1
  Al  Al4  1  0.131289  0.130276  0.250000  1
  Al  Al5  1  0.869000  0.870305  0.750000  1
  Al  Al6  1  0.999864  0.332034  0.078319  1
  Al  Al7  1  0.996754  0.664659  0.926203  1
  Al  Al8  1  0.996754  0.664659  0.573797  1
  Al  Al9  1  0.339589  0.003661  0.421622  1
  Al  Al10  1  0.999864  0.332034  0.421681  1
  Al  Al11  1  0.665271  0.997792  0.570185  1
  Al  Al12  1  0.665271  0.997792  0.929815  1
  Al  Al13  1  0.339589  0.003661  0.078378  1
  Al  Al14  1  0.333884  0.333948  0.547281  1
  Al  Al15  1  0.663368  0.666201  0.446844  1
  Al  Al16  1  0.663368  0.666201  0.053156  1
  Al  Al17  1  0.333884  0.333948  0.952719  1
  Al  Al18  1  0.340214  0.548562  0.250000  1
  Al  Al19  1  0.659534  0.453314  0.750000  1
  Al  Al20  1  0.548246  0.343176  0.250000  1
  Al  Al21  1  0.454226  0.660905  0.750000  1
  Ir  Ir22  1  0.673652  0.330658  0.004239  1
  Ir  Ir23  1  0.326769  0.672024  0.004450  1
  Ir  Ir24  1  0.326769  0.672024  0.495550  1
  Ir  Ir25  1  0.673652  0.330658  0.495761  1
  Ir  Ir26  1  0.997372  0.995111  0.005963  1
  Ir  Ir27  1  0.997372  0.995111  0.494037  1
