# generated using pymatgen
data_Nd4Fe3Co4CuO20
_symmetry_space_group_name_H-M   'P 1'
_cell_length_a   5.75077500
_cell_length_b   7.60661385
_cell_length_c   8.63503358
_cell_angle_alpha   90.77677683
_cell_angle_beta   90.00000000
_cell_angle_gamma   90.00000000
_symmetry_Int_Tables_number   1
_chemical_formula_structural   Nd4Fe3Co4CuO20
_chemical_formula_sum   'Nd4 Fe3 Co4 Cu1 O20'
_cell_volume   377.69554590
_cell_formula_units_Z   1
loop_
 _symmetry_equiv_pos_site_id
 _symmetry_equiv_pos_as_xyz
  1  'x, y, z'
loop_
 _atom_site_type_symbol
 _atom_site_label
 _atom_site_symmetry_multiplicity
 _atom_site_fract_x
 _atom_site_fract_y
 _atom_site_fract_z
 _atom_site_occupancy
  Nd  Nd0  1  0.500000  0.363435  0.322754  1
  Nd  Nd1  1  0.500000  0.641536  0.671743  1
  Nd  Nd2  1  0.500000  0.146318  0.832192  1
  Nd  Nd3  1  0.500000  0.852756  0.172070  1
  Fe  Fe4  1  0.000000  0.888018  0.856519  1
  Fe  Fe5  1  0.000000  0.389683  0.640264  1
  Fe  Fe6  1  0.000000  0.614397  0.355503  1
  Co  Co7  1  0.246640  0.000955  0.501489  1
  Co  Co8  1  0.753360  0.000955  0.501489  1
  Co  Co9  1  0.756499  0.500626  0.995653  1
  Co  Co10  1  0.243501  0.500626  0.995653  1
  Cu  Cu11  1  0.000000  0.067208  0.159466  1
  O  O12  1  0.221676  0.002972  0.006747  1
  O  O13  1  0.778324  0.002972  0.006747  1
  O  O14  1  0.770743  0.501129  0.497951  1
  O  O15  1  0.229257  0.501129  0.497951  1
  O  O16  1  0.000000  0.361806  0.052363  1
  O  O17  1  0.000000  0.653917  0.929407  1
  O  O18  1  0.000000  0.149471  0.563410  1
  O  O19  1  0.000000  0.849589  0.442041  1
  O  O20  1  0.250052  0.091645  0.298393  1
  O  O21  1  0.745336  0.909749  0.705745  1
  O  O22  1  0.254664  0.909749  0.705745  1
  O  O23  1  0.747008  0.403975  0.793358  1
  O  O24  1  0.749948  0.091645  0.298393  1
  O  O25  1  0.251473  0.597539  0.202740  1
  O  O26  1  0.748527  0.597539  0.202740  1
  O  O27  1  0.252992  0.403975  0.793358  1
  O  O28  1  0.500000  0.346801  0.050244  1
  O  O29  1  0.500000  0.654045  0.947761  1
  O  O30  1  0.500000  0.155671  0.549760  1
  O  O31  1  0.500000  0.848170  0.450352  1
