# generated using pymatgen
data_Re(SeCl2)2
_symmetry_space_group_name_H-M   'P 1'
_cell_length_a   10.60609196
_cell_length_b   10.60609195
_cell_length_c   10.60609188
_cell_angle_alpha   116.48585618
_cell_angle_beta   116.48585388
_cell_angle_gamma   96.20270859
_symmetry_Int_Tables_number   1
_chemical_formula_structural   Re(SeCl2)2
_chemical_formula_sum   'Re4 Se8 Cl16'
_cell_volume   882.83634705
_cell_formula_units_Z   4
loop_
 _symmetry_equiv_pos_site_id
 _symmetry_equiv_pos_as_xyz
  1  'x, y, z'
loop_
 _atom_site_type_symbol
 _atom_site_label
 _atom_site_symmetry_multiplicity
 _atom_site_fract_x
 _atom_site_fract_y
 _atom_site_fract_z
 _atom_site_occupancy
  Re  Re0  1  0.687124  0.526698  0.072460  1
  Re  Re1  1  0.454238  0.614663  0.927540  1
  Re  Re2  1  0.473302  0.545762  0.160426  1
  Re  Re3  1  0.385337  0.312876  0.839574  1
  Se  Se4  1  0.661601  0.764311  0.230879  1
  Se  Se5  1  0.533432  0.430722  0.769121  1
  Se  Se6  1  0.235689  0.466568  0.897290  1
  Se  Se7  1  0.569278  0.338399  0.102710  1
  Se  Se8  1  0.884308  0.403909  0.047792  1
  Se  Se9  1  0.356117  0.836516  0.952208  1
  Se  Se10  1  0.596091  0.643883  0.480400  1
  Se  Se11  1  0.163484  0.115692  0.519600  1
  Cl  Cl12  1  0.911157  0.595982  0.341762  1
  Cl  Cl13  1  0.254220  0.569395  0.658238  1
  Cl  Cl14  1  0.404018  0.745780  0.315176  1
  Cl  Cl15  1  0.430605  0.088843  0.684824  1
  Cl  Cl16  1  0.885945  0.671422  0.074336  1
  Cl  Cl17  1  0.597087  0.811611  0.925664  1
  Cl  Cl18  1  0.328578  0.402913  0.214524  1
  Cl  Cl19  1  0.188389  0.114055  0.785476  1
  Cl  Cl20  1  0.824518  0.280226  0.781415  1
  Cl  Cl21  1  0.498811  0.043103  0.218585  1
  Cl  Cl22  1  0.719774  0.501189  0.544293  1
  Cl  Cl23  1  0.956897  0.175482  0.455707  1
  Cl  Cl24  1  0.851361  0.201816  0.063274  1
  Cl  Cl25  1  0.138542  0.788087  0.936726  1
  Cl  Cl26  1  0.798184  0.861458  0.649545  1
  Cl  Cl27  1  0.211913  0.148639  0.350455  1
