# generated using pymatgen
data_Pm2Cd5In
_symmetry_space_group_name_H-M   'P 1'
_cell_length_a   6.90335909
_cell_length_b   6.90335844
_cell_length_c   4.98938400
_cell_angle_alpha   90.00000000
_cell_angle_beta   90.00000000
_cell_angle_gamma   122.19361959
_symmetry_Int_Tables_number   1
_chemical_formula_structural   Pm2Cd5In
_chemical_formula_sum   'Pm2 Cd5 In1'
_cell_volume   201.21844271
_cell_formula_units_Z   1
loop_
 _symmetry_equiv_pos_site_id
 _symmetry_equiv_pos_as_xyz
  1  'x, y, z'
loop_
 _atom_site_type_symbol
 _atom_site_label
 _atom_site_symmetry_multiplicity
 _atom_site_fract_x
 _atom_site_fract_y
 _atom_site_fract_z
 _atom_site_occupancy
  Pm  Pm0  1  0.672555  0.327445  0.250000  1
  Pm  Pm1  1  0.329632  0.670368  0.750000  1
  Cd  Cd2  1  0.318559  0.164509  0.750000  1
  Cd  Cd3  1  0.835491  0.681441  0.750000  1
  Cd  Cd4  1  0.156236  0.843764  0.250000  1
  Cd  Cd5  1  0.677493  0.830732  0.250000  1
  Cd  Cd6  1  0.169268  0.322507  0.250000  1
  In  In7  1  0.840765  0.159235  0.750000  1
