# generated using pymatgen
data_Hf6MgZr(Co4P3)4
_symmetry_space_group_name_H-M   'P 1'
_cell_length_a   12.03980570
_cell_length_b   12.02528639
_cell_length_c   3.62971200
_cell_angle_alpha   90.00000000
_cell_angle_beta   90.00000000
_cell_angle_gamma   120.18348165
_symmetry_Int_Tables_number   1
_chemical_formula_structural   Hf6MgZr(Co4P3)4
_chemical_formula_sum   'Hf6 Mg1 Zr1 Co16 P12'
_cell_volume   454.26761091
_cell_formula_units_Z   1
loop_
 _symmetry_equiv_pos_site_id
 _symmetry_equiv_pos_as_xyz
  1  'x, y, z'
loop_
 _atom_site_type_symbol
 _atom_site_label
 _atom_site_symmetry_multiplicity
 _atom_site_fract_x
 _atom_site_fract_y
 _atom_site_fract_z
 _atom_site_occupancy
  Hf  Hf0  1  0.554640  0.999372  0.000000  1
  Hf  Hf1  1  0.998314  0.554124  0.000000  1
  Hf  Hf2  1  0.665807  0.332039  0.000000  1
  Hf  Hf3  1  0.819938  0.819975  0.500000  1
  Hf  Hf4  1  0.175115  0.000184  0.500000  1
  Hf  Hf5  1  0.000507  0.175073  0.500000  1
  Mg  Mg6  1  0.444527  0.444229  0.000000  1
  Zr  Zr7  1  0.331959  0.666110  0.000000  1
  Co  Co8  1  0.197455  0.374263  0.000000  1
  Co  Co9  1  0.177092  0.806789  0.000000  1
  Co  Co10  1  0.821929  0.629970  0.000000  1
  Co  Co11  1  0.807138  0.178137  0.000000  1
  Co  Co12  1  0.374904  0.197183  0.000000  1
  Co  Co13  1  0.124477  0.477080  0.500000  1
  Co  Co14  1  0.353969  0.874523  0.500000  1
  Co  Co15  1  0.519508  0.645674  0.500000  1
  Co  Co16  1  0.645165  0.516614  0.500000  1
  Co  Co17  1  0.871929  0.354764  0.500000  1
  Co  Co18  1  0.480385  0.127045  0.500000  1
  Co  Co19  1  0.000594  0.000770  0.000000  1
  Co  Co20  1  0.721981  0.001080  0.500000  1
  Co  Co21  1  0.000334  0.721614  0.500000  1
  Co  Co22  1  0.630415  0.822484  0.000000  1
  Co  Co23  1  0.282040  0.281535  0.500000  1
  P  P24  1  0.647491  0.647515  0.000000  1
  P  P25  1  0.345023  0.002319  0.000000  1
  P  P26  1  0.002825  0.345071  0.000000  1
  P  P27  1  0.484174  0.313332  0.500000  1
  P  P28  1  0.689477  0.173387  0.500000  1
  P  P29  1  0.825678  0.517067  0.500000  1
  P  P30  1  0.518029  0.826633  0.500000  1
  P  P31  1  0.172384  0.689555  0.500000  1
  P  P32  1  0.825736  0.999405  0.000000  1
  P  P33  1  0.998727  0.825345  0.000000  1
  P  P34  1  0.313513  0.483334  0.500000  1
  P  P35  1  0.176814  0.176405  0.000000  1
