# generated using pymatgen
data_Na2AcPrTe4
_symmetry_space_group_name_H-M   'P 1'
_cell_length_a   9.26154378
_cell_length_b   9.22536905
_cell_length_c   9.22536800
_cell_angle_alpha   59.75025062
_cell_angle_beta   59.87018897
_cell_angle_gamma   59.87019400
_symmetry_Int_Tables_number   1
_chemical_formula_structural   Na2AcPrTe4
_chemical_formula_sum   'Na4 Ac2 Pr2 Te8'
_cell_volume   555.21055964
_cell_formula_units_Z   2
loop_
 _symmetry_equiv_pos_site_id
 _symmetry_equiv_pos_as_xyz
  1  'x, y, z'
loop_
 _atom_site_type_symbol
 _atom_site_label
 _atom_site_symmetry_multiplicity
 _atom_site_fract_x
 _atom_site_fract_y
 _atom_site_fract_z
 _atom_site_occupancy
  Na  Na0  1  0.125000  0.625000  0.125000  1
  Na  Na1  1  0.125000  0.125000  0.625000  1
  Na  Na2  1  0.625000  0.125000  0.125000  1
  Na  Na3  1  0.125000  0.125000  0.125000  1
  Ac  Ac4  1  0.625000  0.625000  0.625000  1
  Ac  Ac5  1  0.125000  0.625000  0.625000  1
  Pr  Pr6  1  0.625000  0.125000  0.625000  1
  Pr  Pr7  1  0.625000  0.625000  0.125000  1
  Te  Te8  1  0.378955  0.875797  0.366292  1
  Te  Te9  1  0.871045  0.374203  0.883708  1
  Te  Te10  1  0.871045  0.883708  0.374203  1
  Te  Te11  1  0.865122  0.877680  0.877680  1
  Te  Te12  1  0.870480  0.372320  0.372320  1
  Te  Te13  1  0.378955  0.366292  0.875797  1
  Te  Te14  1  0.384878  0.372320  0.372320  1
  Te  Te15  1  0.379520  0.877680  0.877680  1
