# generated using pymatgen
data_Dy14Er6Ir7Ru5
_symmetry_space_group_name_H-M   'P 1'
_cell_length_a   10.80896851
_cell_length_b   10.80619577
_cell_length_c   6.39168801
_cell_angle_alpha   89.97161219
_cell_angle_beta   89.97198629
_cell_angle_gamma   90.08630150
_symmetry_Int_Tables_number   1
_chemical_formula_structural   Dy14Er6Ir7Ru5
_chemical_formula_sum   'Dy14 Er6 Ir7 Ru5'
_cell_volume   746.57260997
_cell_formula_units_Z   1
loop_
 _symmetry_equiv_pos_site_id
 _symmetry_equiv_pos_as_xyz
  1  'x, y, z'
loop_
 _atom_site_type_symbol
 _atom_site_label
 _atom_site_symmetry_multiplicity
 _atom_site_fract_x
 _atom_site_fract_y
 _atom_site_fract_z
 _atom_site_occupancy
  Dy  Dy0  1  0.292835  0.086153  0.377395  1
  Dy  Dy1  1  0.292177  0.913453  0.877524  1
  Dy  Dy2  1  0.707754  0.086423  0.877766  1
  Dy  Dy3  1  0.707625  0.913889  0.376278  1
  Dy  Dy4  1  0.586186  0.793060  0.877443  1
  Dy  Dy5  1  0.587023  0.207072  0.377823  1
  Dy  Dy6  1  0.413507  0.792842  0.377546  1
  Dy  Dy7  1  0.413367  0.206845  0.876617  1
  Dy  Dy8  1  0.206631  0.413903  0.622567  1
  Dy  Dy9  1  0.206859  0.586274  0.122527  1
  Dy  Dy10  1  0.793312  0.412780  0.122248  1
  Dy  Dy11  1  0.793457  0.586635  0.623514  1
  Dy  Dy12  1  0.914105  0.706928  0.122432  1
  Dy  Dy13  1  0.913708  0.292369  0.622095  1
  Er  Er14  1  0.086266  0.707498  0.622173  1
  Er  Er15  1  0.086065  0.292720  0.123168  1
  Er  Er16  1  0.999658  0.000927  0.499745  1
  Er  Er17  1  0.999138  0.000561  0.000313  1
  Er  Er18  1  0.500065  0.500184  0.000538  1
  Er  Er19  1  0.499786  0.499941  0.499397  1
  Ir  Ir20  1  0.847966  0.847102  0.749605  1
  Ir  Ir21  1  0.152549  0.152752  0.750996  1
  Ir  Ir22  1  0.152167  0.847365  0.250878  1
  Ir  Ir23  1  0.651087  0.348867  0.750044  1
  Ir  Ir24  1  0.652290  0.651935  0.249877  1
  Ir  Ir25  1  0.347574  0.347621  0.249988  1
  Ir  Ir26  1  0.347802  0.651761  0.749768  1
  Ru  Ru27  1  0.848606  0.151849  0.249820  1
  Ru  Ru28  1  0.500309  0.000255  0.122161  1
  Ru  Ru29  1  0.499844  0.000117  0.622102  1
  Ru  Ru30  1  0.000268  0.500081  0.877936  1
  Ru  Ru31  1  0.000014  0.499837  0.377717  1
