# generated using pymatgen
data_Ho12Si12Pt3Rh
_symmetry_space_group_name_H-M   'P 1'
_cell_length_a   4.24421400
_cell_length_b   10.62592006
_cell_length_c   12.29458507
_cell_angle_alpha   90.01225828
_cell_angle_beta   90.00000000
_cell_angle_gamma   90.00000000
_symmetry_Int_Tables_number   1
_chemical_formula_structural   Ho12Si12Pt3Rh
_chemical_formula_sum   'Ho12 Si12 Pt3 Rh1'
_cell_volume   554.46952896
_cell_formula_units_Z   1
loop_
 _symmetry_equiv_pos_site_id
 _symmetry_equiv_pos_as_xyz
  1  'x, y, z'
loop_
 _atom_site_type_symbol
 _atom_site_label
 _atom_site_symmetry_multiplicity
 _atom_site_fract_x
 _atom_site_fract_y
 _atom_site_fract_z
 _atom_site_occupancy
  Ho  Ho0  1  0.250000  0.878460  0.020528  1
  Ho  Ho1  1  0.250000  0.620125  0.521861  1
  Ho  Ho2  1  0.750000  0.120314  0.978831  1
  Ho  Ho3  1  0.750000  0.379906  0.478938  1
  Ho  Ho4  1  0.250000  0.919112  0.602669  1
  Ho  Ho5  1  0.250000  0.580814  0.101392  1
  Ho  Ho6  1  0.750000  0.080456  0.398417  1
  Ho  Ho7  1  0.750000  0.419663  0.898322  1
  Ho  Ho8  1  0.250000  0.658655  0.800424  1
  Ho  Ho9  1  0.250000  0.838485  0.301418  1
  Ho  Ho10  1  0.750000  0.339046  0.198122  1
  Ho  Ho11  1  0.750000  0.161884  0.697917  1
  Si  Si12  1  0.250000  0.016438  0.823132  1
  Si  Si13  1  0.250000  0.484906  0.321754  1
  Si  Si14  1  0.750000  0.984277  0.177474  1
  Si  Si15  1  0.750000  0.511332  0.678626  1
  Si  Si16  1  0.250000  0.247858  0.840763  1
  Si  Si17  1  0.250000  0.255277  0.343674  1
  Si  Si18  1  0.750000  0.754352  0.156420  1
  Si  Si19  1  0.750000  0.744384  0.656543  1
  Si  Si20  1  0.250000  0.200242  0.542575  1
  Si  Si21  1  0.250000  0.303171  0.040693  1
  Si  Si22  1  0.750000  0.805178  0.459364  1
  Si  Si23  1  0.750000  0.695835  0.958294  1
  Pt  Pt24  1  0.250000  0.109791  0.182971  1
  Pt  Pt25  1  0.750000  0.609863  0.318855  1
  Pt  Pt26  1  0.750000  0.890314  0.818447  1
  Rh  Rh27  1  0.250000  0.389861  0.681576  1
