# generated using pymatgen
data_Ba6NpIrO12
_symmetry_space_group_name_H-M   'P 1'
_cell_length_a   6.15852857
_cell_length_b   6.63970692
_cell_length_c   8.94392700
_cell_angle_alpha   86.35422215
_cell_angle_beta   89.97540158
_cell_angle_gamma   90.51820065
_symmetry_Int_Tables_number   1
_chemical_formula_structural   Ba6NpIrO12
_chemical_formula_sum   'Ba6 Np1 Ir1 O12'
_cell_volume   364.96930079
_cell_formula_units_Z   1
loop_
 _symmetry_equiv_pos_site_id
 _symmetry_equiv_pos_as_xyz
  1  'x, y, z'
loop_
 _atom_site_type_symbol
 _atom_site_label
 _atom_site_symmetry_multiplicity
 _atom_site_fract_x
 _atom_site_fract_y
 _atom_site_fract_z
 _atom_site_occupancy
  Ba  Ba0  1  0.493939  0.386635  0.962478  1
  Ba  Ba1  1  0.992537  0.987238  0.466402  1
  Ba  Ba2  1  0.999417  0.016878  0.035363  1
  Ba  Ba3  1  0.489759  0.445796  0.472684  1
  Ba  Ba4  1  0.997715  0.506875  0.228884  1
  Ba  Ba5  1  0.485000  0.919638  0.740791  1
  Np  Np6  1  0.990264  0.434830  0.721975  1
  Ir  Ir7  1  0.496711  0.995369  0.245164  1
  O  O8  1  0.445914  0.984660  0.026422  1
  O  O9  1  0.699891  0.587235  0.730197  1
  O  O10  1  0.289074  0.776225  0.283758  1
  O  O11  1  0.271799  0.266926  0.709271  1
  O  O12  1  0.064312  0.465902  0.945771  1
  O  O13  1  0.919799  0.381914  0.503338  1
  O  O14  1  0.820181  0.172148  0.789307  1
  O  O15  1  0.543303  0.025070  0.458334  1
  O  O16  1  0.706332  0.222401  0.199127  1
  O  O17  1  0.161679  0.689704  0.650955  1
  O  O18  1  0.256332  0.196375  0.248850  1
  O  O19  1  0.742042  0.808175  0.241927  1
