# generated using pymatgen
data_ErIrO4
_symmetry_space_group_name_H-M   'P 1'
_cell_length_a   5.31330797
_cell_length_b   7.59567462
_cell_length_c   7.37154886
_cell_angle_alpha   81.06145965
_cell_angle_beta   90.58997428
_cell_angle_gamma   92.09329665
_symmetry_Int_Tables_number   1
_chemical_formula_structural   ErIrO4
_chemical_formula_sum   'Er4 Ir4 O16'
_cell_volume   293.68980664
_cell_formula_units_Z   4
loop_
 _symmetry_equiv_pos_site_id
 _symmetry_equiv_pos_as_xyz
  1  'x, y, z'
loop_
 _atom_site_type_symbol
 _atom_site_label
 _atom_site_symmetry_multiplicity
 _atom_site_fract_x
 _atom_site_fract_y
 _atom_site_fract_z
 _atom_site_occupancy
  Er  Er0  1  0.267942  0.134378  0.613792  1
  Er  Er1  1  0.732058  0.865622  0.386208  1
  Er  Er2  1  0.206549  0.160976  0.109198  1
  Er  Er3  1  0.793451  0.839024  0.890802  1
  Ir  Ir4  1  0.234670  0.660270  0.201412  1
  Ir  Ir5  1  0.765330  0.339730  0.798588  1
  Ir  Ir6  1  0.721845  0.337639  0.302033  1
  Ir  Ir7  1  0.278155  0.662361  0.697967  1
  O  O8  1  0.087493  0.440996  0.688384  1
  O  O9  1  0.912507  0.559004  0.311616  1
  O  O10  1  0.611034  0.326199  0.555350  1
  O  O11  1  0.388966  0.673801  0.444650  1
  O  O12  1  0.870234  0.333828  0.056409  1
  O  O13  1  0.129766  0.666172  0.943591  1
  O  O14  1  0.399092  0.435288  0.195072  1
  O  O15  1  0.600908  0.564712  0.804928  1
  O  O16  1  0.037531  0.888748  0.171843  1
  O  O17  1  0.962469  0.111252  0.828157  1
  O  O18  1  0.507709  0.106897  0.321936  1
  O  O19  1  0.492291  0.893103  0.678064  1
  O  O20  1  0.463155  0.199271  0.878580  1
  O  O21  1  0.536845  0.800729  0.121420  1
  O  O22  1  0.997055  0.175883  0.383249  1
  O  O23  1  0.002945  0.824117  0.616751  1
