# generated using pymatgen
data_Er2Sc2ReB12Ir
_symmetry_space_group_name_H-M   'P 1'
_cell_length_a   3.57023500
_cell_length_b   8.96022148
_cell_length_c   11.35538961
_cell_angle_alpha   90.11542346
_cell_angle_beta   90.00000000
_cell_angle_gamma   90.00000000
_symmetry_Int_Tables_number   1
_chemical_formula_structural   Er2Sc2ReB12Ir
_chemical_formula_sum   'Er4 Sc4 Re2 B24 Ir2'
_cell_volume   363.25927020
_cell_formula_units_Z   2
loop_
 _symmetry_equiv_pos_site_id
 _symmetry_equiv_pos_as_xyz
  1  'x, y, z'
loop_
 _atom_site_type_symbol
 _atom_site_label
 _atom_site_symmetry_multiplicity
 _atom_site_fract_x
 _atom_site_fract_y
 _atom_site_fract_z
 _atom_site_occupancy
  Er  Er0  1  0.500000  0.315597  0.410996  1
  Er  Er1  1  0.500000  0.684403  0.589004  1
  Er  Er2  1  0.500000  0.176962  0.916935  1
  Er  Er3  1  0.500000  0.823038  0.083065  1
  Sc  Sc4  1  0.500000  0.442052  0.124456  1
  Sc  Sc5  1  0.500000  0.557948  0.875544  1
  Sc  Sc6  1  0.500000  0.052155  0.626573  1
  Sc  Sc7  1  0.500000  0.947845  0.373427  1
  Re  Re8  1  0.500000  0.140304  0.182361  1
  Re  Re9  1  0.500000  0.859696  0.817639  1
  B  B10  1  0.000000  0.100308  0.473187  1
  B  B11  1  0.000000  0.899692  0.526813  1
  B  B12  1  0.000000  0.399889  0.972309  1
  B  B13  1  0.000000  0.600111  0.027691  1
  B  B14  1  0.000000  0.128839  0.317118  1
  B  B15  1  0.000000  0.871161  0.682882  1
  B  B16  1  0.000000  0.371166  0.818366  1
  B  B17  1  0.000000  0.628834  0.181634  1
  B  B18  1  0.000000  0.053707  0.067049  1
  B  B19  1  0.000000  0.946293  0.932951  1
  B  B20  1  0.000000  0.445079  0.565849  1
  B  B21  1  0.000000  0.554921  0.434151  1
  B  B22  1  0.000000  0.480952  0.286112  1
  B  B23  1  0.000000  0.519048  0.713888  1
  B  B24  1  0.000000  0.019694  0.785531  1
  B  B25  1  0.000000  0.980306  0.214469  1
  B  B26  1  0.000000  0.252128  0.080614  1
  B  B27  1  0.000000  0.747872  0.919386  1
  B  B28  1  0.000000  0.246400  0.579244  1
  B  B29  1  0.000000  0.753600  0.420756  1
  B  B30  1  0.000000  0.294676  0.234938  1
  B  B31  1  0.000000  0.705324  0.765062  1
  B  B32  1  0.000000  0.206994  0.734718  1
  B  B33  1  0.000000  0.793006  0.265282  1
  Ir  Ir34  1  0.500000  0.360836  0.680179  1
  Ir  Ir35  1  0.500000  0.639164  0.319821  1
