# generated using pymatgen
data_DyY3(Fe2I)2
_symmetry_space_group_name_H-M   'P 1'
_cell_length_a   3.96253200
_cell_length_b   3.96253167
_cell_length_c   17.26688900
_cell_angle_alpha   90.00000000
_cell_angle_beta   90.00000000
_cell_angle_gamma   120.00000271
_symmetry_Int_Tables_number   1
_chemical_formula_structural   DyY3(Fe2I)2
_chemical_formula_sum   'Dy1 Y3 Fe4 I2'
_cell_volume   234.79575795
_cell_formula_units_Z   1
loop_
 _symmetry_equiv_pos_site_id
 _symmetry_equiv_pos_as_xyz
  1  'x, y, z'
loop_
 _atom_site_type_symbol
 _atom_site_label
 _atom_site_symmetry_multiplicity
 _atom_site_fract_x
 _atom_site_fract_y
 _atom_site_fract_z
 _atom_site_occupancy
  Dy  Dy0  1  0.000000  0.000000  0.895578  1
  Y  Y1  1  0.000000  0.000000  0.105087  1
  Y  Y2  1  0.000000  0.000000  0.394677  1
  Y  Y3  1  0.000000  0.000000  0.605451  1
  Fe  Fe4  1  0.333334  0.666667  0.004245  1
  Fe  Fe5  1  0.333334  0.666667  0.495413  1
  Fe  Fe6  1  0.666668  0.333334  0.504618  1
  Fe  Fe7  1  0.666668  0.333334  0.995002  1
  I  I8  1  0.666668  0.333334  0.249978  1
  I  I9  1  0.333334  0.666667  0.749955  1
