# generated using pymatgen
data_Dy5Y4Lu3InCo5
_symmetry_space_group_name_H-M   'P 1'
_cell_length_a   8.24958393
_cell_length_b   8.24273760
_cell_length_c   8.24958207
_cell_angle_alpha   110.74164182
_cell_angle_beta   110.65732144
_cell_angle_gamma   107.07391249
_symmetry_Int_Tables_number   1
_chemical_formula_structural   Dy5Y4Lu3InCo5
_chemical_formula_sum   'Dy5 Y4 Lu3 In1 Co5'
_cell_volume   431.08713766
_cell_formula_units_Z   1
loop_
 _symmetry_equiv_pos_site_id
 _symmetry_equiv_pos_as_xyz
  1  'x, y, z'
loop_
 _atom_site_type_symbol
 _atom_site_label
 _atom_site_symmetry_multiplicity
 _atom_site_fract_x
 _atom_site_fract_y
 _atom_site_fract_z
 _atom_site_occupancy
  Dy  Dy0  1  0.314291  0.008136  0.693845  1
  Dy  Dy1  1  0.599430  0.789857  0.808482  1
  Dy  Dy2  1  0.402057  0.210267  0.193287  1
  Dy  Dy3  1  0.981375  0.789857  0.190427  1
  Dy  Dy4  1  0.016979  0.210267  0.808209  1
  Y  Y5  1  0.810302  0.706920  0.519467  1
  Y  Y6  1  0.187850  0.293140  0.479267  1
  Y  Y7  1  0.187453  0.706920  0.896616  1
  Y  Y8  1  0.813873  0.293140  0.105291  1
  Lu  Lu9  1  0.685261  0.376850  0.691589  1
  Lu  Lu10  1  0.315555  0.623170  0.307615  1
  Lu  Lu11  1  0.684823  0.992748  0.307925  1
  In  In12  1  0.500603  0.501597  0.000994  1
  Co  Co13  1  0.621476  0.999644  0.619399  1
  Co  Co14  1  0.380245  0.999644  0.378169  1
  Co  Co15  1  0.112555  0.612102  0.499548  1
  Co  Co16  1  0.885662  0.386094  0.500432  1
  Co  Co17  1  0.000210  0.999648  0.999438  1
