# generated using pymatgen
data_Pr2Al3ZnCu6
_symmetry_space_group_name_H-M   'P 1'
_cell_length_a   4.20766300
_cell_length_b   5.21560015
_cell_length_c   9.09321145
_cell_angle_alpha   90.02745468
_cell_angle_beta   90.00000000
_cell_angle_gamma   90.00000000
_symmetry_Int_Tables_number   1
_chemical_formula_structural   Pr2Al3ZnCu6
_chemical_formula_sum   'Pr2 Al3 Zn1 Cu6'
_cell_volume   199.55493763
_cell_formula_units_Z   1
loop_
 _symmetry_equiv_pos_site_id
 _symmetry_equiv_pos_as_xyz
  1  'x, y, z'
loop_
 _atom_site_type_symbol
 _atom_site_label
 _atom_site_symmetry_multiplicity
 _atom_site_fract_x
 _atom_site_fract_y
 _atom_site_fract_z
 _atom_site_occupancy
  Pr  Pr0  1  0.000000  0.245061  0.750221  1
  Pr  Pr1  1  0.000000  0.754939  0.249779  1
  Al  Al2  1  0.500000  0.729316  0.746735  1
  Al  Al3  1  0.500000  0.270684  0.253265  1
  Al  Al4  1  0.500000  0.000000  0.000000  1
  Zn  Zn5  1  0.500000  0.000000  0.500000  1
  Cu  Cu6  1  0.000000  0.254271  0.081716  1
  Cu  Cu7  1  0.000000  0.743563  0.581286  1
  Cu  Cu8  1  0.000000  0.745729  0.918284  1
  Cu  Cu9  1  0.000000  0.256437  0.418714  1
  Cu  Cu10  1  0.500000  0.500000  0.500000  1
  Cu  Cu11  1  0.500000  0.500000  0.000000  1
