# generated using pymatgen
data_Tb4HoRu3
_symmetry_space_group_name_H-M   'P 1'
_cell_length_a   10.84256600
_cell_length_b   10.84256600
_cell_length_c   6.37948900
_cell_angle_alpha   90.00000000
_cell_angle_beta   90.00000000
_cell_angle_gamma   90.00000000
_symmetry_Int_Tables_number   1
_chemical_formula_structural   Tb4HoRu3
_chemical_formula_sum   'Tb16 Ho4 Ru12'
_cell_volume   749.98062123
_cell_formula_units_Z   4
loop_
 _symmetry_equiv_pos_site_id
 _symmetry_equiv_pos_as_xyz
  1  'x, y, z'
loop_
 _atom_site_type_symbol
 _atom_site_label
 _atom_site_symmetry_multiplicity
 _atom_site_fract_x
 _atom_site_fract_y
 _atom_site_fract_z
 _atom_site_occupancy
  Tb  Tb0  1  0.291539  0.087157  0.377903  1
  Tb  Tb1  1  0.291539  0.912843  0.877903  1
  Tb  Tb2  1  0.708461  0.087157  0.877903  1
  Tb  Tb3  1  0.708461  0.912843  0.377903  1
  Tb  Tb4  1  0.587157  0.791539  0.877903  1
  Tb  Tb5  1  0.587157  0.208461  0.377903  1
  Tb  Tb6  1  0.412843  0.791539  0.377903  1
  Tb  Tb7  1  0.412843  0.208461  0.877903  1
  Tb  Tb8  1  0.208461  0.412843  0.622097  1
  Tb  Tb9  1  0.208461  0.587157  0.122097  1
  Tb  Tb10  1  0.791539  0.412843  0.122097  1
  Tb  Tb11  1  0.791539  0.587157  0.622097  1
  Tb  Tb12  1  0.912843  0.708461  0.122097  1
  Tb  Tb13  1  0.912843  0.291539  0.622097  1
  Tb  Tb14  1  0.087157  0.708461  0.622097  1
  Tb  Tb15  1  0.087157  0.291539  0.122097  1
  Ho  Ho16  1  0.000000  0.000000  0.500000  1
  Ho  Ho17  1  0.000000  0.000000  0.000000  1
  Ho  Ho18  1  0.500000  0.500000  0.000000  1
  Ho  Ho19  1  0.500000  0.500000  0.500000  1
  Ru  Ru20  1  0.847557  0.152443  0.250000  1
  Ru  Ru21  1  0.847557  0.847557  0.750000  1
  Ru  Ru22  1  0.152443  0.152443  0.750000  1
  Ru  Ru23  1  0.152443  0.847557  0.250000  1
  Ru  Ru24  1  0.652443  0.347557  0.750000  1
  Ru  Ru25  1  0.652443  0.652443  0.250000  1
  Ru  Ru26  1  0.347557  0.347557  0.250000  1
  Ru  Ru27  1  0.347557  0.652443  0.750000  1
  Ru  Ru28  1  0.500000  0.000000  0.122511  1
  Ru  Ru29  1  0.500000  0.000000  0.622511  1
  Ru  Ru30  1  0.000000  0.500000  0.877489  1
  Ru  Ru31  1  0.000000  0.500000  0.377489  1
