# generated using pymatgen
data_Tb3YTc4F28
_symmetry_space_group_name_H-M   'P 1'
_cell_length_a   5.61965223
_cell_length_b   8.95379905
_cell_length_c   12.07425333
_cell_angle_alpha   62.43461289
_cell_angle_beta   90.01965009
_cell_angle_gamma   90.00927670
_symmetry_Int_Tables_number   1
_chemical_formula_structural   Tb3YTc4F28
_chemical_formula_sum   'Tb3 Y1 Tc4 F28'
_cell_volume   538.57674741
_cell_formula_units_Z   1
loop_
 _symmetry_equiv_pos_site_id
 _symmetry_equiv_pos_as_xyz
  1  'x, y, z'
loop_
 _atom_site_type_symbol
 _atom_site_label
 _atom_site_symmetry_multiplicity
 _atom_site_fract_x
 _atom_site_fract_y
 _atom_site_fract_z
 _atom_site_occupancy
  Tb  Tb0  1  0.741354  0.186531  0.735263  1
  Tb  Tb1  1  0.758527  0.186027  0.235294  1
  Tb  Tb2  1  0.241294  0.813567  0.764701  1
  Y  Y3  1  0.258673  0.813432  0.264700  1
  Tc  Tc4  1  0.757792  0.726888  0.043259  1
  Tc  Tc5  1  0.242636  0.273009  0.957040  1
  Tc  Tc6  1  0.257506  0.273434  0.456836  1
  Tc  Tc7  1  0.742250  0.726847  0.542843  1
  F  F8  1  0.946187  0.707048  0.418654  1
  F  F9  1  0.053514  0.292683  0.581261  1
  F  F10  1  0.446638  0.292219  0.081553  1
  F  F11  1  0.553669  0.707593  0.918877  1
  F  F12  1  0.477054  0.729938  0.139040  1
  F  F13  1  0.523556  0.270137  0.861357  1
  F  F14  1  0.976821  0.269953  0.361176  1
  F  F15  1  0.023160  0.730038  0.638537  1
  F  F16  1  0.956064  0.746313  0.171142  1
  F  F17  1  0.044781  0.254150  0.828952  1
  F  F18  1  0.455336  0.254022  0.329034  1
  F  F19  1  0.544750  0.746344  0.670779  1
  F  F20  1  0.771736  0.480395  0.140285  1
  F  F21  1  0.228578  0.519555  0.859906  1
  F  F22  1  0.271417  0.519994  0.359513  1
  F  F23  1  0.728137  0.480468  0.640310  1
  F  F24  1  0.951003  0.278471  0.046331  1
  F  F25  1  0.049208  0.721466  0.953892  1
  F  F26  1  0.450292  0.721361  0.453689  1
  F  F27  1  0.549144  0.278899  0.546130  1
  F  F28  1  0.742316  0.972629  0.446410  1
  F  F29  1  0.257631  0.027755  0.553291  1
  F  F30  1  0.242397  0.027335  0.053057  1
  F  F31  1  0.757754  0.972648  0.946745  1
  F  F32  1  0.581350  0.970531  0.231672  1
  F  F33  1  0.417733  0.029193  0.768461  1
  F  F34  1  0.082099  0.028256  0.268462  1
  F  F35  1  0.917646  0.970870  0.731549  1
