# generated using pymatgen
data_K5ErO4
_symmetry_space_group_name_H-M   'P 1'
_cell_length_a   6.31619600
_cell_length_b   8.26943000
_cell_length_c   8.68963000
_cell_angle_alpha   90.00000000
_cell_angle_beta   90.00000000
_cell_angle_gamma   90.00000000
_symmetry_Int_Tables_number   1
_chemical_formula_structural   K5ErO4
_chemical_formula_sum   'K10 Er2 O8'
_cell_volume   453.87102499
_cell_formula_units_Z   2
loop_
 _symmetry_equiv_pos_site_id
 _symmetry_equiv_pos_as_xyz
  1  'x, y, z'
loop_
 _atom_site_type_symbol
 _atom_site_label
 _atom_site_symmetry_multiplicity
 _atom_site_fract_x
 _atom_site_fract_y
 _atom_site_fract_z
 _atom_site_occupancy
  K  K0  1  0.257410  0.763671  0.810200  1
  K  K1  1  0.257410  0.236329  0.810200  1
  K  K2  1  0.815498  0.500000  0.000000  1
  K  K3  1  0.257410  0.763671  0.189800  1
  K  K4  1  0.257410  0.236329  0.189800  1
  K  K5  1  0.742590  0.736329  0.310200  1
  K  K6  1  0.742590  0.263671  0.310200  1
  K  K7  1  0.184502  0.000000  0.500000  1
  K  K8  1  0.742590  0.736329  0.689800  1
  K  K9  1  0.742590  0.263671  0.689800  1
  Er  Er10  1  0.780626  0.000000  0.000000  1
  Er  Er11  1  0.219374  0.500000  0.500000  1
  O  O12  1  0.964975  0.000000  0.790668  1
  O  O13  1  0.599911  0.780418  0.000000  1
  O  O14  1  0.599911  0.219582  0.000000  1
  O  O15  1  0.964975  0.000000  0.209332  1
  O  O16  1  0.035025  0.500000  0.290668  1
  O  O17  1  0.400089  0.719582  0.500000  1
  O  O18  1  0.400089  0.280418  0.500000  1
  O  O19  1  0.035025  0.500000  0.709332  1
