# generated using pymatgen
data_La10Pr6Cd4FePd3
_symmetry_space_group_name_H-M   'P 1'
_cell_length_a   10.12087676
_cell_length_b   10.12087657
_cell_length_c   10.12087558
_cell_angle_alpha   59.75535285
_cell_angle_beta   59.75535234
_cell_angle_gamma   59.75535828
_symmetry_Int_Tables_number   1
_chemical_formula_structural   La10Pr6Cd4FePd3
_chemical_formula_sum   'La10 Pr6 Cd4 Fe1 Pd3'
_cell_volume   728.98742092
_cell_formula_units_Z   1
loop_
 _symmetry_equiv_pos_site_id
 _symmetry_equiv_pos_as_xyz
  1  'x, y, z'
loop_
 _atom_site_type_symbol
 _atom_site_label
 _atom_site_symmetry_multiplicity
 _atom_site_fract_x
 _atom_site_fract_y
 _atom_site_fract_z
 _atom_site_occupancy
  La  La0  1  0.351164  0.351164  0.351164  1
  La  La1  1  0.342353  0.342353  0.956919  1
  La  La2  1  0.342353  0.956919  0.342353  1
  La  La3  1  0.956919  0.342353  0.342353  1
  La  La4  1  0.822843  0.189540  0.189540  1
  La  La5  1  0.193842  0.805344  0.805344  1
  La  La6  1  0.189540  0.822843  0.189540  1
  La  La7  1  0.805344  0.193842  0.805344  1
  La  La8  1  0.189540  0.189540  0.822843  1
  La  La9  1  0.805344  0.805344  0.193842  1
  Pr  Pr10  1  0.934062  0.565414  0.565414  1
  Pr  Pr11  1  0.561841  0.935125  0.935125  1
  Pr  Pr12  1  0.565414  0.934062  0.565414  1
  Pr  Pr13  1  0.935125  0.561841  0.935125  1
  Pr  Pr14  1  0.565414  0.565414  0.934062  1
  Pr  Pr15  1  0.935125  0.935125  0.561841  1
  Cd  Cd16  1  0.579528  0.579528  0.579528  1
  Cd  Cd17  1  0.580248  0.580248  0.259947  1
  Cd  Cd18  1  0.580248  0.259947  0.580248  1
  Cd  Cd19  1  0.259947  0.580248  0.580248  1
  Fe  Fe20  1  0.141915  0.141915  0.141915  1
  Pd  Pd21  1  0.143720  0.143720  0.574448  1
  Pd  Pd22  1  0.143720  0.574448  0.143720  1
  Pd  Pd23  1  0.574448  0.143720  0.143720  1
