# generated using pymatgen
data_V3Cr3Ge2
_symmetry_space_group_name_H-M   'P 1'
_cell_length_a   4.66529901
_cell_length_b   4.66529901
_cell_length_c   4.66529901
_cell_angle_alpha   90.05326394
_cell_angle_beta   89.94673606
_cell_angle_gamma   90.05326394
_symmetry_Int_Tables_number   1
_chemical_formula_structural   V3Cr3Ge2
_chemical_formula_sum   'V3 Cr3 Ge2'
_cell_volume   101.54017053
_cell_formula_units_Z   1
loop_
 _symmetry_equiv_pos_site_id
 _symmetry_equiv_pos_as_xyz
  1  'x, y, z'
loop_
 _atom_site_type_symbol
 _atom_site_label
 _atom_site_symmetry_multiplicity
 _atom_site_fract_x
 _atom_site_fract_y
 _atom_site_fract_z
 _atom_site_occupancy
  V  V0  1  0.000126  0.500126  0.750000  1
  V  V1  1  0.499874  0.250000  0.000126  1
  V  V2  1  0.750000  0.999874  0.499874  1
  Cr  Cr3  1  0.999553  0.499553  0.250000  1
  Cr  Cr4  1  0.500447  0.750000  0.999553  1
  Cr  Cr5  1  0.250000  0.000447  0.500447  1
  Ge  Ge6  1  0.498934  0.501066  0.498934  1
  Ge  Ge7  1  0.001066  0.998934  0.001066  1
