# generated using pymatgen
data_Ac(SiTc)2
_symmetry_space_group_name_H-M   'P 1'
_cell_length_a   6.07563916
_cell_length_b   6.07563969
_cell_length_c   6.07564003
_cell_angle_alpha   138.68554520
_cell_angle_beta   138.68555331
_cell_angle_gamma   59.85465321
_symmetry_Int_Tables_number   1
_chemical_formula_structural   Ac(SiTc)2
_chemical_formula_sum   'Ac1 Si2 Tc2'
_cell_volume   96.75718292
_cell_formula_units_Z   1
loop_
 _symmetry_equiv_pos_site_id
 _symmetry_equiv_pos_as_xyz
  1  'x, y, z'
loop_
 _atom_site_type_symbol
 _atom_site_label
 _atom_site_symmetry_multiplicity
 _atom_site_fract_x
 _atom_site_fract_y
 _atom_site_fract_z
 _atom_site_occupancy
  Ac  Ac0  1  0.000000  0.000000  0.000000  1
  Si  Si1  1  0.636834  0.636834  0.000000  1
  Si  Si2  1  0.363166  0.363166  0.000000  1
  Tc  Tc3  1  0.250000  0.750000  0.500000  1
  Tc  Tc4  1  0.750000  0.250000  0.500000  1
