# generated using pymatgen
data_Tb3TmLu2(Al3Os)8
_symmetry_space_group_name_H-M   'P 1'
_cell_length_a   8.76591188
_cell_length_b   8.78777588
_cell_length_c   9.62418900
_cell_angle_alpha   90.00000000
_cell_angle_beta   90.00000000
_cell_angle_gamma   119.96910656
_symmetry_Int_Tables_number   1
_chemical_formula_structural   Tb3TmLu2(Al3Os)8
_chemical_formula_sum   'Tb3 Tm1 Lu2 Al24 Os8'
_cell_volume   642.25273290
_cell_formula_units_Z   1
loop_
 _symmetry_equiv_pos_site_id
 _symmetry_equiv_pos_as_xyz
  1  'x, y, z'
loop_
 _atom_site_type_symbol
 _atom_site_label
 _atom_site_symmetry_multiplicity
 _atom_site_fract_x
 _atom_site_fract_y
 _atom_site_fract_z
 _atom_site_occupancy
  Tb  Tb0  1  0.613794  0.806905  0.250000  1
  Tb  Tb1  1  0.386468  0.192969  0.750000  1
  Tb  Tb2  1  0.193314  0.806941  0.250000  1
  Tm  Tm3  1  0.805047  0.194609  0.750000  1
  Lu  Lu4  1  0.196408  0.392534  0.250000  1
  Lu  Lu5  1  0.803803  0.607332  0.750000  1
  Al  Al6  1  0.333281  0.666353  0.019612  1
  Al  Al7  1  0.667000  0.333326  0.979352  1
  Al  Al8  1  0.667000  0.333326  0.520648  1
  Al  Al9  1  0.333281  0.666353  0.480388  1
  Al  Al10  1  0.163062  0.327088  0.575641  1
  Al  Al11  1  0.836219  0.672236  0.424964  1
  Al  Al12  1  0.673149  0.836217  0.576952  1
  Al  Al13  1  0.836219  0.672236  0.075036  1
  Al  Al14  1  0.327493  0.164493  0.423617  1
  Al  Al15  1  0.163062  0.327088  0.924359  1
  Al  Al16  1  0.162886  0.835399  0.576827  1
  Al  Al17  1  0.327493  0.164493  0.076383  1
  Al  Al18  1  0.837258  0.164406  0.424344  1
  Al  Al19  1  0.673149  0.836217  0.923048  1
  Al  Al20  1  0.837258  0.164406  0.075656  1
  Al  Al21  1  0.162886  0.835399  0.923173  1
  Al  Al22  1  0.562874  0.125347  0.250000  1
  Al  Al23  1  0.438573  0.875584  0.750000  1
  Al  Al24  1  0.876384  0.437332  0.250000  1
  Al  Al25  1  0.122637  0.561166  0.750000  1
  Al  Al26  1  0.561252  0.437456  0.250000  1
  Al  Al27  1  0.438821  0.562521  0.750000  1
  Al  Al28  1  0.002474  0.004637  0.250000  1
  Al  Al29  1  0.996517  0.996524  0.750000  1
  Os  Os30  1  0.500682  0.000320  0.999502  1
  Os  Os31  1  0.999675  0.499348  0.999490  1
  Os  Os32  1  0.500682  0.000320  0.500498  1
  Os  Os33  1  0.500115  0.499886  0.999917  1
  Os  Os34  1  0.999675  0.499348  0.500510  1
  Os  Os35  1  0.500115  0.499886  0.500083  1
  Os  Os36  1  0.999996  0.999999  0.999888  1
  Os  Os37  1  0.999996  0.999999  0.500112  1
