# generated using pymatgen
data_Yb4FeCo33
_symmetry_space_group_name_H-M   'P 1'
_cell_length_a   8.28747900
_cell_length_b   8.28747982
_cell_length_c   8.11111500
_cell_angle_alpha   90.00000000
_cell_angle_beta   90.00000000
_cell_angle_gamma   120.00000074
_symmetry_Int_Tables_number   1
_chemical_formula_structural   Yb4FeCo33
_chemical_formula_sum   'Yb4 Fe1 Co33'
_cell_volume   482.45422274
_cell_formula_units_Z   1
loop_
 _symmetry_equiv_pos_site_id
 _symmetry_equiv_pos_as_xyz
  1  'x, y, z'
loop_
 _atom_site_type_symbol
 _atom_site_label
 _atom_site_symmetry_multiplicity
 _atom_site_fract_x
 _atom_site_fract_y
 _atom_site_fract_z
 _atom_site_occupancy
  Yb  Yb0  1  0.000000  0.000000  0.248316  1
  Yb  Yb1  1  0.666667  0.333333  0.750240  1
  Yb  Yb2  1  0.333333  0.666667  0.750584  1
  Yb  Yb3  1  0.333333  0.666667  0.249981  1
  Fe  Fe4  1  0.000000  0.000000  0.606606  1
  Co  Co5  1  0.167610  0.335219  0.478171  1
  Co  Co6  1  0.167610  0.832390  0.478171  1
  Co  Co7  1  0.664781  0.832390  0.478171  1
  Co  Co8  1  0.499670  0.999340  0.520819  1
  Co  Co9  1  0.499670  0.500330  0.520819  1
  Co  Co10  1  0.000660  0.500330  0.520819  1
  Co  Co11  1  0.500228  0.000456  0.977731  1
  Co  Co12  1  0.500228  0.499772  0.977731  1
  Co  Co13  1  0.999544  0.499772  0.977731  1
  Co  Co14  1  0.166786  0.333572  0.022444  1
  Co  Co15  1  0.166786  0.833214  0.022444  1
  Co  Co16  1  0.666428  0.833214  0.022444  1
  Co  Co17  1  0.832169  0.664339  0.500254  1
  Co  Co18  1  0.832169  0.167831  0.500254  1
  Co  Co19  1  0.335661  0.167831  0.500254  1
  Co  Co20  1  0.833247  0.666495  0.999527  1
  Co  Co21  1  0.833247  0.166753  0.999527  1
  Co  Co22  1  0.333505  0.166753  0.999527  1
  Co  Co23  1  0.005229  0.712031  0.750335  1
  Co  Co24  1  0.706801  0.994771  0.750335  1
  Co  Co25  1  0.287969  0.293199  0.750335  1
  Co  Co26  1  0.706801  0.712031  0.750335  1
  Co  Co27  1  0.287969  0.994771  0.750335  1
  Co  Co28  1  0.005229  0.293199  0.750335  1
  Co  Co29  1  0.661700  0.620617  0.249794  1
  Co  Co30  1  0.958916  0.338300  0.249794  1
  Co  Co31  1  0.379383  0.041084  0.249794  1
  Co  Co32  1  0.958916  0.620617  0.249794  1
  Co  Co33  1  0.379383  0.338300  0.249794  1
  Co  Co34  1  0.661700  0.041084  0.249794  1
  Co  Co35  1  0.666667  0.333333  0.393706  1
  Co  Co36  1  0.666667  0.333333  0.105958  1
  Co  Co37  1  0.000000  0.000000  0.897098  1
