# generated using pymatgen
data_YbZrPa2Sb5
_symmetry_space_group_name_H-M   'P 1'
_cell_length_a   9.21512300
_cell_length_b   9.33432605
_cell_length_c   6.29607300
_cell_angle_alpha   90.00000000
_cell_angle_beta   90.00000000
_cell_angle_gamma   119.57844667
_symmetry_Int_Tables_number   1
_chemical_formula_structural   YbZrPa2Sb5
_chemical_formula_sum   'Yb2 Zr2 Pa4 Sb10'
_cell_volume   470.99216094
_cell_formula_units_Z   2
loop_
 _symmetry_equiv_pos_site_id
 _symmetry_equiv_pos_as_xyz
  1  'x, y, z'
loop_
 _atom_site_type_symbol
 _atom_site_label
 _atom_site_symmetry_multiplicity
 _atom_site_fract_x
 _atom_site_fract_y
 _atom_site_fract_z
 _atom_site_occupancy
  Yb  Yb0  1  0.614440  0.000000  0.250000  1
  Yb  Yb1  1  0.385560  0.000000  0.750000  1
  Zr  Zr2  1  0.000000  0.000000  0.000000  1
  Zr  Zr3  1  0.000000  0.000000  0.500000  1
  Pa  Pa4  1  0.009539  0.618972  0.250000  1
  Pa  Pa5  1  0.990461  0.381028  0.750000  1
  Pa  Pa6  1  0.390567  0.381028  0.250000  1
  Pa  Pa7  1  0.609433  0.618972  0.750000  1
  Sb  Sb8  1  0.269039  0.000000  0.250000  1
  Sb  Sb9  1  0.730961  0.000000  0.750000  1
  Sb  Sb10  1  0.002911  0.271745  0.250000  1
  Sb  Sb11  1  0.997089  0.728255  0.750000  1
  Sb  Sb12  1  0.731166  0.728255  0.250000  1
  Sb  Sb13  1  0.268834  0.271745  0.750000  1
  Sb  Sb14  1  0.327146  0.654294  0.000000  1
  Sb  Sb15  1  0.672854  0.345706  0.000000  1
  Sb  Sb16  1  0.672854  0.345706  0.500000  1
  Sb  Sb17  1  0.327146  0.654294  0.500000  1
