# generated using pymatgen
data_ErAl2(Ga2Cu3)2
_symmetry_space_group_name_H-M   'P 1'
_cell_length_a   5.22283669
_cell_length_b   6.57498156
_cell_length_c   6.57498163
_cell_angle_alpha   99.61438495
_cell_angle_beta   113.40169542
_cell_angle_gamma   66.59830268
_symmetry_Int_Tables_number   1
_chemical_formula_structural   ErAl2(Ga2Cu3)2
_chemical_formula_sum   'Er1 Al2 Ga4 Cu6'
_cell_volume   190.15654075
_cell_formula_units_Z   1
loop_
 _symmetry_equiv_pos_site_id
 _symmetry_equiv_pos_as_xyz
  1  'x, y, z'
loop_
 _atom_site_type_symbol
 _atom_site_label
 _atom_site_symmetry_multiplicity
 _atom_site_fract_x
 _atom_site_fract_y
 _atom_site_fract_z
 _atom_site_occupancy
  Er  Er0  1  0.000000  0.000000  0.000000  1
  Al  Al1  1  0.699917  0.800083  0.199917  1
  Al  Al2  1  0.300083  0.199917  0.800083  1
  Ga  Ga3  1  0.651722  0.348278  0.651722  1
  Ga  Ga4  1  0.348278  0.651722  0.348278  1
  Ga  Ga5  1  0.000000  0.346034  0.346034  1
  Ga  Ga6  1  0.000000  0.653966  0.653966  1
  Cu  Cu7  1  0.500000  0.000000  0.500000  1
  Cu  Cu8  1  0.000000  0.000000  0.500000  1
  Cu  Cu9  1  0.500000  0.500000  0.000000  1
  Cu  Cu10  1  0.000000  0.500000  0.000000  1
  Cu  Cu11  1  0.500000  0.775739  0.775739  1
  Cu  Cu12  1  0.500000  0.224261  0.224261  1
