# generated using pymatgen
data_Nd2Tc2Cl
_symmetry_space_group_name_H-M   'P 1'
_cell_length_a   4.11446100
_cell_length_b   4.11445960
_cell_length_c   17.22693300
_cell_angle_alpha   90.00000000
_cell_angle_beta   90.00000000
_cell_angle_gamma   119.99998712
_symmetry_Int_Tables_number   1
_chemical_formula_structural   Nd2Tc2Cl
_chemical_formula_sum   'Nd4 Tc4 Cl2'
_cell_volume   252.55990485
_cell_formula_units_Z   2
loop_
 _symmetry_equiv_pos_site_id
 _symmetry_equiv_pos_as_xyz
  1  'x, y, z'
loop_
 _atom_site_type_symbol
 _atom_site_label
 _atom_site_symmetry_multiplicity
 _atom_site_fract_x
 _atom_site_fract_y
 _atom_site_fract_z
 _atom_site_occupancy
  Nd  Nd0  1  0.000000  0.000000  0.122443  1
  Nd  Nd1  1  0.000000  0.000000  0.377557  1
  Nd  Nd2  1  0.000000  0.000000  0.622443  1
  Nd  Nd3  1  0.000000  0.000000  0.877557  1
  Tc  Tc4  1  0.333334  0.666668  0.016781  1
  Tc  Tc5  1  0.333334  0.666668  0.483219  1
  Tc  Tc6  1  0.666667  0.333332  0.516781  1
  Tc  Tc7  1  0.666667  0.333332  0.983219  1
  Cl  Cl8  1  0.666667  0.333332  0.250000  1
  Cl  Cl9  1  0.333334  0.666668  0.750000  1
