# generated using pymatgen
data_Y20Cd3Ni2Ag2Au
_symmetry_space_group_name_H-M   'P 1'
_cell_length_a   9.63629085
_cell_length_b   9.65316495
_cell_length_c   9.63201700
_cell_angle_alpha   90.00000000
_cell_angle_beta   90.00000000
_cell_angle_gamma   120.04713450
_symmetry_Int_Tables_number   1
_chemical_formula_structural   Y20Cd3Ni2Ag2Au
_chemical_formula_sum   'Y20 Cd3 Ni2 Ag2 Au1'
_cell_volume   775.57005330
_cell_formula_units_Z   1
loop_
 _symmetry_equiv_pos_site_id
 _symmetry_equiv_pos_as_xyz
  1  'x, y, z'
loop_
 _atom_site_type_symbol
 _atom_site_label
 _atom_site_symmetry_multiplicity
 _atom_site_fract_x
 _atom_site_fract_y
 _atom_site_fract_z
 _atom_site_occupancy
  Y  Y0  1  0.005423  0.002759  0.474989  1
  Y  Y1  1  0.005423  0.002759  0.025011  1
  Y  Y2  1  0.538743  0.453454  0.250000  1
  Y  Y3  1  0.538746  0.085128  0.250000  1
  Y  Y4  1  0.912515  0.456301  0.250000  1
  Y  Y5  1  0.456099  0.543818  0.750000  1
  Y  Y6  1  0.456160  0.912267  0.750000  1
  Y  Y7  1  0.088378  0.544164  0.750000  1
  Y  Y8  1  0.209981  0.789789  0.437361  1
  Y  Y9  1  0.210056  0.420407  0.437277  1
  Y  Y10  1  0.579515  0.789733  0.437561  1
  Y  Y11  1  0.790439  0.209051  0.562914  1
  Y  Y12  1  0.790376  0.581282  0.562961  1
  Y  Y13  1  0.418207  0.209095  0.561932  1
  Y  Y14  1  0.790439  0.209051  0.937086  1
  Y  Y15  1  0.790376  0.581282  0.937039  1
  Y  Y16  1  0.418207  0.209095  0.938068  1
  Y  Y17  1  0.209981  0.789789  0.062639  1
  Y  Y18  1  0.210056  0.420407  0.062723  1
  Y  Y19  1  0.579515  0.789733  0.062439  1
  Cd  Cd20  1  0.111049  0.889303  0.750000  1
  Cd  Cd21  1  0.111075  0.221750  0.750000  1
  Cd  Cd22  1  0.778578  0.889251  0.750000  1
  Ni  Ni23  1  0.333599  0.666921  0.250000  1
  Ni  Ni24  1  0.667608  0.333564  0.750000  1
  Ag  Ag25  1  0.872894  0.123222  0.250000  1
  Ag  Ag26  1  0.872758  0.749688  0.250000  1
  Au  Au27  1  0.253807  0.126943  0.250000  1
