# generated using pymatgen
data_EuHoCu2(PH)2
_symmetry_space_group_name_H-M   'P 1'
_cell_length_a   3.86723900
_cell_length_b   3.86723900
_cell_length_c   7.72165600
_cell_angle_alpha   90.00000000
_cell_angle_beta   90.00000000
_cell_angle_gamma   90.00000000
_symmetry_Int_Tables_number   1
_chemical_formula_structural   EuHoCu2(PH)2
_chemical_formula_sum   'Eu1 Ho1 Cu2 P2 H2'
_cell_volume   115.48151574
_cell_formula_units_Z   1
loop_
 _symmetry_equiv_pos_site_id
 _symmetry_equiv_pos_as_xyz
  1  'x, y, z'
loop_
 _atom_site_type_symbol
 _atom_site_label
 _atom_site_symmetry_multiplicity
 _atom_site_fract_x
 _atom_site_fract_y
 _atom_site_fract_z
 _atom_site_occupancy
  Eu  Eu0  1  0.500000  0.000000  0.167464  1
  Ho  Ho1  1  0.000000  0.500000  0.830586  1
  Cu  Cu2  1  0.000000  0.000000  0.506163  1
  Cu  Cu3  1  0.500000  0.500000  0.506163  1
  P  P4  1  0.000000  0.500000  0.325234  1
  P  P5  1  0.500000  0.000000  0.691593  1
  H  H6  1  0.500000  0.500000  0.986398  1
  H  H7  1  0.000000  0.000000  0.986398  1
