# generated using pymatgen
data_Er3TmAl18(Ir2Pt)2
_symmetry_space_group_name_H-M   'P 1'
_cell_length_a   7.56650346
_cell_length_b   7.57007938
_cell_length_c   9.41746139
_cell_angle_alpha   89.94505439
_cell_angle_beta   89.92192018
_cell_angle_gamma   119.62072274
_symmetry_Int_Tables_number   1
_chemical_formula_structural   Er3TmAl18(Ir2Pt)2
_chemical_formula_sum   'Er3 Tm1 Al18 Ir4 Pt2'
_cell_volume   468.92796421
_cell_formula_units_Z   1
loop_
 _symmetry_equiv_pos_site_id
 _symmetry_equiv_pos_as_xyz
  1  'x, y, z'
loop_
 _atom_site_type_symbol
 _atom_site_label
 _atom_site_symmetry_multiplicity
 _atom_site_fract_x
 _atom_site_fract_y
 _atom_site_fract_z
 _atom_site_occupancy
  Er  Er0  1  0.995315  0.671053  0.251396  1
  Er  Er1  1  0.004806  0.328980  0.748562  1
  Er  Er2  1  0.670944  0.995236  0.251411  1
  Tm  Tm3  1  0.328983  0.004825  0.748526  1
  Al  Al4  1  0.127534  0.127531  0.250551  1
  Al  Al5  1  0.872757  0.872471  0.749406  1
  Al  Al6  1  0.000479  0.331661  0.078080  1
  Al  Al7  1  0.999834  0.668717  0.921781  1
  Al  Al8  1  0.000681  0.665318  0.575480  1
  Al  Al9  1  0.335014  0.999584  0.424910  1
  Al  Al10  1  0.999675  0.335093  0.424612  1
  Al  Al11  1  0.664604  0.000332  0.575586  1
  Al  Al12  1  0.667989  0.999547  0.921701  1
  Al  Al13  1  0.331678  0.000375  0.077819  1
  Al  Al14  1  0.332135  0.331830  0.551839  1
  Al  Al15  1  0.667866  0.667849  0.448291  1
  Al  Al16  1  0.669405  0.669338  0.058901  1
  Al  Al17  1  0.330599  0.330342  0.940879  1
  Al  Al18  1  0.340491  0.547503  0.252910  1
  Al  Al19  1  0.659205  0.452203  0.747096  1
  Al  Al20  1  0.547497  0.340562  0.252913  1
  Al  Al21  1  0.452466  0.659593  0.747101  1
  Ir  Ir22  1  0.327810  0.672198  0.499960  1
  Ir  Ir23  1  0.672227  0.327759  0.499958  1
  Ir  Ir24  1  0.999974  0.000033  0.999991  1
  Ir  Ir25  1  0.999951  0.000027  0.499978  1
  Pt  Pt26  1  0.672740  0.327444  0.000160  1
  Pt  Pt27  1  0.327344  0.672593  0.000199  1
