# generated using pymatgen
data_YEr11Tc3Ir
_symmetry_space_group_name_H-M   'P 1'
_cell_length_a   6.25084180
_cell_length_b   7.38453989
_cell_length_c   9.01462200
_cell_angle_alpha   90.00000000
_cell_angle_beta   90.00000000
_cell_angle_gamma   89.85811927
_symmetry_Int_Tables_number   1
_chemical_formula_structural   YEr11Tc3Ir
_chemical_formula_sum   'Y1 Er11 Tc3 Ir1'
_cell_volume   416.10998535
_cell_formula_units_Z   1
loop_
 _symmetry_equiv_pos_site_id
 _symmetry_equiv_pos_as_xyz
  1  'x, y, z'
loop_
 _atom_site_type_symbol
 _atom_site_label
 _atom_site_symmetry_multiplicity
 _atom_site_fract_x
 _atom_site_fract_y
 _atom_site_fract_z
 _atom_site_occupancy
  Y  Y0  1  0.124387  0.461620  0.750000  1
  Er  Er1  1  0.631338  0.042669  0.250000  1
  Er  Er2  1  0.374105  0.958552  0.750000  1
  Er  Er3  1  0.871393  0.540653  0.250000  1
  Er  Er4  1  0.164451  0.176933  0.061907  1
  Er  Er5  1  0.833574  0.824100  0.936657  1
  Er  Er6  1  0.661614  0.323811  0.937441  1
  Er  Er7  1  0.833574  0.824100  0.563343  1
  Er  Er8  1  0.336331  0.675556  0.062340  1
  Er  Er9  1  0.164451  0.176933  0.438093  1
  Er  Er10  1  0.336331  0.675556  0.437660  1
  Er  Er11  1  0.661614  0.323811  0.562559  1
  Tc  Tc12  1  0.460840  0.383496  0.250000  1
  Tc  Tc13  1  0.542127  0.616645  0.750000  1
  Tc  Tc14  1  0.962170  0.111680  0.750000  1
  Ir  Ir15  1  0.041699  0.883882  0.250000  1
