# generated using pymatgen
data_La3Yb(AlPd)4
_symmetry_space_group_name_H-M   'P 1'
_cell_length_a   4.54479400
_cell_length_b   7.17375464
_cell_length_c   7.98151833
_cell_angle_alpha   91.19374504
_cell_angle_beta   90.00000000
_cell_angle_gamma   90.00000000
_symmetry_Int_Tables_number   1
_chemical_formula_structural   La3Yb(AlPd)4
_chemical_formula_sum   'La3 Yb1 Al4 Pd4'
_cell_volume   260.16685614
_cell_formula_units_Z   1
loop_
 _symmetry_equiv_pos_site_id
 _symmetry_equiv_pos_as_xyz
  1  'x, y, z'
loop_
 _atom_site_type_symbol
 _atom_site_label
 _atom_site_symmetry_multiplicity
 _atom_site_fract_x
 _atom_site_fract_y
 _atom_site_fract_z
 _atom_site_occupancy
  La  La0  1  0.250000  0.038833  0.322282  1
  La  La1  1  0.250000  0.533938  0.171804  1
  La  La2  1  0.750000  0.961563  0.679660  1
  Yb  Yb3  1  0.750000  0.465136  0.819794  1
  Al  Al4  1  0.250000  0.141556  0.935416  1
  Al  Al5  1  0.250000  0.635561  0.564650  1
  Al  Al6  1  0.750000  0.858264  0.062228  1
  Al  Al7  1  0.750000  0.363812  0.442125  1
  Pd  Pd8  1  0.250000  0.284429  0.625605  1
  Pd  Pd9  1  0.250000  0.777469  0.883151  1
  Pd  Pd10  1  0.750000  0.718972  0.379106  1
  Pd  Pd11  1  0.750000  0.220466  0.114178  1
