# generated using pymatgen
data_SrZrCr(PO4)3
_symmetry_space_group_name_H-M   'P 1'
_cell_length_a   8.63227692
_cell_length_b   8.63227620
_cell_length_c   9.22524056
_cell_angle_alpha   62.10440435
_cell_angle_beta   117.89559939
_cell_angle_gamma   120.00000435
_symmetry_Int_Tables_number   1
_chemical_formula_structural   SrZrCr(PO4)3
_chemical_formula_sum   'Sr2 Zr2 Cr2 P6 O24'
_cell_volume   500.97801478
_cell_formula_units_Z   2
loop_
 _symmetry_equiv_pos_site_id
 _symmetry_equiv_pos_as_xyz
  1  'x, y, z'
loop_
 _atom_site_type_symbol
 _atom_site_label
 _atom_site_symmetry_multiplicity
 _atom_site_fract_x
 _atom_site_fract_y
 _atom_site_fract_z
 _atom_site_occupancy
  Sr  Sr0  1  0.000000  0.000000  0.000000  1
  Sr  Sr1  1  0.500000  0.500000  0.499999  1
  Zr  Zr2  1  0.351314  0.648686  0.053942  1
  Zr  Zr3  1  0.648687  0.351313  0.946058  1
  Cr  Cr4  1  0.149294  0.850706  0.447880  1
  Cr  Cr5  1  0.850706  0.149294  0.552120  1
  P  P6  1  0.042056  0.240269  0.262169  1
  P  P7  1  0.759730  0.539618  0.262169  1
  P  P8  1  0.460381  0.957944  0.262169  1
  P  P9  1  0.539619  0.042057  0.737833  1
  P  P10  1  0.240268  0.460380  0.737833  1
  P  P11  1  0.957943  0.759729  0.737833  1
  O  O12  1  0.490699  0.112567  0.090068  1
  O  O13  1  0.887433  0.288064  0.090068  1
  O  O14  1  0.711936  0.509301  0.090068  1
  O  O15  1  0.235007  0.395452  0.239673  1
  O  O16  1  0.604550  0.599883  0.239673  1
  O  O17  1  0.400117  0.764994  0.239673  1
  O  O18  1  0.034477  0.050979  0.277098  1
  O  O19  1  0.949021  0.706400  0.277098  1
  O  O20  1  0.293601  0.965522  0.277098  1
  O  O21  1  0.022319  0.246596  0.415269  1
  O  O22  1  0.753406  0.360454  0.415269  1
  O  O23  1  0.639546  0.977681  0.415269  1
  O  O24  1  0.360454  0.022318  0.584732  1
  O  O25  1  0.246597  0.639546  0.584732  1
  O  O26  1  0.977681  0.753404  0.584732  1
  O  O27  1  0.706400  0.034477  0.722902  1
  O  O28  1  0.050979  0.293600  0.722902  1
  O  O29  1  0.965523  0.949020  0.722902  1
  O  O30  1  0.599884  0.235007  0.760327  1
  O  O31  1  0.395449  0.400115  0.760327  1
  O  O32  1  0.764995  0.604552  0.760327  1
  O  O33  1  0.288063  0.490699  0.909931  1
  O  O34  1  0.112566  0.711936  0.909931  1
  O  O35  1  0.509302  0.887435  0.909931  1
