# generated using pymatgen
data_Sm2V3Ni9As7
_symmetry_space_group_name_H-M   'P 1'
_cell_length_a   9.48707900
_cell_length_b   9.48707888
_cell_length_c   3.82699300
_cell_angle_alpha   90.00000000
_cell_angle_beta   90.00000000
_cell_angle_gamma   120.00000389
_symmetry_Int_Tables_number   1
_chemical_formula_structural   Sm2V3Ni9As7
_chemical_formula_sum   'Sm2 V3 Ni9 As7'
_cell_volume   298.30003979
_cell_formula_units_Z   1
loop_
 _symmetry_equiv_pos_site_id
 _symmetry_equiv_pos_as_xyz
  1  'x, y, z'
loop_
 _atom_site_type_symbol
 _atom_site_label
 _atom_site_symmetry_multiplicity
 _atom_site_fract_x
 _atom_site_fract_y
 _atom_site_fract_z
 _atom_site_occupancy
  Sm  Sm0  1  0.333333  0.666667  0.000000  1
  Sm  Sm1  1  0.666667  0.333333  0.500000  1
  V  V2  1  0.214768  0.112674  0.500000  1
  V  V3  1  0.887326  0.102095  0.500000  1
  V  V4  1  0.897905  0.785232  0.500000  1
  Ni  Ni5  1  0.127395  0.279804  0.000000  1
  Ni  Ni6  1  0.720196  0.847592  0.000000  1
  Ni  Ni7  1  0.152408  0.872605  0.000000  1
  Ni  Ni8  1  0.430567  0.371266  0.000000  1
  Ni  Ni9  1  0.628734  0.059300  0.000000  1
  Ni  Ni10  1  0.940700  0.569433  0.000000  1
  Ni  Ni11  1  0.052811  0.432870  0.500000  1
  Ni  Ni12  1  0.567130  0.619941  0.500000  1
  Ni  Ni13  1  0.380059  0.947189  0.500000  1
  As  As14  1  0.292458  0.403851  0.500000  1
  As  As15  1  0.596149  0.888607  0.500000  1
  As  As16  1  0.111393  0.707542  0.500000  1
  As  As17  1  0.407241  0.112868  0.000000  1
  As  As18  1  0.887132  0.294373  0.000000  1
  As  As19  1  0.705627  0.592759  0.000000  1
  As  As20  1  0.000000  0.000000  0.000000  1
