# generated using pymatgen
data_Sc12Si12Os3W
_symmetry_space_group_name_H-M   'P 1'
_cell_length_a   3.95347900
_cell_length_b   10.44869913
_cell_length_c   11.76828082
_cell_angle_alpha   89.83649563
_cell_angle_beta   90.00000000
_cell_angle_gamma   90.00000000
_symmetry_Int_Tables_number   1
_chemical_formula_structural   Sc12Si12Os3W
_chemical_formula_sum   'Sc12 Si12 Os3 W1'
_cell_volume   486.13055046
_cell_formula_units_Z   1
loop_
 _symmetry_equiv_pos_site_id
 _symmetry_equiv_pos_as_xyz
  1  'x, y, z'
loop_
 _atom_site_type_symbol
 _atom_site_label
 _atom_site_symmetry_multiplicity
 _atom_site_fract_x
 _atom_site_fract_y
 _atom_site_fract_z
 _atom_site_occupancy
  Sc  Sc0  1  0.250000  0.876747  0.019292  1
  Sc  Sc1  1  0.250000  0.621680  0.516174  1
  Sc  Sc2  1  0.750000  0.124781  0.982478  1
  Sc  Sc3  1  0.750000  0.376472  0.480975  1
  Sc  Sc4  1  0.250000  0.921875  0.607265  1
  Sc  Sc5  1  0.250000  0.576918  0.107090  1
  Sc  Sc6  1  0.750000  0.078436  0.393875  1
  Sc  Sc7  1  0.750000  0.422568  0.896066  1
  Sc  Sc8  1  0.250000  0.656545  0.798616  1
  Sc  Sc9  1  0.250000  0.841269  0.297801  1
  Sc  Sc10  1  0.750000  0.341046  0.202134  1
  Sc  Sc11  1  0.750000  0.164121  0.701111  1
  Si  Si12  1  0.250000  0.027786  0.822420  1
  Si  Si13  1  0.250000  0.482932  0.321408  1
  Si  Si14  1  0.750000  0.983950  0.177747  1
  Si  Si15  1  0.750000  0.514467  0.677447  1
  Si  Si16  1  0.250000  0.256298  0.843815  1
  Si  Si17  1  0.250000  0.249244  0.342663  1
  Si  Si18  1  0.750000  0.748021  0.157939  1
  Si  Si19  1  0.750000  0.747185  0.651910  1
  Si  Si20  1  0.250000  0.194107  0.543918  1
  Si  Si21  1  0.250000  0.305924  0.046303  1
  Si  Si22  1  0.750000  0.804474  0.453608  1
  Si  Si23  1  0.750000  0.687878  0.958730  1
  Os  Os24  1  0.250000  0.387777  0.674682  1
  Os  Os25  1  0.250000  0.111635  0.178079  1
  Os  Os26  1  0.750000  0.610398  0.323470  1
  W  W27  1  0.750000  0.885467  0.822984  1
