# generated using pymatgen
data_YHo2Tm(Co5As3)4
_symmetry_space_group_name_H-M   'P 1'
_cell_length_a   3.78244900
_cell_length_b   12.17953947
_cell_length_c   10.67074187
_cell_angle_alpha   90.00728211
_cell_angle_beta   90.00000000
_cell_angle_gamma   90.00000000
_symmetry_Int_Tables_number   1
_chemical_formula_structural   YHo2Tm(Co5As3)4
_chemical_formula_sum   'Y1 Ho2 Tm1 Co20 As12'
_cell_volume   491.58492797
_cell_formula_units_Z   1
loop_
 _symmetry_equiv_pos_site_id
 _symmetry_equiv_pos_as_xyz
  1  'x, y, z'
loop_
 _atom_site_type_symbol
 _atom_site_label
 _atom_site_symmetry_multiplicity
 _atom_site_fract_x
 _atom_site_fract_y
 _atom_site_fract_z
 _atom_site_occupancy
  Y  Y0  1  0.750000  0.202115  0.418016  1
  Ho  Ho1  1  0.750000  0.701581  0.081860  1
  Ho  Ho2  1  0.250000  0.298343  0.918367  1
  Tm  Tm3  1  0.250000  0.798782  0.581252  1
  Co  Co4  1  0.750000  0.697551  0.384778  1
  Co  Co5  1  0.250000  0.303416  0.616043  1
  Co  Co6  1  0.250000  0.802697  0.883888  1
  Co  Co7  1  0.750000  0.196861  0.115388  1
  Co  Co8  1  0.750000  0.990691  0.212050  1
  Co  Co9  1  0.250000  0.008222  0.787771  1
  Co  Co10  1  0.250000  0.508774  0.712372  1
  Co  Co11  1  0.750000  0.491585  0.287809  1
  Co  Co12  1  0.750000  0.677709  0.784113  1
  Co  Co13  1  0.250000  0.322305  0.215874  1
  Co  Co14  1  0.250000  0.822095  0.284137  1
  Co  Co15  1  0.750000  0.177666  0.715777  1
  Co  Co16  1  0.750000  0.931786  0.968897  1
  Co  Co17  1  0.250000  0.067609  0.030127  1
  Co  Co18  1  0.250000  0.569089  0.470003  1
  Co  Co19  1  0.750000  0.433250  0.530948  1
  Co  Co20  1  0.750000  0.986815  0.593102  1
  Co  Co21  1  0.250000  0.011199  0.407307  1
  Co  Co22  1  0.250000  0.512077  0.093024  1
  Co  Co23  1  0.750000  0.487811  0.907251  1
  As  As24  1  0.750000  0.615352  0.585042  1
  As  As25  1  0.250000  0.386972  0.415254  1
  As  As26  1  0.250000  0.885602  0.084623  1
  As  As27  1  0.750000  0.113991  0.914904  1
  As  As28  1  0.750000  0.890180  0.399949  1
  As  As29  1  0.250000  0.109250  0.600821  1
  As  As30  1  0.250000  0.609372  0.899732  1
  As  As31  1  0.750000  0.390399  0.100624  1
  As  As32  1  0.750000  0.869601  0.768290  1
  As  As33  1  0.250000  0.129206  0.230515  1
  As  As34  1  0.250000  0.629712  0.269062  1
  As  As35  1  0.750000  0.370333  0.731031  1
