# generated using pymatgen
data_Ag2Sn3RuSe8
_symmetry_space_group_name_H-M   'P 1'
_cell_length_a   7.93688834
_cell_length_b   7.93688852
_cell_length_c   7.93688859
_cell_angle_alpha   60.50778912
_cell_angle_beta   60.50779121
_cell_angle_gamma   60.50779842
_symmetry_Int_Tables_number   1
_chemical_formula_structural   Ag2Sn3RuSe8
_chemical_formula_sum   'Ag2 Sn3 Ru1 Se8'
_cell_volume   357.59480174
_cell_formula_units_Z   1
loop_
 _symmetry_equiv_pos_site_id
 _symmetry_equiv_pos_as_xyz
  1  'x, y, z'
loop_
 _atom_site_type_symbol
 _atom_site_label
 _atom_site_symmetry_multiplicity
 _atom_site_fract_x
 _atom_site_fract_y
 _atom_site_fract_z
 _atom_site_occupancy
  Ag  Ag0  1  0.384690  0.384690  0.384690  1
  Ag  Ag1  1  0.615310  0.615310  0.615310  1
  Sn  Sn2  1  0.000000  0.500000  0.000000  1
  Sn  Sn3  1  0.000000  0.000000  0.500000  1
  Sn  Sn4  1  0.500000  0.000000  0.000000  1
  Ru  Ru5  1  0.000000  0.000000  0.000000  1
  Se  Se6  1  0.775399  0.211673  0.775399  1
  Se  Se7  1  0.752272  0.752272  0.752272  1
  Se  Se8  1  0.788327  0.224601  0.224601  1
  Se  Se9  1  0.224601  0.224601  0.788327  1
  Se  Se10  1  0.224601  0.788327  0.224601  1
  Se  Se11  1  0.247728  0.247728  0.247728  1
  Se  Se12  1  0.211673  0.775399  0.775399  1
  Se  Se13  1  0.775399  0.775399  0.211673  1
