# generated using pymatgen
data_Pr14PdPt5
_symmetry_space_group_name_H-M   'P 1'
_cell_length_a   6.53907500
_cell_length_b   10.30630577
_cell_length_c   10.30630494
_cell_angle_alpha   120.10937629
_cell_angle_beta   89.99866378
_cell_angle_gamma   90.00133299
_symmetry_Int_Tables_number   1
_chemical_formula_structural   Pr14PdPt5
_chemical_formula_sum   'Pr14 Pd1 Pt5'
_cell_volume   600.85993803
_cell_formula_units_Z   1
loop_
 _symmetry_equiv_pos_site_id
 _symmetry_equiv_pos_as_xyz
  1  'x, y, z'
loop_
 _atom_site_type_symbol
 _atom_site_label
 _atom_site_symmetry_multiplicity
 _atom_site_fract_x
 _atom_site_fract_y
 _atom_site_fract_z
 _atom_site_occupancy
  Pr  Pr0  1  0.458234  0.333185  0.666815  1
  Pr  Pr1  1  0.956785  0.665730  0.334270  1
  Pr  Pr2  1  0.245664  0.127353  0.872647  1
  Pr  Pr3  1  0.245734  0.744706  0.870472  1
  Pr  Pr4  1  0.245734  0.129528  0.255294  1
  Pr  Pr5  1  0.742718  0.873271  0.126729  1
  Pr  Pr6  1  0.745248  0.254527  0.127183  1
  Pr  Pr7  1  0.745248  0.872817  0.745473  1
  Pr  Pr8  1  0.441894  0.537968  0.462032  1
  Pr  Pr9  1  0.443307  0.924351  0.463255  1
  Pr  Pr10  1  0.443307  0.536745  0.075649  1
  Pr  Pr11  1  0.941731  0.462106  0.537894  1
  Pr  Pr12  1  0.941981  0.075707  0.538147  1
  Pr  Pr13  1  0.941981  0.461853  0.924293  1
  Pd  Pd14  1  0.191251  0.811451  0.188549  1
  Pt  Pt15  1  0.191120  0.377404  0.188668  1
  Pt  Pt16  1  0.191120  0.811332  0.622596  1
  Pt  Pt17  1  0.690967  0.188659  0.811341  1
  Pt  Pt18  1  0.690987  0.623007  0.811699  1
  Pt  Pt19  1  0.690987  0.188301  0.376993  1
