# generated using pymatgen
data_LiDy2Co6(NiP2)3
_symmetry_space_group_name_H-M   'P 1'
_cell_length_a   3.68036200
_cell_length_b   10.24013800
_cell_length_c   11.88100800
_cell_angle_alpha   90.00000000
_cell_angle_beta   90.00000000
_cell_angle_gamma   90.00000000
_symmetry_Int_Tables_number   1
_chemical_formula_structural   LiDy2Co6(NiP2)3
_chemical_formula_sum   'Li2 Dy4 Co12 Ni6 P12'
_cell_volume   447.76447638
_cell_formula_units_Z   2
loop_
 _symmetry_equiv_pos_site_id
 _symmetry_equiv_pos_as_xyz
  1  'x, y, z'
loop_
 _atom_site_type_symbol
 _atom_site_label
 _atom_site_symmetry_multiplicity
 _atom_site_fract_x
 _atom_site_fract_y
 _atom_site_fract_z
 _atom_site_occupancy
  Li  Li0  1  0.250000  0.703651  0.991114  1
  Li  Li1  1  0.250000  0.796349  0.491114  1
  Dy  Dy2  1  0.250000  0.580800  0.704043  1
  Dy  Dy3  1  0.250000  0.919200  0.204043  1
  Dy  Dy4  1  0.750000  0.418576  0.295282  1
  Dy  Dy5  1  0.750000  0.081424  0.795282  1
  Co  Co6  1  0.250000  0.222269  0.175489  1
  Co  Co7  1  0.250000  0.277731  0.675489  1
  Co  Co8  1  0.750000  0.781510  0.826280  1
  Co  Co9  1  0.750000  0.718490  0.326280  1
  Co  Co10  1  0.250000  0.880977  0.697369  1
  Co  Co11  1  0.250000  0.619023  0.197369  1
  Co  Co12  1  0.750000  0.120013  0.302099  1
  Co  Co13  1  0.750000  0.379987  0.802099  1
  Co  Co14  1  0.250000  0.465878  0.932168  1
  Co  Co15  1  0.250000  0.034122  0.432168  1
  Co  Co16  1  0.750000  0.531898  0.065732  1
  Co  Co17  1  0.750000  0.968102  0.565732  1
  Ni  Ni18  1  0.750000  0.288446  0.010457  1
  Ni  Ni19  1  0.750000  0.211554  0.510457  1
  Ni  Ni20  1  0.250000  0.406721  0.485129  1
  Ni  Ni21  1  0.250000  0.093279  0.985129  1
  Ni  Ni22  1  0.750000  0.591185  0.514459  1
  Ni  Ni23  1  0.750000  0.908815  0.014459  1
  P  P24  1  0.250000  0.421322  0.112535  1
  P  P25  1  0.250000  0.078678  0.612535  1
  P  P26  1  0.750000  0.579081  0.885200  1
  P  P27  1  0.750000  0.920919  0.385200  1
  P  P28  1  0.250000  0.270684  0.863900  1
  P  P29  1  0.250000  0.229316  0.363900  1
  P  P30  1  0.750000  0.726196  0.140102  1
  P  P31  1  0.750000  0.773804  0.640102  1
  P  P32  1  0.250000  0.603073  0.386643  1
  P  P33  1  0.250000  0.896927  0.886643  1
  P  P34  1  0.750000  0.393719  0.611998  1
  P  P35  1  0.750000  0.106281  0.111998  1
