# generated using pymatgen
data_Er5LuAl18
_symmetry_space_group_name_H-M   'P 1'
_cell_length_a   14.47799654
_cell_length_b   14.47799693
_cell_length_c   14.47799812
_cell_angle_alpha   24.43263624
_cell_angle_beta   24.43263469
_cell_angle_gamma   24.43263550
_symmetry_Int_Tables_number   1
_chemical_formula_structural   Er5LuAl18
_chemical_formula_sum   'Er5 Lu1 Al18'
_cell_volume   456.45009760
_cell_formula_units_Z   1
loop_
 _symmetry_equiv_pos_site_id
 _symmetry_equiv_pos_as_xyz
  1  'x, y, z'
loop_
 _atom_site_type_symbol
 _atom_site_label
 _atom_site_symmetry_multiplicity
 _atom_site_fract_x
 _atom_site_fract_y
 _atom_site_fract_z
 _atom_site_occupancy
  Er  Er0  1  0.890853  0.890853  0.890853  1
  Er  Er1  1  0.390731  0.390731  0.390731  1
  Er  Er2  1  0.999757  0.999757  0.999757  1
  Er  Er3  1  0.500156  0.500156  0.500156  1
  Er  Er4  1  0.609275  0.609275  0.609275  1
  Lu  Lu5  1  0.109237  0.109237  0.109237  1
  Al  Al6  1  0.921510  0.372183  0.372183  1
  Al  Al7  1  0.421107  0.871795  0.871795  1
  Al  Al8  1  0.372183  0.372183  0.921510  1
  Al  Al9  1  0.871795  0.871795  0.421107  1
  Al  Al10  1  0.372183  0.921510  0.372183  1
  Al  Al11  1  0.871795  0.421107  0.871795  1
  Al  Al12  1  0.578549  0.128150  0.128150  1
  Al  Al13  1  0.077523  0.628616  0.628616  1
  Al  Al14  1  0.128150  0.128150  0.578549  1
  Al  Al15  1  0.628616  0.628616  0.077523  1
  Al  Al16  1  0.128150  0.578549  0.128150  1
  Al  Al17  1  0.628616  0.077523  0.628616  1
  Al  Al18  1  0.499742  0.499742  0.000027  1
  Al  Al19  1  0.000775  0.000775  0.498752  1
  Al  Al20  1  0.499742  0.000027  0.499742  1
  Al  Al21  1  0.000775  0.498752  0.000775  1
  Al  Al22  1  0.000027  0.499742  0.499742  1
  Al  Al23  1  0.498752  0.000775  0.000775  1
