# generated using pymatgen
data_Y3Al12ReRh3
_symmetry_space_group_name_H-M   'P 1'
_cell_length_a   8.84201300
_cell_length_b   8.84201336
_cell_length_c   9.56638900
_cell_angle_alpha   90.00000000
_cell_angle_beta   90.00000000
_cell_angle_gamma   120.00000241
_symmetry_Int_Tables_number   1
_chemical_formula_structural   Y3Al12ReRh3
_chemical_formula_sum   'Y6 Al24 Re2 Rh6'
_cell_volume   647.71055374
_cell_formula_units_Z   2
loop_
 _symmetry_equiv_pos_site_id
 _symmetry_equiv_pos_as_xyz
  1  'x, y, z'
loop_
 _atom_site_type_symbol
 _atom_site_label
 _atom_site_symmetry_multiplicity
 _atom_site_fract_x
 _atom_site_fract_y
 _atom_site_fract_z
 _atom_site_occupancy
  Y  Y0  1  0.382569  0.191284  0.250000  1
  Y  Y1  1  0.808716  0.191284  0.250000  1
  Y  Y2  1  0.808716  0.617431  0.250000  1
  Y  Y3  1  0.617431  0.808716  0.750000  1
  Y  Y4  1  0.191284  0.808716  0.750000  1
  Y  Y5  1  0.191284  0.382569  0.750000  1
  Al  Al6  1  0.437437  0.874875  0.250000  1
  Al  Al7  1  0.125125  0.562563  0.250000  1
  Al  Al8  1  0.437437  0.562563  0.250000  1
  Al  Al9  1  0.562563  0.125125  0.750000  1
  Al  Al10  1  0.874875  0.437437  0.750000  1
  Al  Al11  1  0.562563  0.437437  0.750000  1
  Al  Al12  1  0.163715  0.836285  0.424564  1
  Al  Al13  1  0.163715  0.327433  0.424564  1
  Al  Al14  1  0.672567  0.836285  0.424564  1
  Al  Al15  1  0.836285  0.163715  0.575436  1
  Al  Al16  1  0.836285  0.672567  0.575436  1
  Al  Al17  1  0.327433  0.163715  0.575436  1
  Al  Al18  1  0.836285  0.163715  0.924564  1
  Al  Al19  1  0.836285  0.672567  0.924564  1
  Al  Al20  1  0.327433  0.163715  0.924564  1
  Al  Al21  1  0.163715  0.836285  0.075436  1
  Al  Al22  1  0.163715  0.327433  0.075436  1
  Al  Al23  1  0.672567  0.836285  0.075436  1
  Al  Al24  1  0.333333  0.666667  0.529125  1
  Al  Al25  1  0.666667  0.333333  0.470875  1
  Al  Al26  1  0.666667  0.333333  0.029125  1
  Al  Al27  1  0.333333  0.666667  0.970875  1
  Al  Al28  1  0.000000  0.000000  0.250000  1
  Al  Al29  1  0.000000  0.000000  0.750000  1
  Re  Re30  1  0.000000  0.000000  0.500000  1
  Re  Re31  1  0.000000  0.000000  0.000000  1
  Rh  Rh32  1  0.500000  0.000000  0.500000  1
  Rh  Rh33  1  0.000000  0.500000  0.500000  1
  Rh  Rh34  1  0.500000  0.500000  0.500000  1
  Rh  Rh35  1  0.500000  0.000000  0.000000  1
  Rh  Rh36  1  0.000000  0.500000  0.000000  1
  Rh  Rh37  1  0.500000  0.500000  0.000000  1
