# generated using pymatgen
data_Th3GaSn2Ir3
_symmetry_space_group_name_H-M   'P 1'
_cell_length_a   7.51758809
_cell_length_b   7.48011162
_cell_length_c   4.10614200
_cell_angle_alpha   90.00000000
_cell_angle_beta   90.00000000
_cell_angle_gamma   119.83523970
_symmetry_Int_Tables_number   1
_chemical_formula_structural   Th3GaSn2Ir3
_chemical_formula_sum   'Th3 Ga1 Sn2 Ir3'
_cell_volume   200.29487593
_cell_formula_units_Z   1
loop_
 _symmetry_equiv_pos_site_id
 _symmetry_equiv_pos_as_xyz
  1  'x, y, z'
loop_
 _atom_site_type_symbol
 _atom_site_label
 _atom_site_symmetry_multiplicity
 _atom_site_fract_x
 _atom_site_fract_y
 _atom_site_fract_z
 _atom_site_occupancy
  Th  Th0  1  0.404451  0.412193  0.500000  1
  Th  Th1  1  0.595549  0.007742  0.500000  1
  Th  Th2  1  0.000000  0.574009  0.500000  1
  Ga  Ga3  1  0.000000  0.246480  0.000000  1
  Sn  Sn4  1  0.753359  0.754140  0.000000  1
  Sn  Sn5  1  0.246641  0.000781  0.000000  1
  Ir  Ir6  1  0.672868  0.332372  0.000000  1
  Ir  Ir7  1  0.327132  0.659504  0.000000  1
  Ir  Ir8  1  0.000000  0.012778  0.500000  1
