# generated using pymatgen
data_MnSe8Cl3
_symmetry_space_group_name_H-M   'P 1'
_cell_length_a   9.31467173
_cell_length_b   10.31206166
_cell_length_c   11.72697118
_cell_angle_alpha   82.27884106
_cell_angle_beta   122.73212990
_cell_angle_gamma   104.83049707
_symmetry_Int_Tables_number   1
_chemical_formula_structural   MnSe8Cl3
_chemical_formula_sum   'Mn2 Se16 Cl6'
_cell_volume   915.97321652
_cell_formula_units_Z   2
loop_
 _symmetry_equiv_pos_site_id
 _symmetry_equiv_pos_as_xyz
  1  'x, y, z'
loop_
 _atom_site_type_symbol
 _atom_site_label
 _atom_site_symmetry_multiplicity
 _atom_site_fract_x
 _atom_site_fract_y
 _atom_site_fract_z
 _atom_site_occupancy
  Mn  Mn0  1  0.820398  0.008874  0.838239  1
  Mn  Mn1  1  0.179602  0.991126  0.161761  1
  Se  Se2  1  0.864173  0.489372  0.825720  1
  Se  Se3  1  0.135827  0.510628  0.174280  1
  Se  Se4  1  0.664141  0.367906  0.624313  1
  Se  Se5  1  0.335859  0.632094  0.375687  1
  Se  Se6  1  0.729277  0.157882  0.620823  1
  Se  Se7  1  0.270723  0.842118  0.379177  1
  Se  Se8  1  0.918177  0.192734  0.533610  1
  Se  Se9  1  0.081823  0.807266  0.466390  1
  Se  Se10  1  0.928676  0.345786  0.202290  1
  Se  Se11  1  0.071324  0.654214  0.797710  1
  Se  Se12  1  0.676705  0.432546  0.111813  1
  Se  Se13  1  0.323295  0.567454  0.888187  1
  Se  Se14  1  0.688853  0.517869  0.294362  1
  Se  Se15  1  0.311147  0.482131  0.705638  1
  Se  Se16  1  0.785572  0.753230  0.299694  1
  Se  Se17  1  0.214428  0.246770  0.700306  1
  Cl  Cl18  1  0.635769  0.087364  0.857644  1
  Cl  Cl19  1  0.364231  0.912636  0.142356  1
  Cl  Cl20  1  0.879362  0.857248  0.014697  1
  Cl  Cl21  1  0.120638  0.142752  0.985303  1
  Cl  Cl22  1  0.814395  0.873824  0.701671  1
  Cl  Cl23  1  0.185605  0.126176  0.298329  1
