# generated using pymatgen
data_Tb9HoRu4
_symmetry_space_group_name_H-M   'P 1'
_cell_length_a   6.40464094
_cell_length_b   7.28543583
_cell_length_c   8.54250679
_cell_angle_alpha   96.56097456
_cell_angle_beta   112.01621535
_cell_angle_gamma   89.99999726
_symmetry_Int_Tables_number   1
_chemical_formula_structural   Tb9HoRu4
_chemical_formula_sum   'Tb9 Ho1 Ru4'
_cell_volume   366.71446992
_cell_formula_units_Z   1
loop_
 _symmetry_equiv_pos_site_id
 _symmetry_equiv_pos_as_xyz
  1  'x, y, z'
loop_
 _atom_site_type_symbol
 _atom_site_label
 _atom_site_symmetry_multiplicity
 _atom_site_fract_x
 _atom_site_fract_y
 _atom_site_fract_z
 _atom_site_occupancy
  Tb  Tb0  1  0.978848  0.915775  0.186271  1
  Tb  Tb1  1  0.792578  0.584225  0.813729  1
  Tb  Tb2  1  0.020896  0.085096  0.813811  1
  Tb  Tb3  1  0.207086  0.414904  0.186189  1
  Tb  Tb4  1  0.640468  0.814668  0.433674  1
  Tb  Tb5  1  0.206794  0.685332  0.566326  1
  Tb  Tb6  1  0.359951  0.185656  0.566768  1
  Tb  Tb7  1  0.793183  0.314344  0.433232  1
  Tb  Tb8  1  0.421727  0.750000  0.000000  1
  Ho  Ho9  1  0.577247  0.250000  0.000000  1
  Ru  Ru10  1  0.824269  0.575027  0.220126  1
  Ru  Ru11  1  0.604144  0.924973  0.779874  1
  Ru  Ru12  1  0.176214  0.424040  0.779619  1
  Ru  Ru13  1  0.396595  0.075960  0.220381  1
