# generated using pymatgen
data_Sr3TaAl3(SiO7)2
_symmetry_space_group_name_H-M   'P 1'
_cell_length_a   8.31573000
_cell_length_b   8.31573099
_cell_length_c   5.05804500
_cell_angle_alpha   90.00000000
_cell_angle_beta   90.00000000
_cell_angle_gamma   120.00000401
_symmetry_Int_Tables_number   1
_chemical_formula_structural   Sr3TaAl3(SiO7)2
_chemical_formula_sum   'Sr3 Ta1 Al3 Si2 O14'
_cell_volume   302.91035137
_cell_formula_units_Z   1
loop_
 _symmetry_equiv_pos_site_id
 _symmetry_equiv_pos_as_xyz
  1  'x, y, z'
loop_
 _atom_site_type_symbol
 _atom_site_label
 _atom_site_symmetry_multiplicity
 _atom_site_fract_x
 _atom_site_fract_y
 _atom_site_fract_z
 _atom_site_occupancy
  Sr  Sr0  1  0.424197  0.000000  0.000000  1
  Sr  Sr1  1  0.575803  0.575803  0.000000  1
  Sr  Sr2  1  0.000000  0.424197  0.000000  1
  Ta  Ta3  1  0.000000  0.000000  0.000000  1
  Al  Al4  1  0.741682  0.000000  0.500000  1
  Al  Al5  1  0.258318  0.258318  0.500000  1
  Al  Al6  1  0.000000  0.741682  0.500000  1
  Si  Si7  1  0.666667  0.333333  0.528603  1
  Si  Si8  1  0.333333  0.666667  0.471397  1
  O  O9  1  0.666667  0.333333  0.209888  1
  O  O10  1  0.333333  0.666667  0.790112  1
  O  O11  1  0.164538  0.693063  0.341095  1
  O  O12  1  0.528525  0.835462  0.341095  1
  O  O13  1  0.306937  0.471475  0.341095  1
  O  O14  1  0.835462  0.528525  0.658905  1
  O  O15  1  0.693063  0.164538  0.658905  1
  O  O16  1  0.471475  0.306937  0.658905  1
  O  O17  1  0.119106  0.896369  0.763837  1
  O  O18  1  0.777262  0.880894  0.763837  1
  O  O19  1  0.103631  0.222738  0.763837  1
  O  O20  1  0.880894  0.777262  0.236163  1
  O  O21  1  0.896369  0.119106  0.236163  1
  O  O22  1  0.222738  0.103631  0.236163  1
