# generated using pymatgen
data_Tb18SmYSn16
_symmetry_space_group_name_H-M   'P 1'
_cell_length_a   8.07927439
_cell_length_b   8.22196640
_cell_length_c   15.54448100
_cell_angle_alpha   90.00721968
_cell_angle_beta   89.87801120
_cell_angle_gamma   89.94939145
_symmetry_Int_Tables_number   1
_chemical_formula_structural   Tb18SmYSn16
_chemical_formula_sum   'Tb18 Sm1 Y1 Sn16'
_cell_volume   1032.57861090
_cell_formula_units_Z   1
loop_
 _symmetry_equiv_pos_site_id
 _symmetry_equiv_pos_as_xyz
  1  'x, y, z'
loop_
 _atom_site_type_symbol
 _atom_site_label
 _atom_site_symmetry_multiplicity
 _atom_site_fract_x
 _atom_site_fract_y
 _atom_site_fract_z
 _atom_site_occupancy
  Tb  Tb0  1  0.366481  0.836323  0.877756  1
  Tb  Tb1  1  0.867128  0.663753  0.621639  1
  Tb  Tb2  1  0.632958  0.163346  0.377988  1
  Tb  Tb3  1  0.133798  0.336764  0.122436  1
  Tb  Tb4  1  0.633863  0.163492  0.122369  1
  Tb  Tb5  1  0.132871  0.336523  0.377914  1
  Tb  Tb6  1  0.367114  0.836377  0.621748  1
  Tb  Tb7  1  0.866645  0.663372  0.877825  1
  Tb  Tb8  1  0.520097  0.322179  0.902531  1
  Tb  Tb9  1  0.020748  0.178448  0.597797  1
  Tb  Tb10  1  0.479734  0.678325  0.402445  1
  Tb  Tb11  1  0.980292  0.821163  0.097747  1
  Tb  Tb12  1  0.480283  0.678549  0.097565  1
  Tb  Tb13  1  0.979616  0.821689  0.402403  1
  Tb  Tb14  1  0.520211  0.321851  0.596943  1
  Tb  Tb15  1  0.198832  0.502012  0.749633  1
  Tb  Tb16  1  0.698571  0.997673  0.749411  1
  Tb  Tb17  1  0.801337  0.498093  0.250187  1
  Sm  Sm18  1  0.018183  0.179098  0.903310  1
  Y  Y19  1  0.301358  0.001912  0.250220  1
  Sn  Sn20  1  0.295287  0.035036  0.042726  1
  Sn  Sn21  1  0.793064  0.464122  0.458103  1
  Sn  Sn22  1  0.707252  0.964540  0.541673  1
  Sn  Sn23  1  0.207276  0.537376  0.958674  1
  Sn  Sn24  1  0.703959  0.961715  0.958877  1
  Sn  Sn25  1  0.206870  0.535805  0.541593  1
  Sn  Sn26  1  0.293007  0.035814  0.458134  1
  Sn  Sn27  1  0.793485  0.464023  0.041865  1
  Sn  Sn28  1  0.564803  0.618691  0.749871  1
  Sn  Sn29  1  0.065188  0.880613  0.749839  1
  Sn  Sn30  1  0.435246  0.381605  0.250128  1
  Sn  Sn31  1  0.935318  0.118624  0.250124  1
  Sn  Sn32  1  0.330530  0.146620  0.749562  1
  Sn  Sn33  1  0.827947  0.354315  0.748874  1
  Sn  Sn34  1  0.670382  0.853268  0.250012  1
  Sn  Sn35  1  0.170260  0.646892  0.250079  1
