# generated using pymatgen
data_RbSb12PdRu3
_symmetry_space_group_name_H-M   'P 1'
_cell_length_a   8.20641293
_cell_length_b   8.20641266
_cell_length_c   8.20641214
_cell_angle_alpha   109.50591275
_cell_angle_beta   109.50591526
_cell_angle_gamma   109.50592280
_symmetry_Int_Tables_number   1
_chemical_formula_structural   RbSb12PdRu3
_chemical_formula_sum   'Rb1 Sb12 Pd1 Ru3'
_cell_volume   424.89243737
_cell_formula_units_Z   1
loop_
 _symmetry_equiv_pos_site_id
 _symmetry_equiv_pos_as_xyz
  1  'x, y, z'
loop_
 _atom_site_type_symbol
 _atom_site_label
 _atom_site_symmetry_multiplicity
 _atom_site_fract_x
 _atom_site_fract_y
 _atom_site_fract_z
 _atom_site_occupancy
  Rb  Rb0  1  0.000000  0.000000  0.000000  1
  Sb  Sb1  1  0.658115  0.849155  0.496755  1
  Sb  Sb2  1  0.341885  0.150845  0.503245  1
  Sb  Sb3  1  0.840100  0.181438  0.341252  1
  Sb  Sb4  1  0.818562  0.658748  0.159900  1
  Sb  Sb5  1  0.849155  0.496755  0.658115  1
  Sb  Sb6  1  0.181438  0.341252  0.840100  1
  Sb  Sb7  1  0.159900  0.818562  0.658748  1
  Sb  Sb8  1  0.496755  0.658115  0.849155  1
  Sb  Sb9  1  0.503245  0.341885  0.150845  1
  Sb  Sb10  1  0.150845  0.503245  0.341885  1
  Sb  Sb11  1  0.341252  0.840100  0.181438  1
  Sb  Sb12  1  0.658748  0.159900  0.818562  1
  Pd  Pd13  1  0.500000  0.500000  0.500000  1
  Ru  Ru14  1  0.000000  0.000000  0.500000  1
  Ru  Ru15  1  0.500000  0.000000  0.000000  1
  Ru  Ru16  1  0.000000  0.500000  0.000000  1
