# generated using pymatgen
data_PmNi2Pt3
_symmetry_space_group_name_H-M   'P 1'
_cell_length_a   5.36534000
_cell_length_b   5.36534731
_cell_length_c   4.05509200
_cell_angle_alpha   90.00000000
_cell_angle_beta   90.00000000
_cell_angle_gamma   59.99991312
_symmetry_Int_Tables_number   1
_chemical_formula_structural   PmNi2Pt3
_chemical_formula_sum   'Pm1 Ni2 Pt3'
_cell_volume   101.09415610
_cell_formula_units_Z   1
loop_
 _symmetry_equiv_pos_site_id
 _symmetry_equiv_pos_as_xyz
  1  'x, y, z'
loop_
 _atom_site_type_symbol
 _atom_site_label
 _atom_site_symmetry_multiplicity
 _atom_site_fract_x
 _atom_site_fract_y
 _atom_site_fract_z
 _atom_site_occupancy
  Pm  Pm0  1  0.999998  0.000002  0.000000  1
  Ni  Ni1  1  0.333330  0.333333  0.000000  1
  Ni  Ni2  1  0.666666  0.666670  0.000000  1
  Pt  Pt3  1  0.500366  0.999995  0.499999  1
  Pt  Pt4  1  0.999995  0.499639  0.499999  1
  Pt  Pt5  1  0.499640  0.500364  0.499999  1
