# generated using pymatgen
data_Nb12Al8CrFe3N4
_symmetry_space_group_name_H-M   'P 1'
_cell_length_a   8.20383254
_cell_length_b   8.20383294
_cell_length_c   8.22240563
_cell_angle_alpha   60.07469305
_cell_angle_beta   60.07468901
_cell_angle_gamma   59.99999714
_symmetry_Int_Tables_number   1
_chemical_formula_structural   Nb12Al8CrFe3N4
_chemical_formula_sum   'Nb12 Al8 Cr1 Fe3 N4'
_cell_volume   391.74806728
_cell_formula_units_Z   1
loop_
 _symmetry_equiv_pos_site_id
 _symmetry_equiv_pos_as_xyz
  1  'x, y, z'
loop_
 _atom_site_type_symbol
 _atom_site_label
 _atom_site_symmetry_multiplicity
 _atom_site_fract_x
 _atom_site_fract_y
 _atom_site_fract_z
 _atom_site_occupancy
  Nb  Nb0  1  0.803344  0.803344  0.192262  1
  Nb  Nb1  1  0.192894  0.192894  0.807619  1
  Nb  Nb2  1  0.806593  0.192894  0.807619  1
  Nb  Nb3  1  0.201049  0.803344  0.192262  1
  Nb  Nb4  1  0.192894  0.806593  0.807619  1
  Nb  Nb5  1  0.803344  0.201049  0.192262  1
  Nb  Nb6  1  0.446656  0.446656  0.057738  1
  Nb  Nb7  1  0.057106  0.057106  0.442381  1
  Nb  Nb8  1  0.443407  0.057106  0.442381  1
  Nb  Nb9  1  0.048951  0.446656  0.057738  1
  Nb  Nb10  1  0.057106  0.443407  0.442381  1
  Nb  Nb11  1  0.446656  0.048951  0.057738  1
  Al  Al12  1  0.745481  0.414977  0.424566  1
  Al  Al13  1  0.414977  0.745481  0.424566  1
  Al  Al14  1  0.416561  0.416561  0.750316  1
  Al  Al15  1  0.414977  0.414977  0.424566  1
  Al  Al16  1  0.504519  0.835023  0.825434  1
  Al  Al17  1  0.835023  0.504519  0.825434  1
  Al  Al18  1  0.833439  0.833439  0.499684  1
  Al  Al19  1  0.835023  0.835023  0.825434  1
  Cr  Cr20  1  0.625000  0.625000  0.125000  1
  Fe  Fe21  1  0.125000  0.625000  0.625000  1
  Fe  Fe22  1  0.625000  0.125000  0.625000  1
  Fe  Fe23  1  0.625000  0.625000  0.625000  1
  N  N24  1  0.625000  0.125000  0.125000  1
  N  N25  1  0.125000  0.625000  0.125000  1
  N  N26  1  0.125000  0.125000  0.625000  1
  N  N27  1  0.125000  0.125000  0.125000  1
