# generated using pymatgen
data_NdY15MgNi4Ag3
_symmetry_space_group_name_H-M   'P 1'
_cell_length_a   9.54403970
_cell_length_b   9.56390856
_cell_length_c   9.56390700
_cell_angle_alpha   59.99999502
_cell_angle_beta   59.93110541
_cell_angle_gamma   59.93111206
_symmetry_Int_Tables_number   1
_chemical_formula_structural   NdY15MgNi4Ag3
_chemical_formula_sum   'Nd1 Y15 Mg1 Ni4 Ag3'
_cell_volume   616.64465268
_cell_formula_units_Z   1
loop_
 _symmetry_equiv_pos_site_id
 _symmetry_equiv_pos_as_xyz
  1  'x, y, z'
loop_
 _atom_site_type_symbol
 _atom_site_label
 _atom_site_symmetry_multiplicity
 _atom_site_fract_x
 _atom_site_fract_y
 _atom_site_fract_z
 _atom_site_occupancy
  Nd  Nd0  1  0.941110  0.352963  0.352963  1
  Y  Y1  1  0.808366  0.189721  0.189721  1
  Y  Y2  1  0.186102  0.812936  0.812936  1
  Y  Y3  1  0.186102  0.812936  0.188026  1
  Y  Y4  1  0.808366  0.189721  0.812191  1
  Y  Y5  1  0.186102  0.188026  0.812936  1
  Y  Y6  1  0.808366  0.812191  0.189721  1
  Y  Y7  1  0.933815  0.565363  0.565363  1
  Y  Y8  1  0.563951  0.935417  0.935417  1
  Y  Y9  1  0.563951  0.935417  0.565217  1
  Y  Y10  1  0.933815  0.565363  0.935458  1
  Y  Y11  1  0.563951  0.565217  0.935417  1
  Y  Y12  1  0.933815  0.935458  0.565363  1
  Y  Y13  1  0.350900  0.347467  0.347467  1
  Y  Y14  1  0.350900  0.347467  0.954167  1
  Y  Y15  1  0.350900  0.954167  0.347467  1
  Mg  Mg16  1  0.289844  0.570052  0.570052  1
  Ni  Ni17  1  0.142063  0.142479  0.142479  1
  Ni  Ni18  1  0.142063  0.142479  0.572980  1
  Ni  Ni19  1  0.142063  0.572980  0.142479  1
  Ni  Ni20  1  0.573228  0.142257  0.142257  1
  Ag  Ag21  1  0.580077  0.585262  0.585262  1
  Ag  Ag22  1  0.580077  0.585262  0.249401  1
  Ag  Ag23  1  0.580077  0.249401  0.585262  1
