# generated using pymatgen
data_ErNp4Ga15
_symmetry_space_group_name_H-M   'P 1'
_cell_length_a   12.51458735
_cell_length_b   12.51458794
_cell_length_c   12.51458724
_cell_angle_alpha   28.14296034
_cell_angle_beta   28.14295603
_cell_angle_gamma   28.14295645
_symmetry_Int_Tables_number   1
_chemical_formula_structural   ErNp4Ga15
_chemical_formula_sum   'Er1 Np4 Ga15'
_cell_volume   385.21036368
_cell_formula_units_Z   1
loop_
 _symmetry_equiv_pos_site_id
 _symmetry_equiv_pos_as_xyz
  1  'x, y, z'
loop_
 _atom_site_type_symbol
 _atom_site_label
 _atom_site_symmetry_multiplicity
 _atom_site_fract_x
 _atom_site_fract_y
 _atom_site_fract_z
 _atom_site_occupancy
  Er  Er0  1  0.000000  0.000000  0.000000  1
  Np  Np1  1  0.130087  0.130087  0.130087  1
  Np  Np2  1  0.869913  0.869913  0.869913  1
  Np  Np3  1  0.400421  0.400421  0.400421  1
  Np  Np4  1  0.599579  0.599579  0.599579  1
  Ga  Ga5  1  0.427799  0.885158  0.885158  1
  Ga  Ga6  1  0.885158  0.885158  0.427799  1
  Ga  Ga7  1  0.885158  0.427799  0.885158  1
  Ga  Ga8  1  0.114842  0.572201  0.114842  1
  Ga  Ga9  1  0.114842  0.114842  0.572201  1
  Ga  Ga10  1  0.572201  0.114842  0.114842  1
  Ga  Ga11  1  0.129831  0.636376  0.636376  1
  Ga  Ga12  1  0.636376  0.636376  0.129831  1
  Ga  Ga13  1  0.636376  0.129831  0.636376  1
  Ga  Ga14  1  0.363624  0.870169  0.363624  1
  Ga  Ga15  1  0.363624  0.363624  0.870169  1
  Ga  Ga16  1  0.870169  0.363624  0.363624  1
  Ga  Ga17  1  0.500000  0.500000  0.000000  1
  Ga  Ga18  1  0.500000  0.000000  0.500000  1
  Ga  Ga19  1  0.000000  0.500000  0.500000  1
