# generated using pymatgen
data_Y8AlInPd23
_symmetry_space_group_name_H-M   'P 1'
_cell_length_a   8.24361300
_cell_length_b   8.46844800
_cell_length_c   8.46844800
_cell_angle_alpha   90.00000000
_cell_angle_beta   90.00000000
_cell_angle_gamma   90.00000000
_symmetry_Int_Tables_number   1
_chemical_formula_structural   Y8AlInPd23
_chemical_formula_sum   'Y8 Al1 In1 Pd23'
_cell_volume   591.18750389
_cell_formula_units_Z   1
loop_
 _symmetry_equiv_pos_site_id
 _symmetry_equiv_pos_as_xyz
  1  'x, y, z'
loop_
 _atom_site_type_symbol
 _atom_site_label
 _atom_site_symmetry_multiplicity
 _atom_site_fract_x
 _atom_site_fract_y
 _atom_site_fract_z
 _atom_site_occupancy
  Y  Y0  1  0.251219  0.239748  0.239748  1
  Y  Y1  1  0.748020  0.747053  0.747053  1
  Y  Y2  1  0.748020  0.747053  0.252947  1
  Y  Y3  1  0.748020  0.252947  0.747053  1
  Y  Y4  1  0.251219  0.239748  0.760252  1
  Y  Y5  1  0.251219  0.760252  0.239748  1
  Y  Y6  1  0.251219  0.760252  0.760252  1
  Y  Y7  1  0.748020  0.252947  0.252947  1
  Al  Al8  1  0.998682  0.000000  0.000000  1
  In  In9  1  0.255502  0.500000  0.500000  1
  Pd  Pd10  1  0.258178  0.500000  0.000000  1
  Pd  Pd11  1  0.740219  0.500000  0.000000  1
  Pd  Pd12  1  0.006125  0.257035  0.500000  1
  Pd  Pd13  1  0.502780  0.261118  0.000000  1
  Pd  Pd14  1  0.006125  0.742965  0.500000  1
  Pd  Pd15  1  0.502780  0.738882  0.000000  1
  Pd  Pd16  1  0.502780  0.000000  0.261118  1
  Pd  Pd17  1  0.258178  0.000000  0.500000  1
  Pd  Pd18  1  0.502780  0.000000  0.738882  1
  Pd  Pd19  1  0.740219  0.000000  0.500000  1
  Pd  Pd20  1  0.006125  0.500000  0.257035  1
  Pd  Pd21  1  0.006125  0.500000  0.742965  1
  Pd  Pd22  1  0.747576  0.500000  0.500000  1
  Pd  Pd23  1  0.494433  0.250585  0.500000  1
  Pd  Pd24  1  0.494433  0.749415  0.500000  1
  Pd  Pd25  1  0.494433  0.500000  0.250585  1
  Pd  Pd26  1  0.494433  0.500000  0.749415  1
  Pd  Pd27  1  0.294315  0.000000  0.000000  1
  Pd  Pd28  1  0.708212  0.000000  0.000000  1
  Pd  Pd29  1  0.997152  0.287319  0.000000  1
  Pd  Pd30  1  0.997152  0.712681  0.000000  1
  Pd  Pd31  1  0.997152  0.000000  0.287319  1
  Pd  Pd32  1  0.997152  0.000000  0.712681  1
