# generated using pymatgen
data_NdTm3(CBr)2
_symmetry_space_group_name_H-M   'P 1'
_cell_length_a   3.66945500
_cell_length_b   3.66945504
_cell_length_c   14.22697900
_cell_angle_alpha   90.00000000
_cell_angle_beta   90.00000000
_cell_angle_gamma   120.00000870
_symmetry_Int_Tables_number   1
_chemical_formula_structural   NdTm3(CBr)2
_chemical_formula_sum   'Nd1 Tm3 C2 Br2'
_cell_volume   165.90001319
_cell_formula_units_Z   1
loop_
 _symmetry_equiv_pos_site_id
 _symmetry_equiv_pos_as_xyz
  1  'x, y, z'
loop_
 _atom_site_type_symbol
 _atom_site_label
 _atom_site_symmetry_multiplicity
 _atom_site_fract_x
 _atom_site_fract_y
 _atom_site_fract_z
 _atom_site_occupancy
  Nd  Nd0  1  0.333333  0.666667  0.590679  1
  Tm  Tm1  1  0.666667  0.333333  0.406185  1
  Tm  Tm2  1  0.666667  0.333333  0.089485  1
  Tm  Tm3  1  0.333333  0.666667  0.915599  1
  C  C4  1  0.000000  0.000000  0.002993  1
  C  C5  1  0.000000  0.000000  0.485481  1
  Br  Br6  1  0.333333  0.666667  0.245167  1
  Br  Br7  1  0.666667  0.333333  0.764410  1
