# generated using pymatgen
data_Eu10IrAu5
_symmetry_space_group_name_H-M   'P 1'
_cell_length_a   9.31062162
_cell_length_b   9.31062120
_cell_length_c   9.27712300
_cell_angle_alpha   128.32761676
_cell_angle_beta   128.32762253
_cell_angle_gamma   76.35814845
_symmetry_Int_Tables_number   1
_chemical_formula_structural   Eu10IrAu5
_chemical_formula_sum   'Eu10 Ir1 Au5'
_cell_volume   480.24249021
_cell_formula_units_Z   1
loop_
 _symmetry_equiv_pos_site_id
 _symmetry_equiv_pos_as_xyz
  1  'x, y, z'
loop_
 _atom_site_type_symbol
 _atom_site_label
 _atom_site_symmetry_multiplicity
 _atom_site_fract_x
 _atom_site_fract_y
 _atom_site_fract_z
 _atom_site_occupancy
  Eu  Eu0  1  0.459266  0.959266  0.141847  1
  Eu  Eu1  1  0.182581  0.682581  0.141847  1
  Eu  Eu2  1  0.526556  0.026556  0.838251  1
  Eu  Eu3  1  0.027850  0.200396  0.511346  1
  Eu  Eu4  1  0.700396  0.527850  0.511346  1
  Eu  Eu5  1  0.983497  0.810949  0.511346  1
  Eu  Eu6  1  0.003544  0.992455  0.995999  1
  Eu  Eu7  1  0.492455  0.503544  0.995999  1
  Eu  Eu8  1  0.811695  0.311695  0.838251  1
  Eu  Eu9  1  0.310949  0.483497  0.511346  1
  Ir  Ir10  1  0.127310  0.627310  0.754617  1
  Au  Au11  1  0.628667  0.871993  0.500660  1
  Au  Au12  1  0.371993  0.128667  0.500660  1
  Au  Au13  1  0.872181  0.372181  0.244363  1
  Au  Au14  1  0.750531  0.750531  0.001061  1
  Au  Au15  1  0.250531  0.250531  0.001061  1
