# generated using pymatgen
data_Nd2IrN3
_symmetry_space_group_name_H-M   'P 1'
_cell_length_a   3.62970849
_cell_length_b   3.79305002
_cell_length_c   7.02174950
_cell_angle_alpha   105.66978793
_cell_angle_beta   104.97881372
_cell_angle_gamma   90.00000198
_symmetry_Int_Tables_number   1
_chemical_formula_structural   Nd2IrN3
_chemical_formula_sum   'Nd2 Ir1 N3'
_cell_volume   89.66383753
_cell_formula_units_Z   1
loop_
 _symmetry_equiv_pos_site_id
 _symmetry_equiv_pos_as_xyz
  1  'x, y, z'
loop_
 _atom_site_type_symbol
 _atom_site_label
 _atom_site_symmetry_multiplicity
 _atom_site_fract_x
 _atom_site_fract_y
 _atom_site_fract_z
 _atom_site_occupancy
  Nd  Nd0  1  0.651641  0.651642  0.303285  1
  Nd  Nd1  1  0.348358  0.348358  0.696716  1
  Ir  Ir2  1  0.000000  0.000000  0.000000  1
  N  N3  1  0.000001  0.499999  0.999999  1
  N  N4  1  0.164631  0.164631  0.329262  1
  N  N5  1  0.835368  0.835368  0.670738  1
