# generated using pymatgen
data_PrHo7Cd2OsPd
_symmetry_space_group_name_H-M   'P 1'
_cell_length_a   9.67746824
_cell_length_b   9.67746943
_cell_length_c   9.74898400
_cell_angle_alpha   59.75525165
_cell_angle_beta   59.75524753
_cell_angle_gamma   59.37675478
_symmetry_Int_Tables_number   1
_chemical_formula_structural   PrHo7Cd2OsPd
_chemical_formula_sum   'Pr2 Ho14 Cd4 Os2 Pd2'
_cell_volume   640.14595418
_cell_formula_units_Z   2
loop_
 _symmetry_equiv_pos_site_id
 _symmetry_equiv_pos_as_xyz
  1  'x, y, z'
loop_
 _atom_site_type_symbol
 _atom_site_label
 _atom_site_symmetry_multiplicity
 _atom_site_fract_x
 _atom_site_fract_y
 _atom_site_fract_z
 _atom_site_occupancy
  Pr  Pr0  1  0.569076  0.569076  0.930924  1
  Pr  Pr1  1  0.934201  0.934201  0.565799  1
  Ho  Ho2  1  0.351578  0.351578  0.350041  1
  Ho  Ho3  1  0.351578  0.351578  0.946803  1
  Ho  Ho4  1  0.342930  0.955198  0.350937  1
  Ho  Ho5  1  0.955198  0.342930  0.350937  1
  Ho  Ho6  1  0.818153  0.185519  0.188885  1
  Ho  Ho7  1  0.185519  0.818153  0.807443  1
  Ho  Ho8  1  0.185519  0.818153  0.188885  1
  Ho  Ho9  1  0.818153  0.185519  0.807443  1
  Ho  Ho10  1  0.188511  0.188511  0.811489  1
  Ho  Ho11  1  0.808275  0.808275  0.191725  1
  Ho  Ho12  1  0.941795  0.550936  0.564271  1
  Ho  Ho13  1  0.550936  0.941795  0.942997  1
  Ho  Ho14  1  0.550936  0.941795  0.564271  1
  Ho  Ho15  1  0.941795  0.550936  0.942997  1
  Cd  Cd16  1  0.580621  0.580621  0.579097  1
  Cd  Cd17  1  0.580621  0.580621  0.259662  1
  Cd  Cd18  1  0.577294  0.257175  0.582764  1
  Cd  Cd19  1  0.257175  0.577294  0.582764  1
  Os  Os20  1  0.147866  0.147866  0.131912  1
  Os  Os21  1  0.147866  0.147866  0.572357  1
  Pd  Pd22  1  0.141045  0.573358  0.142798  1
  Pd  Pd23  1  0.573358  0.141045  0.142798  1
