# generated using pymatgen
data_Mg2TaH9
_symmetry_space_group_name_H-M   'P 1'
_cell_length_a   8.18657100
_cell_length_b   8.18657122
_cell_length_c   4.88936100
_cell_angle_alpha   90.00000000
_cell_angle_beta   90.00000000
_cell_angle_gamma   119.99999507
_symmetry_Int_Tables_number   1
_chemical_formula_structural   Mg2TaH9
_chemical_formula_sum   'Mg6 Ta3 H27'
_cell_volume   283.78329990
_cell_formula_units_Z   3
loop_
 _symmetry_equiv_pos_site_id
 _symmetry_equiv_pos_as_xyz
  1  'x, y, z'
loop_
 _atom_site_type_symbol
 _atom_site_label
 _atom_site_symmetry_multiplicity
 _atom_site_fract_x
 _atom_site_fract_y
 _atom_site_fract_z
 _atom_site_occupancy
  Mg  Mg0  1  0.262598  0.000000  0.500000  1
  Mg  Mg1  1  0.000000  0.262598  0.500000  1
  Mg  Mg2  1  0.737402  0.737402  0.500000  1
  Mg  Mg3  1  0.598368  0.000000  0.000000  1
  Mg  Mg4  1  0.000000  0.598368  0.000000  1
  Mg  Mg5  1  0.401632  0.401632  0.000000  1
  Ta  Ta6  1  0.000000  0.000000  0.000000  1
  Ta  Ta7  1  0.333333  0.666667  0.500000  1
  Ta  Ta8  1  0.666667  0.333333  0.500000  1
  H  H9  1  0.838140  0.000000  0.263257  1
  H  H10  1  0.000000  0.838140  0.263257  1
  H  H11  1  0.838140  0.000000  0.736743  1
  H  H12  1  0.000000  0.838140  0.736743  1
  H  H13  1  0.161860  0.161860  0.263257  1
  H  H14  1  0.161860  0.161860  0.736743  1
  H  H15  1  0.223171  0.000000  0.000000  1
  H  H16  1  0.000000  0.223171  0.000000  1
  H  H17  1  0.776829  0.776829  0.000000  1
  H  H18  1  0.158327  0.534534  0.232789  1
  H  H19  1  0.465466  0.623792  0.232789  1
  H  H20  1  0.158327  0.534534  0.767211  1
  H  H21  1  0.534534  0.158327  0.767211  1
  H  H22  1  0.376208  0.841673  0.232789  1
  H  H23  1  0.465466  0.623792  0.767211  1
  H  H24  1  0.623792  0.465466  0.767211  1
  H  H25  1  0.534534  0.158327  0.232789  1
  H  H26  1  0.376208  0.841673  0.767211  1
  H  H27  1  0.623792  0.465466  0.232789  1
  H  H28  1  0.841673  0.376208  0.767211  1
  H  H29  1  0.841673  0.376208  0.232789  1
  H  H30  1  0.273699  0.422259  0.500000  1
  H  H31  1  0.577741  0.851440  0.500000  1
  H  H32  1  0.422259  0.273699  0.500000  1
  H  H33  1  0.148560  0.726301  0.500000  1
  H  H34  1  0.851440  0.577741  0.500000  1
  H  H35  1  0.726301  0.148560  0.500000  1
