# generated using pymatgen
data_Sr4Dy(SiIr)10
_symmetry_space_group_name_H-M   'P 1'
_cell_length_a   9.27999700
_cell_length_b   8.35461985
_cell_length_c   9.27999700
_cell_angle_alpha   56.26302341
_cell_angle_beta   90.00000000
_cell_angle_gamma   56.26301516
_symmetry_Int_Tables_number   1
_chemical_formula_structural   Sr4Dy(SiIr)10
_chemical_formula_sum   'Sr4 Dy1 Si10 Ir10'
_cell_volume   445.32829268
_cell_formula_units_Z   1
loop_
 _symmetry_equiv_pos_site_id
 _symmetry_equiv_pos_as_xyz
  1  'x, y, z'
loop_
 _atom_site_type_symbol
 _atom_site_label
 _atom_site_symmetry_multiplicity
 _atom_site_fract_x
 _atom_site_fract_y
 _atom_site_fract_z
 _atom_site_occupancy
  Sr  Sr0  1  0.201907  0.000000  0.599041  1
  Sr  Sr1  1  0.400959  0.000000  0.201907  1
  Sr  Sr2  1  0.599041  0.000000  0.798093  1
  Sr  Sr3  1  0.798093  0.000000  0.400959  1
  Dy  Dy4  1  0.000000  0.000000  0.000000  1
  Si  Si5  1  0.171234  0.255613  0.771886  1
  Si  Si6  1  0.366620  0.266761  0.366620  1
  Si  Si7  1  0.573153  0.255613  0.972500  1
  Si  Si8  1  0.771886  0.255613  0.573153  1
  Si  Si9  1  0.972500  0.255613  0.171234  1
  Si  Si10  1  0.633380  0.733239  0.633380  1
  Si  Si11  1  0.828766  0.744387  0.228114  1
  Si  Si12  1  0.027499  0.744387  0.828766  1
  Si  Si13  1  0.228114  0.744387  0.426847  1
  Si  Si14  1  0.426847  0.744387  0.027499  1
  Ir  Ir15  1  0.953153  0.493929  0.852547  1
  Ir  Ir16  1  0.147453  0.506071  0.447082  1
  Ir  Ir17  1  0.346477  0.506071  0.046847  1
  Ir  Ir18  1  0.552918  0.493929  0.653523  1
  Ir  Ir19  1  0.750000  0.500000  0.250000  1
  Ir  Ir20  1  0.852547  0.493929  0.552918  1
  Ir  Ir21  1  0.046847  0.506071  0.147453  1
  Ir  Ir22  1  0.250000  0.500000  0.750000  1
  Ir  Ir23  1  0.447082  0.506071  0.346477  1
  Ir  Ir24  1  0.653523  0.493929  0.953153  1
