# generated using pymatgen
data_KBa2Hg10Bi
_symmetry_space_group_name_H-M   'P 1'
_cell_length_a   9.75288049
_cell_length_b   9.75287890
_cell_length_c   9.75288074
_cell_angle_alpha   147.97950061
_cell_angle_beta   116.10942948
_cell_angle_gamma   73.26501180
_symmetry_Int_Tables_number   1
_chemical_formula_structural   KBa2Hg10Bi
_chemical_formula_sum   'K1 Ba2 Hg10 Bi1'
_cell_volume   434.55683208
_cell_formula_units_Z   1
loop_
 _symmetry_equiv_pos_site_id
 _symmetry_equiv_pos_as_xyz
  1  'x, y, z'
loop_
 _atom_site_type_symbol
 _atom_site_label
 _atom_site_symmetry_multiplicity
 _atom_site_fract_x
 _atom_site_fract_y
 _atom_site_fract_z
 _atom_site_occupancy
  K  K0  1  0.000000  0.000000  0.000000  1
  Ba  Ba1  1  0.695228  0.695228  0.000000  1
  Ba  Ba2  1  0.304772  0.304772  0.000000  1
  Hg  Hg3  1  0.134659  0.856749  0.277912  1
  Hg  Hg4  1  0.865341  0.143251  0.722088  1
  Hg  Hg5  1  0.421163  0.143251  0.277912  1
  Hg  Hg6  1  0.578837  0.856749  0.722088  1
  Hg  Hg7  1  0.019948  0.663137  0.356809  1
  Hg  Hg8  1  0.980052  0.336863  0.643191  1
  Hg  Hg9  1  0.693672  0.336863  0.356809  1
  Hg  Hg10  1  0.306328  0.663137  0.643191  1
  Hg  Hg11  1  0.687155  0.500000  0.187155  1
  Hg  Hg12  1  0.312845  0.500000  0.812845  1
  Bi  Bi13  1  0.500000  0.000000  0.500000  1
