# generated using pymatgen
data_Tm4PdPt3
_symmetry_space_group_name_H-M   'P 1'
_cell_length_a   4.48958800
_cell_length_b   5.54646054
_cell_length_c   6.88758567
_cell_angle_alpha   90.05042989
_cell_angle_beta   90.00000000
_cell_angle_gamma   90.00000000
_symmetry_Int_Tables_number   1
_chemical_formula_structural   Tm4PdPt3
_chemical_formula_sum   'Tm4 Pd1 Pt3'
_cell_volume   171.50992668
_cell_formula_units_Z   1
loop_
 _symmetry_equiv_pos_site_id
 _symmetry_equiv_pos_as_xyz
  1  'x, y, z'
loop_
 _atom_site_type_symbol
 _atom_site_label
 _atom_site_symmetry_multiplicity
 _atom_site_fract_x
 _atom_site_fract_y
 _atom_site_fract_z
 _atom_site_occupancy
  Tm  Tm0  1  0.250000  0.643967  0.182007  1
  Tm  Tm1  1  0.750000  0.359084  0.815329  1
  Tm  Tm2  1  0.750000  0.140451  0.322193  1
  Tm  Tm3  1  0.250000  0.855706  0.680896  1
  Pd  Pd4  1  0.250000  0.156650  0.043795  1
  Pt  Pt5  1  0.750000  0.846481  0.957073  1
  Pt  Pt6  1  0.750000  0.657030  0.454112  1
  Pt  Pt7  1  0.250000  0.340631  0.544595  1
