# generated using pymatgen
data_Y7Lu3(SnBi)3
_symmetry_space_group_name_H-M   'P 1'
_cell_length_a   9.02503692
_cell_length_b   9.03881990
_cell_length_c   6.45565962
_cell_angle_alpha   89.95315976
_cell_angle_beta   90.03968876
_cell_angle_gamma   119.88425413
_symmetry_Int_Tables_number   1
_chemical_formula_structural   Y7Lu3(SnBi)3
_chemical_formula_sum   'Y7 Lu3 Sn3 Bi3'
_cell_volume   456.60131535
_cell_formula_units_Z   1
loop_
 _symmetry_equiv_pos_site_id
 _symmetry_equiv_pos_as_xyz
  1  'x, y, z'
loop_
 _atom_site_type_symbol
 _atom_site_label
 _atom_site_symmetry_multiplicity
 _atom_site_fract_x
 _atom_site_fract_y
 _atom_site_fract_z
 _atom_site_occupancy
  Y  Y0  1  0.758936  0.753217  0.250200  1
  Y  Y1  1  0.005542  0.246664  0.250125  1
  Y  Y2  1  0.764427  0.005969  0.749970  1
  Y  Y3  1  0.236862  0.999662  0.250291  1
  Y  Y4  1  0.999966  0.755230  0.749674  1
  Y  Y5  1  0.238597  0.244300  0.749803  1
  Y  Y6  1  0.671701  0.337718  0.001342  1
  Lu  Lu7  1  0.324945  0.658556  0.498298  1
  Lu  Lu8  1  0.672275  0.338432  0.498318  1
  Lu  Lu9  1  0.324710  0.658252  0.001795  1
  Sn  Sn10  1  0.998806  0.394395  0.748806  1
  Sn  Sn11  1  0.393480  0.391835  0.251109  1
  Sn  Sn12  1  0.002514  0.607848  0.251162  1
  Bi  Bi13  1  0.607323  0.610972  0.749224  1
  Bi  Bi14  1  0.392259  0.999514  0.749147  1
  Bi  Bi15  1  0.607659  0.997435  0.250736  1
