# generated using pymatgen
data_LaDyHo2(NiP)4
_symmetry_space_group_name_H-M   'P 1'
_cell_length_a   3.92537700
_cell_length_b   3.92537794
_cell_length_c   15.68749700
_cell_angle_alpha   90.00000000
_cell_angle_beta   90.00000000
_cell_angle_gamma   120.00000049
_symmetry_Int_Tables_number   1
_chemical_formula_structural   LaDyHo2(NiP)4
_chemical_formula_sum   'La1 Dy1 Ho2 Ni4 P4'
_cell_volume   209.33754970
_cell_formula_units_Z   1
loop_
 _symmetry_equiv_pos_site_id
 _symmetry_equiv_pos_as_xyz
  1  'x, y, z'
loop_
 _atom_site_type_symbol
 _atom_site_label
 _atom_site_symmetry_multiplicity
 _atom_site_fract_x
 _atom_site_fract_y
 _atom_site_fract_z
 _atom_site_occupancy
  La  La0  1  0.000000  0.000000  0.500000  1
  Dy  Dy1  1  0.000000  0.000000  0.000000  1
  Ho  Ho2  1  0.000000  0.000000  0.243823  1
  Ho  Ho3  1  0.000000  0.000000  0.756177  1
  Ni  Ni4  1  0.333333  0.666667  0.361491  1
  Ni  Ni5  1  0.666667  0.333333  0.638509  1
  Ni  Ni6  1  0.666667  0.333333  0.874209  1
  Ni  Ni7  1  0.333333  0.666667  0.125791  1
  P  P8  1  0.333333  0.666667  0.880238  1
  P  P9  1  0.666667  0.333333  0.119762  1
  P  P10  1  0.666667  0.333333  0.365915  1
  P  P11  1  0.333333  0.666667  0.634085  1
