# generated using pymatgen
data_Nd2Fe3Co7Ni2P7
_symmetry_space_group_name_H-M   'P 1'
_cell_length_a   9.08456575
_cell_length_b   9.08513494
_cell_length_c   3.69254200
_cell_angle_alpha   90.00000000
_cell_angle_beta   90.00000000
_cell_angle_gamma   119.95123484
_symmetry_Int_Tables_number   1
_chemical_formula_structural   Nd2Fe3Co7Ni2P7
_chemical_formula_sum   'Nd2 Fe3 Co7 Ni2 P7'
_cell_volume   264.06134356
_cell_formula_units_Z   1
loop_
 _symmetry_equiv_pos_site_id
 _symmetry_equiv_pos_as_xyz
  1  'x, y, z'
loop_
 _atom_site_type_symbol
 _atom_site_label
 _atom_site_symmetry_multiplicity
 _atom_site_fract_x
 _atom_site_fract_y
 _atom_site_fract_z
 _atom_site_occupancy
  Nd  Nd0  1  0.665513  0.333086  0.000000  1
  Nd  Nd1  1  0.333650  0.666433  0.500000  1
  Fe  Fe2  1  0.093396  0.879048  0.500000  1
  Fe  Fe3  1  0.785931  0.906661  0.500000  1
  Fe  Fe4  1  0.120955  0.214550  0.500000  1
  Co  Co5  1  0.370199  0.429528  0.000000  1
  Co  Co6  1  0.271308  0.119036  0.000000  1
  Co  Co7  1  0.847228  0.728004  0.000000  1
  Co  Co8  1  0.880424  0.153090  0.000000  1
  Co  Co9  1  0.430498  0.048060  0.500000  1
  Co  Co10  1  0.618016  0.570142  0.500000  1
  Co  Co11  1  0.953459  0.383674  0.500000  1
  Ni  Ni12  1  0.059406  0.628437  0.000000  1
  Ni  Ni13  1  0.570128  0.940265  0.000000  1
  P  P14  1  0.298524  0.895661  0.000000  1
  P  P15  1  0.593937  0.697672  0.000000  1
  P  P16  1  0.108130  0.401697  0.000000  1
  P  P17  1  0.397280  0.291643  0.500000  1
  P  P18  1  0.889078  0.601179  0.500000  1
  P  P19  1  0.713073  0.111601  0.500000  1
  P  P20  1  0.999870  0.000534  0.000000  1
