# generated using pymatgen
data_Tb3DyMnTc7
_symmetry_space_group_name_H-M   'P 1'
_cell_length_a   5.33947706
_cell_length_b   5.33848564
_cell_length_c   8.98704100
_cell_angle_alpha   89.99180906
_cell_angle_beta   90.00995886
_cell_angle_gamma   119.99485223
_symmetry_Int_Tables_number   1
_chemical_formula_structural   Tb3DyMnTc7
_chemical_formula_sum   'Tb3 Dy1 Mn1 Tc7'
_cell_volume   221.86391704
_cell_formula_units_Z   1
loop_
 _symmetry_equiv_pos_site_id
 _symmetry_equiv_pos_as_xyz
  1  'x, y, z'
loop_
 _atom_site_type_symbol
 _atom_site_label
 _atom_site_symmetry_multiplicity
 _atom_site_fract_x
 _atom_site_fract_y
 _atom_site_fract_z
 _atom_site_occupancy
  Tb  Tb0  1  0.666681  0.333345  0.564460  1
  Tb  Tb1  1  0.333328  0.666662  0.435411  1
  Tb  Tb2  1  0.333348  0.666661  0.063614  1
  Dy  Dy3  1  0.666692  0.333346  0.936233  1
  Mn  Mn4  1  0.999931  0.999979  0.000136  1
  Tc  Tc5  1  0.999997  0.000000  0.500072  1
  Tc  Tc6  1  0.170030  0.340092  0.752851  1
  Tc  Tc7  1  0.170000  0.829990  0.752827  1
  Tc  Tc8  1  0.659876  0.829950  0.752850  1
  Tc  Tc9  1  0.829908  0.659764  0.247172  1
  Tc  Tc10  1  0.829936  0.170088  0.247200  1
  Tc  Tc11  1  0.340274  0.170124  0.247174  1
