# generated using pymatgen
data_Eu8V3SiN12
_symmetry_space_group_name_H-M   'P 1'
_cell_length_a   6.10513852
_cell_length_b   6.10513917
_cell_length_c   11.97071687
_cell_angle_alpha   90.17668065
_cell_angle_beta   89.82331831
_cell_angle_gamma   125.17930309
_symmetry_Int_Tables_number   1
_chemical_formula_structural   Eu8V3SiN12
_chemical_formula_sum   'Eu8 V3 Si1 N12'
_cell_volume   364.68535830
_cell_formula_units_Z   1
loop_
 _symmetry_equiv_pos_site_id
 _symmetry_equiv_pos_as_xyz
  1  'x, y, z'
loop_
 _atom_site_type_symbol
 _atom_site_label
 _atom_site_symmetry_multiplicity
 _atom_site_fract_x
 _atom_site_fract_y
 _atom_site_fract_z
 _atom_site_occupancy
  Eu  Eu0  1  0.864262  0.135737  0.080746  1
  Eu  Eu1  1  0.548820  0.451179  0.145035  1
  Eu  Eu2  1  0.054793  0.945207  0.352410  1
  Eu  Eu3  1  0.361411  0.638588  0.419606  1
  Eu  Eu4  1  0.640781  0.359218  0.578520  1
  Eu  Eu5  1  0.951443  0.048557  0.643111  1
  Eu  Eu6  1  0.449144  0.550855  0.861038  1
  Eu  Eu7  1  0.141650  0.858349  0.925672  1
  V  V8  1  0.746806  0.253193  0.334089  1
  V  V9  1  0.253572  0.746427  0.661811  1
  V  V10  1  0.752816  0.247184  0.839503  1
  Si  Si11  1  0.245115  0.754885  0.159164  1
  N  N12  1  0.343434  0.656566  0.043396  1
  N  N13  1  0.085284  0.914716  0.134765  1
  N  N14  1  0.042581  0.473763  0.246509  1
  N  N15  1  0.526239  0.957420  0.246509  1
  N  N16  1  0.583637  0.416363  0.368761  1
  N  N17  1  0.842998  0.157002  0.457963  1
  N  N18  1  0.159901  0.840099  0.537660  1
  N  N19  1  0.417781  0.582219  0.631193  1
  N  N20  1  0.456354  0.044100  0.750453  1
  N  N21  1  0.955901  0.543648  0.750453  1
  N  N22  1  0.917238  0.082762  0.867963  1
  N  N23  1  0.658039  0.341961  0.963667  1
