# generated using pymatgen
data_Y3MgZn2Si2Au
_symmetry_space_group_name_H-M   'P 1'
_cell_length_a   6.99956860
_cell_length_b   6.99956919
_cell_length_c   4.31942900
_cell_angle_alpha   90.00000000
_cell_angle_beta   90.00000000
_cell_angle_gamma   119.95243692
_symmetry_Int_Tables_number   1
_chemical_formula_structural   Y3MgZn2Si2Au
_chemical_formula_sum   'Y3 Mg1 Zn2 Si2 Au1'
_cell_volume   183.36122636
_cell_formula_units_Z   1
loop_
 _symmetry_equiv_pos_site_id
 _symmetry_equiv_pos_as_xyz
  1  'x, y, z'
loop_
 _atom_site_type_symbol
 _atom_site_label
 _atom_site_symmetry_multiplicity
 _atom_site_fract_x
 _atom_site_fract_y
 _atom_site_fract_z
 _atom_site_occupancy
  Y  Y0  1  0.574833  0.999839  0.000000  1
  Y  Y1  1  0.999839  0.574833  0.000000  1
  Y  Y2  1  0.416168  0.416168  0.000000  1
  Mg  Mg3  1  0.765578  0.765578  0.500000  1
  Zn  Zn4  1  0.251730  0.000509  0.500000  1
  Zn  Zn5  1  0.000509  0.251730  0.500000  1
  Si  Si6  1  0.326557  0.663655  0.500000  1
  Si  Si7  1  0.663655  0.326557  0.500000  1
  Au  Au8  1  0.001130  0.001130  0.000000  1
