# generated using pymatgen
data_Ba4HoUO8
_symmetry_space_group_name_H-M   'P 1'
_cell_length_a   7.52432908
_cell_length_b   7.52432796
_cell_length_c   6.18806600
_cell_angle_alpha   90.00000000
_cell_angle_beta   90.00000000
_cell_angle_gamma   131.47669492
_symmetry_Int_Tables_number   1
_chemical_formula_structural   Ba4HoUO8
_chemical_formula_sum   'Ba4 Ho1 U1 O8'
_cell_volume   262.48397849
_cell_formula_units_Z   1
loop_
 _symmetry_equiv_pos_site_id
 _symmetry_equiv_pos_as_xyz
  1  'x, y, z'
loop_
 _atom_site_type_symbol
 _atom_site_label
 _atom_site_symmetry_multiplicity
 _atom_site_fract_x
 _atom_site_fract_y
 _atom_site_fract_z
 _atom_site_occupancy
  Ba  Ba0  1  0.350522  0.649478  0.000000  1
  Ba  Ba1  1  0.853549  0.146451  0.500000  1
  Ba  Ba2  1  0.146451  0.853549  0.500000  1
  Ba  Ba3  1  0.649478  0.350522  0.000000  1
  Ho  Ho4  1  0.000000  0.000000  0.000000  1
  U  U5  1  0.500000  0.500000  0.500000  1
  O  O6  1  0.253196  0.253196  0.741685  1
  O  O7  1  0.746804  0.746804  0.258315  1
  O  O8  1  0.746804  0.746804  0.741685  1
  O  O9  1  0.253196  0.253196  0.258315  1
  O  O10  1  0.165477  0.834523  0.000000  1
  O  O11  1  0.659825  0.340175  0.500000  1
  O  O12  1  0.340175  0.659825  0.500000  1
  O  O13  1  0.834523  0.165477  0.000000  1
