# generated using pymatgen
data_Hf18Ta6ReAs2Ir
_symmetry_space_group_name_H-M   'P 1'
_cell_length_a   8.75280604
_cell_length_b   8.75281956
_cell_length_c   8.80300800
_cell_angle_alpha   89.99642733
_cell_angle_beta   90.00347470
_cell_angle_gamma   119.99950993
_symmetry_Int_Tables_number   1
_chemical_formula_structural   Hf18Ta6ReAs2Ir
_chemical_formula_sum   'Hf18 Ta6 Re1 As2 Ir1'
_cell_volume   584.06227071
_cell_formula_units_Z   1
loop_
 _symmetry_equiv_pos_site_id
 _symmetry_equiv_pos_as_xyz
  1  'x, y, z'
loop_
 _atom_site_type_symbol
 _atom_site_label
 _atom_site_symmetry_multiplicity
 _atom_site_fract_x
 _atom_site_fract_y
 _atom_site_fract_z
 _atom_site_occupancy
  Hf  Hf0  1  0.804864  0.609680  0.547760  1
  Hf  Hf1  1  0.804733  0.195265  0.547700  1
  Hf  Hf2  1  0.390319  0.195134  0.547761  1
  Hf  Hf3  1  0.195108  0.390268  0.452182  1
  Hf  Hf4  1  0.195243  0.804757  0.452242  1
  Hf  Hf5  1  0.609732  0.804892  0.452181  1
  Hf  Hf6  1  0.195867  0.391731  0.047224  1
  Hf  Hf7  1  0.195926  0.804074  0.047144  1
  Hf  Hf8  1  0.608271  0.804134  0.047224  1
  Hf  Hf9  1  0.804085  0.608176  0.952899  1
  Hf  Hf10  1  0.804021  0.195979  0.952986  1
  Hf  Hf11  1  0.391825  0.195915  0.952899  1
  Hf  Hf12  1  0.460794  0.921624  0.748046  1
  Hf  Hf13  1  0.460755  0.539245  0.747996  1
  Hf  Hf14  1  0.078376  0.539206  0.748047  1
  Hf  Hf15  1  0.539219  0.078398  0.251934  1
  Hf  Hf16  1  0.539257  0.460741  0.251984  1
  Hf  Hf17  1  0.921603  0.460782  0.251936  1
  Ta  Ta18  1  0.110169  0.220451  0.751839  1
  Ta  Ta19  1  0.110213  0.889786  0.751807  1
  Ta  Ta20  1  0.779550  0.889830  0.751839  1
  Ta  Ta21  1  0.889888  0.779659  0.248137  1
  Ta  Ta22  1  0.889842  0.110159  0.248170  1
  Ta  Ta23  1  0.220342  0.110111  0.248138  1
  Re  Re24  1  0.000000  0.000005  0.999853  1
  As  As25  1  0.666623  0.333376  0.749228  1
  As  As26  1  0.333378  0.666622  0.250784  1
  Ir  Ir27  1  0.999999  0.000000  0.500060  1
