# generated using pymatgen
data_Tb4Ga4NiIrRh2
_symmetry_space_group_name_H-M   'P 1'
_cell_length_a   4.31149200
_cell_length_b   6.85242795
_cell_length_c   7.74433165
_cell_angle_alpha   90.08507473
_cell_angle_beta   90.00000000
_cell_angle_gamma   90.00000000
_symmetry_Int_Tables_number   1
_chemical_formula_structural   Tb4Ga4NiIrRh2
_chemical_formula_sum   'Tb4 Ga4 Ni1 Ir1 Rh2'
_cell_volume   228.79974022
_cell_formula_units_Z   1
loop_
 _symmetry_equiv_pos_site_id
 _symmetry_equiv_pos_as_xyz
  1  'x, y, z'
loop_
 _atom_site_type_symbol
 _atom_site_label
 _atom_site_symmetry_multiplicity
 _atom_site_fract_x
 _atom_site_fract_y
 _atom_site_fract_z
 _atom_site_occupancy
  Tb  Tb0  1  0.250000  0.026477  0.813717  1
  Tb  Tb1  1  0.250000  0.527046  0.689237  1
  Tb  Tb2  1  0.750000  0.971272  0.190087  1
  Tb  Tb3  1  0.750000  0.477776  0.310721  1
  Ga  Ga4  1  0.250000  0.154463  0.430692  1
  Ga  Ga5  1  0.250000  0.658687  0.061091  1
  Ga  Ga6  1  0.750000  0.842494  0.577484  1
  Ga  Ga7  1  0.750000  0.351046  0.930296  1
  Ni  Ni8  1  0.750000  0.723678  0.890289  1
  Ir  Ir9  1  0.250000  0.767519  0.388641  1
  Rh  Rh10  1  0.250000  0.269687  0.107067  1
  Rh  Rh11  1  0.750000  0.229854  0.610675  1
