# generated using pymatgen
data_Ca5Au6
_symmetry_space_group_name_H-M   'P 1'
_cell_length_a   16.26762436
_cell_length_b   16.26762392
_cell_length_c   3.94757400
_cell_angle_alpha   90.00000000
_cell_angle_beta   90.00000000
_cell_angle_gamma   164.41754257
_symmetry_Int_Tables_number   1
_chemical_formula_structural   Ca5Au6
_chemical_formula_sum   'Ca5 Au6'
_cell_volume   280.62400848
_cell_formula_units_Z   1
loop_
 _symmetry_equiv_pos_site_id
 _symmetry_equiv_pos_as_xyz
  1  'x, y, z'
loop_
 _atom_site_type_symbol
 _atom_site_label
 _atom_site_symmetry_multiplicity
 _atom_site_fract_x
 _atom_site_fract_y
 _atom_site_fract_z
 _atom_site_occupancy
  Ca  Ca0  1  0.000000  0.000000  0.000000  1
  Ca  Ca1  1  0.618492  0.381508  0.000000  1
  Ca  Ca2  1  0.381508  0.618492  0.000000  1
  Ca  Ca3  1  0.803343  0.196656  0.500000  1
  Ca  Ca4  1  0.196656  0.803343  0.500000  1
  Au  Au5  1  0.718885  0.281115  0.000000  1
  Au  Au6  1  0.281115  0.718885  0.000000  1
  Au  Au7  1  0.901306  0.098694  0.500000  1
  Au  Au8  1  0.542443  0.457556  0.500000  1
  Au  Au9  1  0.457556  0.542443  0.500000  1
  Au  Au10  1  0.098694  0.901306  0.500000  1
