# generated using pymatgen
data_Nd6Cd(SiSe7)2
_symmetry_space_group_name_H-M   'P 1'
_cell_length_a   10.72516900
_cell_length_b   10.72516855
_cell_length_c   6.02262500
_cell_angle_alpha   90.00000000
_cell_angle_beta   90.00000000
_cell_angle_gamma   120.00000449
_symmetry_Int_Tables_number   1
_chemical_formula_structural   Nd6Cd(SiSe7)2
_chemical_formula_sum   'Nd6 Cd1 Si2 Se14'
_cell_volume   599.96332687
_cell_formula_units_Z   1
loop_
 _symmetry_equiv_pos_site_id
 _symmetry_equiv_pos_as_xyz
  1  'x, y, z'
loop_
 _atom_site_type_symbol
 _atom_site_label
 _atom_site_symmetry_multiplicity
 _atom_site_fract_x
 _atom_site_fract_y
 _atom_site_fract_z
 _atom_site_occupancy
  Nd  Nd0  1  0.876424  0.232823  0.248926  1
  Nd  Nd1  1  0.767177  0.643604  0.248926  1
  Nd  Nd2  1  0.356396  0.123576  0.248926  1
  Nd  Nd3  1  0.123758  0.767236  0.748779  1
  Nd  Nd4  1  0.232764  0.356522  0.748779  1
  Nd  Nd5  1  0.643478  0.876242  0.748779  1
  Cd  Cd6  1  0.000000  0.000000  0.489150  1
  Si  Si7  1  0.666667  0.333333  0.833803  1
  Si  Si8  1  0.333333  0.666667  0.338215  1
  Se  Se9  1  0.666667  0.333333  0.458353  1
  Se  Se10  1  0.333333  0.666667  0.962102  1
  Se  Se11  1  0.910280  0.168079  0.731443  1
  Se  Se12  1  0.831921  0.742201  0.731443  1
  Se  Se13  1  0.257799  0.089720  0.731443  1
  Se  Se14  1  0.087617  0.829977  0.239195  1
  Se  Se15  1  0.170023  0.257640  0.239195  1
  Se  Se16  1  0.742360  0.912383  0.239195  1
  Se  Se17  1  0.588644  0.108590  0.986654  1
  Se  Se18  1  0.891410  0.480055  0.986654  1
  Se  Se19  1  0.519945  0.411356  0.986654  1
  Se  Se20  1  0.411530  0.891718  0.489681  1
  Se  Se21  1  0.108282  0.519812  0.489681  1
  Se  Se22  1  0.480188  0.588470  0.489681  1
