# generated using pymatgen
data_La3Cu4Ni9B2
_symmetry_space_group_name_H-M   'P 1'
_cell_length_a   5.14037465
_cell_length_b   5.14183604
_cell_length_c   10.91989784
_cell_angle_alpha   89.99773279
_cell_angle_beta   90.00454687
_cell_angle_gamma   119.99058577
_symmetry_Int_Tables_number   1
_chemical_formula_structural   La3Cu4Ni9B2
_chemical_formula_sum   'La3 Cu4 Ni9 B2'
_cell_volume   249.97892370
_cell_formula_units_Z   1
loop_
 _symmetry_equiv_pos_site_id
 _symmetry_equiv_pos_as_xyz
  1  'x, y, z'
loop_
 _atom_site_type_symbol
 _atom_site_label
 _atom_site_symmetry_multiplicity
 _atom_site_fract_x
 _atom_site_fract_y
 _atom_site_fract_z
 _atom_site_occupancy
  La  La0  1  0.000000  0.000000  0.000029  1
  La  La1  1  0.999982  0.000000  0.333081  1
  La  La2  1  0.000002  0.000000  0.666987  1
  Cu  Cu3  1  0.333249  0.666510  0.316415  1
  Cu  Cu4  1  0.666739  0.333490  0.316415  1
  Cu  Cu5  1  0.666732  0.333476  0.683604  1
  Cu  Cu6  1  0.333256  0.666524  0.683604  1
  Ni  Ni7  1  0.500017  0.000000  0.500008  1
  Ni  Ni8  1  0.499958  0.499971  0.499990  1
  Ni  Ni9  1  0.999987  0.500029  0.499990  1
  Ni  Ni10  1  0.500071  0.000000  0.128577  1
  Ni  Ni11  1  0.500046  0.500009  0.128512  1
  Ni  Ni12  1  0.000038  0.499991  0.128512  1
  Ni  Ni13  1  0.499939  0.000000  0.871561  1
  Ni  Ni14  1  0.499943  0.499994  0.871362  1
  Ni  Ni15  1  0.999949  0.500006  0.871362  1
  B  B16  1  0.333322  0.666652  0.999993  1
  B  B17  1  0.666670  0.333348  0.999993  1
