# generated using pymatgen
data_Ti6IrPdN2
_symmetry_space_group_name_H-M   'P 1'
_cell_length_a   5.82545926
_cell_length_b   5.82545961
_cell_length_c   5.82545979
_cell_angle_alpha   121.01171065
_cell_angle_beta   121.01170744
_cell_angle_gamma   88.25642059
_symmetry_Int_Tables_number   1
_chemical_formula_structural   Ti6IrPdN2
_chemical_formula_sum   'Ti6 Ir1 Pd1 N2'
_cell_volume   137.58301939
_cell_formula_units_Z   1
loop_
 _symmetry_equiv_pos_site_id
 _symmetry_equiv_pos_as_xyz
  1  'x, y, z'
loop_
 _atom_site_type_symbol
 _atom_site_label
 _atom_site_symmetry_multiplicity
 _atom_site_fract_x
 _atom_site_fract_y
 _atom_site_fract_z
 _atom_site_occupancy
  Ti  Ti0  1  0.194634  0.694634  0.901828  1
  Ti  Ti1  1  0.707195  0.805366  0.500000  1
  Ti  Ti2  1  0.250000  0.250000  0.000000  1
  Ti  Ti3  1  0.305366  0.207195  0.500000  1
  Ti  Ti4  1  0.792805  0.292805  0.098172  1
  Ti  Ti5  1  0.750000  0.750000  0.000000  1
  Ir  Ir6  1  0.750000  0.250000  0.500000  1
  Pd  Pd7  1  0.250000  0.750000  0.500000  1
  N  N8  1  0.500000  0.500000  0.000000  1
  N  N9  1  0.000000  0.000000  0.000000  1
