# generated using pymatgen
data_Dy9Tm2In9Au4
_symmetry_space_group_name_H-M   'P 1'
_cell_length_a   3.89743200
_cell_length_b   13.19573164
_cell_length_c   13.20575500
_cell_angle_alpha   112.85120431
_cell_angle_beta   90.00000000
_cell_angle_gamma   90.00000000
_symmetry_Int_Tables_number   1
_chemical_formula_structural   Dy9Tm2In9Au4
_chemical_formula_sum   'Dy9 Tm2 In9 Au4'
_cell_volume   625.86167395
_cell_formula_units_Z   1
loop_
 _symmetry_equiv_pos_site_id
 _symmetry_equiv_pos_as_xyz
  1  'x, y, z'
loop_
 _atom_site_type_symbol
 _atom_site_label
 _atom_site_symmetry_multiplicity
 _atom_site_fract_x
 _atom_site_fract_y
 _atom_site_fract_z
 _atom_site_occupancy
  Dy  Dy0  1  0.000000  0.582092  0.927216  1
  Dy  Dy1  1  0.000000  0.417908  0.072784  1
  Dy  Dy2  1  0.000000  0.160234  0.838113  1
  Dy  Dy3  1  0.000000  0.839766  0.161887  1
  Dy  Dy4  1  0.000000  0.366580  0.632394  1
  Dy  Dy5  1  0.000000  0.633420  0.367606  1
  Dy  Dy6  1  0.000000  0.698034  0.697191  1
  Dy  Dy7  1  0.000000  0.301966  0.302809  1
  Dy  Dy8  1  0.000000  0.000000  0.000000  1
  Tm  Tm9  1  0.000000  0.925782  0.581603  1
  Tm  Tm10  1  0.000000  0.074218  0.418397  1
  In  In11  1  0.500000  0.148671  0.631206  1
  In  In12  1  0.500000  0.851329  0.368794  1
  In  In13  1  0.500000  0.633780  0.152285  1
  In  In14  1  0.500000  0.366220  0.847715  1
  In  In15  1  0.500000  0.934548  0.785831  1
  In  In16  1  0.500000  0.065452  0.214169  1
  In  In17  1  0.500000  0.786620  0.933312  1
  In  In18  1  0.500000  0.213380  0.066688  1
  In  In19  1  0.500000  0.500000  0.500000  1
  Au  Au20  1  0.500000  0.751447  0.550136  1
  Au  Au21  1  0.500000  0.248553  0.449864  1
  Au  Au22  1  0.500000  0.549965  0.749337  1
  Au  Au23  1  0.500000  0.450035  0.250663  1
