# generated using pymatgen
data_Sc10TlSn4Bi
_symmetry_space_group_name_H-M   'P 1'
_cell_length_a   8.50930400
_cell_length_b   8.49530197
_cell_length_c   6.12399900
_cell_angle_alpha   90.00000000
_cell_angle_beta   90.00000000
_cell_angle_gamma   120.07606128
_symmetry_Int_Tables_number   1
_chemical_formula_structural   Sc10TlSn4Bi
_chemical_formula_sum   'Sc10 Tl1 Sn4 Bi1'
_cell_volume   383.09389420
_cell_formula_units_Z   1
loop_
 _symmetry_equiv_pos_site_id
 _symmetry_equiv_pos_as_xyz
  1  'x, y, z'
loop_
 _atom_site_type_symbol
 _atom_site_label
 _atom_site_symmetry_multiplicity
 _atom_site_fract_x
 _atom_site_fract_y
 _atom_site_fract_z
 _atom_site_occupancy
  Sc  Sc0  1  0.332136  0.662075  0.497775  1
  Sc  Sc1  1  0.670672  0.337804  0.002183  1
  Sc  Sc2  1  0.670672  0.337804  0.497817  1
  Sc  Sc3  1  0.332136  0.662075  0.002225  1
  Sc  Sc4  1  0.768099  0.000940  0.750000  1
  Sc  Sc5  1  0.763708  0.762435  0.250000  1
  Sc  Sc6  1  0.235295  0.999607  0.250000  1
  Sc  Sc7  1  0.233938  0.241459  0.750000  1
  Sc  Sc8  1  0.993399  0.759342  0.750000  1
  Sc  Sc9  1  0.000959  0.236942  0.250000  1
  Tl  Tl10  1  0.999064  0.395575  0.750000  1
  Sn  Sn11  1  0.394848  0.392435  0.250000  1
  Sn  Sn12  1  0.001893  0.607180  0.250000  1
  Sn  Sn13  1  0.604331  0.605073  0.750000  1
  Sn  Sn14  1  0.607368  0.999378  0.250000  1
  Bi  Bi15  1  0.391483  0.999875  0.750000  1
