# generated using pymatgen
data_Ga2SiB4Ir9
_symmetry_space_group_name_H-M   'P 1'
_cell_length_a   8.99537772
_cell_length_b   9.06077575
_cell_length_c   5.74627800
_cell_angle_alpha   90.00000000
_cell_angle_beta   90.00000000
_cell_angle_gamma   119.99364530
_symmetry_Int_Tables_number   1
_chemical_formula_structural   Ga2SiB4Ir9
_chemical_formula_sum   'Ga4 Si2 B8 Ir18'
_cell_volume   405.62980338
_cell_formula_units_Z   2
loop_
 _symmetry_equiv_pos_site_id
 _symmetry_equiv_pos_as_xyz
  1  'x, y, z'
loop_
 _atom_site_type_symbol
 _atom_site_label
 _atom_site_symmetry_multiplicity
 _atom_site_fract_x
 _atom_site_fract_y
 _atom_site_fract_z
 _atom_site_occupancy
  Ga  Ga0  1  0.447006  0.987684  0.250000  1
  Ga  Ga1  1  0.540910  0.553485  0.250000  1
  Ga  Ga2  1  0.987984  0.447656  0.750000  1
  Ga  Ga3  1  0.012564  0.461948  0.250000  1
  Si  Si4  1  0.472817  0.016959  0.750000  1
  Si  Si5  1  0.545410  0.526149  0.750000  1
  B  B6  1  0.810167  0.000523  0.500468  1
  B  B7  1  0.810167  0.000523  0.999532  1
  B  B8  1  0.998932  0.809501  0.501925  1
  B  B9  1  0.190282  0.189115  0.501894  1
  B  B10  1  0.190282  0.189115  0.998106  1
  B  B11  1  0.998932  0.809501  0.998075  1
  B  B12  1  0.667843  0.334916  0.250000  1
  B  B13  1  0.331141  0.666984  0.750000  1
  Ir  Ir14  1  0.810736  0.536715  0.502712  1
  Ir  Ir15  1  0.534770  0.818407  0.502322  1
  Ir  Ir16  1  0.997219  0.177298  0.750000  1
  Ir  Ir17  1  0.282770  0.466602  0.502374  1
  Ir  Ir18  1  0.005099  0.185164  0.250000  1
  Ir  Ir19  1  0.719716  0.186283  0.502884  1
  Ir  Ir20  1  0.814662  0.821433  0.250000  1
  Ir  Ir21  1  0.185380  0.722718  0.498889  1
  Ir  Ir22  1  0.464786  0.279041  0.504142  1
  Ir  Ir23  1  0.810736  0.536715  0.997288  1
  Ir  Ir24  1  0.464786  0.279041  0.995858  1
  Ir  Ir25  1  0.194774  0.001251  0.750000  1
  Ir  Ir26  1  0.180286  0.997337  0.250000  1
  Ir  Ir27  1  0.185380  0.722718  0.001111  1
  Ir  Ir28  1  0.807210  0.803926  0.750000  1
  Ir  Ir29  1  0.719716  0.186283  0.997116  1
  Ir  Ir30  1  0.282770  0.466602  0.997626  1
  Ir  Ir31  1  0.534770  0.818407  0.997678  1
