# generated using pymatgen
data_La7Nd9Cd4CoPt3
_symmetry_space_group_name_H-M   'P 1'
_cell_length_a   10.04227326
_cell_length_b   10.04115802
_cell_length_c   10.06633265
_cell_angle_alpha   60.04566384
_cell_angle_beta   60.19384413
_cell_angle_gamma   60.33501739
_symmetry_Int_Tables_number   1
_chemical_formula_structural   La7Nd9Cd4CoPt3
_chemical_formula_sum   'La7 Nd9 Cd4 Co1 Pt3'
_cell_volume   720.85172777
_cell_formula_units_Z   1
loop_
 _symmetry_equiv_pos_site_id
 _symmetry_equiv_pos_as_xyz
  1  'x, y, z'
loop_
 _atom_site_type_symbol
 _atom_site_label
 _atom_site_symmetry_multiplicity
 _atom_site_fract_x
 _atom_site_fract_y
 _atom_site_fract_z
 _atom_site_occupancy
  La  La0  1  0.349762  0.350032  0.351779  1
  La  La1  1  0.344509  0.342678  0.954059  1
  La  La2  1  0.346082  0.953360  0.343844  1
  La  La3  1  0.952943  0.345603  0.345335  1
  La  La4  1  0.821783  0.189684  0.187762  1
  La  La5  1  0.190358  0.809639  0.808520  1
  La  La6  1  0.189144  0.822272  0.189224  1
  Nd  Nd7  1  0.808112  0.191854  0.808299  1
  Nd  Nd8  1  0.189988  0.192002  0.816700  1
  Nd  Nd9  1  0.806759  0.807972  0.191761  1
  Nd  Nd10  1  0.936179  0.563435  0.565085  1
  Nd  Nd11  1  0.565187  0.934484  0.932768  1
  Nd  Nd12  1  0.563893  0.937111  0.564142  1
  Nd  Nd13  1  0.934284  0.564269  0.933687  1
  Nd  Nd14  1  0.564295  0.563045  0.936595  1
  Nd  Nd15  1  0.933640  0.934753  0.565096  1
  Cd  Cd16  1  0.581234  0.579436  0.579588  1
  Cd  Cd17  1  0.582099  0.581902  0.256823  1
  Cd  Cd18  1  0.581006  0.256712  0.582638  1
  Cd  Cd19  1  0.257094  0.580177  0.582013  1
  Co  Co20  1  0.140366  0.139737  0.145173  1
  Pt  Pt21  1  0.143545  0.142360  0.572808  1
  Pt  Pt22  1  0.144298  0.573329  0.142714  1
  Pt  Pt23  1  0.573436  0.144148  0.143584  1
