# generated using pymatgen
data_Ca3Pr5In4
_symmetry_space_group_name_H-M   'P 1'
_cell_length_a   7.04871035
_cell_length_b   5.56857900
_cell_length_c   9.67585919
_cell_angle_alpha   90.00000000
_cell_angle_beta   89.73719259
_cell_angle_gamma   90.00000000
_symmetry_Int_Tables_number   1
_chemical_formula_structural   Ca3Pr5In4
_chemical_formula_sum   'Ca3 Pr5 In4'
_cell_volume   379.78606066
_cell_formula_units_Z   1
loop_
 _symmetry_equiv_pos_site_id
 _symmetry_equiv_pos_as_xyz
  1  'x, y, z'
loop_
 _atom_site_type_symbol
 _atom_site_label
 _atom_site_symmetry_multiplicity
 _atom_site_fract_x
 _atom_site_fract_y
 _atom_site_fract_z
 _atom_site_occupancy
  Ca  Ca0  1  0.500883  0.750001  0.242617  1
  Ca  Ca1  1  0.499898  0.250002  0.757250  1
  Ca  Ca2  1  0.000710  0.750001  0.257424  1
  Pr  Pr3  1  0.753522  0.250002  0.084077  1
  Pr  Pr4  1  0.735170  0.750001  0.581760  1
  Pr  Pr5  1  0.264054  0.250002  0.415401  1
  Pr  Pr6  1  0.245700  0.750001  0.918095  1
  Pr  Pr7  1  0.000004  0.250002  0.742492  1
  In  In8  1  0.248538  0.250002  0.083928  1
  In  In9  1  0.241397  0.750001  0.586425  1
  In  In10  1  0.759196  0.250002  0.415790  1
  In  In11  1  0.750925  0.750001  0.914740  1
