# generated using pymatgen
data_Tb3TmCu2(Si2Ru)2
_symmetry_space_group_name_H-M   'P 1'
_cell_length_a   4.23772500
_cell_length_b   6.97036506
_cell_length_c   7.35558114
_cell_angle_alpha   91.63195027
_cell_angle_beta   90.00000000
_cell_angle_gamma   90.00000000
_symmetry_Int_Tables_number   1
_chemical_formula_structural   Tb3TmCu2(Si2Ru)2
_chemical_formula_sum   'Tb3 Tm1 Cu2 Si4 Ru2'
_cell_volume   217.18463367
_cell_formula_units_Z   1
loop_
 _symmetry_equiv_pos_site_id
 _symmetry_equiv_pos_as_xyz
  1  'x, y, z'
loop_
 _atom_site_type_symbol
 _atom_site_label
 _atom_site_symmetry_multiplicity
 _atom_site_fract_x
 _atom_site_fract_y
 _atom_site_fract_z
 _atom_site_occupancy
  Tb  Tb0  1  0.250000  0.992909  0.796663  1
  Tb  Tb1  1  0.750000  0.007901  0.204469  1
  Tb  Tb2  1  0.250000  0.493367  0.685684  1
  Tm  Tm3  1  0.750000  0.509328  0.308228  1
  Cu  Cu4  1  0.750000  0.829291  0.573905  1
  Cu  Cu5  1  0.250000  0.168580  0.424796  1
  Si  Si6  1  0.250000  0.299678  0.090655  1
  Si  Si7  1  0.750000  0.699364  0.912976  1
  Si  Si8  1  0.250000  0.795458  0.389294  1
  Si  Si9  1  0.750000  0.205599  0.609434  1
  Ru  Ru10  1  0.750000  0.347453  0.935168  1
  Ru  Ru11  1  0.250000  0.651070  0.068728  1
