# generated using pymatgen
data_Zr3Sc5P12Ir15Rh
_symmetry_space_group_name_H-M   'P 1'
_cell_length_a   12.84285072
_cell_length_b   12.85224472
_cell_length_c   3.88899600
_cell_angle_alpha   90.00000000
_cell_angle_beta   90.00000000
_cell_angle_gamma   120.03514101
_symmetry_Int_Tables_number   1
_chemical_formula_structural   Zr3Sc5P12Ir15Rh
_chemical_formula_sum   'Zr3 Sc5 P12 Ir15 Rh1'
_cell_volume   555.71824424
_cell_formula_units_Z   1
loop_
 _symmetry_equiv_pos_site_id
 _symmetry_equiv_pos_as_xyz
  1  'x, y, z'
loop_
 _atom_site_type_symbol
 _atom_site_label
 _atom_site_symmetry_multiplicity
 _atom_site_fract_x
 _atom_site_fract_y
 _atom_site_fract_z
 _atom_site_occupancy
  Zr  Zr0  1  0.447977  0.999673  0.000000  1
  Zr  Zr1  1  0.000109  0.448357  0.000000  1
  Zr  Zr2  1  0.552371  0.552493  0.000000  1
  Sc  Sc3  1  0.333340  0.667818  0.000000  1
  Sc  Sc4  1  0.666593  0.333566  0.000000  1
  Sc  Sc5  1  0.815599  0.999112  0.500000  1
  Sc  Sc6  1  0.999083  0.815454  0.500000  1
  Sc  Sc7  1  0.184138  0.184400  0.500000  1
  P  P8  1  0.173669  0.000035  0.000000  1
  P  P9  1  0.000915  0.174217  0.000000  1
  P  P10  1  0.826917  0.826981  0.000000  1
  P  P11  1  0.172689  0.482766  0.500000  1
  P  P12  1  0.515906  0.687778  0.500000  1
  P  P13  1  0.311136  0.828265  0.500000  1
  P  P14  1  0.688129  0.516794  0.500000  1
  P  P15  1  0.828189  0.311297  0.500000  1
  P  P16  1  0.482969  0.171763  0.500000  1
  P  P17  1  0.653262  0.000163  0.000000  1
  P  P18  1  0.999749  0.652845  0.000000  1
  P  P19  1  0.347445  0.347495  0.000000  1
  Ir  Ir20  1  0.503901  0.862810  0.500000  1
  Ir  Ir21  1  0.138003  0.640803  0.500000  1
  Ir  Ir22  1  0.862301  0.503834  0.500000  1
  Ir  Ir23  1  0.641030  0.137441  0.500000  1
  Ir  Ir24  1  0.495962  0.358277  0.500000  1
  Ir  Ir25  1  0.178782  0.370764  0.000000  1
  Ir  Ir26  1  0.630389  0.809540  0.000000  1
  Ir  Ir27  1  0.190204  0.820827  0.000000  1
  Ir  Ir28  1  0.809411  0.630785  0.000000  1
  Ir  Ir29  1  0.821377  0.190529  0.000000  1
  Ir  Ir30  1  0.369233  0.178501  0.000000  1
  Ir  Ir31  1  0.273686  0.999893  0.500000  1
  Ir  Ir32  1  0.999965  0.273339  0.500000  1
  Ir  Ir33  1  0.726991  0.727239  0.500000  1
  Ir  Ir34  1  0.000573  0.000701  0.000000  1
  Rh  Rh35  1  0.358005  0.493446  0.500000  1
