# generated using pymatgen
data_La2Dy3Tm(RuO7)2
_symmetry_space_group_name_H-M   'P 1'
_cell_length_a   6.45988755
_cell_length_b   6.46192246
_cell_length_c   7.52424700
_cell_angle_alpha   90.00000000
_cell_angle_beta   90.00000000
_cell_angle_gamma   109.86087752
_symmetry_Int_Tables_number   1
_chemical_formula_structural   La2Dy3Tm(RuO7)2
_chemical_formula_sum   'La2 Dy3 Tm1 Ru2 O14'
_cell_volume   295.40505939
_cell_formula_units_Z   1
loop_
 _symmetry_equiv_pos_site_id
 _symmetry_equiv_pos_as_xyz
  1  'x, y, z'
loop_
 _atom_site_type_symbol
 _atom_site_label
 _atom_site_symmetry_multiplicity
 _atom_site_fract_x
 _atom_site_fract_y
 _atom_site_fract_z
 _atom_site_occupancy
  La  La0  1  0.000130  0.999295  0.500578  1
  La  La1  1  0.000130  0.999295  0.999422  1
  Dy  Dy2  1  0.518339  0.070547  0.250000  1
  Dy  Dy3  1  0.930360  0.481520  0.750000  1
  Dy  Dy4  1  0.070375  0.517970  0.250000  1
  Tm  Tm5  1  0.483384  0.934302  0.750000  1
  Ru  Ru6  1  0.499507  0.500332  0.500796  1
  Ru  Ru7  1  0.499507  0.500332  0.999204  1
  O  O8  1  0.589163  0.592011  0.750000  1
  O  O9  1  0.411054  0.410285  0.250000  1
  O  O10  1  0.833851  0.116226  0.750000  1
  O  O11  1  0.163320  0.882165  0.250000  1
  O  O12  1  0.123536  0.836188  0.750000  1
  O  O13  1  0.882067  0.162399  0.250000  1
  O  O14  1  0.444800  0.183338  0.960604  1
  O  O15  1  0.553985  0.817158  0.465691  1
  O  O16  1  0.182021  0.440939  0.962819  1
  O  O17  1  0.816834  0.557130  0.463040  1
  O  O18  1  0.444800  0.183338  0.539396  1
  O  O19  1  0.553985  0.817158  0.034309  1
  O  O20  1  0.816834  0.557130  0.036960  1
  O  O21  1  0.182021  0.440939  0.537181  1
