# generated using pymatgen
data_Hf2Zr6Nb12Si15Ge
_symmetry_space_group_name_H-M   'P 1'
_cell_length_a   6.70189302
_cell_length_b   6.88930939
_cell_length_c   13.15159738
_cell_angle_alpha   90.02763237
_cell_angle_beta   89.99859870
_cell_angle_gamma   89.98194900
_symmetry_Int_Tables_number   1
_chemical_formula_structural   Hf2Zr6Nb12Si15Ge
_chemical_formula_sum   'Hf2 Zr6 Nb12 Si15 Ge1'
_cell_volume   607.22775335
_cell_formula_units_Z   1
loop_
 _symmetry_equiv_pos_site_id
 _symmetry_equiv_pos_as_xyz
  1  'x, y, z'
loop_
 _atom_site_type_symbol
 _atom_site_label
 _atom_site_symmetry_multiplicity
 _atom_site_fract_x
 _atom_site_fract_y
 _atom_site_fract_z
 _atom_site_occupancy
  Hf  Hf0  1  0.496899  0.673618  0.905034  1
  Hf  Hf1  1  0.996935  0.826154  0.594489  1
  Zr  Zr2  1  0.497630  0.673639  0.594454  1
  Zr  Zr3  1  0.997738  0.826071  0.905977  1
  Zr  Zr4  1  0.500716  0.327069  0.092856  1
  Zr  Zr5  1  0.004539  0.170582  0.408463  1
  Zr  Zr6  1  0.500396  0.326323  0.406840  1
  Zr  Zr7  1  0.004389  0.171310  0.091846  1
  Nb  Nb8  1  0.663297  0.170539  0.623936  1
  Nb  Nb9  1  0.163423  0.329877  0.876052  1
  Nb  Nb10  1  0.336940  0.829393  0.123141  1
  Nb  Nb11  1  0.838201  0.673395  0.377229  1
  Nb  Nb12  1  0.336039  0.829949  0.376591  1
  Nb  Nb13  1  0.837180  0.672843  0.123053  1
  Nb  Nb14  1  0.663097  0.170674  0.875894  1
  Nb  Nb15  1  0.163219  0.329731  0.624113  1
  Nb  Nb16  1  0.837947  0.497874  0.750147  1
  Nb  Nb17  1  0.337986  0.002913  0.749852  1
  Nb  Nb18  1  0.164581  0.504740  0.249929  1
  Nb  Nb19  1  0.660443  0.993130  0.250056  1
  Si  Si20  1  0.670390  0.962369  0.462088  1
  Si  Si21  1  0.170593  0.538037  0.038271  1
  Si  Si22  1  0.329797  0.036587  0.960281  1
  Si  Si23  1  0.829569  0.463510  0.539351  1
  Si  Si24  1  0.327955  0.036658  0.539691  1
  Si  Si25  1  0.827670  0.463379  0.960703  1
  Si  Si26  1  0.669955  0.962049  0.037732  1
  Si  Si27  1  0.170198  0.538334  0.461895  1
  Si  Si28  1  0.462164  0.387010  0.750181  1
  Si  Si29  1  0.961915  0.113904  0.749816  1
  Si  Si30  1  0.537474  0.616185  0.250167  1
  Si  Si31  1  0.038380  0.886120  0.249838  1
  Si  Si32  1  0.704905  0.862126  0.750156  1
  Si  Si33  1  0.204442  0.638352  0.749849  1
  Si  Si34  1  0.295228  0.137773  0.249853  1
  Ge  Ge35  1  0.797770  0.357779  0.250177  1
