# generated using pymatgen
data_Sc8GaBBr12
_symmetry_space_group_name_H-M   'P 1'
_cell_length_a   3.74886600
_cell_length_b   12.80812163
_cell_length_c   13.24633337
_cell_angle_alpha   89.06516768
_cell_angle_beta   90.00000000
_cell_angle_gamma   90.00000000
_symmetry_Int_Tables_number   1
_chemical_formula_structural   Sc8GaBBr12
_chemical_formula_sum   'Sc8 Ga1 B1 Br12'
_cell_volume   635.95038152
_cell_formula_units_Z   1
loop_
 _symmetry_equiv_pos_site_id
 _symmetry_equiv_pos_as_xyz
  1  'x, y, z'
loop_
 _atom_site_type_symbol
 _atom_site_label
 _atom_site_symmetry_multiplicity
 _atom_site_fract_x
 _atom_site_fract_y
 _atom_site_fract_z
 _atom_site_occupancy
  Sc  Sc0  1  0.000000  0.116721  0.092927  1
  Sc  Sc1  1  0.000000  0.883279  0.907073  1
  Sc  Sc2  1  0.000000  0.595744  0.423387  1
  Sc  Sc3  1  0.000000  0.404256  0.576613  1
  Sc  Sc4  1  0.500000  0.133070  0.844040  1
  Sc  Sc5  1  0.500000  0.866930  0.155960  1
  Sc  Sc6  1  0.500000  0.614614  0.634755  1
  Sc  Sc7  1  0.500000  0.385386  0.365245  1
  Ga  Ga8  1  0.500000  0.000000  0.000000  1
  B  B9  1  0.500000  0.500000  0.500000  1
  Br  Br10  1  0.500000  0.272663  0.678252  1
  Br  Br11  1  0.500000  0.727337  0.321748  1
  Br  Br12  1  0.500000  0.763265  0.814409  1
  Br  Br13  1  0.500000  0.236735  0.185591  1
  Br  Br14  1  0.000000  0.260289  0.929363  1
  Br  Br15  1  0.000000  0.739711  0.070637  1
  Br  Br16  1  0.000000  0.482094  0.247078  1
  Br  Br17  1  0.000000  0.517906  0.752922  1
  Br  Br18  1  0.000000  0.978025  0.260447  1
  Br  Br19  1  0.000000  0.021975  0.739553  1
  Br  Br20  1  0.000000  0.247180  0.434267  1
  Br  Br21  1  0.000000  0.752820  0.565733  1
