# generated using pymatgen
data_Pr4Nd12Cd4IrRu3
_symmetry_space_group_name_H-M   'P 1'
_cell_length_a   9.98843298
_cell_length_b   9.98826742
_cell_length_c   9.98826661
_cell_angle_alpha   59.71412750
_cell_angle_beta   59.70862542
_cell_angle_gamma   59.70862979
_symmetry_Int_Tables_number   1
_chemical_formula_structural   Pr4Nd12Cd4IrRu3
_chemical_formula_sum   'Pr4 Nd12 Cd4 Ir1 Ru3'
_cell_volume   699.99849810
_cell_formula_units_Z   1
loop_
 _symmetry_equiv_pos_site_id
 _symmetry_equiv_pos_as_xyz
  1  'x, y, z'
loop_
 _atom_site_type_symbol
 _atom_site_label
 _atom_site_symmetry_multiplicity
 _atom_site_fract_x
 _atom_site_fract_y
 _atom_site_fract_z
 _atom_site_occupancy
  Pr  Pr0  1  0.560975  0.937912  0.562757  1
  Pr  Pr1  1  0.939436  0.561029  0.940216  1
  Pr  Pr2  1  0.560975  0.562757  0.937912  1
  Pr  Pr3  1  0.939436  0.940216  0.561029  1
  Nd  Nd4  1  0.345019  0.347088  0.347088  1
  Nd  Nd5  1  0.344862  0.347025  0.960206  1
  Nd  Nd6  1  0.344862  0.960206  0.347025  1
  Nd  Nd7  1  0.961693  0.345446  0.345446  1
  Nd  Nd8  1  0.810808  0.190407  0.190407  1
  Nd  Nd9  1  0.190299  0.810513  0.810513  1
  Nd  Nd10  1  0.191081  0.809070  0.189954  1
  Nd  Nd11  1  0.811937  0.190944  0.808126  1
  Nd  Nd12  1  0.191081  0.189954  0.809070  1
  Nd  Nd13  1  0.811937  0.808126  0.190944  1
  Nd  Nd14  1  0.938857  0.561184  0.561184  1
  Nd  Nd15  1  0.559304  0.940542  0.940542  1
  Cd  Cd16  1  0.579732  0.578786  0.578786  1
  Cd  Cd17  1  0.579061  0.579640  0.261429  1
  Cd  Cd18  1  0.579061  0.261429  0.579640  1
  Cd  Cd19  1  0.261510  0.578962  0.578962  1
  Ir  Ir20  1  0.578901  0.139889  0.139889  1
  Ru  Ru21  1  0.140462  0.136743  0.136743  1
  Ru  Ru22  1  0.139354  0.138311  0.583818  1
  Ru  Ru23  1  0.139354  0.583818  0.138311  1
