# generated using pymatgen
data_Sm7ThPPd24
_symmetry_space_group_name_H-M   'P 1'
_cell_length_a   8.44473391
_cell_length_b   8.44473381
_cell_length_c   8.44473300
_cell_angle_alpha   89.95244537
_cell_angle_beta   89.95244537
_cell_angle_gamma   89.95243984
_symmetry_Int_Tables_number   1
_chemical_formula_structural   Sm7ThPPd24
_chemical_formula_sum   'Sm7 Th1 P1 Pd24'
_cell_volume   602.22309800
_cell_formula_units_Z   1
loop_
 _symmetry_equiv_pos_site_id
 _symmetry_equiv_pos_as_xyz
  1  'x, y, z'
loop_
 _atom_site_type_symbol
 _atom_site_label
 _atom_site_symmetry_multiplicity
 _atom_site_fract_x
 _atom_site_fract_y
 _atom_site_fract_z
 _atom_site_occupancy
  Sm  Sm0  1  0.746501  0.746501  0.746501  1
  Sm  Sm1  1  0.746710  0.746710  0.253147  1
  Sm  Sm2  1  0.746710  0.253147  0.746710  1
  Sm  Sm3  1  0.253309  0.253309  0.747955  1
  Sm  Sm4  1  0.253309  0.747955  0.253309  1
  Sm  Sm5  1  0.253147  0.746710  0.746710  1
  Sm  Sm6  1  0.747955  0.253309  0.253309  1
  Th  Th7  1  0.254306  0.254306  0.254306  1
  P  P8  1  0.998707  0.998707  0.998707  1
  Pd  Pd9  1  0.256143  0.498786  0.001667  1
  Pd  Pd10  1  0.743755  0.499997  0.000165  1
  Pd  Pd11  1  0.001667  0.256143  0.498786  1
  Pd  Pd12  1  0.498786  0.256143  0.001667  1
  Pd  Pd13  1  0.000165  0.743755  0.499997  1
  Pd  Pd14  1  0.499997  0.743755  0.000165  1
  Pd  Pd15  1  0.498786  0.001667  0.256143  1
  Pd  Pd16  1  0.256143  0.001667  0.498786  1
  Pd  Pd17  1  0.499997  0.000165  0.743755  1
  Pd  Pd18  1  0.743755  0.000165  0.499997  1
  Pd  Pd19  1  0.001667  0.498786  0.256143  1
  Pd  Pd20  1  0.000165  0.499997  0.743755  1
  Pd  Pd21  1  0.251516  0.499710  0.499710  1
  Pd  Pd22  1  0.749019  0.499725  0.499725  1
  Pd  Pd23  1  0.499710  0.251516  0.499710  1
  Pd  Pd24  1  0.499725  0.749019  0.499725  1
  Pd  Pd25  1  0.499710  0.499710  0.251516  1
  Pd  Pd26  1  0.499725  0.499725  0.749019  1
  Pd  Pd27  1  0.278036  0.999505  0.999505  1
  Pd  Pd28  1  0.720973  0.000447  0.000447  1
  Pd  Pd29  1  0.999505  0.278036  0.999505  1
  Pd  Pd30  1  0.000447  0.720973  0.000447  1
  Pd  Pd31  1  0.999505  0.999505  0.278036  1
  Pd  Pd32  1  0.000447  0.000447  0.720973  1
