# generated using pymatgen
data_TbU7(PS)8
_symmetry_space_group_name_H-M   'P 1'
_cell_length_a   5.34387800
_cell_length_b   5.33503200
_cell_length_c   16.08848900
_cell_angle_alpha   89.99901391
_cell_angle_beta   89.99995719
_cell_angle_gamma   90.00004292
_symmetry_Int_Tables_number   1
_chemical_formula_structural   TbU7(PS)8
_chemical_formula_sum   'Tb1 U7 P8 S8'
_cell_volume   458.67896232
_cell_formula_units_Z   1
loop_
 _symmetry_equiv_pos_site_id
 _symmetry_equiv_pos_as_xyz
  1  'x, y, z'
loop_
 _atom_site_type_symbol
 _atom_site_label
 _atom_site_symmetry_multiplicity
 _atom_site_fract_x
 _atom_site_fract_y
 _atom_site_fract_z
 _atom_site_occupancy
  Tb  Tb0  1  0.749999  0.499894  0.131648  1
  U  U1  1  0.250000  0.499905  0.365665  1
  U  U2  1  0.249999  0.999902  0.144725  1
  U  U3  1  0.750001  0.500136  0.640266  1
  U  U4  1  0.750000  0.000065  0.859698  1
  U  U5  1  0.250001  0.000137  0.638534  1
  U  U6  1  0.250000  0.500050  0.858823  1
  U  U7  1  0.749999  0.999902  0.361457  1
  P  P8  1  0.028154  0.223654  0.997655  1
  P  P9  1  0.509668  0.754132  0.501406  1
  P  P10  1  0.471870  0.776292  0.997652  1
  P  P11  1  0.990168  0.245930  0.501403  1
  P  P12  1  0.028129  0.776292  0.997652  1
  P  P13  1  0.509832  0.245931  0.501403  1
  P  P14  1  0.471846  0.223654  0.997656  1
  P  P15  1  0.990335  0.754136  0.501406  1
  S  S16  1  0.249999  0.499896  0.184179  1
  S  S17  1  0.250000  0.999908  0.321989  1
  S  S18  1  0.750000  0.500074  0.819297  1
  S  S19  1  0.750001  0.000130  0.682500  1
  S  S20  1  0.250000  0.000067  0.814340  1
  S  S21  1  0.250001  0.500121  0.680871  1
  S  S22  1  0.749998  0.999887  0.182291  1
  S  S23  1  0.750000  0.499903  0.317484  1
