# generated using pymatgen
data_Er12Tc3Pt
_symmetry_space_group_name_H-M   'P 1'
_cell_length_a   6.26353120
_cell_length_b   7.31055747
_cell_length_c   9.12372600
_cell_angle_alpha   90.00000000
_cell_angle_beta   90.00000000
_cell_angle_gamma   90.08436393
_symmetry_Int_Tables_number   1
_chemical_formula_structural   Er12Tc3Pt
_chemical_formula_sum   'Er12 Tc3 Pt1'
_cell_volume   417.77409220
_cell_formula_units_Z   1
loop_
 _symmetry_equiv_pos_site_id
 _symmetry_equiv_pos_as_xyz
  1  'x, y, z'
loop_
 _atom_site_type_symbol
 _atom_site_label
 _atom_site_symmetry_multiplicity
 _atom_site_fract_x
 _atom_site_fract_y
 _atom_site_fract_z
 _atom_site_occupancy
  Er  Er0  1  0.326507  0.677031  0.066636  1
  Er  Er1  1  0.167821  0.177633  0.437239  1
  Er  Er2  1  0.670131  0.318289  0.558409  1
  Er  Er3  1  0.834621  0.825874  0.940799  1
  Er  Er4  1  0.670131  0.318289  0.941591  1
  Er  Er5  1  0.834621  0.825874  0.559201  1
  Er  Er6  1  0.326507  0.677031  0.433364  1
  Er  Er7  1  0.167821  0.177633  0.062761  1
  Er  Er8  1  0.873883  0.540764  0.250000  1
  Er  Er9  1  0.623667  0.038030  0.250000  1
  Er  Er10  1  0.127395  0.457177  0.750000  1
  Er  Er11  1  0.372494  0.965250  0.750000  1
  Tc  Tc12  1  0.039053  0.887582  0.250000  1
  Tc  Tc13  1  0.462682  0.388888  0.250000  1
  Tc  Tc14  1  0.957495  0.112249  0.750000  1
  Pt  Pt15  1  0.545171  0.612407  0.750000  1
