# generated using pymatgen
data_Ac4CoGe2IrI2
_symmetry_space_group_name_H-M   'P 1'
_cell_length_a   4.45924500
_cell_length_b   4.45924522
_cell_length_c   18.06849200
_cell_angle_alpha   90.00000000
_cell_angle_beta   90.00000000
_cell_angle_gamma   119.99999091
_symmetry_Int_Tables_number   1
_chemical_formula_structural   Ac4CoGe2IrI2
_chemical_formula_sum   'Ac4 Co1 Ge2 Ir1 I2'
_cell_volume   311.15391460
_cell_formula_units_Z   1
loop_
 _symmetry_equiv_pos_site_id
 _symmetry_equiv_pos_as_xyz
  1  'x, y, z'
loop_
 _atom_site_type_symbol
 _atom_site_label
 _atom_site_symmetry_multiplicity
 _atom_site_fract_x
 _atom_site_fract_y
 _atom_site_fract_z
 _atom_site_occupancy
  Ac  Ac0  1  0.000000  0.000000  0.104540  1
  Ac  Ac1  1  0.000000  0.000000  0.901392  1
  Ac  Ac2  1  0.000000  0.000000  0.600396  1
  Ac  Ac3  1  0.000000  0.000000  0.393161  1
  Co  Co4  1  0.333333  0.666667  0.999102  1
  Ge  Ge5  1  0.666667  0.333333  0.493138  1
  Ge  Ge6  1  0.666667  0.333333  0.004535  1
  Ir  Ir7  1  0.333333  0.666667  0.502532  1
  I  I8  1  0.333333  0.666667  0.249351  1
  I  I9  1  0.666667  0.333333  0.751853  1
