# generated using pymatgen
data_Er12Co8Si7Ni
_symmetry_space_group_name_H-M   'P 1'
_cell_length_a   5.45124170
_cell_length_b   7.51270824
_cell_length_c   12.57150200
_cell_angle_alpha   90.00000000
_cell_angle_beta   90.00000000
_cell_angle_gamma   90.54933607
_symmetry_Int_Tables_number   1
_chemical_formula_structural   Er12Co8Si7Ni
_chemical_formula_sum   'Er12 Co8 Si7 Ni1'
_cell_volume   514.82445552
_cell_formula_units_Z   1
loop_
 _symmetry_equiv_pos_site_id
 _symmetry_equiv_pos_as_xyz
  1  'x, y, z'
loop_
 _atom_site_type_symbol
 _atom_site_label
 _atom_site_symmetry_multiplicity
 _atom_site_fract_x
 _atom_site_fract_y
 _atom_site_fract_z
 _atom_site_occupancy
  Er  Er0  1  0.630105  0.243098  0.250000  1
  Er  Er1  1  0.375194  0.746979  0.750000  1
  Er  Er2  1  0.364377  0.760665  0.250000  1
  Er  Er3  1  0.631843  0.247886  0.750000  1
  Er  Er4  1  0.138502  0.389990  0.103642  1
  Er  Er5  1  0.863914  0.605295  0.899611  1
  Er  Er6  1  0.863914  0.605295  0.600389  1
  Er  Er7  1  0.859120  0.899743  0.398440  1
  Er  Er8  1  0.138502  0.389990  0.396358  1
  Er  Er9  1  0.143303  0.103364  0.601501  1
  Er  Er10  1  0.143303  0.103364  0.898499  1
  Er  Er11  1  0.859120  0.899743  0.101560  1
  Co  Co12  1  0.361733  0.029868  0.085039  1
  Co  Co13  1  0.641968  0.973735  0.911876  1
  Co  Co14  1  0.641968  0.973735  0.588124  1
  Co  Co15  1  0.630473  0.527779  0.412550  1
  Co  Co16  1  0.361733  0.029868  0.414961  1
  Co  Co17  1  0.364364  0.470672  0.587182  1
  Co  Co18  1  0.364364  0.470672  0.912818  1
  Co  Co19  1  0.630473  0.527779  0.087450  1
  Si  Si20  1  0.851416  0.898782  0.750000  1
  Si  Si21  1  0.838105  0.598243  0.250000  1
  Si  Si22  1  0.153128  0.399428  0.750000  1
  Si  Si23  1  0.610301  0.252196  0.998563  1
  Si  Si24  1  0.390586  0.750056  0.999082  1
  Si  Si25  1  0.390586  0.750056  0.500918  1
  Si  Si26  1  0.610301  0.252196  0.501437  1
  Ni  Ni27  1  0.147305  0.099524  0.250000  1
