# generated using pymatgen
data_Zr12Ga7Au5C4
_symmetry_space_group_name_H-M   'P 1'
_cell_length_a   8.77954416
_cell_length_b   8.77954456
_cell_length_c   8.78740401
_cell_angle_alpha   60.02958006
_cell_angle_beta   60.02958271
_cell_angle_gamma   60.00000228
_symmetry_Int_Tables_number   1
_chemical_formula_structural   Zr12Ga7Au5C4
_chemical_formula_sum   'Zr12 Ga7 Au5 C4'
_cell_volume   479.16335480
_cell_formula_units_Z   1
loop_
 _symmetry_equiv_pos_site_id
 _symmetry_equiv_pos_as_xyz
  1  'x, y, z'
loop_
 _atom_site_type_symbol
 _atom_site_label
 _atom_site_symmetry_multiplicity
 _atom_site_fract_x
 _atom_site_fract_y
 _atom_site_fract_z
 _atom_site_occupancy
  Zr  Zr0  1  0.436083  0.436083  0.067000  1
  Zr  Zr1  1  0.060834  0.436083  0.067000  1
  Zr  Zr2  1  0.436083  0.060834  0.067000  1
  Zr  Zr3  1  0.059273  0.059273  0.438814  1
  Zr  Zr4  1  0.442638  0.059273  0.438814  1
  Zr  Zr5  1  0.059273  0.442638  0.438814  1
  Zr  Zr6  1  0.811397  0.811397  0.184041  1
  Zr  Zr7  1  0.193164  0.811397  0.184041  1
  Zr  Zr8  1  0.811397  0.193164  0.184041  1
  Zr  Zr9  1  0.187468  0.187468  0.811494  1
  Zr  Zr10  1  0.813570  0.187468  0.811494  1
  Zr  Zr11  1  0.187468  0.813570  0.811494  1
  Ga  Ga12  1  0.836187  0.496910  0.830715  1
  Ga  Ga13  1  0.496910  0.836187  0.830715  1
  Ga  Ga14  1  0.836187  0.836187  0.830715  1
  Ga  Ga15  1  0.410575  0.410575  0.768276  1
  Ga  Ga16  1  0.413925  0.759807  0.412344  1
  Ga  Ga17  1  0.759807  0.413925  0.412344  1
  Ga  Ga18  1  0.413925  0.413925  0.412344  1
  Au  Au19  1  0.838471  0.838471  0.484589  1
  Au  Au20  1  0.625642  0.625642  0.123075  1
  Au  Au21  1  0.615672  0.136408  0.632249  1
  Au  Au22  1  0.136408  0.615672  0.632249  1
  Au  Au23  1  0.615672  0.615672  0.632249  1
  C  C24  1  0.126015  0.126015  0.621956  1
  C  C25  1  0.125110  0.625734  0.124044  1
  C  C26  1  0.625734  0.125110  0.124044  1
  C  C27  1  0.125110  0.125110  0.124044  1
