# generated using pymatgen
data_Sr5As3ClO9
_symmetry_space_group_name_H-M   'P 1'
_cell_length_a   10.56851500
_cell_length_b   10.56851534
_cell_length_c   6.98550900
_cell_angle_alpha   90.00000000
_cell_angle_beta   90.00000000
_cell_angle_gamma   120.00000832
_symmetry_Int_Tables_number   1
_chemical_formula_structural   Sr5As3ClO9
_chemical_formula_sum   'Sr10 As6 Cl2 O18'
_cell_volume   675.70417478
_cell_formula_units_Z   2
loop_
 _symmetry_equiv_pos_site_id
 _symmetry_equiv_pos_as_xyz
  1  'x, y, z'
loop_
 _atom_site_type_symbol
 _atom_site_label
 _atom_site_symmetry_multiplicity
 _atom_site_fract_x
 _atom_site_fract_y
 _atom_site_fract_z
 _atom_site_occupancy
  Sr  Sr0  1  0.333333  0.666667  0.987158  1
  Sr  Sr1  1  0.666667  0.333333  0.487158  1
  Sr  Sr2  1  0.666667  0.333333  0.012842  1
  Sr  Sr3  1  0.333333  0.666667  0.512842  1
  Sr  Sr4  1  0.268316  0.038549  0.250000  1
  Sr  Sr5  1  0.229768  0.268316  0.750000  1
  Sr  Sr6  1  0.038549  0.770232  0.750000  1
  Sr  Sr7  1  0.961451  0.229768  0.250000  1
  Sr  Sr8  1  0.770232  0.731684  0.250000  1
  Sr  Sr9  1  0.731684  0.961451  0.750000  1
  As  As10  1  0.414728  0.399020  0.250000  1
  As  As11  1  0.015709  0.414728  0.750000  1
  As  As12  1  0.399020  0.984291  0.750000  1
  As  As13  1  0.600980  0.015709  0.250000  1
  As  As14  1  0.984291  0.585272  0.250000  1
  As  As15  1  0.585272  0.600980  0.750000  1
  Cl  Cl16  1  0.000000  0.000000  0.000000  1
  Cl  Cl17  1  0.000000  0.000000  0.500000  1
  O  O18  1  0.608019  0.466565  0.250000  1
  O  O19  1  0.141453  0.608019  0.750000  1
  O  O20  1  0.466565  0.858547  0.750000  1
  O  O21  1  0.533435  0.141453  0.250000  1
  O  O22  1  0.858547  0.391981  0.250000  1
  O  O23  1  0.391981  0.533435  0.750000  1
  O  O24  1  0.368731  0.276330  0.051180  1
  O  O25  1  0.092401  0.368731  0.551180  1
  O  O26  1  0.276330  0.907599  0.551180  1
  O  O27  1  0.723670  0.092401  0.051180  1
  O  O28  1  0.907599  0.631269  0.051180  1
  O  O29  1  0.631269  0.723670  0.551180  1
  O  O30  1  0.631269  0.723670  0.948820  1
  O  O31  1  0.907599  0.631269  0.448820  1
  O  O32  1  0.723670  0.092401  0.448820  1
  O  O33  1  0.276330  0.907599  0.948820  1
  O  O34  1  0.092401  0.368731  0.948820  1
  O  O35  1  0.368731  0.276330  0.448820  1
