# generated using pymatgen
data_Al3CrGa2(NiPt4)2
_symmetry_space_group_name_H-M   'P 1'
_cell_length_a   3.98295400
_cell_length_b   5.38154343
_cell_length_c   10.78987053
_cell_angle_alpha   96.28492347
_cell_angle_beta   90.00000000
_cell_angle_gamma   90.00000000
_symmetry_Int_Tables_number   1
_chemical_formula_structural   Al3CrGa2(NiPt4)2
_chemical_formula_sum   'Al3 Cr1 Ga2 Ni2 Pt8'
_cell_volume   229.88482264
_cell_formula_units_Z   1
loop_
 _symmetry_equiv_pos_site_id
 _symmetry_equiv_pos_as_xyz
  1  'x, y, z'
loop_
 _atom_site_type_symbol
 _atom_site_label
 _atom_site_symmetry_multiplicity
 _atom_site_fract_x
 _atom_site_fract_y
 _atom_site_fract_z
 _atom_site_occupancy
  Al  Al0  1  0.500000  0.284727  0.357827  1
  Al  Al1  1  0.500000  0.293901  0.852792  1
  Al  Al2  1  0.500000  0.712981  0.142044  1
  Cr  Cr3  1  0.500000  0.722339  0.638909  1
  Ga  Ga4  1  0.000000  0.998979  0.003016  1
  Ga  Ga5  1  0.000000  0.978128  0.508643  1
  Ni  Ni6  1  0.000000  0.503128  0.246998  1
  Ni  Ni7  1  0.000000  0.509730  0.746784  1
  Pt  Pt8  1  0.500000  0.773020  0.383289  1
  Pt  Pt9  1  0.500000  0.777061  0.890515  1
  Pt  Pt10  1  0.500000  0.226482  0.114259  1
  Pt  Pt11  1  0.500000  0.227518  0.612997  1
  Pt  Pt12  1  0.000000  0.004564  0.251974  1
  Pt  Pt13  1  0.000000  0.012658  0.758689  1
  Pt  Pt14  1  0.000000  0.494161  0.998088  1
  Pt  Pt15  1  0.000000  0.480620  0.493174  1
