# generated using pymatgen
data_Y2Tm7Lu7(In3Ni)2
_symmetry_space_group_name_H-M   'P 1'
_cell_length_a   10.24541517
_cell_length_b   10.24541404
_cell_length_c   6.93168904
_cell_angle_alpha   90.01492663
_cell_angle_beta   89.98507532
_cell_angle_gamma   120.00564575
_symmetry_Int_Tables_number   1
_chemical_formula_structural   Y2Tm7Lu7(In3Ni)2
_chemical_formula_sum   'Y2 Tm7 Lu7 In6 Ni2'
_cell_volume   630.09212117
_cell_formula_units_Z   1
loop_
 _symmetry_equiv_pos_site_id
 _symmetry_equiv_pos_as_xyz
  1  'x, y, z'
loop_
 _atom_site_type_symbol
 _atom_site_label
 _atom_site_symmetry_multiplicity
 _atom_site_fract_x
 _atom_site_fract_y
 _atom_site_fract_z
 _atom_site_occupancy
  Y  Y0  1  0.000127  0.999873  0.497212  1
  Y  Y1  1  0.000366  0.999634  0.996698  1
  Tm  Tm2  1  0.466058  0.533942  0.479917  1
  Tm  Tm3  1  0.068460  0.534659  0.479526  1
  Tm  Tm4  1  0.465341  0.931540  0.479526  1
  Tm  Tm5  1  0.533926  0.466074  0.979816  1
  Tm  Tm6  1  0.931919  0.466304  0.979036  1
  Tm  Tm7  1  0.533696  0.068081  0.979036  1
  Tm  Tm8  1  0.821271  0.178729  0.277221  1
  Lu  Lu9  1  0.358111  0.178955  0.277575  1
  Lu  Lu10  1  0.821045  0.641889  0.277575  1
  Lu  Lu11  1  0.179015  0.820985  0.777742  1
  Lu  Lu12  1  0.642088  0.821136  0.777333  1
  Lu  Lu13  1  0.178864  0.357912  0.777333  1
  Lu  Lu14  1  0.333291  0.666709  0.091345  1
  Lu  Lu15  1  0.666427  0.333573  0.591522  1
  In  In16  1  0.163095  0.836905  0.234786  1
  In  In17  1  0.673092  0.835555  0.234540  1
  In  In18  1  0.164445  0.326908  0.234540  1
  In  In19  1  0.836892  0.163108  0.735723  1
  In  In20  1  0.326194  0.163256  0.734850  1
  In  In21  1  0.836744  0.673806  0.734850  1
  Ni  Ni22  1  0.333333  0.666667  0.708557  1
  Ni  Ni23  1  0.666200  0.333800  0.208289  1
