# generated using pymatgen
data_LaTb4(CoO6)2
_symmetry_space_group_name_H-M   'P 1'
_cell_length_a   6.84605750
_cell_length_b   6.84605870
_cell_length_c   7.33756578
_cell_angle_alpha   74.56940505
_cell_angle_beta   74.56939443
_cell_angle_gamma   50.00695809
_symmetry_Int_Tables_number   1
_chemical_formula_structural   LaTb4(CoO6)2
_chemical_formula_sum   'La1 Tb4 Co2 O12'
_cell_volume   251.85977141
_cell_formula_units_Z   1
loop_
 _symmetry_equiv_pos_site_id
 _symmetry_equiv_pos_as_xyz
  1  'x, y, z'
loop_
 _atom_site_type_symbol
 _atom_site_label
 _atom_site_symmetry_multiplicity
 _atom_site_fract_x
 _atom_site_fract_y
 _atom_site_fract_z
 _atom_site_occupancy
  La  La0  1  0.000000  0.000000  0.000000  1
  Tb  Tb1  1  0.694490  0.694490  0.661553  1
  Tb  Tb2  1  0.692295  0.692295  0.145638  1
  Tb  Tb3  1  0.307705  0.307705  0.854362  1
  Tb  Tb4  1  0.305510  0.305510  0.338447  1
  Co  Co5  1  0.245052  0.754948  0.500000  1
  Co  Co6  1  0.754948  0.245052  0.500000  1
  O  O7  1  0.412889  0.905349  0.917810  1
  O  O8  1  0.584671  0.101114  0.576251  1
  O  O9  1  0.898886  0.415329  0.423749  1
  O  O10  1  0.094651  0.587111  0.082190  1
  O  O11  1  0.000827  0.000827  0.335695  1
  O  O12  1  0.500453  0.500453  0.673527  1
  O  O13  1  0.905349  0.412889  0.917810  1
  O  O14  1  0.101114  0.584671  0.576251  1
  O  O15  1  0.415329  0.898886  0.423749  1
  O  O16  1  0.587111  0.094651  0.082190  1
  O  O17  1  0.499547  0.499547  0.326473  1
  O  O18  1  0.999173  0.999173  0.664305  1
