# generated using pymatgen
data_Cs4CrWBr12
_symmetry_space_group_name_H-M   'P 1'
_cell_length_a   7.82528900
_cell_length_b   7.82528900
_cell_length_c   11.04568700
_cell_angle_alpha   90.00000000
_cell_angle_beta   90.00000000
_cell_angle_gamma   90.00000000
_symmetry_Int_Tables_number   1
_chemical_formula_structural   Cs4CrWBr12
_chemical_formula_sum   'Cs4 Cr1 W1 Br12'
_cell_volume   676.38427747
_cell_formula_units_Z   1
loop_
 _symmetry_equiv_pos_site_id
 _symmetry_equiv_pos_as_xyz
  1  'x, y, z'
loop_
 _atom_site_type_symbol
 _atom_site_label
 _atom_site_symmetry_multiplicity
 _atom_site_fract_x
 _atom_site_fract_y
 _atom_site_fract_z
 _atom_site_occupancy
  Cs  Cs0  1  0.500000  0.000000  0.777799  1
  Cs  Cs1  1  0.000000  0.500000  0.222201  1
  Cs  Cs2  1  0.500000  0.000000  0.222201  1
  Cs  Cs3  1  0.000000  0.500000  0.777799  1
  Cr  Cr4  1  0.000000  0.000000  0.000000  1
  W  W5  1  0.500000  0.500000  0.500000  1
  Br  Br6  1  0.000000  0.000000  0.769510  1
  Br  Br7  1  0.500000  0.500000  0.271190  1
  Br  Br8  1  0.728030  0.728030  0.500000  1
  Br  Br9  1  0.229648  0.229648  0.000000  1
  Br  Br10  1  0.728030  0.271970  0.500000  1
  Br  Br11  1  0.229648  0.770352  0.000000  1
  Br  Br12  1  0.000000  0.000000  0.230490  1
  Br  Br13  1  0.500000  0.500000  0.728810  1
  Br  Br14  1  0.271970  0.271970  0.500000  1
  Br  Br15  1  0.770352  0.770352  0.000000  1
  Br  Br16  1  0.271970  0.728030  0.500000  1
  Br  Br17  1  0.770352  0.229648  0.000000  1
