# generated using pymatgen
data_SmThUFe2Si7
_symmetry_space_group_name_H-M   'P 1'
_cell_length_a   12.31088188
_cell_length_b   12.31088205
_cell_length_c   4.09237000
_cell_angle_alpha   90.00000000
_cell_angle_beta   90.00000000
_cell_angle_gamma   160.86589435
_symmetry_Int_Tables_number   1
_chemical_formula_structural   SmThUFe2Si7
_chemical_formula_sum   'Sm1 Th1 U1 Fe2 Si7'
_cell_volume   203.29940691
_cell_formula_units_Z   1
loop_
 _symmetry_equiv_pos_site_id
 _symmetry_equiv_pos_as_xyz
  1  'x, y, z'
loop_
 _atom_site_type_symbol
 _atom_site_label
 _atom_site_symmetry_multiplicity
 _atom_site_fract_x
 _atom_site_fract_y
 _atom_site_fract_z
 _atom_site_occupancy
  Sm  Sm0  1  0.316479  0.683521  0.000000  1
  Th  Th1  1  0.683186  0.316814  0.000000  1
  U  U2  1  0.999328  0.000672  0.500000  1
  Fe  Fe3  1  0.124085  0.875915  0.500000  1
  Fe  Fe4  1  0.877177  0.122823  0.500000  1
  Si  Si5  1  0.221945  0.778055  0.500000  1
  Si  Si6  1  0.780351  0.219649  0.500000  1
  Si  Si7  1  0.083469  0.916531  0.000000  1
  Si  Si8  1  0.915215  0.084785  0.000000  1
  Si  Si9  1  0.415188  0.584812  0.500000  1
  Si  Si10  1  0.500010  0.499990  0.000000  1
  Si  Si11  1  0.583565  0.416435  0.500000  1
