# generated using pymatgen
data_Y4Er3Co6Sn22Pd
_symmetry_space_group_name_H-M   'P 1'
_cell_length_a   9.66241800
_cell_length_b   9.66241898
_cell_length_c   9.91302000
_cell_angle_alpha   90.00000000
_cell_angle_beta   90.00000000
_cell_angle_gamma   120.00000350
_symmetry_Int_Tables_number   1
_chemical_formula_structural   Y4Er3Co6Sn22Pd
_chemical_formula_sum   'Y4 Er3 Co6 Sn22 Pd1'
_cell_volume   801.50878207
_cell_formula_units_Z   1
loop_
 _symmetry_equiv_pos_site_id
 _symmetry_equiv_pos_as_xyz
  1  'x, y, z'
loop_
 _atom_site_type_symbol
 _atom_site_label
 _atom_site_symmetry_multiplicity
 _atom_site_fract_x
 _atom_site_fract_y
 _atom_site_fract_z
 _atom_site_occupancy
  Y  Y0  1  0.000000  0.000000  0.000130  1
  Y  Y1  1  0.957136  0.478568  0.692333  1
  Y  Y2  1  0.521432  0.042864  0.692333  1
  Y  Y3  1  0.521432  0.478568  0.692333  1
  Er  Er4  1  0.041399  0.520699  0.307144  1
  Er  Er5  1  0.479301  0.958601  0.307144  1
  Er  Er6  1  0.479301  0.520699  0.307144  1
  Co  Co7  1  0.168083  0.831917  0.803771  1
  Co  Co8  1  0.663835  0.831917  0.803771  1
  Co  Co9  1  0.168083  0.336165  0.803771  1
  Co  Co10  1  0.831625  0.168375  0.196887  1
  Co  Co11  1  0.336750  0.168375  0.196887  1
  Co  Co12  1  0.831625  0.663250  0.196887  1
  Sn  Sn13  1  0.111640  0.888360  0.283366  1
  Sn  Sn14  1  0.776719  0.888360  0.283366  1
  Sn  Sn15  1  0.111640  0.223281  0.283366  1
  Sn  Sn16  1  0.888880  0.111120  0.716781  1
  Sn  Sn17  1  0.222240  0.111120  0.716781  1
  Sn  Sn18  1  0.888880  0.777760  0.716781  1
  Sn  Sn19  1  0.346239  0.000002  0.000267  1
  Sn  Sn20  1  0.653763  0.653761  0.000267  1
  Sn  Sn21  1  0.999998  0.346237  0.000267  1
  Sn  Sn22  1  0.346239  0.346237  0.000267  1
  Sn  Sn23  1  0.999998  0.653761  0.000267  1
  Sn  Sn24  1  0.653763  0.000002  0.000267  1
  Sn  Sn25  1  0.784943  0.569887  0.451874  1
  Sn  Sn26  1  0.784943  0.215057  0.451874  1
  Sn  Sn27  1  0.430113  0.215057  0.451874  1
  Sn  Sn28  1  0.214990  0.429981  0.546266  1
  Sn  Sn29  1  0.214990  0.785010  0.546266  1
  Sn  Sn30  1  0.570019  0.785010  0.546266  1
  Sn  Sn31  1  0.666667  0.333333  0.184954  1
  Sn  Sn32  1  0.333333  0.666667  0.815262  1
  Sn  Sn33  1  0.666667  0.333333  0.881999  1
  Sn  Sn34  1  0.333333  0.666667  0.120848  1
  Pd  Pd35  1  0.000000  0.000000  0.499944  1
