# generated using pymatgen
data_CeCd(ReO4)6
_symmetry_space_group_name_H-M   'P 1'
_cell_length_a   10.15203100
_cell_length_b   10.15203147
_cell_length_c   6.12821200
_cell_angle_alpha   90.00000000
_cell_angle_beta   90.00000000
_cell_angle_gamma   120.00000173
_symmetry_Int_Tables_number   1
_chemical_formula_structural   CeCd(ReO4)6
_chemical_formula_sum   'Ce1 Cd1 Re6 O24'
_cell_volume   546.97855002
_cell_formula_units_Z   1
loop_
 _symmetry_equiv_pos_site_id
 _symmetry_equiv_pos_as_xyz
  1  'x, y, z'
loop_
 _atom_site_type_symbol
 _atom_site_label
 _atom_site_symmetry_multiplicity
 _atom_site_fract_x
 _atom_site_fract_y
 _atom_site_fract_z
 _atom_site_occupancy
  Ce  Ce0  1  0.333333  0.666667  0.250000  1
  Cd  Cd1  1  0.666667  0.333333  0.750000  1
  Re  Re2  1  0.097258  0.388964  0.750000  1
  Re  Re3  1  0.398427  0.308071  0.250000  1
  Re  Re4  1  0.611036  0.708293  0.750000  1
  Re  Re5  1  0.909643  0.601573  0.250000  1
  Re  Re6  1  0.291707  0.902742  0.750000  1
  Re  Re7  1  0.691929  0.090357  0.250000  1
  O  O8  1  0.491168  0.647537  0.516721  1
  O  O9  1  0.352463  0.843632  0.516721  1
  O  O10  1  0.840898  0.726936  0.250000  1
  O  O11  1  0.096111  0.819809  0.750000  1
  O  O12  1  0.273064  0.113961  0.250000  1
  O  O13  1  0.180191  0.276301  0.750000  1
  O  O14  1  0.514474  0.360402  0.017383  1
  O  O15  1  0.886039  0.159102  0.250000  1
  O  O16  1  0.111121  0.701126  0.250000  1
  O  O17  1  0.156368  0.508832  0.983279  1
  O  O18  1  0.156368  0.508832  0.516721  1
  O  O19  1  0.901491  0.274711  0.750000  1
  O  O20  1  0.298874  0.409994  0.250000  1
  O  O21  1  0.725289  0.626781  0.750000  1
  O  O22  1  0.845928  0.485526  0.482617  1
  O  O23  1  0.373219  0.098509  0.750000  1
  O  O24  1  0.639598  0.154072  0.017383  1
  O  O25  1  0.491168  0.647537  0.983279  1
  O  O26  1  0.352463  0.843632  0.983279  1
  O  O27  1  0.639598  0.154072  0.482617  1
  O  O28  1  0.514474  0.360402  0.482617  1
  O  O29  1  0.845928  0.485526  0.017383  1
  O  O30  1  0.723699  0.903889  0.750000  1
  O  O31  1  0.590006  0.888879  0.250000  1
