# generated using pymatgen
data_Sm3Mg3CuSiGe
_symmetry_space_group_name_H-M   'P 1'
_cell_length_a   7.33759000
_cell_length_b   7.33758920
_cell_length_c   4.33583000
_cell_angle_alpha   90.00000000
_cell_angle_beta   90.00000000
_cell_angle_gamma   119.99999458
_symmetry_Int_Tables_number   1
_chemical_formula_structural   Sm3Mg3CuSiGe
_chemical_formula_sum   'Sm3 Mg3 Cu1 Si1 Ge1'
_cell_volume   202.16675331
_cell_formula_units_Z   1
loop_
 _symmetry_equiv_pos_site_id
 _symmetry_equiv_pos_as_xyz
  1  'x, y, z'
loop_
 _atom_site_type_symbol
 _atom_site_label
 _atom_site_symmetry_multiplicity
 _atom_site_fract_x
 _atom_site_fract_y
 _atom_site_fract_z
 _atom_site_occupancy
  Sm  Sm0  1  0.586494  0.002286  0.000000  1
  Sm  Sm1  1  0.997714  0.584208  0.000000  1
  Sm  Sm2  1  0.415792  0.413506  0.000000  1
  Mg  Mg3  1  0.242709  0.001419  0.500000  1
  Mg  Mg4  1  0.998581  0.241290  0.500000  1
  Mg  Mg5  1  0.758710  0.757291  0.500000  1
  Cu  Cu6  1  0.000000  0.000000  0.000000  1
  Si  Si7  1  0.666667  0.333333  0.500000  1
  Ge  Ge8  1  0.333333  0.666667  0.500000  1
