# generated using pymatgen
data_Li17(CaHg)6
_symmetry_space_group_name_H-M   'P 1'
_cell_length_a   9.71403000
_cell_length_b   9.71402936
_cell_length_c   9.71403000
_cell_angle_alpha   119.99999536
_cell_angle_beta   90.00000000
_cell_angle_gamma   119.99999536
_symmetry_Int_Tables_number   1
_chemical_formula_structural   Li17(CaHg)6
_chemical_formula_sum   'Li17 Ca6 Hg6'
_cell_volume   648.16168644
_cell_formula_units_Z   1
loop_
 _symmetry_equiv_pos_site_id
 _symmetry_equiv_pos_as_xyz
  1  'x, y, z'
loop_
 _atom_site_type_symbol
 _atom_site_label
 _atom_site_symmetry_multiplicity
 _atom_site_fract_x
 _atom_site_fract_y
 _atom_site_fract_z
 _atom_site_occupancy
  Li  Li0  1  0.376917  0.753834  0.130752  1
  Li  Li1  1  0.825956  0.651911  0.174045  1
  Li  Li2  1  0.522134  0.348090  0.174045  1
  Li  Li3  1  0.825956  0.348090  0.174045  1
  Li  Li4  1  0.130752  0.753834  0.376917  1
  Li  Li5  1  0.623083  0.753834  0.376917  1
  Li  Li6  1  0.623083  0.246165  0.376917  1
  Li  Li7  1  0.825956  0.651911  0.477866  1
  Li  Li8  1  0.500000  0.000000  0.500000  1
  Li  Li9  1  0.174045  0.348090  0.522134  1
  Li  Li10  1  0.376917  0.753834  0.623083  1
  Li  Li11  1  0.376917  0.246165  0.623083  1
  Li  Li12  1  0.869248  0.246165  0.623083  1
  Li  Li13  1  0.174045  0.651911  0.825956  1
  Li  Li14  1  0.477866  0.651911  0.825956  1
  Li  Li15  1  0.174045  0.348090  0.825956  1
  Li  Li16  1  0.623083  0.246165  0.869248  1
  Ca  Ca17  1  0.792636  0.000000  0.207363  1
  Ca  Ca18  1  0.207364  0.414726  0.207364  1
  Ca  Ca19  1  0.207364  0.000000  0.207364  1
  Ca  Ca20  1  0.792636  0.000000  0.792636  1
  Ca  Ca21  1  0.207363  0.000000  0.792636  1
  Ca  Ca22  1  0.792636  0.585275  0.792636  1
  Hg  Hg23  1  0.500000  0.000000  0.000000  1
  Hg  Hg24  1  0.000000  0.500000  0.000000  1
  Hg  Hg25  1  0.500000  0.500000  0.000000  1
  Hg  Hg26  1  0.000000  0.000000  0.500000  1
  Hg  Hg27  1  0.000000  0.500000  0.500000  1
  Hg  Hg28  1  0.500000  0.500000  0.500000  1
