# generated using pymatgen
data_HfZr11N16
_symmetry_space_group_name_H-M   'P 1'
_cell_length_a   3.29650800
_cell_length_b   9.89023334
_cell_length_c   10.89520574
_cell_angle_alpha   89.89286945
_cell_angle_beta   90.00000000
_cell_angle_gamma   90.00000000
_symmetry_Int_Tables_number   1
_chemical_formula_structural   HfZr11N16
_chemical_formula_sum   'Hf1 Zr11 N16'
_cell_volume   355.21831401
_cell_formula_units_Z   1
loop_
 _symmetry_equiv_pos_site_id
 _symmetry_equiv_pos_as_xyz
  1  'x, y, z'
loop_
 _atom_site_type_symbol
 _atom_site_label
 _atom_site_symmetry_multiplicity
 _atom_site_fract_x
 _atom_site_fract_y
 _atom_site_fract_z
 _atom_site_occupancy
  Hf  Hf0  1  0.250000  0.930933  0.124489  1
  Zr  Zr1  1  0.750000  0.069524  0.876043  1
  Zr  Zr2  1  0.750000  0.106040  0.405585  1
  Zr  Zr3  1  0.750000  0.228609  0.146793  1
  Zr  Zr4  1  0.250000  0.269830  0.646751  1
  Zr  Zr5  1  0.250000  0.393489  0.906095  1
  Zr  Zr6  1  0.250000  0.430706  0.375209  1
  Zr  Zr7  1  0.750000  0.570215  0.624158  1
  Zr  Zr8  1  0.750000  0.608120  0.093359  1
  Zr  Zr9  1  0.750000  0.731220  0.351865  1
  Zr  Zr10  1  0.250000  0.771118  0.853808  1
  Zr  Zr11  1  0.250000  0.892787  0.593845  1
  N  N12  1  0.750000  0.003819  0.224283  1
  N  N13  1  0.250000  0.102460  0.528362  1
  N  N14  1  0.250000  0.139534  0.019556  1
  N  N15  1  0.250000  0.236209  0.285326  1
  N  N16  1  0.750000  0.262962  0.785762  1
  N  N17  1  0.750000  0.357210  0.518030  1
  N  N18  1  0.750000  0.396651  0.028778  1
  N  N19  1  0.250000  0.493734  0.725256  1
  N  N20  1  0.750000  0.507311  0.274418  1
  N  N21  1  0.250000  0.602910  0.971188  1
  N  N22  1  0.250000  0.643740  0.481556  1
  N  N23  1  0.250000  0.739244  0.213075  1
  N  N24  1  0.750000  0.763386  0.715491  1
  N  N25  1  0.750000  0.857312  0.984478  1
  N  N26  1  0.750000  0.896934  0.471634  1
  N  N27  1  0.250000  0.993994  0.774805  1
