# generated using pymatgen
data_NdDy2Al12(OsRh)2
_symmetry_space_group_name_H-M   'P 1'
_cell_length_a   8.81895500
_cell_length_b   8.87445748
_cell_length_c   9.60886800
_cell_angle_alpha   90.00000000
_cell_angle_beta   90.00000000
_cell_angle_gamma   119.79331690
_symmetry_Int_Tables_number   1
_chemical_formula_structural   NdDy2Al12(OsRh)2
_chemical_formula_sum   'Nd2 Dy4 Al24 Os4 Rh4'
_cell_volume   652.62323373
_cell_formula_units_Z   2
loop_
 _symmetry_equiv_pos_site_id
 _symmetry_equiv_pos_as_xyz
  1  'x, y, z'
loop_
 _atom_site_type_symbol
 _atom_site_label
 _atom_site_symmetry_multiplicity
 _atom_site_fract_x
 _atom_site_fract_y
 _atom_site_fract_z
 _atom_site_occupancy
  Nd  Nd0  1  0.189354  0.378709  0.250000  1
  Nd  Nd1  1  0.810646  0.621291  0.750000  1
  Dy  Dy2  1  0.613597  0.812808  0.250000  1
  Dy  Dy3  1  0.386403  0.187192  0.750000  1
  Dy  Dy4  1  0.199210  0.812808  0.250000  1
  Dy  Dy5  1  0.800790  0.187192  0.750000  1
  Al  Al6  1  0.334004  0.668008  0.023265  1
  Al  Al7  1  0.665996  0.331992  0.976735  1
  Al  Al8  1  0.665996  0.331992  0.523265  1
  Al  Al9  1  0.334004  0.668008  0.476735  1
  Al  Al10  1  0.162677  0.325355  0.578265  1
  Al  Al11  1  0.837323  0.674645  0.421735  1
  Al  Al12  1  0.671823  0.837615  0.575327  1
  Al  Al13  1  0.837323  0.674645  0.078265  1
  Al  Al14  1  0.328177  0.162385  0.424673  1
  Al  Al15  1  0.162677  0.325355  0.921735  1
  Al  Al16  1  0.165792  0.837615  0.575327  1
  Al  Al17  1  0.328177  0.162385  0.075327  1
  Al  Al18  1  0.834208  0.162385  0.424673  1
  Al  Al19  1  0.671823  0.837615  0.924673  1
  Al  Al20  1  0.834208  0.162385  0.075327  1
  Al  Al21  1  0.165792  0.837615  0.924673  1
  Al  Al22  1  0.563271  0.126542  0.250000  1
  Al  Al23  1  0.436729  0.873458  0.750000  1
  Al  Al24  1  0.876850  0.440339  0.250000  1
  Al  Al25  1  0.123150  0.559661  0.750000  1
  Al  Al26  1  0.563489  0.440339  0.250000  1
  Al  Al27  1  0.436511  0.559661  0.750000  1
  Al  Al28  1  0.999197  0.998393  0.250000  1
  Al  Al29  1  0.000803  0.001607  0.750000  1
  Os  Os30  1  0.500000  0.000000  0.000000  1
  Os  Os31  1  0.500000  0.000000  0.500000  1
  Os  Os32  1  0.000000  0.000000  0.000000  1
  Os  Os33  1  0.000000  0.000000  0.500000  1
  Rh  Rh34  1  0.000000  0.500000  0.000000  1
  Rh  Rh35  1  0.500000  0.500000  0.000000  1
  Rh  Rh36  1  0.000000  0.500000  0.500000  1
  Rh  Rh37  1  0.500000  0.500000  0.500000  1
