# generated using pymatgen
data_Er2Ni7P7Ru4W
_symmetry_space_group_name_H-M   'P 1'
_cell_length_a   9.30590507
_cell_length_b   9.30849728
_cell_length_c   3.72714900
_cell_angle_alpha   90.00000000
_cell_angle_beta   90.00000000
_cell_angle_gamma   120.46211070
_symmetry_Int_Tables_number   1
_chemical_formula_structural   Er2Ni7P7Ru4W
_chemical_formula_sum   'Er2 Ni7 P7 Ru4 W1'
_cell_volume   278.29434471
_cell_formula_units_Z   1
loop_
 _symmetry_equiv_pos_site_id
 _symmetry_equiv_pos_as_xyz
  1  'x, y, z'
loop_
 _atom_site_type_symbol
 _atom_site_label
 _atom_site_symmetry_multiplicity
 _atom_site_fract_x
 _atom_site_fract_y
 _atom_site_fract_z
 _atom_site_occupancy
  Er  Er0  1  0.994439  0.995105  0.000000  1
  Er  Er1  1  0.331647  0.667215  0.500000  1
  Ni  Ni2  1  0.096438  0.397939  0.000000  1
  Ni  Ni3  1  0.302715  0.904956  0.000000  1
  Ni  Ni4  1  0.601155  0.698227  0.000000  1
  Ni  Ni5  1  0.823565  0.608771  0.000000  1
  Ni  Ni6  1  0.785785  0.173009  0.000000  1
  Ni  Ni7  1  0.388422  0.216462  0.000000  1
  Ni  Ni8  1  0.585648  0.458013  0.500000  1
  P  P9  1  0.078483  0.627774  0.000000  1
  P  P10  1  0.548674  0.917552  0.000000  1
  P  P11  1  0.369523  0.453648  0.000000  1
  P  P12  1  0.779437  0.732730  0.500000  1
  P  P13  1  0.957023  0.216793  0.500000  1
  P  P14  1  0.259796  0.048331  0.500000  1
  P  P15  1  0.667066  0.334972  0.000000  1
  Ru  Ru16  1  0.055596  0.768648  0.500000  1
  Ru  Ru17  1  0.713905  0.944121  0.500000  1
  Ru  Ru18  1  0.237226  0.293060  0.500000  1
  Ru  Ru19  1  0.875725  0.416644  0.500000  1
  W  W20  1  0.547732  0.126027  0.500000  1
