# generated using pymatgen
data_Tm(Al5Os)2
_symmetry_space_group_name_H-M   'P 1'
_cell_length_a   6.84503162
_cell_length_b   6.84503270
_cell_length_c   9.13952000
_cell_angle_alpha   90.00000000
_cell_angle_beta   90.00000000
_cell_angle_gamma   96.41630949
_symmetry_Int_Tables_number   1
_chemical_formula_structural   Tm(Al5Os)2
_chemical_formula_sum   'Tm2 Al20 Os4'
_cell_volume   425.54497006
_cell_formula_units_Z   2
loop_
 _symmetry_equiv_pos_site_id
 _symmetry_equiv_pos_as_xyz
  1  'x, y, z'
loop_
 _atom_site_type_symbol
 _atom_site_label
 _atom_site_symmetry_multiplicity
 _atom_site_fract_x
 _atom_site_fract_y
 _atom_site_fract_z
 _atom_site_occupancy
  Tm  Tm0  1  0.869259  0.130741  0.750000  1
  Tm  Tm1  1  0.130741  0.869259  0.250000  1
  Al  Al2  1  0.519086  0.782987  0.750000  1
  Al  Al3  1  0.782987  0.519086  0.250000  1
  Al  Al4  1  0.480914  0.217013  0.250000  1
  Al  Al5  1  0.217013  0.480914  0.750000  1
  Al  Al6  1  0.623884  0.376116  0.954063  1
  Al  Al7  1  0.376116  0.623884  0.045937  1
  Al  Al8  1  0.623884  0.376116  0.545937  1
  Al  Al9  1  0.376116  0.623884  0.454063  1
  Al  Al10  1  0.417207  0.148098  0.750000  1
  Al  Al11  1  0.148098  0.417207  0.250000  1
  Al  Al12  1  0.582793  0.851902  0.250000  1
  Al  Al13  1  0.851902  0.582793  0.750000  1
  Al  Al14  1  0.845239  0.154761  0.399409  1
  Al  Al15  1  0.154761  0.845239  0.600591  1
  Al  Al16  1  0.845239  0.154761  0.100591  1
  Al  Al17  1  0.154761  0.845239  0.899409  1
  Al  Al18  1  0.776019  0.776019  0.000000  1
  Al  Al19  1  0.776019  0.776019  0.500000  1
  Al  Al20  1  0.223981  0.223981  0.000000  1
  Al  Al21  1  0.223981  0.223981  0.500000  1
  Os  Os22  1  0.500000  0.000000  0.000000  1
  Os  Os23  1  0.000000  0.500000  0.000000  1
  Os  Os24  1  0.500000  0.000000  0.500000  1
  Os  Os25  1  0.000000  0.500000  0.500000  1
