# generated using pymatgen
data_Sr7Ac9(YbSi4)4
_symmetry_space_group_name_H-M   'P 1'
_cell_length_a   7.94242552
_cell_length_b   8.39877783
_cell_length_c   15.99653730
_cell_angle_alpha   90.04830680
_cell_angle_beta   90.03785554
_cell_angle_gamma   89.98304878
_symmetry_Int_Tables_number   1
_chemical_formula_structural   Sr7Ac9(YbSi4)4
_chemical_formula_sum   'Sr7 Ac9 Yb4 Si16'
_cell_volume   1067.07503475
_cell_formula_units_Z   1
loop_
 _symmetry_equiv_pos_site_id
 _symmetry_equiv_pos_as_xyz
  1  'x, y, z'
loop_
 _atom_site_type_symbol
 _atom_site_label
 _atom_site_symmetry_multiplicity
 _atom_site_fract_x
 _atom_site_fract_y
 _atom_site_fract_z
 _atom_site_occupancy
  Sr  Sr0  1  0.312938  0.183457  0.124794  1
  Sr  Sr1  1  0.813990  0.316349  0.375827  1
  Sr  Sr2  1  0.186441  0.683457  0.876532  1
  Sr  Sr3  1  0.686269  0.817124  0.622893  1
  Sr  Sr4  1  0.313914  0.183606  0.375649  1
  Sr  Sr5  1  0.813655  0.316706  0.124253  1
  Sr  Sr6  1  0.186263  0.683505  0.624169  1
  Ac  Ac7  1  0.685701  0.815313  0.874387  1
  Ac  Ac8  1  0.961038  0.811282  0.400585  1
  Ac  Ac9  1  0.459952  0.688469  0.100922  1
  Ac  Ac10  1  0.538814  0.311056  0.598572  1
  Ac  Ac11  1  0.039842  0.189787  0.900945  1
  Ac  Ac12  1  0.040064  0.188577  0.598453  1
  Ac  Ac13  1  0.537753  0.311684  0.900512  1
  Ac  Ac14  1  0.460619  0.688932  0.400265  1
  Ac  Ac15  1  0.961029  0.810744  0.100614  1
  Yb  Yb16  1  0.358809  0.012754  0.748623  1
  Yb  Yb17  1  0.862085  0.485996  0.747777  1
  Yb  Yb18  1  0.139355  0.510697  0.250667  1
  Yb  Yb19  1  0.640006  0.989238  0.250845  1
  Si  Si20  1  0.866487  0.522440  0.539383  1
  Si  Si21  1  0.366679  0.977898  0.960746  1
  Si  Si22  1  0.633747  0.022858  0.460955  1
  Si  Si23  1  0.133839  0.476430  0.038857  1
  Si  Si24  1  0.134077  0.477381  0.461183  1
  Si  Si25  1  0.634366  0.021371  0.038032  1
  Si  Si26  1  0.366257  0.977601  0.539019  1
  Si  Si27  1  0.866651  0.525773  0.961060  1
  Si  Si28  1  0.980978  0.920940  0.750790  1
  Si  Si29  1  0.481325  0.580099  0.752631  1
  Si  Si30  1  0.518753  0.420680  0.249809  1
  Si  Si31  1  0.018569  0.079283  0.249984  1
  Si  Si32  1  0.257160  0.374748  0.749647  1
  Si  Si33  1  0.755153  0.123673  0.750946  1
  Si  Si34  1  0.243558  0.874639  0.249864  1
  Si  Si35  1  0.743863  0.625449  0.249812  1
