# generated using pymatgen
data_Sc5Tl3InGaRh
_symmetry_space_group_name_H-M   'P 1'
_cell_length_a   3.42585500
_cell_length_b   7.89058686
_cell_length_c   17.69473141
_cell_angle_alpha   89.19857630
_cell_angle_beta   90.00000000
_cell_angle_gamma   90.00000000
_symmetry_Int_Tables_number   1
_chemical_formula_structural   Sc5Tl3InGaRh
_chemical_formula_sum   'Sc10 Tl6 In2 Ga2 Rh2'
_cell_volume   478.27730244
_cell_formula_units_Z   2
loop_
 _symmetry_equiv_pos_site_id
 _symmetry_equiv_pos_as_xyz
  1  'x, y, z'
loop_
 _atom_site_type_symbol
 _atom_site_label
 _atom_site_symmetry_multiplicity
 _atom_site_fract_x
 _atom_site_fract_y
 _atom_site_fract_z
 _atom_site_occupancy
  Sc  Sc0  1  0.000000  0.000000  0.000000  1
  Sc  Sc1  1  0.000000  0.500000  0.500000  1
  Sc  Sc2  1  0.000000  0.734012  0.783838  1
  Sc  Sc3  1  0.000000  0.265988  0.216162  1
  Sc  Sc4  1  0.000000  0.276356  0.722772  1
  Sc  Sc5  1  0.000000  0.723644  0.277228  1
  Sc  Sc6  1  0.000000  0.873257  0.578129  1
  Sc  Sc7  1  0.000000  0.126743  0.421871  1
  Sc  Sc8  1  0.000000  0.377961  0.915268  1
  Sc  Sc9  1  0.000000  0.622039  0.084732  1
  Tl  Tl10  1  0.500000  0.792418  0.432241  1
  Tl  Tl11  1  0.500000  0.207582  0.567759  1
  Tl  Tl12  1  0.500000  0.299532  0.063866  1
  Tl  Tl13  1  0.500000  0.700468  0.936134  1
  Tl  Tl14  1  0.500000  0.918963  0.147113  1
  Tl  Tl15  1  0.500000  0.081037  0.852887  1
  In  In16  1  0.500000  0.422002  0.352173  1
  In  In17  1  0.500000  0.577998  0.647827  1
  Ga  Ga18  1  0.500000  0.966324  0.696423  1
  Ga  Ga19  1  0.500000  0.033676  0.303577  1
  Rh  Rh20  1  0.500000  0.467542  0.804141  1
  Rh  Rh21  1  0.500000  0.532458  0.195859  1
