# generated using pymatgen
data_Dy3Tm2SnBi2
_symmetry_space_group_name_H-M   'P 1'
_cell_length_a   6.43855900
_cell_length_b   9.02618117
_cell_length_c   9.04507478
_cell_angle_alpha   119.93092127
_cell_angle_beta   90.00016863
_cell_angle_gamma   89.99965256
_symmetry_Int_Tables_number   1
_chemical_formula_structural   Dy3Tm2SnBi2
_chemical_formula_sum   'Dy6 Tm4 Sn2 Bi4'
_cell_volume   455.55141934
_cell_formula_units_Z   2
loop_
 _symmetry_equiv_pos_site_id
 _symmetry_equiv_pos_as_xyz
  1  'x, y, z'
loop_
 _atom_site_type_symbol
 _atom_site_label
 _atom_site_symmetry_multiplicity
 _atom_site_fract_x
 _atom_site_fract_y
 _atom_site_fract_z
 _atom_site_occupancy
  Dy  Dy0  1  0.749998  0.239939  0.000000  1
  Dy  Dy1  1  0.750000  0.758837  0.758686  1
  Dy  Dy2  1  0.750000  0.000151  0.241314  1
  Dy  Dy3  1  0.249999  0.762494  0.000000  1
  Dy  Dy4  1  0.250001  0.240212  0.244980  1
  Dy  Dy5  1  0.250001  0.995232  0.755020  1
  Tm  Tm6  1  0.496932  0.332340  0.662551  1
  Tm  Tm7  1  0.496932  0.669788  0.337449  1
  Tm  Tm8  1  0.003066  0.669796  0.337454  1
  Tm  Tm9  1  0.003066  0.332343  0.662546  1
  Sn  Sn10  1  0.250005  0.605998  0.606965  1
  Sn  Sn11  1  0.250005  0.999033  0.393035  1
  Bi  Bi12  1  0.749997  0.606160  0.000000  1
  Bi  Bi13  1  0.750001  0.393956  0.392487  1
  Bi  Bi14  1  0.750001  0.001469  0.607513  1
  Bi  Bi15  1  0.249996  0.392252  0.000000  1
