# generated using pymatgen
data_YHo(Hf2Fe9)2
_symmetry_space_group_name_H-M   'P 1'
_cell_length_a   4.98082300
_cell_length_b   4.98082303
_cell_length_c   15.84036600
_cell_angle_alpha   90.00000000
_cell_angle_beta   90.00000000
_cell_angle_gamma   120.00000642
_symmetry_Int_Tables_number   1
_chemical_formula_structural   YHo(Hf2Fe9)2
_chemical_formula_sum   'Y1 Ho1 Hf4 Fe18'
_cell_volume   340.32827786
_cell_formula_units_Z   1
loop_
 _symmetry_equiv_pos_site_id
 _symmetry_equiv_pos_as_xyz
  1  'x, y, z'
loop_
 _atom_site_type_symbol
 _atom_site_label
 _atom_site_symmetry_multiplicity
 _atom_site_fract_x
 _atom_site_fract_y
 _atom_site_fract_z
 _atom_site_occupancy
  Y  Y0  1  0.666667  0.333333  0.250000  1
  Ho  Ho1  1  0.333333  0.666667  0.750000  1
  Hf  Hf2  1  0.333333  0.666667  0.963831  1
  Hf  Hf3  1  0.666667  0.333333  0.036157  1
  Hf  Hf4  1  0.666667  0.333333  0.463843  1
  Hf  Hf5  1  0.333333  0.666667  0.536169  1
  Fe  Fe6  1  0.168050  0.831950  0.377414  1
  Fe  Fe7  1  0.168050  0.336099  0.377414  1
  Fe  Fe8  1  0.663901  0.831950  0.377414  1
  Fe  Fe9  1  0.831971  0.168029  0.622618  1
  Fe  Fe10  1  0.831971  0.663942  0.622618  1
  Fe  Fe11  1  0.336058  0.168029  0.622618  1
  Fe  Fe12  1  0.831971  0.168029  0.877382  1
  Fe  Fe13  1  0.831971  0.663942  0.877382  1
  Fe  Fe14  1  0.336058  0.168029  0.877382  1
  Fe  Fe15  1  0.168050  0.831950  0.122586  1
  Fe  Fe16  1  0.168050  0.336099  0.122586  1
  Fe  Fe17  1  0.663901  0.831950  0.122586  1
  Fe  Fe18  1  0.333333  0.666667  0.250000  1
  Fe  Fe19  1  0.666667  0.333333  0.750000  1
  Fe  Fe20  1  0.000000  0.000000  0.250000  1
  Fe  Fe21  1  0.000000  0.000000  0.750000  1
  Fe  Fe22  1  0.000000  0.000000  0.499986  1
  Fe  Fe23  1  0.000000  0.000000  0.000014  1
