# generated using pymatgen
data_Ho2Np(GaRu)3
_symmetry_space_group_name_H-M   'P 1'
_cell_length_a   6.85009773
_cell_length_b   6.85009809
_cell_length_c   3.98464500
_cell_angle_alpha   90.00000000
_cell_angle_beta   90.00000000
_cell_angle_gamma   116.45581745
_symmetry_Int_Tables_number   1
_chemical_formula_structural   Ho2Np(GaRu)3
_chemical_formula_sum   'Ho2 Np1 Ga3 Ru3'
_cell_volume   167.39450199
_cell_formula_units_Z   1
loop_
 _symmetry_equiv_pos_site_id
 _symmetry_equiv_pos_as_xyz
  1  'x, y, z'
loop_
 _atom_site_type_symbol
 _atom_site_label
 _atom_site_symmetry_multiplicity
 _atom_site_fract_x
 _atom_site_fract_y
 _atom_site_fract_z
 _atom_site_occupancy
  Ho  Ho0  1  0.414586  0.008526  0.500000  1
  Ho  Ho1  1  0.008526  0.414586  0.500000  1
  Np  Np2  1  0.610393  0.610393  0.500000  1
  Ga  Ga3  1  0.744615  0.033262  0.000000  1
  Ga  Ga4  1  0.033262  0.744615  0.000000  1
  Ga  Ga5  1  0.210961  0.210961  0.000000  1
  Ru  Ru6  1  0.382587  0.639536  0.000000  1
  Ru  Ru7  1  0.639536  0.382587  0.000000  1
  Ru  Ru8  1  0.955534  0.955534  0.500000  1
