# generated using pymatgen
data_CePr11Co4
_symmetry_space_group_name_H-M   'P 1'
_cell_length_a   9.98819885
_cell_length_b   6.44883618
_cell_length_c   7.11368723
_cell_angle_alpha   93.36390054
_cell_angle_beta   89.95883490
_cell_angle_gamma   90.43116826
_symmetry_Int_Tables_number   1
_chemical_formula_structural   CePr11Co4
_chemical_formula_sum   'Ce1 Pr11 Co4'
_cell_volume   457.40619305
_cell_formula_units_Z   1
loop_
 _symmetry_equiv_pos_site_id
 _symmetry_equiv_pos_as_xyz
  1  'x, y, z'
loop_
 _atom_site_type_symbol
 _atom_site_label
 _atom_site_symmetry_multiplicity
 _atom_site_fract_x
 _atom_site_fract_y
 _atom_site_fract_z
 _atom_site_occupancy
  Ce  Ce0  1  0.488689  0.332969  0.065599  1
  Pr  Pr1  1  0.490657  0.142333  0.547773  1
  Pr  Pr2  1  0.988961  0.654901  0.950031  1
  Pr  Pr3  1  0.987804  0.859094  0.457105  1
  Pr  Pr4  1  0.307092  0.819299  0.168985  1
  Pr  Pr5  1  0.663739  0.669827  0.671575  1
  Pr  Pr6  1  0.805387  0.184545  0.832552  1
  Pr  Pr7  1  0.168494  0.324716  0.328272  1
  Pr  Pr8  1  0.310797  0.666759  0.671272  1
  Pr  Pr9  1  0.672097  0.821885  0.167531  1
  Pr  Pr10  1  0.811130  0.331745  0.333248  1
  Pr  Pr11  1  0.171595  0.178184  0.832962  1
  Co  Co12  1  0.488637  0.521524  0.343181  1
  Co  Co13  1  0.488141  0.998873  0.905026  1
  Co  Co14  1  0.997249  0.438579  0.613687  1
  Co  Co15  1  0.981845  0.054766  0.111202  1
