# generated using pymatgen
data_Zn3B4Pt9
_symmetry_space_group_name_H-M   'P 1'
_cell_length_a   9.21653800
_cell_length_b   9.21653746
_cell_length_c   5.79878600
_cell_angle_alpha   90.00000000
_cell_angle_beta   90.00000000
_cell_angle_gamma   119.99999475
_symmetry_Int_Tables_number   1
_chemical_formula_structural   Zn3B4Pt9
_chemical_formula_sum   'Zn6 B8 Pt18'
_cell_volume   426.58280650
_cell_formula_units_Z   2
loop_
 _symmetry_equiv_pos_site_id
 _symmetry_equiv_pos_as_xyz
  1  'x, y, z'
loop_
 _atom_site_type_symbol
 _atom_site_label
 _atom_site_symmetry_multiplicity
 _atom_site_fract_x
 _atom_site_fract_y
 _atom_site_fract_z
 _atom_site_occupancy
  Zn  Zn0  1  0.461537  0.014678  0.750000  1
  Zn  Zn1  1  0.446858  0.985322  0.250000  1
  Zn  Zn2  1  0.538463  0.553142  0.250000  1
  Zn  Zn3  1  0.553142  0.538463  0.750000  1
  Zn  Zn4  1  0.985322  0.446858  0.750000  1
  Zn  Zn5  1  0.014678  0.461537  0.250000  1
  B  B6  1  0.808089  0.000000  0.500000  1
  B  B7  1  0.808089  0.000000  0.000000  1
  B  B8  1  0.000000  0.808089  0.500000  1
  B  B9  1  0.191911  0.191911  0.500000  1
  B  B10  1  0.191911  0.191911  0.000000  1
  B  B11  1  0.000000  0.808089  0.000000  1
  B  B12  1  0.666667  0.333333  0.250000  1
  B  B13  1  0.333333  0.666667  0.750000  1
  Pt  Pt14  1  0.810113  0.539623  0.497190  1
  Pt  Pt15  1  0.539623  0.810113  0.502810  1
  Pt  Pt16  1  0.995638  0.174868  0.750000  1
  Pt  Pt17  1  0.270489  0.460377  0.502810  1
  Pt  Pt18  1  0.004362  0.179230  0.250000  1
  Pt  Pt19  1  0.729511  0.189887  0.497190  1
  Pt  Pt20  1  0.820770  0.825132  0.250000  1
  Pt  Pt21  1  0.189887  0.729511  0.502810  1
  Pt  Pt22  1  0.460377  0.270489  0.497190  1
  Pt  Pt23  1  0.810113  0.539623  0.002810  1
  Pt  Pt24  1  0.460377  0.270489  0.002810  1
  Pt  Pt25  1  0.179230  0.004362  0.750000  1
  Pt  Pt26  1  0.174868  0.995638  0.250000  1
  Pt  Pt27  1  0.189887  0.729511  0.997190  1
  Pt  Pt28  1  0.825132  0.820770  0.750000  1
  Pt  Pt29  1  0.729511  0.189887  0.002810  1
  Pt  Pt30  1  0.270489  0.460377  0.997190  1
  Pt  Pt31  1  0.539623  0.810113  0.997190  1
