# generated using pymatgen
data_Ho2Si2Tc2C
_symmetry_space_group_name_H-M   'P 1'
_cell_length_a   5.94302180
_cell_length_b   5.94302170
_cell_length_c   6.92862603
_cell_angle_alpha   126.78498348
_cell_angle_beta   126.78498081
_cell_angle_gamma   39.30621375
_symmetry_Int_Tables_number   1
_chemical_formula_structural   Ho2Si2Tc2C
_chemical_formula_sum   'Ho2 Si2 Tc2 C1'
_cell_volume   119.64483627
_cell_formula_units_Z   1
loop_
 _symmetry_equiv_pos_site_id
 _symmetry_equiv_pos_as_xyz
  1  'x, y, z'
loop_
 _atom_site_type_symbol
 _atom_site_label
 _atom_site_symmetry_multiplicity
 _atom_site_fract_x
 _atom_site_fract_y
 _atom_site_fract_z
 _atom_site_occupancy
  Ho  Ho0  1  0.430478  0.430478  0.159126  1
  Ho  Ho1  1  0.569522  0.569522  0.840875  1
  Si  Si2  1  0.856154  0.856154  0.399993  1
  Si  Si3  1  0.143846  0.143846  0.600008  1
  Tc  Tc4  1  0.206405  0.206405  0.316795  1
  Tc  Tc5  1  0.793595  0.793595  0.683205  1
  C  C6  1  0.000000  0.000000  0.000000  1
