# generated using pymatgen
data_La3HoTa4(Bi2O11)2
_symmetry_space_group_name_H-M   'P 1'
_cell_length_a   6.68819218
_cell_length_b   7.76835009
_cell_length_c   9.91916757
_cell_angle_alpha   101.26434823
_cell_angle_beta   90.52268181
_cell_angle_gamma   90.11114605
_symmetry_Int_Tables_number   1
_chemical_formula_structural   La3HoTa4(Bi2O11)2
_chemical_formula_sum   'La3 Ho1 Ta4 Bi4 O22'
_cell_volume   505.41002657
_cell_formula_units_Z   1
loop_
 _symmetry_equiv_pos_site_id
 _symmetry_equiv_pos_as_xyz
  1  'x, y, z'
loop_
 _atom_site_type_symbol
 _atom_site_label
 _atom_site_symmetry_multiplicity
 _atom_site_fract_x
 _atom_site_fract_y
 _atom_site_fract_z
 _atom_site_occupancy
  La  La0  1  0.748486  0.366933  0.485533  1
  La  La1  1  0.248336  0.628281  0.510913  1
  La  La2  1  0.759238  0.875842  0.491780  1
  Ho  Ho3  1  0.242750  0.129244  0.518124  1
  Ta  Ta4  1  0.915002  0.702024  0.809300  1
  Ta  Ta5  1  0.085715  0.296886  0.193642  1
  Ta  Ta6  1  0.917023  0.201371  0.809921  1
  Ta  Ta7  1  0.084487  0.801832  0.192805  1
  Bi  Bi8  1  0.427175  0.956756  0.816070  1
  Bi  Bi9  1  0.561920  0.044602  0.184823  1
  Bi  Bi10  1  0.391859  0.454607  0.827146  1
  Bi  Bi11  1  0.604829  0.544334  0.171730  1
  O  O12  1  0.217308  0.726521  0.764221  1
  O  O13  1  0.784554  0.270562  0.234988  1
  O  O14  1  0.633694  0.661253  0.837796  1
  O  O15  1  0.366734  0.337611  0.157954  1
  O  O16  1  0.634995  0.254015  0.838368  1
  O  O17  1  0.366875  0.744762  0.158205  1
  O  O18  1  0.907262  0.156091  0.595209  1
  O  O19  1  0.112247  0.860551  0.405690  1
  O  O20  1  0.217394  0.153377  0.758025  1
  O  O21  1  0.785527  0.850304  0.238833  1
  O  O22  1  0.899277  0.641195  0.596634  1
  O  O23  1  0.108799  0.341886  0.403183  1
  O  O24  1  0.030478  0.552768  0.207597  1
  O  O25  1  0.974658  0.450669  0.804487  1
  O  O26  1  0.997499  0.777712  0.000950  1
  O  O27  1  0.004385  0.221466  0.998706  1
  O  O28  1  0.573528  0.597033  0.388780  1
  O  O29  1  0.416944  0.393365  0.609865  1
  O  O30  1  0.162854  0.052019  0.205964  1
  O  O31  1  0.841601  0.945207  0.782387  1
  O  O32  1  0.531410  0.102019  0.399678  1
  O  O33  1  0.445157  0.906900  0.600695  1
