# generated using pymatgen
data_LaZr(NiAs)2
_symmetry_space_group_name_H-M   'P 1'
_cell_length_a   4.04523400
_cell_length_b   4.04523278
_cell_length_c   15.44353400
_cell_angle_alpha   90.00000000
_cell_angle_beta   90.00000000
_cell_angle_gamma   120.00000997
_symmetry_Int_Tables_number   1
_chemical_formula_structural   LaZr(NiAs)2
_chemical_formula_sum   'La2 Zr2 Ni4 As4'
_cell_volume   218.85901651
_cell_formula_units_Z   2
loop_
 _symmetry_equiv_pos_site_id
 _symmetry_equiv_pos_as_xyz
  1  'x, y, z'
loop_
 _atom_site_type_symbol
 _atom_site_label
 _atom_site_symmetry_multiplicity
 _atom_site_fract_x
 _atom_site_fract_y
 _atom_site_fract_z
 _atom_site_occupancy
  La  La0  1  0.000000  0.000000  0.000000  1
  La  La1  1  0.000000  0.000000  0.500000  1
  Zr  Zr2  1  0.000000  0.000000  0.250000  1
  Zr  Zr3  1  0.000000  0.000000  0.750000  1
  Ni  Ni4  1  0.333333  0.666667  0.161238  1
  Ni  Ni5  1  0.666667  0.333333  0.838762  1
  Ni  Ni6  1  0.666667  0.333333  0.661238  1
  Ni  Ni7  1  0.333333  0.666667  0.338762  1
  As  As8  1  0.333333  0.666667  0.629155  1
  As  As9  1  0.666667  0.333333  0.370845  1
  As  As10  1  0.666667  0.333333  0.129155  1
  As  As11  1  0.333333  0.666667  0.870845  1
