# generated using pymatgen
data_Ho3Th2Pb3C
_symmetry_space_group_name_H-M   'P 1'
_cell_length_a   9.20527119
_cell_length_b   9.20527082
_cell_length_c   6.55807700
_cell_angle_alpha   90.00000000
_cell_angle_beta   90.00000000
_cell_angle_gamma   119.48993971
_symmetry_Int_Tables_number   1
_chemical_formula_structural   Ho3Th2Pb3C
_chemical_formula_sum   'Ho6 Th4 Pb6 C2'
_cell_volume   483.71502721
_cell_formula_units_Z   2
loop_
 _symmetry_equiv_pos_site_id
 _symmetry_equiv_pos_as_xyz
  1  'x, y, z'
loop_
 _atom_site_type_symbol
 _atom_site_label
 _atom_site_symmetry_multiplicity
 _atom_site_fract_x
 _atom_site_fract_y
 _atom_site_fract_z
 _atom_site_occupancy
  Ho  Ho0  1  0.783752  0.783752  0.250000  1
  Ho  Ho1  1  0.216248  0.216248  0.750000  1
  Ho  Ho2  1  0.333222  0.666778  0.000000  1
  Ho  Ho3  1  0.666778  0.333222  0.000000  1
  Ho  Ho4  1  0.666778  0.333222  0.500000  1
  Ho  Ho5  1  0.333222  0.666778  0.500000  1
  Th  Th6  1  0.216528  0.998896  0.250000  1
  Th  Th7  1  0.783472  0.001104  0.750000  1
  Th  Th8  1  0.998896  0.216528  0.250000  1
  Th  Th9  1  0.001104  0.783472  0.750000  1
  Pb  Pb10  1  0.594092  0.996939  0.250000  1
  Pb  Pb11  1  0.405908  0.003061  0.750000  1
  Pb  Pb12  1  0.996939  0.594092  0.250000  1
  Pb  Pb13  1  0.003061  0.405908  0.750000  1
  Pb  Pb14  1  0.409241  0.409241  0.250000  1
  Pb  Pb15  1  0.590759  0.590759  0.750000  1
  C  C16  1  0.000000  0.000000  0.000000  1
  C  C17  1  0.000000  0.000000  0.500000  1
