# generated using pymatgen
data_Ho4Si4OsRh3
_symmetry_space_group_name_H-M   'P 1'
_cell_length_a   4.27039100
_cell_length_b   6.90203380
_cell_length_c   7.30840804
_cell_angle_alpha   89.91578790
_cell_angle_beta   90.00000000
_cell_angle_gamma   90.00000000
_symmetry_Int_Tables_number   1
_chemical_formula_structural   Ho4Si4OsRh3
_chemical_formula_sum   'Ho4 Si4 Os1 Rh3'
_cell_volume   215.41058524
_cell_formula_units_Z   1
loop_
 _symmetry_equiv_pos_site_id
 _symmetry_equiv_pos_as_xyz
  1  'x, y, z'
loop_
 _atom_site_type_symbol
 _atom_site_label
 _atom_site_symmetry_multiplicity
 _atom_site_fract_x
 _atom_site_fract_y
 _atom_site_fract_z
 _atom_site_occupancy
  Ho  Ho0  1  0.250000  0.497272  0.690315  1
  Ho  Ho1  1  0.750000  0.506328  0.310898  1
  Ho  Ho2  1  0.250000  0.998337  0.813542  1
  Ho  Ho3  1  0.750000  0.000967  0.186308  1
  Si  Si4  1  0.250000  0.297727  0.106915  1
  Si  Si5  1  0.750000  0.704523  0.886822  1
  Si  Si6  1  0.250000  0.798148  0.401820  1
  Si  Si7  1  0.750000  0.199018  0.603605  1
  Os  Os8  1  0.750000  0.843885  0.567711  1
  Rh  Rh9  1  0.250000  0.155184  0.431076  1
  Rh  Rh10  1  0.750000  0.343360  0.931066  1
  Rh  Rh11  1  0.250000  0.655252  0.069922  1
