# generated using pymatgen
data_Ba7As12Pd17
_symmetry_space_group_name_H-M   'P 1'
_cell_length_a   13.28428285
_cell_length_b   13.28428338
_cell_length_c   14.51733014
_cell_angle_alpha   68.86160918
_cell_angle_beta   68.86160818
_cell_angle_gamma   18.68561772
_symmetry_Int_Tables_number   1
_chemical_formula_structural   Ba7As12Pd17
_chemical_formula_sum   'Ba7 As12 Pd17'
_cell_volume   763.99247782
_cell_formula_units_Z   1
loop_
 _symmetry_equiv_pos_site_id
 _symmetry_equiv_pos_as_xyz
  1  'x, y, z'
loop_
 _atom_site_type_symbol
 _atom_site_label
 _atom_site_symmetry_multiplicity
 _atom_site_fract_x
 _atom_site_fract_y
 _atom_site_fract_z
 _atom_site_occupancy
  Ba  Ba0  1  0.500000  0.500000  0.500000  1
  Ba  Ba1  1  0.367125  0.367125  0.998436  1
  Ba  Ba2  1  0.632875  0.632875  0.001564  1
  Ba  Ba3  1  0.235172  0.235172  0.309719  1
  Ba  Ba4  1  0.764828  0.764828  0.690281  1
  Ba  Ba5  1  0.417729  0.417729  0.262067  1
  Ba  Ba6  1  0.582271  0.582271  0.737933  1
  As  As7  1  0.057295  0.057295  0.930603  1
  As  As8  1  0.942705  0.942705  0.069397  1
  As  As9  1  0.886002  0.886002  0.820639  1
  As  As10  1  0.113998  0.113998  0.179361  1
  As  As11  1  0.190048  0.190048  0.608776  1
  As  As12  1  0.809952  0.809952  0.391224  1
  As  As13  1  0.366200  0.366200  0.578040  1
  As  As14  1  0.633800  0.633800  0.421960  1
  As  As15  1  0.004777  0.004777  0.678750  1
  As  As16  1  0.995223  0.995223  0.321250  1
  As  As17  1  0.237769  0.237769  0.885267  1
  As  As18  1  0.762231  0.762231  0.114733  1
  Pd  Pd19  1  0.837948  0.837948  0.192998  1
  Pd  Pd20  1  0.162052  0.162052  0.807002  1
  Pd  Pd21  1  0.026505  0.026505  0.126943  1
  Pd  Pd22  1  0.973495  0.973495  0.873057  1
  Pd  Pd23  1  0.886006  0.886006  0.464683  1
  Pd  Pd24  1  0.113994  0.113994  0.535317  1
  Pd  Pd25  1  0.500000  0.500000  0.000000  1
  Pd  Pd26  1  0.551627  0.551627  0.257233  1
  Pd  Pd27  1  0.448373  0.448373  0.742767  1
  Pd  Pd28  1  0.294070  0.294070  0.492097  1
  Pd  Pd29  1  0.705930  0.705930  0.507903  1
  Pd  Pd30  1  0.663036  0.663036  0.223330  1
  Pd  Pd31  1  0.336964  0.336964  0.776670  1
  Pd  Pd32  1  0.903795  0.903795  0.642399  1
  Pd  Pd33  1  0.096205  0.096205  0.357601  1
  Pd  Pd34  1  0.222101  0.222101  0.073461  1
  Pd  Pd35  1  0.777899  0.777899  0.926539  1
