# generated using pymatgen
data_SrEu2(SiP2)2
_symmetry_space_group_name_H-M   'P 1'
_cell_length_a   9.28008655
_cell_length_b   9.28008614
_cell_length_c   7.21602925
_cell_angle_alpha   74.84983757
_cell_angle_beta   74.84983517
_cell_angle_gamma   122.02719363
_symmetry_Int_Tables_number   1
_chemical_formula_structural   SrEu2(SiP2)2
_chemical_formula_sum   'Sr2 Eu4 Si4 P8'
_cell_volume   443.67205541
_cell_formula_units_Z   2
loop_
 _symmetry_equiv_pos_site_id
 _symmetry_equiv_pos_as_xyz
  1  'x, y, z'
loop_
 _atom_site_type_symbol
 _atom_site_label
 _atom_site_symmetry_multiplicity
 _atom_site_fract_x
 _atom_site_fract_y
 _atom_site_fract_z
 _atom_site_occupancy
  Sr  Sr0  1  0.813173  0.186828  0.750000  1
  Sr  Sr1  1  0.186828  0.813172  0.250000  1
  Eu  Eu2  1  0.941075  0.058925  0.250000  1
  Eu  Eu3  1  0.058925  0.941075  0.750000  1
  Eu  Eu4  1  0.564115  0.435886  0.750000  1
  Eu  Eu5  1  0.435886  0.564114  0.250000  1
  Si  Si6  1  0.165761  0.522519  0.846888  1
  Si  Si7  1  0.477481  0.834239  0.653112  1
  Si  Si8  1  0.834239  0.477481  0.153112  1
  Si  Si9  1  0.522519  0.165761  0.346888  1
  P  P10  1  0.949361  0.558815  0.786045  1
  P  P11  1  0.441185  0.050639  0.713955  1
  P  P12  1  0.680600  0.809596  0.745660  1
  P  P13  1  0.190404  0.319400  0.754340  1
  P  P14  1  0.319400  0.190404  0.254340  1
  P  P15  1  0.809596  0.680600  0.245660  1
  P  P16  1  0.558815  0.949361  0.286045  1
  P  P17  1  0.050639  0.441185  0.213955  1
