# generated using pymatgen
data_ErU(Ni7B2)3
_symmetry_space_group_name_H-M   'P 1'
_cell_length_a   7.53348801
_cell_length_b   7.53348794
_cell_length_c   7.53348800
_cell_angle_alpha   59.99999973
_cell_angle_beta   60.00000005
_cell_angle_gamma   59.99999718
_symmetry_Int_Tables_number   1
_chemical_formula_structural   ErU(Ni7B2)3
_chemical_formula_sum   'Er1 U1 Ni21 B6'
_cell_volume   302.32446414
_cell_formula_units_Z   1
loop_
 _symmetry_equiv_pos_site_id
 _symmetry_equiv_pos_as_xyz
  1  'x, y, z'
loop_
 _atom_site_type_symbol
 _atom_site_label
 _atom_site_symmetry_multiplicity
 _atom_site_fract_x
 _atom_site_fract_y
 _atom_site_fract_z
 _atom_site_occupancy
  Er  Er0  1  0.750000  0.750000  0.750000  1
  U  U1  1  0.250000  0.250000  0.250000  1
  Ni  Ni2  1  0.337046  0.001603  0.659748  1
  Ni  Ni3  1  0.848436  0.383854  0.383854  1
  Ni  Ni4  1  0.610431  0.610431  0.610431  1
  Ni  Ni5  1  0.001603  0.337046  0.001603  1
  Ni  Ni6  1  0.337046  0.001603  0.001603  1
  Ni  Ni7  1  0.001603  0.337046  0.659748  1
  Ni  Ni8  1  0.659748  0.001603  0.337046  1
  Ni  Ni9  1  0.001603  0.001603  0.337046  1
  Ni  Ni10  1  0.337046  0.659748  0.001603  1
  Ni  Ni11  1  0.659748  0.337046  0.001603  1
  Ni  Ni12  1  0.001603  0.659748  0.337046  1
  Ni  Ni13  1  0.001603  0.001603  0.659748  1
  Ni  Ni14  1  0.168709  0.610431  0.610431  1
  Ni  Ni15  1  0.659748  0.001603  0.001603  1
  Ni  Ni16  1  0.001603  0.659748  0.001603  1
  Ni  Ni17  1  0.000000  0.000000  0.000000  1
  Ni  Ni18  1  0.383854  0.383854  0.383854  1
  Ni  Ni19  1  0.383854  0.848436  0.383854  1
  Ni  Ni20  1  0.610431  0.610431  0.168709  1
  Ni  Ni21  1  0.610431  0.168709  0.610431  1
  Ni  Ni22  1  0.383854  0.383854  0.848436  1
  B  B23  1  0.732161  0.267839  0.732161  1
  B  B24  1  0.267839  0.267839  0.732161  1
  B  B25  1  0.732161  0.732161  0.267839  1
  B  B26  1  0.732161  0.267839  0.267839  1
  B  B27  1  0.267839  0.732161  0.732161  1
  B  B28  1  0.267839  0.732161  0.267839  1
