# generated using pymatgen
data_Li2HoThSi3
_symmetry_space_group_name_H-M   'P 1'
_cell_length_a   9.28114253
_cell_length_b   9.28114179
_cell_length_c   6.78814100
_cell_angle_alpha   90.00000000
_cell_angle_beta   90.00000000
_cell_angle_gamma   152.84444157
_symmetry_Int_Tables_number   1
_chemical_formula_structural   Li2HoThSi3
_chemical_formula_sum   'Li4 Ho2 Th2 Si6'
_cell_volume   266.87437128
_cell_formula_units_Z   2
loop_
 _symmetry_equiv_pos_site_id
 _symmetry_equiv_pos_as_xyz
  1  'x, y, z'
loop_
 _atom_site_type_symbol
 _atom_site_label
 _atom_site_symmetry_multiplicity
 _atom_site_fract_x
 _atom_site_fract_y
 _atom_site_fract_z
 _atom_site_occupancy
  Li  Li0  1  0.190782  0.809218  0.061732  1
  Li  Li1  1  0.190782  0.809218  0.438268  1
  Li  Li2  1  0.809218  0.190782  0.938268  1
  Li  Li3  1  0.809218  0.190782  0.561732  1
  Ho  Ho4  1  0.346584  0.653416  0.250000  1
  Ho  Ho5  1  0.653416  0.346584  0.750000  1
  Th  Th6  1  0.553255  0.446745  0.250000  1
  Th  Th7  1  0.446745  0.553255  0.750000  1
  Si  Si8  1  0.722955  0.277045  0.250000  1
  Si  Si9  1  0.277045  0.722955  0.750000  1
  Si  Si10  1  0.060356  0.939644  0.929276  1
  Si  Si11  1  0.939644  0.060356  0.070724  1
  Si  Si12  1  0.939644  0.060356  0.429276  1
  Si  Si13  1  0.060356  0.939644  0.570724  1
