# generated using pymatgen
data_YTmMgNi7B2
_symmetry_space_group_name_H-M   'P 1'
_cell_length_a   4.97732200
_cell_length_b   4.97732224
_cell_length_c   14.21689800
_cell_angle_alpha   90.00000000
_cell_angle_beta   90.00000000
_cell_angle_gamma   120.00001167
_symmetry_Int_Tables_number   1
_chemical_formula_structural   YTmMgNi7B2
_chemical_formula_sum   'Y2 Tm2 Mg2 Ni14 B4'
_cell_volume   305.01902243
_cell_formula_units_Z   2
loop_
 _symmetry_equiv_pos_site_id
 _symmetry_equiv_pos_as_xyz
  1  'x, y, z'
loop_
 _atom_site_type_symbol
 _atom_site_label
 _atom_site_symmetry_multiplicity
 _atom_site_fract_x
 _atom_site_fract_y
 _atom_site_fract_z
 _atom_site_occupancy
  Y  Y0  1  0.666667  0.333333  0.469612  1
  Y  Y1  1  0.333333  0.666667  0.969612  1
  Tm  Tm2  1  0.333333  0.666667  0.744331  1
  Tm  Tm3  1  0.666667  0.333333  0.244331  1
  Mg  Mg4  1  0.333333  0.666667  0.533777  1
  Mg  Mg5  1  0.666667  0.333333  0.033777  1
  Ni  Ni6  1  0.000000  0.000000  0.001283  1
  Ni  Ni7  1  0.000000  0.000000  0.501283  1
  Ni  Ni8  1  0.165397  0.330794  0.147479  1
  Ni  Ni9  1  0.834603  0.669206  0.647479  1
  Ni  Ni10  1  0.669206  0.834603  0.147479  1
  Ni  Ni11  1  0.165397  0.834603  0.147479  1
  Ni  Ni12  1  0.834603  0.165397  0.647479  1
  Ni  Ni13  1  0.330794  0.165397  0.647479  1
  Ni  Ni14  1  0.833753  0.667507  0.852109  1
  Ni  Ni15  1  0.833753  0.166247  0.852109  1
  Ni  Ni16  1  0.332493  0.166247  0.852109  1
  Ni  Ni17  1  0.667507  0.833753  0.352109  1
  Ni  Ni18  1  0.166247  0.833753  0.352109  1
  Ni  Ni19  1  0.166247  0.332493  0.352109  1
  B  B20  1  0.333333  0.666667  0.250016  1
  B  B21  1  0.666667  0.333333  0.750016  1
  B  B22  1  0.000000  0.000000  0.252217  1
  B  B23  1  0.000000  0.000000  0.752217  1
