# generated using pymatgen
data_DyHf8ZrSn6
_symmetry_space_group_name_H-M   'P 1'
_cell_length_a   8.55498100
_cell_length_b   8.55498182
_cell_length_c   5.77223800
_cell_angle_alpha   90.00000000
_cell_angle_beta   90.00000000
_cell_angle_gamma   121.06004611
_symmetry_Int_Tables_number   1
_chemical_formula_structural   DyHf8ZrSn6
_chemical_formula_sum   'Dy1 Hf8 Zr1 Sn6'
_cell_volume   361.88798428
_cell_formula_units_Z   1
loop_
 _symmetry_equiv_pos_site_id
 _symmetry_equiv_pos_as_xyz
  1  'x, y, z'
loop_
 _atom_site_type_symbol
 _atom_site_label
 _atom_site_symmetry_multiplicity
 _atom_site_fract_x
 _atom_site_fract_y
 _atom_site_fract_z
 _atom_site_occupancy
  Dy  Dy0  1  0.769843  0.769843  0.750000  1
  Hf  Hf1  1  0.251874  0.001458  0.750000  1
  Hf  Hf2  1  0.001458  0.251874  0.750000  1
  Hf  Hf3  1  0.750237  0.000388  0.250000  1
  Hf  Hf4  1  0.000388  0.750237  0.250000  1
  Hf  Hf5  1  0.664745  0.333482  0.000394  1
  Hf  Hf6  1  0.333482  0.664745  0.000394  1
  Hf  Hf7  1  0.333482  0.664745  0.499606  1
  Hf  Hf8  1  0.664745  0.333482  0.499606  1
  Zr  Zr9  1  0.232839  0.232839  0.250000  1
  Sn  Sn10  1  0.391326  0.391326  0.750000  1
  Sn  Sn11  1  0.606125  0.003332  0.750000  1
  Sn  Sn12  1  0.003332  0.606125  0.750000  1
  Sn  Sn13  1  0.606073  0.606073  0.250000  1
  Sn  Sn14  1  0.391774  0.998283  0.250000  1
  Sn  Sn15  1  0.998283  0.391774  0.250000  1
