# generated using pymatgen
data_CaDyTm2Ni13C4
_symmetry_space_group_name_H-M   'P 1'
_cell_length_a   3.84689000
_cell_length_b   8.34315464
_cell_length_c   8.34315458
_cell_angle_alpha   90.69510417
_cell_angle_beta   90.00000000
_cell_angle_gamma   90.00000000
_symmetry_Int_Tables_number   1
_chemical_formula_structural   CaDyTm2Ni13C4
_chemical_formula_sum   'Ca1 Dy1 Tm2 Ni13 C4'
_cell_volume   267.75549391
_cell_formula_units_Z   1
loop_
 _symmetry_equiv_pos_site_id
 _symmetry_equiv_pos_as_xyz
  1  'x, y, z'
loop_
 _atom_site_type_symbol
 _atom_site_label
 _atom_site_symmetry_multiplicity
 _atom_site_fract_x
 _atom_site_fract_y
 _atom_site_fract_z
 _atom_site_occupancy
  Ca  Ca0  1  0.500000  0.649451  0.649451  1
  Dy  Dy1  1  0.500000  0.350024  0.350024  1
  Tm  Tm2  1  0.500000  0.186280  0.813096  1
  Tm  Tm3  1  0.500000  0.813096  0.186280  1
  Ni  Ni4  1  0.500000  0.006509  0.494767  1
  Ni  Ni5  1  0.500000  0.494767  0.006509  1
  Ni  Ni6  1  0.000000  0.002052  0.002052  1
  Ni  Ni7  1  0.000000  0.784099  0.423837  1
  Ni  Ni8  1  0.000000  0.213064  0.570678  1
  Ni  Ni9  1  0.000000  0.570678  0.213064  1
  Ni  Ni10  1  0.000000  0.423837  0.784099  1
  Ni  Ni11  1  0.000000  0.930568  0.712390  1
  Ni  Ni12  1  0.000000  0.074349  0.291629  1
  Ni  Ni13  1  0.000000  0.291629  0.074349  1
  Ni  Ni14  1  0.000000  0.712390  0.930568  1
  Ni  Ni15  1  0.500000  0.878518  0.878518  1
  Ni  Ni16  1  0.500000  0.124157  0.124157  1
  C  C17  1  0.000000  0.555641  0.441551  1
  C  C18  1  0.000000  0.441551  0.555641  1
  C  C19  1  0.000000  0.996157  0.501181  1
  C  C20  1  0.000000  0.501181  0.996157  1
