# generated using pymatgen
data_Tb2Ho3SnPb3
_symmetry_space_group_name_H-M   'P 1'
_cell_length_a   8.16244500
_cell_length_b   8.24693300
_cell_length_c   15.60586500
_cell_angle_alpha   90.00000000
_cell_angle_beta   90.00000000
_cell_angle_gamma   90.00000000
_symmetry_Int_Tables_number   1
_chemical_formula_structural   Tb2Ho3SnPb3
_chemical_formula_sum   'Tb8 Ho12 Sn4 Pb12'
_cell_volume   1050.51094097
_cell_formula_units_Z   4
loop_
 _symmetry_equiv_pos_site_id
 _symmetry_equiv_pos_as_xyz
  1  'x, y, z'
loop_
 _atom_site_type_symbol
 _atom_site_label
 _atom_site_symmetry_multiplicity
 _atom_site_fract_x
 _atom_site_fract_y
 _atom_site_fract_z
 _atom_site_occupancy
  Tb  Tb0  1  0.533908  0.324589  0.899439  1
  Tb  Tb1  1  0.033908  0.175411  0.600561  1
  Tb  Tb2  1  0.466092  0.675411  0.399439  1
  Tb  Tb3  1  0.966092  0.824589  0.100561  1
  Tb  Tb4  1  0.466092  0.675411  0.100561  1
  Tb  Tb5  1  0.966092  0.824589  0.399439  1
  Tb  Tb6  1  0.533908  0.324589  0.600561  1
  Tb  Tb7  1  0.033908  0.175411  0.899439  1
  Ho  Ho8  1  0.376415  0.839197  0.877562  1
  Ho  Ho9  1  0.876415  0.660803  0.622438  1
  Ho  Ho10  1  0.623585  0.160803  0.377562  1
  Ho  Ho11  1  0.123585  0.339197  0.122438  1
  Ho  Ho12  1  0.623585  0.160803  0.122438  1
  Ho  Ho13  1  0.123585  0.339197  0.377562  1
  Ho  Ho14  1  0.376415  0.839197  0.622438  1
  Ho  Ho15  1  0.876415  0.660803  0.877562  1
  Ho  Ho16  1  0.209656  0.507250  0.750000  1
  Ho  Ho17  1  0.709656  0.992750  0.750000  1
  Ho  Ho18  1  0.790344  0.492750  0.250000  1
  Ho  Ho19  1  0.290344  0.007250  0.250000  1
  Sn  Sn20  1  0.572621  0.626252  0.750000  1
  Sn  Sn21  1  0.072621  0.873748  0.750000  1
  Sn  Sn22  1  0.427379  0.373748  0.250000  1
  Sn  Sn23  1  0.927379  0.126252  0.250000  1
  Pb  Pb24  1  0.283178  0.034092  0.042450  1
  Pb  Pb25  1  0.783178  0.465908  0.457550  1
  Pb  Pb26  1  0.716822  0.965908  0.542450  1
  Pb  Pb27  1  0.216822  0.534092  0.957550  1
  Pb  Pb28  1  0.716822  0.965908  0.957550  1
  Pb  Pb29  1  0.216822  0.534092  0.542450  1
  Pb  Pb30  1  0.283178  0.034092  0.457550  1
  Pb  Pb31  1  0.783178  0.465908  0.042450  1
  Pb  Pb32  1  0.343356  0.150664  0.750000  1
  Pb  Pb33  1  0.843356  0.349336  0.750000  1
  Pb  Pb34  1  0.656644  0.849336  0.250000  1
  Pb  Pb35  1  0.156644  0.650664  0.250000  1
