# generated using pymatgen
data_Li6Ta5GaRh12
_symmetry_space_group_name_H-M   'P 1'
_cell_length_a   4.29100007
_cell_length_b   6.09353900
_cell_length_c   12.85152300
_cell_angle_alpha   90.00000000
_cell_angle_beta   90.01028146
_cell_angle_gamma   90.00000000
_symmetry_Int_Tables_number   1
_chemical_formula_structural   Li6Ta5GaRh12
_chemical_formula_sum   'Li6 Ta5 Ga1 Rh12'
_cell_volume   336.03360211
_cell_formula_units_Z   1
loop_
 _symmetry_equiv_pos_site_id
 _symmetry_equiv_pos_as_xyz
  1  'x, y, z'
loop_
 _atom_site_type_symbol
 _atom_site_label
 _atom_site_symmetry_multiplicity
 _atom_site_fract_x
 _atom_site_fract_y
 _atom_site_fract_z
 _atom_site_occupancy
  Li  Li0  1  0.000000  0.000000  0.000000  1
  Li  Li1  1  0.499697  0.500000  0.164575  1
  Li  Li2  1  0.999716  0.000000  0.329562  1
  Li  Li3  1  0.499999  0.500000  0.500000  1
  Li  Li4  1  0.000285  0.000000  0.670438  1
  Li  Li5  1  0.500303  0.500000  0.835425  1
  Ta  Ta6  1  0.499784  0.000000  0.161530  1
  Ta  Ta7  1  0.999768  0.500000  0.331314  1
  Ta  Ta8  1  0.499999  0.000000  0.500000  1
  Ta  Ta9  1  0.000233  0.500000  0.668686  1
  Ta  Ta10  1  0.500216  0.000000  0.838470  1
  Ga  Ga11  1  0.000000  0.500000  0.000000  1
  Rh  Rh12  1  0.499999  0.254734  0.000000  1
  Rh  Rh13  1  0.499999  0.745264  0.000000  1
  Rh  Rh14  1  0.999757  0.253051  0.164003  1
  Rh  Rh15  1  0.999757  0.746949  0.164003  1
  Rh  Rh16  1  0.499769  0.249876  0.332408  1
  Rh  Rh17  1  0.499769  0.750124  0.332408  1
  Rh  Rh18  1  0.000000  0.249670  0.500000  1
  Rh  Rh19  1  0.000000  0.750328  0.500000  1
  Rh  Rh20  1  0.500232  0.249876  0.667591  1
  Rh  Rh21  1  0.500232  0.750124  0.667591  1
  Rh  Rh22  1  0.000244  0.253051  0.835997  1
  Rh  Rh23  1  0.000244  0.746949  0.835997  1
