# generated using pymatgen
data_Ca6Zn14Cu2N
_symmetry_space_group_name_H-M   'P 1'
_cell_length_a   8.15948803
_cell_length_b   8.11967865
_cell_length_c   8.15948798
_cell_angle_alpha   109.48517997
_cell_angle_beta   109.64120099
_cell_angle_gamma   109.48517172
_symmetry_Int_Tables_number   1
_chemical_formula_structural   Ca6Zn14Cu2N
_chemical_formula_sum   'Ca6 Zn14 Cu2 N1'
_cell_volume   415.12296664
_cell_formula_units_Z   1
loop_
 _symmetry_equiv_pos_site_id
 _symmetry_equiv_pos_as_xyz
  1  'x, y, z'
loop_
 _atom_site_type_symbol
 _atom_site_label
 _atom_site_symmetry_multiplicity
 _atom_site_fract_x
 _atom_site_fract_y
 _atom_site_fract_z
 _atom_site_occupancy
  Ca  Ca0  1  0.001544  0.257589  0.256045  1
  Ca  Ca1  1  0.256035  0.000000  0.256035  1
  Ca  Ca2  1  0.743965  0.000000  0.743965  1
  Ca  Ca3  1  0.743955  0.742411  0.998456  1
  Ca  Ca4  1  0.256045  0.257589  0.001544  1
  Ca  Ca5  1  0.998456  0.742411  0.743955  1
  Zn  Zn6  1  0.500000  0.000000  0.000000  1
  Zn  Zn7  1  0.000000  0.000000  0.500000  1
  Zn  Zn8  1  0.680650  0.343267  0.343311  1
  Zn  Zn9  1  0.341338  0.000000  0.658662  1
  Zn  Zn10  1  0.339260  0.678519  0.339260  1
  Zn  Zn11  1  0.343311  0.343267  0.680650  1
  Zn  Zn12  1  0.337384  0.656733  0.000044  1
  Zn  Zn13  1  0.999956  0.343267  0.662616  1
  Zn  Zn14  1  0.000044  0.656733  0.337384  1
  Zn  Zn15  1  0.656689  0.656733  0.319350  1
  Zn  Zn16  1  0.658662  0.000000  0.341338  1
  Zn  Zn17  1  0.662616  0.343267  0.999956  1
  Zn  Zn18  1  0.660740  0.321481  0.660740  1
  Zn  Zn19  1  0.319350  0.656733  0.656689  1
  Cu  Cu20  1  0.500000  0.500000  0.500000  1
  Cu  Cu21  1  0.000000  0.500000  0.000000  1
  N  N22  1  0.000000  0.000000  0.000000  1
