# generated using pymatgen
data_Yb3Ho3(Si3Os)8
_symmetry_space_group_name_H-M   'P 1'
_cell_length_a   10.16697028
_cell_length_b   10.16697130
_cell_length_c   8.14535401
_cell_angle_alpha   90.00223864
_cell_angle_beta   90.00225176
_cell_angle_gamma   132.73963586
_symmetry_Int_Tables_number   1
_chemical_formula_structural   Yb3Ho3(Si3Os)8
_chemical_formula_sum   'Yb3 Ho3 Si24 Os8'
_cell_volume   618.37590787
_cell_formula_units_Z   1
loop_
 _symmetry_equiv_pos_site_id
 _symmetry_equiv_pos_as_xyz
  1  'x, y, z'
loop_
 _atom_site_type_symbol
 _atom_site_label
 _atom_site_symmetry_multiplicity
 _atom_site_fract_x
 _atom_site_fract_y
 _atom_site_fract_z
 _atom_site_occupancy
  Yb  Yb0  1  0.499988  0.500012  0.500000  1
  Yb  Yb1  1  0.499740  0.999651  0.749758  1
  Yb  Yb2  1  0.000349  0.500260  0.250242  1
  Ho  Ho3  1  0.000093  0.999907  0.000000  1
  Ho  Ho4  1  0.499730  0.999732  0.250249  1
  Ho  Ho5  1  0.000268  0.500270  0.749751  1
  Si  Si6  1  0.795541  0.204459  0.500000  1
  Si  Si7  1  0.294793  0.705207  0.000000  1
  Si  Si8  1  0.204941  0.795059  0.500000  1
  Si  Si9  1  0.704750  0.295250  0.000000  1
  Si  Si10  1  0.330848  0.338447  0.830871  1
  Si  Si11  1  0.661553  0.669152  0.169129  1
  Si  Si12  1  0.172016  0.164718  0.333992  1
  Si  Si13  1  0.835282  0.827984  0.666008  1
  Si  Si14  1  0.123070  0.888918  0.728204  1
  Si  Si15  1  0.111082  0.876930  0.271796  1
  Si  Si16  1  0.609815  0.376552  0.229979  1
  Si  Si17  1  0.623448  0.390185  0.770021  1
  Si  Si18  1  0.875819  0.110159  0.271593  1
  Si  Si19  1  0.889841  0.124181  0.728407  1
  Si  Si20  1  0.389095  0.622480  0.770126  1
  Si  Si21  1  0.377520  0.610905  0.229874  1
  Si  Si22  1  0.346752  0.113233  0.505555  1
  Si  Si23  1  0.886767  0.653248  0.494445  1
  Si  Si24  1  0.388707  0.154514  0.006286  1
  Si  Si25  1  0.845486  0.611293  0.993714  1
  Si  Si26  1  0.652970  0.885935  0.493011  1
  Si  Si27  1  0.114065  0.347030  0.506989  1
  Si  Si28  1  0.610639  0.845088  0.995518  1
  Si  Si29  1  0.154912  0.389361  0.004482  1
  Os  Os30  1  0.671205  0.328795  0.500000  1
  Os  Os31  1  0.169408  0.830592  0.000000  1
  Os  Os32  1  0.329659  0.670341  0.500000  1
  Os  Os33  1  0.829670  0.170330  0.000000  1
  Os  Os34  1  0.124740  0.126180  0.627748  1
  Os  Os35  1  0.873820  0.875260  0.372252  1
  Os  Os36  1  0.372186  0.370567  0.124714  1
  Os  Os37  1  0.629433  0.627814  0.875286  1
