# generated using pymatgen
data_CeHo4(TcB3)2
_symmetry_space_group_name_H-M   'P 1'
_cell_length_a   5.52413546
_cell_length_b   5.52413482
_cell_length_c   8.37849479
_cell_angle_alpha   70.75176278
_cell_angle_beta   70.75176654
_cell_angle_gamma   59.99999882
_symmetry_Int_Tables_number   1
_chemical_formula_structural   CeHo4(TcB3)2
_chemical_formula_sum   'Ce1 Ho4 Tc2 B6'
_cell_volume   204.75432327
_cell_formula_units_Z   1
loop_
 _symmetry_equiv_pos_site_id
 _symmetry_equiv_pos_as_xyz
  1  'x, y, z'
loop_
 _atom_site_type_symbol
 _atom_site_label
 _atom_site_symmetry_multiplicity
 _atom_site_fract_x
 _atom_site_fract_y
 _atom_site_fract_z
 _atom_site_occupancy
  Ce  Ce0  1  0.000000  0.000000  0.000000  1
  Ho  Ho1  1  0.751427  0.751427  0.745718  1
  Ho  Ho2  1  0.248573  0.248573  0.254282  1
  Ho  Ho3  1  0.582006  0.582006  0.253982  1
  Ho  Ho4  1  0.417994  0.417994  0.746018  1
  Tc  Tc5  1  0.892072  0.892072  0.323787  1
  Tc  Tc6  1  0.107928  0.107928  0.676214  1
  B  B7  1  0.500000  0.171150  0.500000  1
  B  B8  1  0.828850  0.500000  0.500000  1
  B  B9  1  0.171150  0.828850  0.500000  1
  B  B10  1  0.171150  0.500000  0.500000  1
  B  B11  1  0.828850  0.171150  0.500000  1
  B  B12  1  0.500000  0.828850  0.500000  1
