# generated using pymatgen
data_Tb10Ag3Rh
_symmetry_space_group_name_H-M   'P 1'
_cell_length_a   9.53354700
_cell_length_b   9.53354735
_cell_length_c   9.69752100
_cell_angle_alpha   90.00000000
_cell_angle_beta   90.00000000
_cell_angle_gamma   120.00000227
_symmetry_Int_Tables_number   1
_chemical_formula_structural   Tb10Ag3Rh
_chemical_formula_sum   'Tb20 Ag6 Rh2'
_cell_volume   763.30901241
_cell_formula_units_Z   2
loop_
 _symmetry_equiv_pos_site_id
 _symmetry_equiv_pos_as_xyz
  1  'x, y, z'
loop_
 _atom_site_type_symbol
 _atom_site_label
 _atom_site_symmetry_multiplicity
 _atom_site_fract_x
 _atom_site_fract_y
 _atom_site_fract_z
 _atom_site_occupancy
  Tb  Tb0  1  0.000000  0.000000  0.500000  1
  Tb  Tb1  1  0.000000  0.000000  0.000000  1
  Tb  Tb2  1  0.208246  0.791754  0.442142  1
  Tb  Tb3  1  0.208246  0.416492  0.442143  1
  Tb  Tb4  1  0.583507  0.791753  0.442142  1
  Tb  Tb5  1  0.791754  0.208246  0.557858  1
  Tb  Tb6  1  0.791754  0.583508  0.557857  1
  Tb  Tb7  1  0.416493  0.208247  0.557858  1
  Tb  Tb8  1  0.791754  0.208246  0.942142  1
  Tb  Tb9  1  0.791754  0.583508  0.942143  1
  Tb  Tb10  1  0.416493  0.208247  0.942142  1
  Tb  Tb11  1  0.208246  0.791754  0.057858  1
  Tb  Tb12  1  0.208246  0.416492  0.057857  1
  Tb  Tb13  1  0.583507  0.791753  0.057858  1
  Tb  Tb14  1  0.542554  0.457446  0.250000  1
  Tb  Tb15  1  0.542553  0.085107  0.250000  1
  Tb  Tb16  1  0.914893  0.457446  0.250000  1
  Tb  Tb17  1  0.457446  0.542554  0.750000  1
  Tb  Tb18  1  0.457447  0.914893  0.750000  1
  Tb  Tb19  1  0.085107  0.542554  0.750000  1
  Ag  Ag20  1  0.883851  0.116149  0.250000  1
  Ag  Ag21  1  0.883850  0.767705  0.250000  1
  Ag  Ag22  1  0.232295  0.116149  0.250000  1
  Ag  Ag23  1  0.116149  0.883851  0.750000  1
  Ag  Ag24  1  0.116150  0.232295  0.750000  1
  Ag  Ag25  1  0.767705  0.883851  0.750000  1
  Rh  Rh26  1  0.333334  0.666668  0.250000  1
  Rh  Rh27  1  0.666666  0.333332  0.750000  1
