# generated using pymatgen
data_K(Nb3Se4)3
_symmetry_space_group_name_H-M   'P 1'
_cell_length_a   10.76934714
_cell_length_b   10.76934777
_cell_length_c   10.76934700
_cell_angle_alpha   109.95758328
_cell_angle_beta   109.95758450
_cell_angle_gamma   109.95758588
_symmetry_Int_Tables_number   1
_chemical_formula_structural   K(Nb3Se4)3
_chemical_formula_sum   'K2 Nb18 Se24'
_cell_volume   943.78276122
_cell_formula_units_Z   2
loop_
 _symmetry_equiv_pos_site_id
 _symmetry_equiv_pos_as_xyz
  1  'x, y, z'
loop_
 _atom_site_type_symbol
 _atom_site_label
 _atom_site_symmetry_multiplicity
 _atom_site_fract_x
 _atom_site_fract_y
 _atom_site_fract_z
 _atom_site_occupancy
  K  K0  1  0.000000  0.000000  0.000000  1
  K  K1  1  0.500000  0.500000  0.500000  1
  Nb  Nb2  1  0.658838  0.551877  0.039857  1
  Nb  Nb3  1  0.324568  0.218250  0.705828  1
  Nb  Nb4  1  0.991616  0.885416  0.373574  1
  Nb  Nb5  1  0.885416  0.373574  0.991616  1
  Nb  Nb6  1  0.551877  0.039857  0.658838  1
  Nb  Nb7  1  0.218250  0.705828  0.324568  1
  Nb  Nb8  1  0.705828  0.324568  0.218250  1
  Nb  Nb9  1  0.373574  0.991616  0.885416  1
  Nb  Nb10  1  0.039857  0.658838  0.551877  1
  Nb  Nb11  1  0.675432  0.781750  0.294172  1
  Nb  Nb12  1  0.341162  0.448123  0.960143  1
  Nb  Nb13  1  0.008384  0.114584  0.626426  1
  Nb  Nb14  1  0.448123  0.960143  0.341162  1
  Nb  Nb15  1  0.114584  0.626426  0.008384  1
  Nb  Nb16  1  0.781750  0.294172  0.675432  1
  Nb  Nb17  1  0.626426  0.008384  0.114584  1
  Nb  Nb18  1  0.294172  0.675432  0.781750  1
  Nb  Nb19  1  0.960143  0.341162  0.448123  1
  Se  Se20  1  0.083238  0.416505  0.749814  1
  Se  Se21  1  0.416505  0.749814  0.083238  1
  Se  Se22  1  0.749814  0.083238  0.416505  1
  Se  Se23  1  0.916762  0.583495  0.250186  1
  Se  Se24  1  0.250186  0.916762  0.583495  1
  Se  Se25  1  0.583495  0.250186  0.916762  1
  Se  Se26  1  0.157836  0.876115  0.217827  1
  Se  Se27  1  0.489858  0.207982  0.549791  1
  Se  Se28  1  0.823788  0.543305  0.883401  1
  Se  Se29  1  0.207982  0.549791  0.489858  1
  Se  Se30  1  0.543306  0.883401  0.823788  1
  Se  Se31  1  0.876115  0.217827  0.157836  1
  Se  Se32  1  0.883401  0.823788  0.543305  1
  Se  Se33  1  0.217827  0.157836  0.876115  1
  Se  Se34  1  0.549791  0.489858  0.207982  1
  Se  Se35  1  0.842164  0.123885  0.782173  1
  Se  Se36  1  0.176212  0.456695  0.116599  1
  Se  Se37  1  0.510142  0.792018  0.450209  1
  Se  Se38  1  0.792018  0.450209  0.510142  1
  Se  Se39  1  0.123885  0.782173  0.842164  1
  Se  Se40  1  0.456695  0.116599  0.176212  1
  Se  Se41  1  0.116599  0.176212  0.456695  1
  Se  Se42  1  0.450209  0.510142  0.792018  1
  Se  Se43  1  0.782173  0.842164  0.123885  1
