# generated using pymatgen
data_La15YCd4(PdRu)2
_symmetry_space_group_name_H-M   'P 1'
_cell_length_a   10.10016109
_cell_length_b   10.08303644
_cell_length_c   10.10016086
_cell_angle_alpha   60.05607798
_cell_angle_beta   60.58155660
_cell_angle_gamma   60.05607874
_symmetry_Int_Tables_number   1
_chemical_formula_structural   La15YCd4(PdRu)2
_chemical_formula_sum   'La15 Y1 Cd4 Pd2 Ru2'
_cell_volume   731.09915005
_cell_formula_units_Z   1
loop_
 _symmetry_equiv_pos_site_id
 _symmetry_equiv_pos_as_xyz
  1  'x, y, z'
loop_
 _atom_site_type_symbol
 _atom_site_label
 _atom_site_symmetry_multiplicity
 _atom_site_fract_x
 _atom_site_fract_y
 _atom_site_fract_z
 _atom_site_occupancy
  La  La0  1  0.442662  0.435085  0.061301  1
  La  La1  1  0.061301  0.060952  0.442662  1
  La  La2  1  0.442662  0.060952  0.061301  1
  La  La3  1  0.848105  0.846909  0.848105  1
  La  La4  1  0.691166  0.317054  0.304522  1
  La  La5  1  0.061301  0.435085  0.442662  1
  La  La6  1  0.304522  0.687258  0.691166  1
  La  La7  1  0.304522  0.317054  0.691166  1
  La  La8  1  0.857878  0.846685  0.448752  1
  La  La9  1  0.691166  0.687258  0.304522  1
  La  La10  1  0.448752  0.846685  0.857878  1
  La  La11  1  0.060554  0.439446  0.060554  1
  La  La12  1  0.848105  0.456881  0.848105  1
  La  La13  1  0.440068  0.059932  0.440068  1
  La  La14  1  0.310981  0.689019  0.310981  1
  Y  Y15  1  0.693457  0.306543  0.693457  1
  Cd  Cd16  1  0.079626  0.760995  0.079626  1
  Cd  Cd17  1  0.076461  0.080979  0.761580  1
  Cd  Cd18  1  0.761580  0.080979  0.076461  1
  Cd  Cd19  1  0.079626  0.079752  0.079626  1
  Pd  Pd20  1  0.640063  0.077389  0.640063  1
  Pd  Pd21  1  0.640063  0.642483  0.640063  1
  Ru  Ru22  1  0.637505  0.642311  0.077871  1
  Ru  Ru23  1  0.077871  0.642311  0.637505  1
