# generated using pymatgen
data_NaLa(Te3O8)2
_symmetry_space_group_name_H-M   'P 1'
_cell_length_a   7.00579740
_cell_length_b   7.00579765
_cell_length_c   10.28431000
_cell_angle_alpha   66.29120018
_cell_angle_beta   66.29119928
_cell_angle_gamma   50.01819197
_symmetry_Int_Tables_number   1
_chemical_formula_structural   NaLa(Te3O8)2
_chemical_formula_sum   'Na1 La1 Te6 O16'
_cell_volume   346.62171430
_cell_formula_units_Z   1
loop_
 _symmetry_equiv_pos_site_id
 _symmetry_equiv_pos_as_xyz
  1  'x, y, z'
loop_
 _atom_site_type_symbol
 _atom_site_label
 _atom_site_symmetry_multiplicity
 _atom_site_fract_x
 _atom_site_fract_y
 _atom_site_fract_z
 _atom_site_occupancy
  Na  Na0  1  0.430669  0.569331  0.750000  1
  La  La1  1  0.565394  0.434606  0.250000  1
  Te  Te2  1  0.696124  0.883878  0.852780  1
  Te  Te3  1  0.872213  0.683592  0.364099  1
  Te  Te4  1  0.001359  0.989318  0.504163  1
  Te  Te5  1  0.010682  0.998641  0.995837  1
  Te  Te6  1  0.116122  0.303876  0.647220  1
  Te  Te7  1  0.316408  0.127787  0.135901  1
  O  O8  1  0.981230  0.819375  0.906255  1
  O  O9  1  0.805406  0.977934  0.406374  1
  O  O10  1  0.342539  0.880594  0.877025  1
  O  O11  1  0.792139  0.566275  0.585539  1
  O  O12  1  0.869014  0.308966  0.841298  1
  O  O13  1  0.858904  0.328405  0.382142  1
  O  O14  1  0.578899  0.790126  0.096739  1
  O  O15  1  0.295390  0.860822  0.343336  1
  O  O16  1  0.691034  0.130986  0.658702  1
  O  O17  1  0.433725  0.207861  0.914461  1
  O  O18  1  0.119406  0.657461  0.622975  1
  O  O19  1  0.139178  0.704610  0.156664  1
  O  O20  1  0.209874  0.421101  0.403261  1
  O  O21  1  0.671595  0.141096  0.117858  1
  O  O22  1  0.180625  0.018770  0.593745  1
  O  O23  1  0.022066  0.194594  0.093626  1
