# generated using pymatgen
data_BPb3F9
_symmetry_space_group_name_H-M   'P 1'
_cell_length_a   10.79231080
_cell_length_b   7.80216900
_cell_length_c   10.95266300
_cell_angle_alpha   90.00000000
_cell_angle_beta   98.62956513
_cell_angle_gamma   90.00000000
_symmetry_Int_Tables_number   1
_chemical_formula_structural   BPb3F9
_chemical_formula_sum   'B4 Pb12 F36'
_cell_volume   911.81109083
_cell_formula_units_Z   4
loop_
 _symmetry_equiv_pos_site_id
 _symmetry_equiv_pos_as_xyz
  1  'x, y, z'
loop_
 _atom_site_type_symbol
 _atom_site_label
 _atom_site_symmetry_multiplicity
 _atom_site_fract_x
 _atom_site_fract_y
 _atom_site_fract_z
 _atom_site_occupancy
  B  B0  1  0.583967  0.089321  0.197721  1
  B  B1  1  0.416033  0.589320  0.302278  1
  B  B2  1  0.583966  0.410680  0.697721  1
  B  B3  1  0.416034  0.910680  0.802279  1
  Pb  Pb4  1  0.683665  0.590874  0.062787  1
  Pb  Pb5  1  0.195180  0.912084  0.063257  1
  Pb  Pb6  1  0.043062  0.355594  0.178524  1
  Pb  Pb7  1  0.956938  0.855593  0.321475  1
  Pb  Pb8  1  0.804820  0.412084  0.436743  1
  Pb  Pb9  1  0.316335  0.090873  0.437213  1
  Pb  Pb10  1  0.683666  0.909127  0.562786  1
  Pb  Pb11  1  0.195179  0.587916  0.563257  1
  Pb  Pb12  1  0.043062  0.144406  0.678525  1
  Pb  Pb13  1  0.956938  0.644407  0.821475  1
  Pb  Pb14  1  0.804821  0.087916  0.936744  1
  Pb  Pb15  1  0.316335  0.409127  0.937213  1
  F  F16  1  0.185270  0.229561  0.012303  1
  F  F17  1  0.840425  0.401660  0.036817  1
  F  F18  1  0.966716  0.085723  0.102620  1
  F  F19  1  0.616591  0.238929  0.135086  1
  F  F20  1  0.650938  0.947155  0.158633  1
  F  F21  1  0.381031  0.611860  0.172019  1
  F  F22  1  0.453642  0.061624  0.171309  1
  F  F23  1  0.074272  0.751613  0.178823  1
  F  F24  1  0.810418  0.614404  0.244240  1
  F  F25  1  0.189582  0.114405  0.255760  1
  F  F26  1  0.925728  0.251612  0.321176  1
  F  F27  1  0.546357  0.561624  0.328691  1
  F  F28  1  0.618970  0.111859  0.327982  1
  F  F29  1  0.349062  0.447156  0.341368  1
  F  F30  1  0.383409  0.738929  0.364914  1
  F  F31  1  0.033283  0.585724  0.397379  1
  F  F32  1  0.159575  0.901659  0.463183  1
  F  F33  1  0.814730  0.729561  0.487698  1
  F  F34  1  0.185269  0.270439  0.512302  1
  F  F35  1  0.840425  0.098341  0.536817  1
  F  F36  1  0.966717  0.414276  0.602621  1
  F  F37  1  0.616591  0.261072  0.635087  1
  F  F38  1  0.650939  0.552845  0.658632  1
  F  F39  1  0.381031  0.888140  0.672018  1
  F  F40  1  0.453642  0.438377  0.671309  1
  F  F41  1  0.074272  0.748387  0.678823  1
  F  F42  1  0.810419  0.885595  0.744241  1
  F  F43  1  0.189581  0.385596  0.755759  1
  F  F44  1  0.925728  0.248387  0.821177  1
  F  F45  1  0.546357  0.938377  0.828691  1
  F  F46  1  0.618969  0.388141  0.827981  1
  F  F47  1  0.349061  0.052844  0.841367  1
  F  F48  1  0.383409  0.761071  0.864914  1
  F  F49  1  0.033283  0.914276  0.897380  1
  F  F50  1  0.159574  0.598341  0.963182  1
  F  F51  1  0.814730  0.770439  0.987697  1
