# generated using pymatgen
data_Ta6Al4CuIrC2
_symmetry_space_group_name_H-M   'P 1'
_cell_length_a   8.29751204
_cell_length_b   8.29751319
_cell_length_c   8.27296200
_cell_angle_alpha   60.09783018
_cell_angle_beta   60.09782558
_cell_angle_gamma   60.30329734
_symmetry_Int_Tables_number   1
_chemical_formula_structural   Ta6Al4CuIrC2
_chemical_formula_sum   'Ta12 Al8 Cu2 Ir2 C4'
_cell_volume   404.26953931
_cell_formula_units_Z   2
loop_
 _symmetry_equiv_pos_site_id
 _symmetry_equiv_pos_as_xyz
  1  'x, y, z'
loop_
 _atom_site_type_symbol
 _atom_site_label
 _atom_site_symmetry_multiplicity
 _atom_site_fract_x
 _atom_site_fract_y
 _atom_site_fract_z
 _atom_site_occupancy
  Ta  Ta0  1  0.568447  0.933342  0.563452  1
  Ta  Ta1  1  0.316658  0.681553  0.686548  1
  Ta  Ta2  1  0.681553  0.316658  0.315242  1
  Ta  Ta3  1  0.316658  0.681553  0.315242  1
  Ta  Ta4  1  0.685800  0.685800  0.314200  1
  Ta  Ta5  1  0.317120  0.317120  0.682880  1
  Ta  Ta6  1  0.564200  0.564200  0.935800  1
  Ta  Ta7  1  0.933342  0.568447  0.563452  1
  Ta  Ta8  1  0.568447  0.933342  0.934758  1
  Ta  Ta9  1  0.932880  0.932880  0.567120  1
  Ta  Ta10  1  0.681553  0.316658  0.686548  1
  Ta  Ta11  1  0.933342  0.568447  0.934758  1
  Al  Al12  1  0.918631  0.918631  0.914485  1
  Al  Al13  1  0.997239  0.331336  0.335712  1
  Al  Al14  1  0.331336  0.997239  0.335712  1
  Al  Al15  1  0.331369  0.331369  0.001746  1
  Al  Al16  1  0.918664  0.252761  0.914288  1
  Al  Al17  1  0.918631  0.918631  0.248254  1
  Al  Al18  1  0.252761  0.918664  0.914288  1
  Al  Al19  1  0.331369  0.331369  0.335515  1
  Cu  Cu20  1  0.125000  0.125000  0.125000  1
  Cu  Cu21  1  0.125000  0.125000  0.625000  1
  Ir  Ir22  1  0.625000  0.125000  0.125000  1
  Ir  Ir23  1  0.125000  0.625000  0.125000  1
  C  C24  1  0.625000  0.625000  0.625000  1
  C  C25  1  0.125000  0.625000  0.625000  1
  C  C26  1  0.625000  0.125000  0.625000  1
  C  C27  1  0.625000  0.625000  0.125000  1
