# generated using pymatgen
data_Tb2Er6Zr12Si15As
_symmetry_space_group_name_H-M   'P 1'
_cell_length_a   7.34219704
_cell_length_b   7.33110861
_cell_length_c   13.48638780
_cell_angle_alpha   89.89811004
_cell_angle_beta   89.69527577
_cell_angle_gamma   89.92068277
_symmetry_Int_Tables_number   1
_chemical_formula_structural   Tb2Er6Zr12Si15As
_chemical_formula_sum   'Tb2 Er6 Zr12 Si15 As1'
_cell_volume   725.91219625
_cell_formula_units_Z   1
loop_
 _symmetry_equiv_pos_site_id
 _symmetry_equiv_pos_as_xyz
  1  'x, y, z'
loop_
 _atom_site_type_symbol
 _atom_site_label
 _atom_site_symmetry_multiplicity
 _atom_site_fract_x
 _atom_site_fract_y
 _atom_site_fract_z
 _atom_site_occupancy
  Tb  Tb0  1  0.345463  0.003682  0.463318  1
  Tb  Tb1  1  0.495861  0.845908  0.715268  1
  Er  Er2  1  0.502593  0.153632  0.213626  1
  Er  Er3  1  0.844623  0.496283  0.285207  1
  Er  Er4  1  0.153520  0.502993  0.786353  1
  Er  Er5  1  0.657170  0.994573  0.966047  1
  Er  Er6  1  0.998565  0.348349  0.533868  1
  Er  Er7  1  0.997997  0.654396  0.036021  1
  Zr  Zr8  1  0.325133  0.325307  0.000231  1
  Zr  Zr9  1  0.174357  0.824680  0.249603  1
  Zr  Zr10  1  0.823466  0.175218  0.750517  1
  Zr  Zr11  1  0.673700  0.673557  0.499719  1
  Zr  Zr12  1  0.150324  0.006370  0.874459  1
  Zr  Zr13  1  0.496134  0.646766  0.124317  1
  Zr  Zr14  1  0.505294  0.352158  0.627058  1
  Zr  Zr15  1  0.650343  0.498836  0.876897  1
  Zr  Zr16  1  0.351702  0.503877  0.374309  1
  Zr  Zr17  1  0.851184  0.996455  0.374101  1
  Zr  Zr18  1  0.003900  0.146455  0.124880  1
  Zr  Zr19  1  0.993248  0.848774  0.624118  1
  Si  Si20  1  0.360060  0.707024  0.932640  1
  Si  Si21  1  0.639238  0.295039  0.433413  1
  Si  Si22  1  0.707664  0.360538  0.068529  1
  Si  Si23  1  0.292355  0.637303  0.567029  1
  Si  Si24  1  0.792709  0.860191  0.182409  1
  Si  Si25  1  0.138339  0.206966  0.316605  1
  Si  Si26  1  0.863138  0.794284  0.817575  1
  Si  Si27  1  0.297517  0.949947  0.062785  1
  Si  Si28  1  0.550018  0.795960  0.312295  1
  Si  Si29  1  0.461192  0.204744  0.819631  1
  Si  Si30  1  0.797485  0.548858  0.686965  1
  Si  Si31  1  0.202318  0.450057  0.186976  1
  Si  Si32  1  0.703676  0.050292  0.562727  1
  Si  Si33  1  0.951793  0.297633  0.937074  1
  Si  Si34  1  0.048168  0.702757  0.436079  1
  As  As35  1  0.199748  0.140134  0.677354  1
