# generated using pymatgen
data_Hf2Si7(Ir2Rh)4
_symmetry_space_group_name_H-M   'P 1'
_cell_length_a   9.72388160
_cell_length_b   9.70338891
_cell_length_c   3.84032900
_cell_angle_alpha   90.02078461
_cell_angle_beta   89.97987788
_cell_angle_gamma   120.09806315
_symmetry_Int_Tables_number   1
_chemical_formula_structural   Hf2Si7(Ir2Rh)4
_chemical_formula_sum   'Hf2 Si7 Ir8 Rh4'
_cell_volume   313.49609123
_cell_formula_units_Z   1
loop_
 _symmetry_equiv_pos_site_id
 _symmetry_equiv_pos_as_xyz
  1  'x, y, z'
loop_
 _atom_site_type_symbol
 _atom_site_label
 _atom_site_symmetry_multiplicity
 _atom_site_fract_x
 _atom_site_fract_y
 _atom_site_fract_z
 _atom_site_occupancy
  Hf  Hf0  1  0.334377  0.666230  0.739186  1
  Hf  Hf1  1  0.667677  0.334687  0.241813  1
  Si  Si2  1  0.999191  0.998270  0.694416  1
  Si  Si3  1  0.405565  0.290030  0.740909  1
  Si  Si4  1  0.708567  0.115116  0.741035  1
  Si  Si5  1  0.886107  0.595204  0.741005  1
  Si  Si6  1  0.595155  0.709077  0.239281  1
  Si  Si7  1  0.290451  0.886064  0.239630  1
  Si  Si8  1  0.114492  0.405394  0.239594  1
  Ir  Ir9  1  0.448368  0.072124  0.740880  1
  Ir  Ir10  1  0.926772  0.375800  0.740802  1
  Ir  Ir11  1  0.624657  0.550464  0.740573  1
  Ir  Ir12  1  0.550305  0.932268  0.239758  1
  Ir  Ir13  1  0.068337  0.619270  0.239756  1
  Ir  Ir14  1  0.381250  0.449437  0.239595  1
  Ir  Ir15  1  0.149677  0.274305  0.738687  1
  Ir  Ir16  1  0.723733  0.874492  0.738468  1
  Rh  Rh17  1  0.124496  0.849894  0.738828  1
  Rh  Rh18  1  0.862081  0.747670  0.241850  1
  Rh  Rh19  1  0.254062  0.115108  0.242215  1
  Rh  Rh20  1  0.884682  0.139092  0.241722  1
