# generated using pymatgen
data_Y3HoGe4F28
_symmetry_space_group_name_H-M   'P 1'
_cell_length_a   5.42505848
_cell_length_b   8.72712466
_cell_length_c   11.72163800
_cell_angle_alpha   62.32452242
_cell_angle_beta   90.02418542
_cell_angle_gamma   90.01950545
_symmetry_Int_Tables_number   1
_chemical_formula_structural   Y3HoGe4F28
_chemical_formula_sum   'Y3 Ho1 Ge4 F28'
_cell_volume   491.47088131
_cell_formula_units_Z   1
loop_
 _symmetry_equiv_pos_site_id
 _symmetry_equiv_pos_as_xyz
  1  'x, y, z'
loop_
 _atom_site_type_symbol
 _atom_site_label
 _atom_site_symmetry_multiplicity
 _atom_site_fract_x
 _atom_site_fract_y
 _atom_site_fract_z
 _atom_site_occupancy
  Y  Y0  1  0.739226  0.189793  0.736075  1
  Y  Y1  1  0.760704  0.188811  0.236208  1
  Y  Y2  1  0.239250  0.809960  0.763928  1
  Ho  Ho3  1  0.260893  0.810087  0.263848  1
  Ge  Ge4  1  0.758558  0.725798  0.043366  1
  Ge  Ge5  1  0.241839  0.273743  0.957643  1
  Ge  Ge6  1  0.258428  0.274968  0.456913  1
  Ge  Ge7  1  0.741690  0.725825  0.542069  1
  F  F8  1  0.931436  0.706474  0.421109  1
  F  F9  1  0.069932  0.294413  0.578162  1
  F  F10  1  0.430482  0.293923  0.078613  1
  F  F11  1  0.569589  0.706065  0.922171  1
  F  F12  1  0.482213  0.727901  0.132823  1
  F  F13  1  0.518414  0.272585  0.868392  1
  F  F14  1  0.981828  0.272940  0.367798  1
  F  F15  1  0.018081  0.727206  0.631652  1
  F  F16  1  0.947069  0.740801  0.169101  1
  F  F17  1  0.055061  0.259564  0.831371  1
  F  F18  1  0.445206  0.260318  0.330858  1
  F  F19  1  0.554592  0.740101  0.668281  1
  F  F20  1  0.772294  0.490468  0.137037  1
  F  F21  1  0.227627  0.509299  0.863630  1
  F  F22  1  0.272178  0.510702  0.363108  1
  F  F23  1  0.727171  0.490559  0.636119  1
  F  F24  1  0.955787  0.281359  0.039504  1
  F  F25  1  0.044067  0.718434  0.960946  1
  F  F26  1  0.455782  0.719085  0.459319  1
  F  F27  1  0.544377  0.282063  0.539050  1
  F  F28  1  0.739414  0.960928  0.453179  1
  F  F29  1  0.260686  0.039810  0.546315  1
  F  F30  1  0.239384  0.038632  0.047421  1
  F  F31  1  0.760731  0.960762  0.953815  1
  F  F32  1  0.593722  0.966875  0.227910  1
  F  F33  1  0.402712  0.032193  0.772646  1
  F  F34  1  0.096757  0.029781  0.272267  1
  F  F35  1  0.902819  0.967775  0.727356  1
