# generated using pymatgen
data_Ho4Sc3AlPt4
_symmetry_space_group_name_H-M   'P 1'
_cell_length_a   4.51096800
_cell_length_b   7.02731880
_cell_length_c   8.28615565
_cell_angle_alpha   86.98193233
_cell_angle_beta   90.00000000
_cell_angle_gamma   90.00000000
_symmetry_Int_Tables_number   1
_chemical_formula_structural   Ho4Sc3AlPt4
_chemical_formula_sum   'Ho4 Sc3 Al1 Pt4'
_cell_volume   262.30688891
_cell_formula_units_Z   1
loop_
 _symmetry_equiv_pos_site_id
 _symmetry_equiv_pos_as_xyz
  1  'x, y, z'
loop_
 _atom_site_type_symbol
 _atom_site_label
 _atom_site_symmetry_multiplicity
 _atom_site_fract_x
 _atom_site_fract_y
 _atom_site_fract_z
 _atom_site_occupancy
  Ho  Ho0  1  0.250000  0.040245  0.671247  1
  Ho  Ho1  1  0.250000  0.522483  0.815870  1
  Ho  Ho2  1  0.750000  0.986662  0.339694  1
  Ho  Ho3  1  0.750000  0.468127  0.184022  1
  Sc  Sc4  1  0.250000  0.134794  0.069473  1
  Sc  Sc5  1  0.250000  0.637775  0.436565  1
  Sc  Sc6  1  0.750000  0.863379  0.928693  1
  Al  Al7  1  0.750000  0.359346  0.567753  1
  Pt  Pt8  1  0.250000  0.262847  0.383254  1
  Pt  Pt9  1  0.250000  0.749025  0.102446  1
  Pt  Pt10  1  0.750000  0.729127  0.614752  1
  Pt  Pt11  1  0.750000  0.246190  0.886231  1
