# generated using pymatgen
data_HfZr2SiGe2Os3
_symmetry_space_group_name_H-M   'P 1'
_cell_length_a   6.76521505
_cell_length_b   6.76521571
_cell_length_c   3.75022500
_cell_angle_alpha   90.00000000
_cell_angle_beta   90.00000000
_cell_angle_gamma   120.10877859
_symmetry_Int_Tables_number   1
_chemical_formula_structural   HfZr2SiGe2Os3
_chemical_formula_sum   'Hf1 Zr2 Si1 Ge2 Os3'
_cell_volume   148.48210847
_cell_formula_units_Z   1
loop_
 _symmetry_equiv_pos_site_id
 _symmetry_equiv_pos_as_xyz
  1  'x, y, z'
loop_
 _atom_site_type_symbol
 _atom_site_label
 _atom_site_symmetry_multiplicity
 _atom_site_fract_x
 _atom_site_fract_y
 _atom_site_fract_z
 _atom_site_occupancy
  Hf  Hf0  1  0.408966  0.408966  0.500000  1
  Zr  Zr1  1  0.590628  0.000030  0.500000  1
  Zr  Zr2  1  0.000030  0.590628  0.500000  1
  Si  Si3  1  0.000606  0.000606  0.500000  1
  Ge  Ge4  1  0.665856  0.333479  0.000000  1
  Ge  Ge5  1  0.333479  0.665856  0.000000  1
  Os  Os6  1  0.758037  0.758037  0.000000  1
  Os  Os7  1  0.241304  0.001093  0.000000  1
  Os  Os8  1  0.001093  0.241304  0.000000  1
