# generated using pymatgen
data_Tl3In(GaCl4)4
_symmetry_space_group_name_H-M   'P 1'
_cell_length_a   7.23203300
_cell_length_b   8.77316604
_cell_length_c   12.55803400
_cell_angle_alpha   75.28205691
_cell_angle_beta   90.00000000
_cell_angle_gamma   90.00000000
_symmetry_Int_Tables_number   1
_chemical_formula_structural   Tl3In(GaCl4)4
_chemical_formula_sum   'Tl3 In1 Ga4 Cl16'
_cell_volume   770.63620533
_cell_formula_units_Z   1
loop_
 _symmetry_equiv_pos_site_id
 _symmetry_equiv_pos_as_xyz
  1  'x, y, z'
loop_
 _atom_site_type_symbol
 _atom_site_label
 _atom_site_symmetry_multiplicity
 _atom_site_fract_x
 _atom_site_fract_y
 _atom_site_fract_z
 _atom_site_occupancy
  Tl  Tl0  1  0.862114  0.000000  0.250000  1
  Tl  Tl1  1  0.136170  0.000000  0.750000  1
  Tl  Tl2  1  0.397138  0.500000  0.250000  1
  In  In3  1  0.588942  0.500000  0.750000  1
  Ga  Ga4  1  0.715694  0.216061  0.547010  1
  Ga  Ga5  1  0.715694  0.783939  0.952990  1
  Ga  Ga6  1  0.286558  0.784041  0.454302  1
  Ga  Ga7  1  0.286558  0.215959  0.045698  1
  Cl  Cl8  1  0.082033  0.662894  0.373873  1
  Cl  Cl9  1  0.082033  0.337106  0.126127  1
  Cl  Cl10  1  0.916480  0.338623  0.628400  1
  Cl  Cl11  1  0.916480  0.661377  0.871600  1
  Cl  Cl12  1  0.436012  0.715810  0.911011  1
  Cl  Cl13  1  0.436012  0.284190  0.588989  1
  Cl  Cl14  1  0.566131  0.281371  0.088217  1
  Cl  Cl15  1  0.566131  0.718629  0.411783  1
  Cl  Cl16  1  0.755898  0.295190  0.366858  1
  Cl  Cl17  1  0.755898  0.704810  0.133142  1
  Cl  Cl18  1  0.250149  0.701489  0.634816  1
  Cl  Cl19  1  0.250149  0.298511  0.865184  1
  Cl  Cl20  1  0.238547  0.038903  0.401763  1
  Cl  Cl21  1  0.238547  0.961097  0.098237  1
  Cl  Cl22  1  0.760316  0.960622  0.599929  1
  Cl  Cl23  1  0.760316  0.039378  0.900071  1
