# generated using pymatgen
data_Pr8Co(Si4Ir)3
_symmetry_space_group_name_H-M   'P 1'
_cell_length_a   8.23793500
_cell_length_b   8.23793663
_cell_length_c   8.54147600
_cell_angle_alpha   90.00000000
_cell_angle_beta   90.00000000
_cell_angle_gamma   120.00000550
_symmetry_Int_Tables_number   1
_chemical_formula_structural   Pr8Co(Si4Ir)3
_chemical_formula_sum   'Pr8 Co1 Si12 Ir3'
_cell_volume   501.99609667
_cell_formula_units_Z   1
loop_
 _symmetry_equiv_pos_site_id
 _symmetry_equiv_pos_as_xyz
  1  'x, y, z'
loop_
 _atom_site_type_symbol
 _atom_site_label
 _atom_site_symmetry_multiplicity
 _atom_site_fract_x
 _atom_site_fract_y
 _atom_site_fract_z
 _atom_site_occupancy
  Pr  Pr0  1  0.499841  0.500159  0.749252  1
  Pr  Pr1  1  0.500767  0.499233  0.250474  1
  Pr  Pr2  1  0.000317  0.500159  0.749252  1
  Pr  Pr3  1  0.998467  0.499233  0.250474  1
  Pr  Pr4  1  0.499841  0.999683  0.749252  1
  Pr  Pr5  1  0.500767  0.001533  0.250474  1
  Pr  Pr6  1  0.000000  0.000000  0.748602  1
  Pr  Pr7  1  0.000000  0.000000  0.251372  1
  Co  Co8  1  0.666667  0.333333  0.504028  1
  Si  Si9  1  0.833366  0.166634  0.000724  1
  Si  Si10  1  0.166849  0.833151  0.999172  1
  Si  Si11  1  0.333267  0.166634  0.000724  1
  Si  Si12  1  0.166135  0.833865  0.500674  1
  Si  Si13  1  0.666303  0.833151  0.999172  1
  Si  Si14  1  0.828182  0.171818  0.499450  1
  Si  Si15  1  0.833366  0.666733  0.000724  1
  Si  Si16  1  0.667730  0.833865  0.500674  1
  Si  Si17  1  0.166849  0.333697  0.999172  1
  Si  Si18  1  0.343635  0.171818  0.499450  1
  Si  Si19  1  0.166135  0.332270  0.500674  1
  Si  Si20  1  0.828182  0.656365  0.499450  1
  Ir  Ir21  1  0.666667  0.333333  0.997269  1
  Ir  Ir22  1  0.333333  0.666667  0.002282  1
  Ir  Ir23  1  0.333333  0.666667  0.497206  1
