# generated using pymatgen
data_Ac8GaNi6
_symmetry_space_group_name_H-M   'P 1'
_cell_length_a   7.74555406
_cell_length_b   7.74555341
_cell_length_c   7.74555287
_cell_angle_alpha   73.62370115
_cell_angle_beta   73.62369993
_cell_angle_gamma   73.62369696
_symmetry_Int_Tables_number   1
_chemical_formula_structural   Ac8GaNi6
_chemical_formula_sum   'Ac8 Ga1 Ni6'
_cell_volume   417.27109167
_cell_formula_units_Z   1
loop_
 _symmetry_equiv_pos_site_id
 _symmetry_equiv_pos_as_xyz
  1  'x, y, z'
loop_
 _atom_site_type_symbol
 _atom_site_label
 _atom_site_symmetry_multiplicity
 _atom_site_fract_x
 _atom_site_fract_y
 _atom_site_fract_z
 _atom_site_occupancy
  Ac  Ac0  1  0.800850  0.800850  0.800850  1
  Ac  Ac1  1  0.199150  0.199150  0.199150  1
  Ac  Ac2  1  0.310128  0.643319  0.836044  1
  Ac  Ac3  1  0.836044  0.310128  0.643319  1
  Ac  Ac4  1  0.643319  0.836044  0.310128  1
  Ac  Ac5  1  0.689872  0.356681  0.163956  1
  Ac  Ac6  1  0.163956  0.689872  0.356681  1
  Ac  Ac7  1  0.356681  0.163956  0.689872  1
  Ga  Ga8  1  0.000000  0.000000  0.000000  1
  Ni  Ni9  1  0.129683  0.968637  0.592255  1
  Ni  Ni10  1  0.592255  0.129683  0.968637  1
  Ni  Ni11  1  0.968637  0.592255  0.129683  1
  Ni  Ni12  1  0.870317  0.031363  0.407745  1
  Ni  Ni13  1  0.407745  0.870317  0.031363  1
  Ni  Ni14  1  0.031363  0.407745  0.870317  1
