# generated using pymatgen
data_Dy4Cd2CoCu3
_symmetry_space_group_name_H-M   'P 1'
_cell_length_a   7.52756384
_cell_length_b   7.52756423
_cell_length_c   3.66297900
_cell_angle_alpha   90.00000000
_cell_angle_beta   90.00000000
_cell_angle_gamma   90.55798362
_symmetry_Int_Tables_number   1
_chemical_formula_structural   Dy4Cd2CoCu3
_chemical_formula_sum   'Dy4 Cd2 Co1 Cu3'
_cell_volume   207.55000658
_cell_formula_units_Z   1
loop_
 _symmetry_equiv_pos_site_id
 _symmetry_equiv_pos_as_xyz
  1  'x, y, z'
loop_
 _atom_site_type_symbol
 _atom_site_label
 _atom_site_symmetry_multiplicity
 _atom_site_fract_x
 _atom_site_fract_y
 _atom_site_fract_z
 _atom_site_occupancy
  Dy  Dy0  1  0.671300  0.171300  0.500000  1
  Dy  Dy1  1  0.310707  0.810707  0.500000  1
  Dy  Dy2  1  0.181094  0.344375  0.500000  1
  Dy  Dy3  1  0.844375  0.681094  0.500000  1
  Cd  Cd4  1  0.000822  0.006042  0.000000  1
  Cd  Cd5  1  0.506042  0.500822  0.000000  1
  Co  Co6  1  0.114953  0.614953  0.000000  1
  Cu  Cu7  1  0.880092  0.380092  0.000000  1
  Cu  Cu8  1  0.614528  0.876086  0.000000  1
  Cu  Cu9  1  0.376086  0.114528  0.000000  1
