# generated using pymatgen
data_Dy8Si16Tc11Ru
_symmetry_space_group_name_H-M   'P 1'
_cell_length_a   6.78576261
_cell_length_b   6.79533483
_cell_length_c   12.72396318
_cell_angle_alpha   89.84739123
_cell_angle_beta   90.10956787
_cell_angle_gamma   89.75882224
_symmetry_Int_Tables_number   1
_chemical_formula_structural   Dy8Si16Tc11Ru
_chemical_formula_sum   'Dy8 Si16 Tc11 Ru1'
_cell_volume   586.71303278
_cell_formula_units_Z   1
loop_
 _symmetry_equiv_pos_site_id
 _symmetry_equiv_pos_as_xyz
  1  'x, y, z'
loop_
 _atom_site_type_symbol
 _atom_site_label
 _atom_site_symmetry_multiplicity
 _atom_site_fract_x
 _atom_site_fract_y
 _atom_site_fract_z
 _atom_site_occupancy
  Dy  Dy0  1  0.007912  0.662536  0.030580  1
  Dy  Dy1  1  0.991576  0.337398  0.532023  1
  Dy  Dy2  1  0.664813  0.006048  0.969282  1
  Dy  Dy3  1  0.162250  0.498048  0.779257  1
  Dy  Dy4  1  0.836837  0.504156  0.280189  1
  Dy  Dy5  1  0.496017  0.162053  0.219546  1
  Dy  Dy6  1  0.502788  0.839388  0.719123  1
  Dy  Dy7  1  0.334146  0.993659  0.468765  1
  Si  Si8  1  0.020369  0.720111  0.437027  1
  Si  Si9  1  0.984713  0.273718  0.936276  1
  Si  Si10  1  0.719425  0.021407  0.562561  1
  Si  Si11  1  0.227988  0.479891  0.188397  1
  Si  Si12  1  0.763784  0.517186  0.689202  1
  Si  Si13  1  0.482832  0.234049  0.812482  1
  Si  Si14  1  0.519107  0.771548  0.312958  1
  Si  Si15  1  0.278723  0.977414  0.062913  1
  Si  Si16  1  0.809597  0.887289  0.187360  1
  Si  Si17  1  0.303668  0.614927  0.564173  1
  Si  Si18  1  0.694894  0.386589  0.063338  1
  Si  Si19  1  0.613984  0.304326  0.435631  1
  Si  Si20  1  0.390578  0.692255  0.936022  1
  Si  Si21  1  0.112378  0.191524  0.312357  1
  Si  Si22  1  0.190582  0.113372  0.687864  1
  Si  Si23  1  0.887523  0.810918  0.811721  1
  Tc  Tc24  1  0.313093  0.475020  0.380458  1
  Tc  Tc25  1  0.818009  0.013045  0.374034  1
  Tc  Tc26  1  0.986338  0.184094  0.126018  1
  Tc  Tc27  1  0.011501  0.819475  0.626997  1
  Tc  Tc28  1  0.473554  0.312397  0.619461  1
  Tc  Tc29  1  0.185798  0.978399  0.872685  1
  Tc  Tc30  1  0.661495  0.663680  0.500033  1
  Tc  Tc31  1  0.834293  0.167359  0.752079  1
  Tc  Tc32  1  0.165556  0.833705  0.250112  1
  Tc  Tc33  1  0.338120  0.335558  0.997508  1
  Tc  Tc34  1  0.522433  0.685367  0.121405  1
  Ru  Ru35  1  0.693323  0.532093  0.880160  1
