# generated using pymatgen
data_Y3(LuTl2)2
_symmetry_space_group_name_H-M   'P 1'
_cell_length_a   7.87254300
_cell_length_b   8.24563000
_cell_length_c   15.72688600
_cell_angle_alpha   90.00000000
_cell_angle_beta   90.00000000
_cell_angle_gamma   90.00000000
_symmetry_Int_Tables_number   1
_chemical_formula_structural   Y3(LuTl2)2
_chemical_formula_sum   'Y12 Lu8 Tl16'
_cell_volume   1020.89628464
_cell_formula_units_Z   4
loop_
 _symmetry_equiv_pos_site_id
 _symmetry_equiv_pos_as_xyz
  1  'x, y, z'
loop_
 _atom_site_type_symbol
 _atom_site_label
 _atom_site_symmetry_multiplicity
 _atom_site_fract_x
 _atom_site_fract_y
 _atom_site_fract_z
 _atom_site_occupancy
  Y  Y0  1  0.338915  0.162956  0.376842  1
  Y  Y1  1  0.838915  0.337044  0.123158  1
  Y  Y2  1  0.161085  0.662956  0.623158  1
  Y  Y3  1  0.661085  0.837044  0.876842  1
  Y  Y4  1  0.003792  0.815696  0.403493  1
  Y  Y5  1  0.503792  0.684304  0.096507  1
  Y  Y6  1  0.496208  0.315696  0.596507  1
  Y  Y7  1  0.996208  0.184304  0.903493  1
  Y  Y8  1  0.000415  0.184437  0.593225  1
  Y  Y9  1  0.500415  0.315563  0.906775  1
  Y  Y10  1  0.499585  0.684437  0.406775  1
  Y  Y11  1  0.999585  0.815563  0.093225  1
  Lu  Lu12  1  0.671641  0.999222  0.250604  1
  Lu  Lu13  1  0.171641  0.500778  0.249396  1
  Lu  Lu14  1  0.828359  0.499222  0.749396  1
  Lu  Lu15  1  0.328359  0.000778  0.750604  1
  Lu  Lu16  1  0.660979  0.837466  0.625634  1
  Lu  Lu17  1  0.160979  0.662534  0.874366  1
  Lu  Lu18  1  0.839021  0.337466  0.374366  1
  Lu  Lu19  1  0.339021  0.162534  0.125634  1
  Tl  Tl20  1  0.802646  0.646832  0.250384  1
  Tl  Tl21  1  0.302646  0.853168  0.249616  1
  Tl  Tl22  1  0.697354  0.146832  0.749616  1
  Tl  Tl23  1  0.197354  0.353168  0.750384  1
  Tl  Tl24  1  0.533113  0.384200  0.250990  1
  Tl  Tl25  1  0.033113  0.115800  0.249010  1
  Tl  Tl26  1  0.966887  0.884200  0.749010  1
  Tl  Tl27  1  0.466887  0.615800  0.750990  1
  Tl  Tl28  1  0.808730  0.537261  0.539305  1
  Tl  Tl29  1  0.308730  0.962739  0.960695  1
  Tl  Tl30  1  0.691270  0.037261  0.460695  1
  Tl  Tl31  1  0.191270  0.462739  0.039305  1
  Tl  Tl32  1  0.178739  0.464035  0.456900  1
  Tl  Tl33  1  0.678739  0.035965  0.043100  1
  Tl  Tl34  1  0.321261  0.964035  0.543100  1
  Tl  Tl35  1  0.821261  0.535965  0.956900  1
