# generated using pymatgen
data_Dy10Pt17Au
_symmetry_space_group_name_H-M   'P 1'
_cell_length_a   9.80375108
_cell_length_b   9.80375108
_cell_length_c   5.79729600
_cell_angle_alpha   90.00000000
_cell_angle_beta   90.00000000
_cell_angle_gamma   90.24318030
_symmetry_Int_Tables_number   1
_chemical_formula_structural   Dy10Pt17Au
_chemical_formula_sum   'Dy10 Pt17 Au1'
_cell_volume   557.19359419
_cell_formula_units_Z   1
loop_
 _symmetry_equiv_pos_site_id
 _symmetry_equiv_pos_as_xyz
  1  'x, y, z'
loop_
 _atom_site_type_symbol
 _atom_site_label
 _atom_site_symmetry_multiplicity
 _atom_site_fract_x
 _atom_site_fract_y
 _atom_site_fract_z
 _atom_site_occupancy
  Dy  Dy0  1  0.453088  0.808130  0.000000  1
  Dy  Dy1  1  0.546912  0.191870  0.000000  1
  Dy  Dy2  1  0.191870  0.546912  0.000000  1
  Dy  Dy3  1  0.808130  0.453088  0.000000  1
  Dy  Dy4  1  0.500000  0.500000  0.500000  1
  Dy  Dy5  1  0.314431  0.047246  0.500000  1
  Dy  Dy6  1  0.685569  0.952754  0.500000  1
  Dy  Dy7  1  0.952754  0.685569  0.500000  1
  Dy  Dy8  1  0.047246  0.314431  0.500000  1
  Dy  Dy9  1  0.000000  0.000000  0.000000  1
  Pt  Pt10  1  0.192741  0.807259  0.250231  1
  Pt  Pt11  1  0.807259  0.192741  0.749769  1
  Pt  Pt12  1  0.807259  0.192741  0.250231  1
  Pt  Pt13  1  0.192741  0.807259  0.749769  1
  Pt  Pt14  1  0.440895  0.781169  0.500000  1
  Pt  Pt15  1  0.559105  0.218831  0.500000  1
  Pt  Pt16  1  0.218831  0.559105  0.500000  1
  Pt  Pt17  1  0.781169  0.440895  0.500000  1
  Pt  Pt18  1  0.307304  0.307304  0.249779  1
  Pt  Pt19  1  0.692696  0.692696  0.750221  1
  Pt  Pt20  1  0.692696  0.692696  0.249779  1
  Pt  Pt21  1  0.307304  0.307304  0.750221  1
  Pt  Pt22  1  0.280896  0.059012  0.000000  1
  Pt  Pt23  1  0.719104  0.940988  0.000000  1
  Pt  Pt24  1  0.940988  0.719104  0.000000  1
  Pt  Pt25  1  0.059012  0.280896  0.000000  1
  Pt  Pt26  1  0.500000  0.500000  0.000000  1
  Au  Au27  1  0.000000  0.000000  0.500000  1
