# generated using pymatgen
data_Pr8Nd9Er3Sn16
_symmetry_space_group_name_H-M   'P 1'
_cell_length_a   8.27431212
_cell_length_b   8.43090958
_cell_length_c   15.98986200
_cell_angle_alpha   90.00000000
_cell_angle_beta   90.00000000
_cell_angle_gamma   90.05600462
_symmetry_Int_Tables_number   1
_chemical_formula_structural   Pr8Nd9Er3Sn16
_chemical_formula_sum   'Pr8 Nd9 Er3 Sn16'
_cell_volume   1115.45187796
_cell_formula_units_Z   1
loop_
 _symmetry_equiv_pos_site_id
 _symmetry_equiv_pos_as_xyz
  1  'x, y, z'
loop_
 _atom_site_type_symbol
 _atom_site_label
 _atom_site_symmetry_multiplicity
 _atom_site_fract_x
 _atom_site_fract_y
 _atom_site_fract_z
 _atom_site_occupancy
  Pr  Pr0  1  0.518281  0.318560  0.901208  1
  Pr  Pr1  1  0.018407  0.181161  0.599681  1
  Pr  Pr2  1  0.481756  0.680624  0.401724  1
  Pr  Pr3  1  0.981437  0.818302  0.098132  1
  Pr  Pr4  1  0.481756  0.680624  0.098276  1
  Pr  Pr5  1  0.981437  0.818302  0.401868  1
  Pr  Pr6  1  0.518281  0.318560  0.598792  1
  Pr  Pr7  1  0.018407  0.181161  0.900319  1
  Nd  Nd8  1  0.366581  0.837582  0.877866  1
  Nd  Nd9  1  0.866845  0.661841  0.620511  1
  Nd  Nd10  1  0.633910  0.163018  0.379536  1
  Nd  Nd11  1  0.132429  0.337836  0.119821  1
  Nd  Nd12  1  0.633910  0.163018  0.120464  1
  Nd  Nd13  1  0.132429  0.337836  0.380179  1
  Nd  Nd14  1  0.366581  0.837582  0.622134  1
  Nd  Nd15  1  0.866845  0.661841  0.879489  1
  Nd  Nd16  1  0.303628  0.002100  0.250000  1
  Er  Er17  1  0.199171  0.501809  0.750000  1
  Er  Er18  1  0.698614  0.997635  0.750000  1
  Er  Er19  1  0.801781  0.497114  0.250000  1
  Sn  Sn20  1  0.292811  0.036658  0.041375  1
  Sn  Sn21  1  0.792453  0.465988  0.455242  1
  Sn  Sn22  1  0.707002  0.965764  0.545063  1
  Sn  Sn23  1  0.207906  0.534523  0.954650  1
  Sn  Sn24  1  0.707002  0.965764  0.954937  1
  Sn  Sn25  1  0.207906  0.534523  0.545350  1
  Sn  Sn26  1  0.292811  0.036658  0.458625  1
  Sn  Sn27  1  0.792453  0.465988  0.044758  1
  Sn  Sn28  1  0.564055  0.617284  0.750000  1
  Sn  Sn29  1  0.062415  0.882210  0.750000  1
  Sn  Sn30  1  0.437759  0.385544  0.250000  1
  Sn  Sn31  1  0.932629  0.118200  0.250000  1
  Sn  Sn32  1  0.324202  0.146915  0.750000  1
  Sn  Sn33  1  0.822883  0.354089  0.750000  1
  Sn  Sn34  1  0.678621  0.852174  0.250000  1
  Sn  Sn35  1  0.174605  0.641213  0.250000  1
