# generated using pymatgen
data_Sm3Mg2CdPtPb2
_symmetry_space_group_name_H-M   'P 1'
_cell_length_a   7.58287391
_cell_length_b   7.63325497
_cell_length_c   4.62001400
_cell_angle_alpha   90.00000000
_cell_angle_beta   90.00000000
_cell_angle_gamma   120.22001790
_symmetry_Int_Tables_number   1
_chemical_formula_structural   Sm3Mg2CdPtPb2
_chemical_formula_sum   'Sm3 Mg2 Cd1 Pt1 Pb2'
_cell_volume   231.07363722
_cell_formula_units_Z   1
loop_
 _symmetry_equiv_pos_site_id
 _symmetry_equiv_pos_as_xyz
  1  'x, y, z'
loop_
 _atom_site_type_symbol
 _atom_site_label
 _atom_site_symmetry_multiplicity
 _atom_site_fract_x
 _atom_site_fract_y
 _atom_site_fract_z
 _atom_site_occupancy
  Sm  Sm0  1  0.609259  0.606497  0.000000  1
  Sm  Sm1  1  0.390741  0.997238  0.000000  1
  Sm  Sm2  1  0.000000  0.399223  0.000000  1
  Mg  Mg3  1  0.224580  0.223826  0.500000  1
  Mg  Mg4  1  0.775420  0.999246  0.500000  1
  Cd  Cd5  1  0.000000  0.769183  0.500000  1
  Pt  Pt6  1  0.000000  0.013903  0.000000  1
  Pb  Pb7  1  0.337846  0.664365  0.500000  1
  Pb  Pb8  1  0.662154  0.326518  0.500000  1
