# generated using pymatgen
data_Tm10Co3Tc
_symmetry_space_group_name_H-M   'P 1'
_cell_length_a   6.21173871
_cell_length_b   7.03222446
_cell_length_c   8.33256959
_cell_angle_alpha   96.48446235
_cell_angle_beta   111.22664746
_cell_angle_gamma   90.20483012
_symmetry_Int_Tables_number   1
_chemical_formula_structural   Tm10Co3Tc
_chemical_formula_sum   'Tm10 Co3 Tc1'
_cell_volume   336.73238167
_cell_formula_units_Z   1
loop_
 _symmetry_equiv_pos_site_id
 _symmetry_equiv_pos_as_xyz
  1  'x, y, z'
loop_
 _atom_site_type_symbol
 _atom_site_label
 _atom_site_symmetry_multiplicity
 _atom_site_fract_x
 _atom_site_fract_y
 _atom_site_fract_z
 _atom_site_occupancy
  Tm  Tm0  1  0.782319  0.087730  0.809707  1
  Tm  Tm1  1  0.987145  0.410069  0.187388  1
  Tm  Tm2  1  0.198970  0.911459  0.179370  1
  Tm  Tm3  1  0.012929  0.579565  0.810766  1
  Tm  Tm4  1  0.211961  0.188059  0.563755  1
  Tm  Tm5  1  0.647493  0.316821  0.431722  1
  Tm  Tm6  1  0.791558  0.816453  0.434793  1
  Tm  Tm7  1  0.354255  0.681387  0.565769  1
  Tm  Tm8  1  0.427566  0.256756  0.003634  1
  Tm  Tm9  1  0.580015  0.746175  0.002348  1
  Co  Co10  1  0.601599  0.424542  0.776390  1
  Co  Co11  1  0.823802  0.076008  0.221093  1
  Co  Co12  1  0.400412  0.574428  0.226157  1
  Tc  Tc13  1  0.179975  0.930550  0.787110  1
