# generated using pymatgen
data_Rb2CeDy5F20
_symmetry_space_group_name_H-M   'P 1'
_cell_length_a   8.38284184
_cell_length_b   8.38284208
_cell_length_c   8.32045400
_cell_angle_alpha   60.24588724
_cell_angle_beta   60.24588628
_cell_angle_gamma   59.50822918
_symmetry_Int_Tables_number   1
_chemical_formula_structural   Rb2CeDy5F20
_chemical_formula_sum   'Rb2 Ce1 Dy5 F20'
_cell_volume   413.39653758
_cell_formula_units_Z   1
loop_
 _symmetry_equiv_pos_site_id
 _symmetry_equiv_pos_as_xyz
  1  'x, y, z'
loop_
 _atom_site_type_symbol
 _atom_site_label
 _atom_site_symmetry_multiplicity
 _atom_site_fract_x
 _atom_site_fract_y
 _atom_site_fract_z
 _atom_site_occupancy
  Rb  Rb0  1  0.249305  0.249305  0.250695  1
  Rb  Rb1  1  0.749305  0.749305  0.750695  1
  Ce  Ce2  1  0.757390  0.757390  0.242610  1
  Dy  Dy3  1  0.759156  0.238712  0.240844  1
  Dy  Dy4  1  0.238712  0.759156  0.761288  1
  Dy  Dy5  1  0.238712  0.759156  0.240844  1
  Dy  Dy6  1  0.759156  0.238712  0.761288  1
  Dy  Dy7  1  0.240150  0.240150  0.759850  1
  F  F8  1  0.833269  0.490472  0.509528  1
  F  F9  1  0.171967  0.500232  0.499768  1
  F  F10  1  0.490472  0.833269  0.166731  1
  F  F11  1  0.500232  0.171967  0.828033  1
  F  F12  1  0.490472  0.833269  0.509528  1
  F  F13  1  0.171967  0.500232  0.828033  1
  F  F14  1  0.500232  0.171967  0.499768  1
  F  F15  1  0.833269  0.490472  0.166731  1
  F  F16  1  0.500106  0.500106  0.826468  1
  F  F17  1  0.500106  0.500106  0.173320  1
  F  F18  1  0.173532  0.826680  0.499894  1
  F  F19  1  0.826680  0.173532  0.499894  1
  F  F20  1  0.110254  0.110254  0.109528  1
  F  F21  1  0.893697  0.893697  0.879056  1
  F  F22  1  0.110254  0.110254  0.669963  1
  F  F23  1  0.120944  0.666452  0.106303  1
  F  F24  1  0.893697  0.893697  0.333548  1
  F  F25  1  0.890472  0.330037  0.889746  1
  F  F26  1  0.666452  0.120944  0.106303  1
  F  F27  1  0.330037  0.890472  0.889746  1
