# generated using pymatgen
data_Dy5Bi4Te
_symmetry_space_group_name_H-M   'P 1'
_cell_length_a   11.73049614
_cell_length_b   11.73049754
_cell_length_c   11.73049600
_cell_angle_alpha   157.86213703
_cell_angle_beta   148.92127565
_cell_angle_gamma   38.48799269
_symmetry_Int_Tables_number   1
_chemical_formula_structural   Dy5Bi4Te
_chemical_formula_sum   'Dy5 Bi4 Te1'
_cell_volume   313.53750199
_cell_formula_units_Z   1
loop_
 _symmetry_equiv_pos_site_id
 _symmetry_equiv_pos_as_xyz
  1  'x, y, z'
loop_
 _atom_site_type_symbol
 _atom_site_label
 _atom_site_symmetry_multiplicity
 _atom_site_fract_x
 _atom_site_fract_y
 _atom_site_fract_z
 _atom_site_occupancy
  Dy  Dy0  1  0.897783  0.897783  0.000000  1
  Dy  Dy1  1  0.102217  0.102217  0.000000  1
  Dy  Dy2  1  0.300449  0.300449  0.000000  1
  Dy  Dy3  1  0.699551  0.699551  0.000000  1
  Dy  Dy4  1  0.500000  0.500000  0.000000  1
  Bi  Bi5  1  0.599284  0.099284  0.500000  1
  Bi  Bi6  1  0.400716  0.900716  0.500000  1
  Bi  Bi7  1  0.800191  0.300191  0.500000  1
  Bi  Bi8  1  0.199809  0.699809  0.500000  1
  Te  Te9  1  0.000000  0.500000  0.500000  1
