# generated using pymatgen
data_TbSm3U2(Ni3Bi4)2
_symmetry_space_group_name_H-M   'P 1'
_cell_length_a   8.60501646
_cell_length_b   8.60501801
_cell_length_c   8.60501800
_cell_angle_alpha   109.79310095
_cell_angle_beta   109.31052774
_cell_angle_gamma   109.31051574
_symmetry_Int_Tables_number   1
_chemical_formula_structural   TbSm3U2(Ni3Bi4)2
_chemical_formula_sum   'Tb1 Sm3 U2 Ni6 Bi8'
_cell_volume   490.48200971
_cell_formula_units_Z   1
loop_
 _symmetry_equiv_pos_site_id
 _symmetry_equiv_pos_as_xyz
  1  'x, y, z'
loop_
 _atom_site_type_symbol
 _atom_site_label
 _atom_site_symmetry_multiplicity
 _atom_site_fract_x
 _atom_site_fract_y
 _atom_site_fract_z
 _atom_site_occupancy
  Tb  Tb0  1  0.624104  0.750000  0.374104  1
  Sm  Sm1  1  0.124104  0.874104  0.250000  1
  Sm  Sm2  1  0.375896  0.625896  0.750000  1
  Sm  Sm3  1  0.875896  0.250000  0.125896  1
  U  U4  1  0.250000  0.125000  0.875000  1
  U  U5  1  0.750000  0.375000  0.625000  1
  Ni  Ni6  1  0.620953  0.370953  0.250000  1
  Ni  Ni7  1  0.879047  0.129047  0.750000  1
  Ni  Ni8  1  0.379047  0.250000  0.629047  1
  Ni  Ni9  1  0.120953  0.750000  0.870953  1
  Ni  Ni10  1  0.250000  0.625000  0.375000  1
  Ni  Ni11  1  0.750000  0.875000  0.125000  1
  Bi  Bi12  1  0.339662  0.340858  0.341855  1
  Bi  Bi13  1  0.160338  0.502193  0.001196  1
  Bi  Bi14  1  0.000996  0.159142  0.498804  1
  Bi  Bi15  1  0.839662  0.841855  0.840858  1
  Bi  Bi16  1  0.499004  0.997807  0.158145  1
  Bi  Bi17  1  0.660338  0.501196  0.002193  1
  Bi  Bi18  1  0.500996  0.998804  0.659142  1
  Bi  Bi19  1  0.999004  0.658145  0.497807  1
