# generated using pymatgen
data_Er4Co19As12Ru
_symmetry_space_group_name_H-M   'P 1'
_cell_length_a   3.77457300
_cell_length_b   10.67489696
_cell_length_c   12.15714169
_cell_angle_alpha   89.93357990
_cell_angle_beta   90.00000000
_cell_angle_gamma   90.00000000
_symmetry_Int_Tables_number   1
_chemical_formula_structural   Er4Co19As12Ru
_chemical_formula_sum   'Er4 Co19 As12 Ru1'
_cell_volume   489.84954337
_cell_formula_units_Z   1
loop_
 _symmetry_equiv_pos_site_id
 _symmetry_equiv_pos_as_xyz
  1  'x, y, z'
loop_
 _atom_site_type_symbol
 _atom_site_label
 _atom_site_symmetry_multiplicity
 _atom_site_fract_x
 _atom_site_fract_y
 _atom_site_fract_z
 _atom_site_occupancy
  Er  Er0  1  0.250000  0.918418  0.201813  1
  Er  Er1  1  0.750000  0.081507  0.798028  1
  Er  Er2  1  0.750000  0.415746  0.296045  1
  Er  Er3  1  0.250000  0.579930  0.700794  1
  Co  Co4  1  0.750000  0.212732  0.508400  1
  Co  Co5  1  0.750000  0.287271  0.008266  1
  Co  Co6  1  0.250000  0.713377  0.992256  1
  Co  Co7  1  0.250000  0.093012  0.987777  1
  Co  Co8  1  0.750000  0.907662  0.012781  1
  Co  Co9  1  0.750000  0.592085  0.511423  1
  Co  Co10  1  0.250000  0.406856  0.487516  1
  Co  Co11  1  0.250000  0.284385  0.677990  1
  Co  Co12  1  0.750000  0.716514  0.322872  1
  Co  Co13  1  0.750000  0.783356  0.823519  1
  Co  Co14  1  0.250000  0.216313  0.177077  1
  Co  Co15  1  0.250000  0.615879  0.197022  1
  Co  Co16  1  0.750000  0.384492  0.803052  1
  Co  Co17  1  0.750000  0.116913  0.301949  1
  Co  Co18  1  0.250000  0.886797  0.699924  1
  Co  Co19  1  0.250000  0.033776  0.431904  1
  Co  Co20  1  0.750000  0.967870  0.568689  1
  Co  Co21  1  0.750000  0.530808  0.068578  1
  Co  Co22  1  0.250000  0.469174  0.931935  1
  As  As23  1  0.250000  0.085467  0.614517  1
  As  As24  1  0.750000  0.917792  0.384369  1
  As  As25  1  0.750000  0.584248  0.885909  1
  As  As26  1  0.250000  0.415192  0.113867  1
  As  As27  1  0.250000  0.232311  0.369728  1
  As  As28  1  0.750000  0.767943  0.632950  1
  As  As29  1  0.750000  0.731513  0.129696  1
  As  As30  1  0.250000  0.268612  0.870172  1
  As  As31  1  0.250000  0.900234  0.891821  1
  As  As32  1  0.750000  0.100524  0.109245  1
  As  As33  1  0.750000  0.398987  0.609662  1
  As  As34  1  0.250000  0.594475  0.387675  1
  Ru  Ru35  1  0.250000  0.787833  0.490783  1
