# generated using pymatgen
data_TbDy(CoOs)2
_symmetry_space_group_name_H-M   'P 1'
_cell_length_a   5.23467399
_cell_length_b   5.23467388
_cell_length_c   5.26038300
_cell_angle_alpha   59.83740800
_cell_angle_beta   59.83740872
_cell_angle_gamma   58.22549005
_symmetry_Int_Tables_number   1
_chemical_formula_structural   TbDy(CoOs)2
_chemical_formula_sum   'Tb1 Dy1 Co2 Os2'
_cell_volume   100.24738182
_cell_formula_units_Z   1
loop_
 _symmetry_equiv_pos_site_id
 _symmetry_equiv_pos_as_xyz
  1  'x, y, z'
loop_
 _atom_site_type_symbol
 _atom_site_label
 _atom_site_symmetry_multiplicity
 _atom_site_fract_x
 _atom_site_fract_y
 _atom_site_fract_z
 _atom_site_occupancy
  Tb  Tb0  1  0.247504  0.247504  0.252496  1
  Dy  Dy1  1  0.002907  0.002907  0.997093  1
  Co  Co2  1  0.624918  0.624918  0.124710  1
  Co  Co3  1  0.624918  0.624918  0.625455  1
  Os  Os4  1  0.124882  0.624872  0.625124  1
  Os  Os5  1  0.624872  0.124882  0.625124  1
