# generated using pymatgen
data_Tb3GdBe4(SiO7)2
_symmetry_space_group_name_H-M   'P 1'
_cell_length_a   7.37388151
_cell_length_b   7.37388151
_cell_length_c   4.81370089
_cell_angle_alpha   89.92813323
_cell_angle_beta   90.07186677
_cell_angle_gamma   90.06156168
_symmetry_Int_Tables_number   1
_chemical_formula_structural   Tb3GdBe4(SiO7)2
_chemical_formula_sum   'Tb3 Gd1 Be4 Si2 O14'
_cell_volume   261.74022875
_cell_formula_units_Z   1
loop_
 _symmetry_equiv_pos_site_id
 _symmetry_equiv_pos_as_xyz
  1  'x, y, z'
loop_
 _atom_site_type_symbol
 _atom_site_label
 _atom_site_symmetry_multiplicity
 _atom_site_fract_x
 _atom_site_fract_y
 _atom_site_fract_z
 _atom_site_occupancy
  Tb  Tb0  1  0.159547  0.340453  0.507261  1
  Tb  Tb1  1  0.658910  0.159057  0.492754  1
  Tb  Tb2  1  0.340943  0.841090  0.492754  1
  Gd  Gd3  1  0.840786  0.659214  0.506268  1
  Be  Be4  1  0.137439  0.636256  0.039168  1
  Be  Be5  1  0.635500  0.864500  0.960477  1
  Be  Be6  1  0.363619  0.136381  0.960546  1
  Be  Be7  1  0.863744  0.362561  0.039168  1
  Si  Si8  1  0.499197  0.499694  0.000445  1
  Si  Si9  1  0.000306  0.000803  0.000445  1
  O  O10  1  0.919491  0.162807  0.199721  1
  O  O11  1  0.836056  0.920806  0.803759  1
  O  O12  1  0.163029  0.081263  0.801666  1
  O  O13  1  0.082089  0.837014  0.196676  1
  O  O14  1  0.418737  0.336971  0.801666  1
  O  O15  1  0.579194  0.663944  0.803759  1
  O  O16  1  0.662986  0.417911  0.196676  1
  O  O17  1  0.337193  0.580509  0.199721  1
  O  O18  1  0.639215  0.860785  0.291041  1
  O  O19  1  0.143275  0.640739  0.709075  1
  O  O20  1  0.859261  0.356725  0.709075  1
  O  O21  1  0.358635  0.141365  0.290946  1
  O  O22  1  0.499504  0.000496  0.819005  1
  O  O23  1  0.001343  0.498657  0.177925  1
