# generated using pymatgen
data_Y5Tc6P12Ir13
_symmetry_space_group_name_H-M   'P 1'
_cell_length_a   12.65926500
_cell_length_b   12.65926468
_cell_length_c   3.99234300
_cell_angle_alpha   90.00000000
_cell_angle_beta   90.00000000
_cell_angle_gamma   119.99999823
_symmetry_Int_Tables_number   1
_chemical_formula_structural   Y5Tc6P12Ir13
_chemical_formula_sum   'Y5 Tc6 P12 Ir13'
_cell_volume   554.08380568
_cell_formula_units_Z   1
loop_
 _symmetry_equiv_pos_site_id
 _symmetry_equiv_pos_as_xyz
  1  'x, y, z'
loop_
 _atom_site_type_symbol
 _atom_site_label
 _atom_site_symmetry_multiplicity
 _atom_site_fract_x
 _atom_site_fract_y
 _atom_site_fract_z
 _atom_site_occupancy
  Y  Y0  1  0.333333  0.666667  0.500000  1
  Y  Y1  1  0.666667  0.333333  0.500000  1
  Y  Y2  1  0.000276  0.812162  0.000000  1
  Y  Y3  1  0.187838  0.188115  0.000000  1
  Y  Y4  1  0.811885  0.999724  0.000000  1
  Tc  Tc5  1  0.990519  0.446635  0.500000  1
  Tc  Tc6  1  0.553365  0.543883  0.500000  1
  Tc  Tc7  1  0.456117  0.009481  0.500000  1
  Tc  Tc8  1  0.620391  0.799248  0.500000  1
  Tc  Tc9  1  0.200752  0.821144  0.500000  1
  Tc  Tc10  1  0.178856  0.379609  0.500000  1
  P  P11  1  0.006985  0.638479  0.500000  1
  P  P12  1  0.361521  0.368507  0.500000  1
  P  P13  1  0.631493  0.993015  0.500000  1
  P  P14  1  0.521382  0.694017  0.000000  1
  P  P15  1  0.305983  0.827364  0.000000  1
  P  P16  1  0.172636  0.478618  0.000000  1
  P  P17  1  0.482269  0.168128  0.000000  1
  P  P18  1  0.685859  0.517731  0.000000  1
  P  P19  1  0.831872  0.314141  0.000000  1
  P  P20  1  0.003869  0.182591  0.500000  1
  P  P21  1  0.817409  0.821279  0.500000  1
  P  P22  1  0.178721  0.996131  0.500000  1
  Ir  Ir23  1  0.506745  0.874564  0.000000  1
  Ir  Ir24  1  0.125436  0.632182  0.000000  1
  Ir  Ir25  1  0.367818  0.493255  0.000000  1
  Ir  Ir26  1  0.493694  0.358040  0.000000  1
  Ir  Ir27  1  0.864347  0.506306  0.000000  1
  Ir  Ir28  1  0.641960  0.135653  0.000000  1
  Ir  Ir29  1  0.995145  0.281611  0.000000  1
  Ir  Ir30  1  0.718389  0.713535  0.000000  1
  Ir  Ir31  1  0.286465  0.004855  0.000000  1
  Ir  Ir32  1  0.374123  0.185043  0.500000  1
  Ir  Ir33  1  0.810920  0.625877  0.500000  1
  Ir  Ir34  1  0.814957  0.189080  0.500000  1
  Ir  Ir35  1  0.000000  0.000000  0.500000  1
