# generated using pymatgen
data_RuPt3Rh5
_symmetry_space_group_name_H-M   'P 1'
_cell_length_a   6.15433155
_cell_length_b   6.15433052
_cell_length_c   6.15433145
_cell_angle_alpha   95.68619235
_cell_angle_beta   95.68418659
_cell_angle_gamma   143.30952002
_symmetry_Int_Tables_number   1
_chemical_formula_structural   RuPt3Rh5
_chemical_formula_sum   'Ru1 Pt3 Rh5'
_cell_volume   132.19710631
_cell_formula_units_Z   1
loop_
 _symmetry_equiv_pos_site_id
 _symmetry_equiv_pos_as_xyz
  1  'x, y, z'
loop_
 _atom_site_type_symbol
 _atom_site_label
 _atom_site_symmetry_multiplicity
 _atom_site_fract_x
 _atom_site_fract_y
 _atom_site_fract_z
 _atom_site_occupancy
  Ru  Ru0  1  0.000000  0.003694  0.003694  1
  Pt  Pt1  1  0.000000  0.671106  0.671106  1
  Pt  Pt2  1  0.671044  0.998509  0.669552  1
  Pt  Pt3  1  0.328956  0.998509  0.327465  1
  Rh  Rh4  1  0.336613  0.338273  0.674885  1
  Rh  Rh5  1  0.660341  0.663189  0.323529  1
  Rh  Rh6  1  0.663387  0.338273  0.001660  1
  Rh  Rh7  1  0.339659  0.663189  0.002849  1
  Rh  Rh8  1  0.000000  0.325261  0.325261  1
