# generated using pymatgen
data_LaPr2(ZnNi)3
_symmetry_space_group_name_H-M   'P 1'
_cell_length_a   7.26583800
_cell_length_b   7.21486391
_cell_length_c   3.90462600
_cell_angle_alpha   90.00000000
_cell_angle_beta   90.00000000
_cell_angle_gamma   120.23398978
_symmetry_Int_Tables_number   1
_chemical_formula_structural   LaPr2(ZnNi)3
_chemical_formula_sum   'La1 Pr2 Zn3 Ni3'
_cell_volume   176.84594078
_cell_formula_units_Z   1
loop_
 _symmetry_equiv_pos_site_id
 _symmetry_equiv_pos_as_xyz
  1  'x, y, z'
loop_
 _atom_site_type_symbol
 _atom_site_label
 _atom_site_symmetry_multiplicity
 _atom_site_fract_x
 _atom_site_fract_y
 _atom_site_fract_z
 _atom_site_occupancy
  La  La0  1  0.584092  0.000000  0.500000  1
  Pr  Pr1  1  0.412810  0.412041  0.500000  1
  Pr  Pr2  1  0.000769  0.587959  0.500000  1
  Zn  Zn3  1  0.231969  0.000000  0.000000  1
  Zn  Zn4  1  0.767177  0.765676  0.000000  1
  Zn  Zn5  1  0.001501  0.234324  0.000000  1
  Ni  Ni6  1  0.999573  0.000000  0.500000  1
  Ni  Ni7  1  0.335165  0.668223  0.000000  1
  Ni  Ni8  1  0.666944  0.331777  0.000000  1
