# generated using pymatgen
data_Tb(SnRh2)2
_symmetry_space_group_name_H-M   'P 1'
_cell_length_a   4.39326600
_cell_length_b   9.74282500
_cell_length_c   11.86080500
_cell_angle_alpha   90.00000000
_cell_angle_beta   90.00000000
_cell_angle_gamma   90.00000000
_symmetry_Int_Tables_number   1
_chemical_formula_structural   Tb(SnRh2)2
_chemical_formula_sum   'Tb4 Sn8 Rh16'
_cell_volume   507.67592301
_cell_formula_units_Z   4
loop_
 _symmetry_equiv_pos_site_id
 _symmetry_equiv_pos_as_xyz
  1  'x, y, z'
loop_
 _atom_site_type_symbol
 _atom_site_label
 _atom_site_symmetry_multiplicity
 _atom_site_fract_x
 _atom_site_fract_y
 _atom_site_fract_z
 _atom_site_occupancy
  Tb  Tb0  1  0.250000  0.151927  0.826935  1
  Tb  Tb1  1  0.250000  0.348073  0.326935  1
  Tb  Tb2  1  0.750000  0.848073  0.173065  1
  Tb  Tb3  1  0.750000  0.651927  0.673065  1
  Sn  Sn4  1  0.250000  0.414518  0.637743  1
  Sn  Sn5  1  0.250000  0.085482  0.137743  1
  Sn  Sn6  1  0.750000  0.585482  0.362257  1
  Sn  Sn7  1  0.750000  0.914518  0.862257  1
  Sn  Sn8  1  0.250000  0.616668  0.063421  1
  Sn  Sn9  1  0.250000  0.883332  0.563421  1
  Sn  Sn10  1  0.750000  0.383332  0.936579  1
  Sn  Sn11  1  0.750000  0.116668  0.436579  1
  Rh  Rh12  1  0.250000  0.618774  0.496441  1
  Rh  Rh13  1  0.250000  0.881226  0.996441  1
  Rh  Rh14  1  0.750000  0.381226  0.503559  1
  Rh  Rh15  1  0.750000  0.118774  0.003559  1
  Rh  Rh16  1  0.250000  0.710176  0.274477  1
  Rh  Rh17  1  0.250000  0.789824  0.774477  1
  Rh  Rh18  1  0.750000  0.289824  0.725523  1
  Rh  Rh19  1  0.750000  0.210176  0.225523  1
  Rh  Rh20  1  0.250000  0.167355  0.564563  1
  Rh  Rh21  1  0.250000  0.332645  0.064563  1
  Rh  Rh22  1  0.750000  0.832645  0.435437  1
  Rh  Rh23  1  0.750000  0.667355  0.935437  1
  Rh  Rh24  1  0.250000  0.994606  0.344575  1
  Rh  Rh25  1  0.250000  0.505394  0.844575  1
  Rh  Rh26  1  0.750000  0.005394  0.655425  1
  Rh  Rh27  1  0.750000  0.494606  0.155425  1
