# generated using pymatgen
data_TbHo15Mg2In2Ir3Pt
_symmetry_space_group_name_H-M   'P 1'
_cell_length_a   9.64539848
_cell_length_b   9.68383413
_cell_length_c   9.66908500
_cell_angle_alpha   60.05037330
_cell_angle_beta   59.91873514
_cell_angle_gamma   59.70713516
_symmetry_Int_Tables_number   1
_chemical_formula_structural   TbHo15Mg2In2Ir3Pt
_chemical_formula_sum   'Tb1 Ho15 Mg2 In2 Ir3 Pt1'
_cell_volume   637.03793174
_cell_formula_units_Z   1
loop_
 _symmetry_equiv_pos_site_id
 _symmetry_equiv_pos_as_xyz
  1  'x, y, z'
loop_
 _atom_site_type_symbol
 _atom_site_label
 _atom_site_symmetry_multiplicity
 _atom_site_fract_x
 _atom_site_fract_y
 _atom_site_fract_z
 _atom_site_occupancy
  Tb  Tb0  1  0.435083  0.429670  0.067623  1
  Ho  Ho1  1  0.652916  0.648798  0.046885  1
  Ho  Ho2  1  0.186048  0.811043  0.192822  1
  Ho  Ho3  1  0.061645  0.437975  0.061736  1
  Ho  Ho4  1  0.186048  0.811043  0.810085  1
  Ho  Ho5  1  0.061645  0.437975  0.438644  1
  Ho  Ho6  1  0.812940  0.189006  0.188960  1
  Ho  Ho7  1  0.652916  0.648798  0.651402  1
  Ho  Ho8  1  0.812940  0.189006  0.809094  1
  Ho  Ho9  1  0.184252  0.190397  0.812675  1
  Ho  Ho10  1  0.041325  0.653932  0.652371  1
  Ho  Ho11  1  0.441266  0.060295  0.062210  1
  Ho  Ho12  1  0.062745  0.061765  0.437744  1
  Ho  Ho13  1  0.653399  0.048085  0.649259  1
  Ho  Ho14  1  0.809106  0.807529  0.191683  1
  Ho  Ho15  1  0.441266  0.060295  0.436230  1
  Mg  Mg16  1  0.423615  0.424068  0.418611  1
  Mg  Mg17  1  0.423615  0.424068  0.733708  1
  In  In18  1  0.415562  0.747012  0.418713  1
  In  In19  1  0.748419  0.416516  0.417534  1
  Ir  Ir20  1  0.854683  0.858756  0.860776  1
  Ir  Ir21  1  0.858003  0.424633  0.858681  1
  Ir  Ir22  1  0.854683  0.858756  0.425785  1
  Pt  Pt23  1  0.425878  0.860583  0.856769  1
