# generated using pymatgen
data_Er4MoOs6W
_symmetry_space_group_name_H-M   'P 1'
_cell_length_a   5.23166962
_cell_length_b   5.23166868
_cell_length_c   8.94991200
_cell_angle_alpha   90.00000000
_cell_angle_beta   90.00000000
_cell_angle_gamma   116.03316128
_symmetry_Int_Tables_number   1
_chemical_formula_structural   Er4MoOs6W
_chemical_formula_sum   'Er4 Mo1 Os6 W1'
_cell_volume   220.10849788
_cell_formula_units_Z   1
loop_
 _symmetry_equiv_pos_site_id
 _symmetry_equiv_pos_as_xyz
  1  'x, y, z'
loop_
 _atom_site_type_symbol
 _atom_site_label
 _atom_site_symmetry_multiplicity
 _atom_site_fract_x
 _atom_site_fract_y
 _atom_site_fract_z
 _atom_site_occupancy
  Er  Er0  1  0.329200  0.670800  0.435765  1
  Er  Er1  1  0.668736  0.331264  0.564049  1
  Er  Er2  1  0.668736  0.331264  0.935951  1
  Er  Er3  1  0.329200  0.670800  0.064235  1
  Mo  Mo4  1  0.169829  0.830171  0.750000  1
  Os  Os5  1  0.997756  0.002244  0.500862  1
  Os  Os6  1  0.997756  0.002244  0.999138  1
  Os  Os7  1  0.826657  0.651406  0.250000  1
  Os  Os8  1  0.348594  0.173343  0.250000  1
  Os  Os9  1  0.172864  0.344430  0.750000  1
  Os  Os10  1  0.655570  0.827136  0.750000  1
  W  W11  1  0.835102  0.164898  0.250000  1
