# generated using pymatgen
data_Th2Pa2Ge6Os7
_symmetry_space_group_name_H-M   'P 1'
_cell_length_a   7.37944721
_cell_length_b   7.37944690
_cell_length_c   7.33747106
_cell_angle_alpha   109.36544511
_cell_angle_beta   109.36543245
_cell_angle_gamma   109.91271084
_symmetry_Int_Tables_number   1
_chemical_formula_structural   Th2Pa2Ge6Os7
_chemical_formula_sum   'Th2 Pa2 Ge6 Os7'
_cell_volume   306.70703651
_cell_formula_units_Z   1
loop_
 _symmetry_equiv_pos_site_id
 _symmetry_equiv_pos_as_xyz
  1  'x, y, z'
loop_
 _atom_site_type_symbol
 _atom_site_label
 _atom_site_symmetry_multiplicity
 _atom_site_fract_x
 _atom_site_fract_y
 _atom_site_fract_z
 _atom_site_occupancy
  Th  Th0  1  0.000000  0.000000  0.500000  1
  Th  Th1  1  0.500000  0.500000  0.500000  1
  Pa  Pa2  1  0.000000  0.500000  0.000000  1
  Pa  Pa3  1  0.500000  0.000000  0.000000  1
  Ge  Ge4  1  0.684767  0.684767  0.000000  1
  Ge  Ge5  1  0.314349  0.998013  0.312362  1
  Ge  Ge6  1  0.998013  0.314349  0.312362  1
  Ge  Ge7  1  0.315233  0.315233  0.000000  1
  Ge  Ge8  1  0.685651  0.001987  0.687638  1
  Ge  Ge9  1  0.001987  0.685651  0.687638  1
  Os  Os10  1  0.750000  0.250000  0.500000  1
  Os  Os11  1  0.750753  0.491208  0.241962  1
  Os  Os12  1  0.508792  0.249247  0.758038  1
  Os  Os13  1  0.249247  0.508792  0.758038  1
  Os  Os14  1  0.250000  0.750000  0.500000  1
  Os  Os15  1  0.491208  0.750753  0.241962  1
  Os  Os16  1  0.000000  0.000000  0.000000  1
