# generated using pymatgen
data_ErTm9(SiHg)4
_symmetry_space_group_name_H-M   'P 1'
_cell_length_a   8.66754993
_cell_length_b   8.66521172
_cell_length_c   7.44751346
_cell_angle_alpha   90.02556701
_cell_angle_beta   90.00815360
_cell_angle_gamma   129.18372233
_symmetry_Int_Tables_number   1
_chemical_formula_structural   ErTm9(SiHg)4
_chemical_formula_sum   'Er1 Tm9 Si4 Hg4'
_cell_volume   433.56868981
_cell_formula_units_Z   1
loop_
 _symmetry_equiv_pos_site_id
 _symmetry_equiv_pos_as_xyz
  1  'x, y, z'
loop_
 _atom_site_type_symbol
 _atom_site_label
 _atom_site_symmetry_multiplicity
 _atom_site_fract_x
 _atom_site_fract_y
 _atom_site_fract_z
 _atom_site_occupancy
  Er  Er0  1  0.553944  0.808993  0.175621  1
  Tm  Tm1  1  0.308421  0.053778  0.324649  1
  Tm  Tm2  1  0.191518  0.446073  0.824452  1
  Tm  Tm3  1  0.946189  0.691551  0.675418  1
  Tm  Tm4  1  0.691735  0.946310  0.675362  1
  Tm  Tm5  1  0.446192  0.191469  0.824547  1
  Tm  Tm6  1  0.808339  0.553773  0.175462  1
  Tm  Tm7  1  0.053735  0.308317  0.324672  1
  Tm  Tm8  1  0.500059  0.499809  0.500121  1
  Tm  Tm9  1  0.000128  0.000008  0.999943  1
  Si  Si10  1  0.620454  0.620331  0.876109  1
  Si  Si11  1  0.120413  0.120355  0.623611  1
  Si  Si12  1  0.879995  0.879621  0.376648  1
  Si  Si13  1  0.379432  0.379257  0.123623  1
  Hg  Hg14  1  0.281879  0.717700  0.500410  1
  Hg  Hg15  1  0.217279  0.782120  0.999695  1
  Hg  Hg16  1  0.717741  0.282124  0.499966  1
  Hg  Hg17  1  0.782547  0.218413  0.999691  1
