# generated using pymatgen
data_Hf2InCoPt
_symmetry_space_group_name_H-M   'P 1'
_cell_length_a   7.51104588
_cell_length_b   7.51104530
_cell_length_c   3.19838700
_cell_angle_alpha   90.00000000
_cell_angle_beta   90.00000000
_cell_angle_gamma   88.53666315
_symmetry_Int_Tables_number   1
_chemical_formula_structural   Hf2InCoPt
_chemical_formula_sum   'Hf4 In2 Co2 Pt2'
_cell_volume   180.38073319
_cell_formula_units_Z   2
loop_
 _symmetry_equiv_pos_site_id
 _symmetry_equiv_pos_as_xyz
  1  'x, y, z'
loop_
 _atom_site_type_symbol
 _atom_site_label
 _atom_site_symmetry_multiplicity
 _atom_site_fract_x
 _atom_site_fract_y
 _atom_site_fract_z
 _atom_site_occupancy
  Hf  Hf0  1  0.181173  0.318827  0.000000  1
  Hf  Hf1  1  0.818827  0.681173  0.000000  1
  Hf  Hf2  1  0.652183  0.152183  0.000000  1
  Hf  Hf3  1  0.347817  0.847817  0.000000  1
  In  In4  1  0.000000  0.000000  0.500000  1
  In  In5  1  0.500000  0.500000  0.500000  1
  Co  Co6  1  0.373883  0.126117  0.500000  1
  Co  Co7  1  0.626117  0.873883  0.500000  1
  Pt  Pt8  1  0.868950  0.368950  0.500000  1
  Pt  Pt9  1  0.131050  0.631050  0.500000  1
