# generated using pymatgen
data_LiEu3Sb2H
_symmetry_space_group_name_H-M   'P 1'
_cell_length_a   4.64926400
_cell_length_b   12.53932000
_cell_length_c   12.51150200
_cell_angle_alpha   90.00000000
_cell_angle_beta   90.00000000
_cell_angle_gamma   90.00000000
_symmetry_Int_Tables_number   1
_chemical_formula_structural   LiEu3Sb2H
_chemical_formula_sum   'Li4 Eu12 Sb8 H4'
_cell_volume   729.40316386
_cell_formula_units_Z   4
loop_
 _symmetry_equiv_pos_site_id
 _symmetry_equiv_pos_as_xyz
  1  'x, y, z'
loop_
 _atom_site_type_symbol
 _atom_site_label
 _atom_site_symmetry_multiplicity
 _atom_site_fract_x
 _atom_site_fract_y
 _atom_site_fract_z
 _atom_site_occupancy
  Li  Li0  1  0.250000  0.133948  0.862029  1
  Li  Li1  1  0.250000  0.633948  0.637971  1
  Li  Li2  1  0.750000  0.866052  0.137971  1
  Li  Li3  1  0.750000  0.366052  0.362029  1
  Eu  Eu4  1  0.250000  0.058716  0.624586  1
  Eu  Eu5  1  0.250000  0.558716  0.875414  1
  Eu  Eu6  1  0.750000  0.941284  0.375414  1
  Eu  Eu7  1  0.750000  0.441284  0.124586  1
  Eu  Eu8  1  0.250000  0.363686  0.564889  1
  Eu  Eu9  1  0.250000  0.863686  0.935111  1
  Eu  Eu10  1  0.750000  0.636314  0.435111  1
  Eu  Eu11  1  0.750000  0.136314  0.064889  1
  Eu  Eu12  1  0.250000  0.214617  0.289806  1
  Eu  Eu13  1  0.250000  0.714617  0.210194  1
  Eu  Eu14  1  0.750000  0.785383  0.710194  1
  Eu  Eu15  1  0.750000  0.285383  0.789806  1
  Sb  Sb16  1  0.250000  0.479951  0.323211  1
  Sb  Sb17  1  0.250000  0.979951  0.176789  1
  Sb  Sb18  1  0.750000  0.520049  0.676789  1
  Sb  Sb19  1  0.750000  0.020049  0.823211  1
  Sb  Sb20  1  0.250000  0.314122  0.989376  1
  Sb  Sb21  1  0.250000  0.814122  0.510624  1
  Sb  Sb22  1  0.750000  0.685878  0.010624  1
  Sb  Sb23  1  0.750000  0.185878  0.489376  1
  H  H24  1  0.250000  0.232800  0.723187  1
  H  H25  1  0.250000  0.732800  0.776813  1
  H  H26  1  0.750000  0.767200  0.276813  1
  H  H27  1  0.750000  0.267200  0.223187  1
