# generated using pymatgen
data_Cs2MnRh3S8
_symmetry_space_group_name_H-M   'P 1'
_cell_length_a   6.23067100
_cell_length_b   6.91763600
_cell_length_c   16.35048300
_cell_angle_alpha   90.00000000
_cell_angle_beta   90.00000000
_cell_angle_gamma   90.00000000
_symmetry_Int_Tables_number   1
_chemical_formula_structural   Cs2MnRh3S8
_chemical_formula_sum   'Cs4 Mn2 Rh6 S16'
_cell_volume   704.73057216
_cell_formula_units_Z   2
loop_
 _symmetry_equiv_pos_site_id
 _symmetry_equiv_pos_as_xyz
  1  'x, y, z'
loop_
 _atom_site_type_symbol
 _atom_site_label
 _atom_site_symmetry_multiplicity
 _atom_site_fract_x
 _atom_site_fract_y
 _atom_site_fract_z
 _atom_site_occupancy
  Cs  Cs0  1  0.375541  0.000000  0.000000  1
  Cs  Cs1  1  0.615041  0.500000  0.500000  1
  Cs  Cs2  1  0.014897  0.000000  0.500000  1
  Cs  Cs3  1  0.953118  0.500000  0.000000  1
  Mn  Mn4  1  0.006558  0.000000  0.249487  1
  Mn  Mn5  1  0.006558  0.000000  0.750513  1
  Rh  Rh6  1  0.998753  0.500000  0.248012  1
  Rh  Rh7  1  0.998753  0.500000  0.751988  1
  Rh  Rh8  1  0.501320  0.235440  0.248361  1
  Rh  Rh9  1  0.501320  0.764560  0.751639  1
  Rh  Rh10  1  0.501320  0.764560  0.248361  1
  Rh  Rh11  1  0.501320  0.235440  0.751639  1
  S  S12  1  0.831905  0.245198  0.325227  1
  S  S13  1  0.831905  0.754802  0.674773  1
  S  S14  1  0.169623  0.755262  0.171917  1
  S  S15  1  0.169623  0.244738  0.828083  1
  S  S16  1  0.169623  0.244738  0.171917  1
  S  S17  1  0.169623  0.755262  0.828083  1
  S  S18  1  0.831905  0.754802  0.325227  1
  S  S19  1  0.831905  0.245198  0.674773  1
  S  S20  1  0.696309  0.000000  0.168866  1
  S  S21  1  0.696309  0.000000  0.831134  1
  S  S22  1  0.333056  0.500000  0.318798  1
  S  S23  1  0.333056  0.500000  0.681202  1
  S  S24  1  0.318552  0.000000  0.329804  1
  S  S25  1  0.318552  0.000000  0.670196  1
  S  S26  1  0.661776  0.500000  0.177706  1
  S  S27  1  0.661776  0.500000  0.822294  1
