# generated using pymatgen
data_Y11HoIn2FeTc2
_symmetry_space_group_name_H-M   'P 1'
_cell_length_a   8.46943172
_cell_length_b   8.46581869
_cell_length_c   8.46598662
_cell_angle_alpha   108.65404010
_cell_angle_beta   108.81796143
_cell_angle_gamma   110.93126677
_symmetry_Int_Tables_number   1
_chemical_formula_structural   Y11HoIn2FeTc2
_chemical_formula_sum   'Y11 Ho1 In2 Fe1 Tc2'
_cell_volume   467.16852503
_cell_formula_units_Z   1
loop_
 _symmetry_equiv_pos_site_id
 _symmetry_equiv_pos_as_xyz
  1  'x, y, z'
loop_
 _atom_site_type_symbol
 _atom_site_label
 _atom_site_symmetry_multiplicity
 _atom_site_fract_x
 _atom_site_fract_y
 _atom_site_fract_z
 _atom_site_occupancy
  Y  Y0  1  0.304046  0.305267  0.611452  1
  Y  Y1  1  0.692681  0.693055  0.389099  1
  Y  Y2  1  0.692668  0.303629  0.999639  1
  Y  Y3  1  0.304109  0.692599  0.998797  1
  Y  Y4  1  0.190445  0.431584  0.241248  1
  Y  Y5  1  0.807327  0.569007  0.761925  1
  Y  Y6  1  0.190456  0.949207  0.758898  1
  Y  Y7  1  0.949517  0.189620  0.759924  1
  Y  Y8  1  0.807328  0.045398  0.238289  1
  Y  Y9  1  0.044365  0.807357  0.236995  1
  Y  Y10  1  0.429818  0.189282  0.240516  1
  Ho  Ho11  1  0.573330  0.808097  0.765250  1
  In  In12  1  0.996735  0.497696  0.499036  1
  In  In13  1  0.497603  0.997170  0.500427  1
  Fe  Fe14  1  0.627749  0.628925  0.998805  1
  Tc  Tc15  1  0.392386  0.391978  0.000410  1
  Tc  Tc16  1  0.999436  0.000129  0.999291  1
