# generated using pymatgen
data_Tm5BOsWC6
_symmetry_space_group_name_H-M   'P 1'
_cell_length_a   8.21096533
_cell_length_b   8.21096509
_cell_length_c   3.40532100
_cell_angle_alpha   90.00000000
_cell_angle_beta   90.00000000
_cell_angle_gamma   121.71895460
_symmetry_Int_Tables_number   1
_chemical_formula_structural   Tm5BOsWC6
_chemical_formula_sum   'Tm5 B1 Os1 W1 C6'
_cell_volume   195.29488338
_cell_formula_units_Z   1
loop_
 _symmetry_equiv_pos_site_id
 _symmetry_equiv_pos_as_xyz
  1  'x, y, z'
loop_
 _atom_site_type_symbol
 _atom_site_label
 _atom_site_symmetry_multiplicity
 _atom_site_fract_x
 _atom_site_fract_y
 _atom_site_fract_z
 _atom_site_occupancy
  Tm  Tm0  1  0.497798  0.502202  0.000000  1
  Tm  Tm1  1  0.081430  0.332522  0.500000  1
  Tm  Tm2  1  0.922011  0.670125  0.500000  1
  Tm  Tm3  1  0.667478  0.918570  0.500000  1
  Tm  Tm4  1  0.329875  0.077989  0.500000  1
  B  B5  1  0.999918  0.000082  0.000000  1
  Os  Os6  1  0.287700  0.712300  0.000000  1
  W  W7  1  0.714679  0.285321  0.000000  1
  C  C8  1  0.623910  0.376090  0.500000  1
  C  C9  1  0.370525  0.629475  0.500000  1
  C  C10  1  0.184589  0.182874  0.000000  1
  C  C11  1  0.817126  0.815411  0.000000  1
  C  C12  1  0.001497  0.498536  0.000000  1
  C  C13  1  0.501464  0.998503  0.000000  1
