# generated using pymatgen
data_Y2Lu3In(GaNi2)6
_symmetry_space_group_name_H-M   'P 1'
_cell_length_a   5.15374100
_cell_length_b   5.15373970
_cell_length_c   15.69787900
_cell_angle_alpha   90.00000000
_cell_angle_beta   90.00000000
_cell_angle_gamma   119.99998906
_symmetry_Int_Tables_number   1
_chemical_formula_structural   Y2Lu3In(GaNi2)6
_chemical_formula_sum   'Y2 Lu3 In1 Ga6 Ni12'
_cell_volume   361.09105183
_cell_formula_units_Z   1
loop_
 _symmetry_equiv_pos_site_id
 _symmetry_equiv_pos_as_xyz
  1  'x, y, z'
loop_
 _atom_site_type_symbol
 _atom_site_label
 _atom_site_symmetry_multiplicity
 _atom_site_fract_x
 _atom_site_fract_y
 _atom_site_fract_z
 _atom_site_occupancy
  Y  Y0  1  0.333333  0.666667  0.734138  1
  Y  Y1  1  0.666667  0.333333  0.253447  1
  Lu  Lu2  1  0.666667  0.333333  0.464780  1
  Lu  Lu3  1  0.666667  0.333333  0.042753  1
  Lu  Lu4  1  0.333333  0.666667  0.953892  1
  In  In5  1  0.333333  0.666667  0.536134  1
  Ga  Ga6  1  0.000000  0.000000  0.252212  1
  Ga  Ga7  1  0.000000  0.000000  0.752261  1
  Ga  Ga8  1  0.333333  0.666667  0.250226  1
  Ga  Ga9  1  0.666667  0.333333  0.751382  1
  Ga  Ga10  1  0.000000  0.000000  0.000336  1
  Ga  Ga11  1  0.000000  0.000000  0.499692  1
  Ni  Ni12  1  0.167556  0.335112  0.125814  1
  Ni  Ni13  1  0.831340  0.662679  0.875884  1
  Ni  Ni14  1  0.664888  0.832444  0.125814  1
  Ni  Ni15  1  0.832530  0.665062  0.624341  1
  Ni  Ni16  1  0.337321  0.168660  0.875884  1
  Ni  Ni17  1  0.169782  0.339563  0.376877  1
  Ni  Ni18  1  0.167556  0.832444  0.125814  1
  Ni  Ni19  1  0.334938  0.167470  0.624341  1
  Ni  Ni20  1  0.831340  0.168660  0.875884  1
  Ni  Ni21  1  0.660437  0.830218  0.376877  1
  Ni  Ni22  1  0.832530  0.167470  0.624341  1
  Ni  Ni23  1  0.169782  0.830218  0.376877  1
