# generated using pymatgen
data_Pr3Nd2Ta2BiO14
_symmetry_space_group_name_H-M   'P 1'
_cell_length_a   6.70701850
_cell_length_b   6.79746279
_cell_length_c   7.73495100
_cell_angle_alpha   90.00000000
_cell_angle_beta   90.00000000
_cell_angle_gamma   109.21697999
_symmetry_Int_Tables_number   1
_chemical_formula_structural   Pr3Nd2Ta2BiO14
_chemical_formula_sum   'Pr3 Nd2 Ta2 Bi1 O14'
_cell_volume   332.99229130
_cell_formula_units_Z   1
loop_
 _symmetry_equiv_pos_site_id
 _symmetry_equiv_pos_as_xyz
  1  'x, y, z'
loop_
 _atom_site_type_symbol
 _atom_site_label
 _atom_site_symmetry_multiplicity
 _atom_site_fract_x
 _atom_site_fract_y
 _atom_site_fract_z
 _atom_site_occupancy
  Pr  Pr0  1  0.539941  0.530074  0.501286  1
  Pr  Pr1  1  0.539941  0.530074  0.998714  1
  Pr  Pr2  1  0.449912  0.000133  0.250000  1
  Nd  Nd3  1  0.010181  0.463794  0.750000  1
  Nd  Nd4  1  0.531079  0.003268  0.750000  1
  Ta  Ta5  1  0.994935  0.995328  0.501529  1
  Ta  Ta6  1  0.994935  0.995328  0.998471  1
  Bi  Bi7  1  0.013910  0.502637  0.250000  1
  O  O8  1  0.938727  0.067714  0.750000  1
  O  O9  1  0.046525  0.962013  0.250000  1
  O  O10  1  0.368621  0.630169  0.250000  1
  O  O11  1  0.643538  0.362363  0.750000  1
  O  O12  1  0.378502  0.632052  0.750000  1
  O  O13  1  0.631535  0.361026  0.250000  1
  O  O14  1  0.299884  0.055078  0.966774  1
  O  O15  1  0.678299  0.924052  0.472262  1
  O  O16  1  0.299884  0.055078  0.533226  1
  O  O17  1  0.678299  0.924052  0.027738  1
  O  O18  1  0.053604  0.308994  0.468424  1
  O  O19  1  0.927071  0.693887  0.959324  1
  O  O20  1  0.927071  0.693887  0.540676  1
  O  O21  1  0.053604  0.308994  0.031576  1
