# generated using pymatgen
data_Ca10IrPd3
_symmetry_space_group_name_H-M   'P 1'
_cell_length_a   8.89224835
_cell_length_b   8.87870908
_cell_length_c   7.67557614
_cell_angle_alpha   83.05480674
_cell_angle_beta   83.24693155
_cell_angle_gamma   44.01309793
_symmetry_Int_Tables_number   1
_chemical_formula_structural   Ca10IrPd3
_chemical_formula_sum   'Ca10 Ir1 Pd3'
_cell_volume   417.56046284
_cell_formula_units_Z   1
loop_
 _symmetry_equiv_pos_site_id
 _symmetry_equiv_pos_as_xyz
  1  'x, y, z'
loop_
 _atom_site_type_symbol
 _atom_site_label
 _atom_site_symmetry_multiplicity
 _atom_site_fract_x
 _atom_site_fract_y
 _atom_site_fract_z
 _atom_site_occupancy
  Ca  Ca0  1  0.021121  0.794740  0.912682  1
  Ca  Ca1  1  0.199722  0.973345  0.580707  1
  Ca  Ca2  1  0.977659  0.203082  0.079817  1
  Ca  Ca3  1  0.808173  0.008485  0.420993  1
  Ca  Ca4  1  0.358925  0.210773  0.813199  1
  Ca  Ca5  1  0.806114  0.636615  0.679259  1
  Ca  Ca6  1  0.634096  0.800846  0.179337  1
  Ca  Ca7  1  0.202485  0.367716  0.327325  1
  Ca  Ca8  1  0.569835  0.426912  0.744373  1
  Ca  Ca9  1  0.417952  0.575871  0.259377  1
  Ir  Ir10  1  0.177213  0.602787  0.584071  1
  Pd  Pd11  1  0.404403  0.818487  0.919609  1
  Pd  Pd12  1  0.820105  0.403205  0.417814  1
  Pd  Pd13  1  0.602199  0.177138  0.081436  1
