# generated using pymatgen
data_Li12TbHo11(WO6)8
_symmetry_space_group_name_H-M   'P 1'
_cell_length_a   10.66093192
_cell_length_b   10.65889644
_cell_length_c   10.66093010
_cell_angle_alpha   109.46735372
_cell_angle_beta   109.48676730
_cell_angle_gamma   109.46733254
_symmetry_Int_Tables_number   1
_chemical_formula_structural   Li12TbHo11(WO6)8
_chemical_formula_sum   'Li12 Tb1 Ho11 W8 O48'
_cell_volume   932.47852036
_cell_formula_units_Z   1
loop_
 _symmetry_equiv_pos_site_id
 _symmetry_equiv_pos_as_xyz
  1  'x, y, z'
loop_
 _atom_site_type_symbol
 _atom_site_label
 _atom_site_symmetry_multiplicity
 _atom_site_fract_x
 _atom_site_fract_y
 _atom_site_fract_z
 _atom_site_occupancy
  Li  Li0  1  0.875127  0.749999  0.125126  1
  Li  Li1  1  0.250000  0.875008  0.124999  1
  Li  Li2  1  0.875063  0.125082  0.250083  1
  Li  Li3  1  0.375002  0.624993  0.250001  1
  Li  Li4  1  0.624990  0.249999  0.374990  1
  Li  Li5  1  0.749991  0.624994  0.374993  1
  Li  Li6  1  0.249916  0.374917  0.624934  1
  Li  Li7  1  0.374873  0.750001  0.624874  1
  Li  Li8  1  0.125007  0.875005  0.750009  1
  Li  Li9  1  0.625003  0.374920  0.749984  1
  Li  Li10  1  0.125010  0.250002  0.875011  1
  Li  Li11  1  0.750017  0.125080  0.874998  1
  Tb  Tb12  1  0.625000  0.749999  0.875000  1
  Ho  Ho13  1  0.749981  0.374994  0.124999  1
  Ho  Ho14  1  0.375001  0.250000  0.125000  1
  Ho  Ho15  1  0.624990  0.875061  0.250176  1
  Ho  Ho16  1  0.125014  0.374996  0.249996  1
  Ho  Ho17  1  0.125001  0.749999  0.375000  1
  Ho  Ho18  1  0.250007  0.125005  0.374986  1
  Ho  Ho19  1  0.750073  0.875060  0.624885  1
  Ho  Ho20  1  0.875000  0.250001  0.625001  1
  Ho  Ho21  1  0.375001  0.125007  0.750020  1
  Ho  Ho22  1  0.875112  0.624941  0.749928  1
  Ho  Ho23  1  0.249825  0.624940  0.875012  1
  W  W24  1  0.000303  0.000145  0.000018  1
  W  W25  1  0.499842  0.000144  0.000127  1
  W  W26  1  0.499873  0.499856  0.000158  1
  W  W27  1  0.999994  0.499996  0.000000  1
  W  W28  1  0.000004  0.000004  0.499999  1
  W  W29  1  0.000002  0.499996  0.499996  1
  W  W30  1  0.500000  0.000004  0.500006  1
  W  W31  1  0.499982  0.499856  0.499697  1
  O  O32  1  0.119276  0.202281  0.028534  1
  O  O33  1  0.909334  0.326305  0.028459  1
  O  O34  1  0.409324  0.880829  0.083046  1
  O  O35  1  0.673930  0.701880  0.084037  1
  O  O36  1  0.673749  0.972321  0.091414  1
  O  O37  1  0.416953  0.619171  0.090675  1
  O  O38  1  0.202332  0.028580  0.119216  1
  O  O39  1  0.916976  0.590670  0.119115  1
  O  O40  1  0.583007  0.202283  0.173747  1
  O  O41  1  0.590635  0.471418  0.173753  1
  O  O42  1  0.028406  0.119089  0.202125  1
  O  O43  1  0.173711  0.583040  0.202168  1
  O  O44  1  0.916970  0.326305  0.297846  1
  O  O45  1  0.380783  0.471420  0.297666  1
  O  O46  1  0.297833  0.916960  0.326289  1
  O  O47  1  0.028444  0.909330  0.326305  1
  O  O48  1  0.471465  0.297718  0.380724  1
  O  O49  1  0.909329  0.583040  0.380873  1
  O  O50  1  0.528459  0.826316  0.409311  1
  O  O51  1  0.880879  0.083028  0.409336  1
  O  O52  1  0.619126  0.090673  0.416981  1
  O  O53  1  0.797857  0.826319  0.417005  1
  O  O54  1  0.297874  0.380910  0.471592  1
  O  O55  1  0.173694  0.590669  0.471554  1
  O  O56  1  0.702218  0.619171  0.528497  1
  O  O57  1  0.826310  0.409328  0.528452  1
  O  O58  1  0.202155  0.173692  0.583029  1
  O  O59  1  0.380886  0.909332  0.583025  1
  O  O60  1  0.119128  0.916960  0.590671  1
  O  O61  1  0.471540  0.173693  0.590665  1
  O  O62  1  0.527951  0.701881  0.617844  1
  O  O63  1  0.090666  0.416973  0.619121  1
  O  O64  1  0.702147  0.083028  0.673693  1
  O  O65  1  0.971547  0.090673  0.673691  1
  O  O66  1  0.082996  0.673682  0.702143  1
  O  O67  1  0.619093  0.527680  0.701428  1
  O  O68  1  0.971504  0.880828  0.797781  1
  O  O69  1  0.826308  0.416972  0.797853  1
  O  O70  1  0.408587  0.527678  0.826251  1
  O  O71  1  0.415964  0.798119  0.826073  1
  O  O72  1  0.083019  0.409328  0.880874  1
  O  O73  1  0.798572  0.972322  0.880907  1
  O  O74  1  0.583036  0.380910  0.909317  1
  O  O75  1  0.326247  0.028582  0.909364  1
  O  O76  1  0.326252  0.297718  0.916994  1
  O  O77  1  0.590682  0.119090  0.916964  1
  O  O78  1  0.090688  0.673682  0.971540  1
  O  O79  1  0.882155  0.798119  0.972050  1
