# generated using pymatgen
data_Mo(WCl3)2
_symmetry_space_group_name_H-M   'P 1'
_cell_length_a   9.53828064
_cell_length_b   9.53828091
_cell_length_c   11.57447000
_cell_angle_alpha   90.00000000
_cell_angle_beta   90.00000000
_cell_angle_gamma   74.66656311
_symmetry_Int_Tables_number   1
_chemical_formula_structural   Mo(WCl3)2
_chemical_formula_sum   'Mo4 W8 Cl24'
_cell_volume   1015.54690998
_cell_formula_units_Z   4
loop_
 _symmetry_equiv_pos_site_id
 _symmetry_equiv_pos_as_xyz
  1  'x, y, z'
loop_
 _atom_site_type_symbol
 _atom_site_label
 _atom_site_symmetry_multiplicity
 _atom_site_fract_x
 _atom_site_fract_y
 _atom_site_fract_z
 _atom_site_occupancy
  Mo  Mo0  1  0.646683  0.353317  0.568176  1
  Mo  Mo1  1  0.431465  0.568535  0.646063  1
  Mo  Mo2  1  0.931465  0.068535  0.853937  1
  Mo  Mo3  1  0.146683  0.853317  0.931824  1
  W  W4  1  0.122623  0.122394  0.000379  1
  W  W5  1  0.877606  0.877377  0.000379  1
  W  W6  1  0.854885  0.145115  0.068525  1
  W  W7  1  0.068293  0.931707  0.145604  1
  W  W8  1  0.568293  0.431707  0.354396  1
  W  W9  1  0.354885  0.645115  0.431475  1
  W  W10  1  0.377606  0.377377  0.499621  1
  W  W11  1  0.622623  0.622394  0.499621  1
  Cl  Cl12  1  0.279516  0.281065  0.002925  1
  Cl  Cl13  1  0.718935  0.720484  0.002925  1
  Cl  Cl14  1  0.086938  0.680013  0.075186  1
  Cl  Cl15  1  0.319987  0.913062  0.075186  1
  Cl  Cl16  1  0.651802  0.348197  0.151671  1
  Cl  Cl17  1  0.041738  0.190345  0.205213  1
  Cl  Cl18  1  0.809655  0.958262  0.205213  1
  Cl  Cl19  1  0.309655  0.458262  0.294786  1
  Cl  Cl20  1  0.541738  0.690344  0.294786  1
  Cl  Cl21  1  0.151803  0.848197  0.348329  1
  Cl  Cl22  1  0.586938  0.180013  0.424814  1
  Cl  Cl23  1  0.819987  0.413062  0.424814  1
  Cl  Cl24  1  0.218935  0.220484  0.497075  1
  Cl  Cl25  1  0.779516  0.781065  0.497075  1
  Cl  Cl26  1  0.179811  0.587407  0.572946  1
  Cl  Cl27  1  0.412593  0.820189  0.572946  1
  Cl  Cl28  1  0.849743  0.150257  0.650481  1
  Cl  Cl29  1  0.457044  0.309319  0.701998  1
  Cl  Cl30  1  0.690680  0.542956  0.701998  1
  Cl  Cl31  1  0.190681  0.042956  0.798001  1
  Cl  Cl32  1  0.957044  0.809319  0.798001  1
  Cl  Cl33  1  0.349743  0.650256  0.849519  1
  Cl  Cl34  1  0.679811  0.087407  0.927054  1
  Cl  Cl35  1  0.912593  0.320189  0.927054  1
