# generated using pymatgen
data_CeHo5(Cu3Sb4)2
_symmetry_space_group_name_H-M   'P 1'
_cell_length_a   8.31252555
_cell_length_b   8.31252428
_cell_length_c   8.31252595
_cell_angle_alpha   109.34583466
_cell_angle_beta   109.72226912
_cell_angle_gamma   109.34584517
_symmetry_Int_Tables_number   1
_chemical_formula_structural   CeHo5(Cu3Sb4)2
_chemical_formula_sum   'Ce1 Ho5 Cu6 Sb8'
_cell_volume   442.15120549
_cell_formula_units_Z   1
loop_
 _symmetry_equiv_pos_site_id
 _symmetry_equiv_pos_as_xyz
  1  'x, y, z'
loop_
 _atom_site_type_symbol
 _atom_site_label
 _atom_site_symmetry_multiplicity
 _atom_site_fract_x
 _atom_site_fract_y
 _atom_site_fract_z
 _atom_site_occupancy
  Ce  Ce0  1  0.875000  0.250000  0.125000  1
  Ho  Ho1  1  0.625000  0.750000  0.375000  1
  Ho  Ho2  1  0.249708  0.124422  0.874386  1
  Ho  Ho3  1  0.749964  0.375578  0.625286  1
  Ho  Ho4  1  0.125614  0.875323  0.250036  1
  Ho  Ho5  1  0.374714  0.624677  0.750292  1
  Cu  Cu6  1  0.375000  0.250000  0.625000  1
  Cu  Cu7  1  0.125000  0.750000  0.875000  1
  Cu  Cu8  1  0.253876  0.629038  0.377185  1
  Cu  Cu9  1  0.748147  0.870962  0.124838  1
  Cu  Cu10  1  0.622815  0.376691  0.251853  1
  Cu  Cu11  1  0.875162  0.123309  0.746124  1
  Sb  Sb12  1  0.658966  0.499666  0.999549  1
  Sb  Sb13  1  0.499883  0.000334  0.659300  1
  Sb  Sb14  1  0.002084  0.663991  0.502484  1
  Sb  Sb15  1  0.838493  0.836009  0.838093  1
  Sb  Sb16  1  0.497516  0.999600  0.161507  1
  Sb  Sb17  1  0.161907  0.500400  0.997916  1
  Sb  Sb18  1  0.000451  0.159417  0.500117  1
  Sb  Sb19  1  0.340700  0.340583  0.341034  1
