# generated using pymatgen
data_Ho2Tm6Cd2IrRu
_symmetry_space_group_name_H-M   'P 1'
_cell_length_a   9.53003339
_cell_length_b   9.52855572
_cell_length_c   9.56965212
_cell_angle_alpha   59.86885340
_cell_angle_beta   59.85344251
_cell_angle_gamma   59.71774618
_symmetry_Int_Tables_number   1
_chemical_formula_structural   Ho2Tm6Cd2IrRu
_chemical_formula_sum   'Ho4 Tm12 Cd4 Ir2 Ru2'
_cell_volume   611.86678221
_cell_formula_units_Z   2
loop_
 _symmetry_equiv_pos_site_id
 _symmetry_equiv_pos_as_xyz
  1  'x, y, z'
loop_
 _atom_site_type_symbol
 _atom_site_label
 _atom_site_symmetry_multiplicity
 _atom_site_fract_x
 _atom_site_fract_y
 _atom_site_fract_z
 _atom_site_occupancy
  Ho  Ho0  1  0.809837  0.188403  0.813050  1
  Ho  Ho1  1  0.188404  0.809833  0.188713  1
  Ho  Ho2  1  0.811330  0.811331  0.188671  1
  Ho  Ho3  1  0.188809  0.188810  0.811188  1
  Tm  Tm4  1  0.597848  0.598115  0.598034  1
  Tm  Tm5  1  0.598111  0.597849  0.206005  1
  Tm  Tm6  1  0.597108  0.209202  0.596715  1
  Tm  Tm7  1  0.209200  0.597107  0.596972  1
  Tm  Tm8  1  0.062027  0.437845  0.439772  1
  Tm  Tm9  1  0.437843  0.062029  0.060357  1
  Tm  Tm10  1  0.437940  0.061994  0.439890  1
  Tm  Tm11  1  0.061995  0.437939  0.060176  1
  Tm  Tm12  1  0.438003  0.438002  0.061996  1
  Tm  Tm13  1  0.059622  0.059624  0.440378  1
  Tm  Tm14  1  0.188553  0.809696  0.812741  1
  Tm  Tm15  1  0.809697  0.188553  0.189011  1
  Cd  Cd16  1  0.830609  0.830346  0.830562  1
  Cd  Cd17  1  0.830345  0.830609  0.508485  1
  Cd  Cd18  1  0.830488  0.507550  0.831103  1
  Cd  Cd19  1  0.507550  0.830486  0.830858  1
  Ir  Ir20  1  0.393759  0.827125  0.389666  1
  Ir  Ir21  1  0.827125  0.393758  0.389452  1
  Ru  Ru22  1  0.391998  0.391799  0.387816  1
  Ru  Ru23  1  0.391800  0.391997  0.828390  1
