# generated using pymatgen
data_Sm5YAl6V4O24
_symmetry_space_group_name_H-M   'P 1'
_cell_length_a   10.77363170
_cell_length_b   10.77368685
_cell_length_c   10.78067461
_cell_angle_alpha   109.46150169
_cell_angle_beta   109.44549849
_cell_angle_gamma   109.49540157
_symmetry_Int_Tables_number   1
_chemical_formula_structural   Sm5YAl6V4O24
_chemical_formula_sum   'Sm10 Y2 Al12 V8 O48'
_cell_volume   963.40920860
_cell_formula_units_Z   2
loop_
 _symmetry_equiv_pos_site_id
 _symmetry_equiv_pos_as_xyz
  1  'x, y, z'
loop_
 _atom_site_type_symbol
 _atom_site_label
 _atom_site_symmetry_multiplicity
 _atom_site_fract_x
 _atom_site_fract_y
 _atom_site_fract_z
 _atom_site_occupancy
  Sm  Sm0  1  0.250653  0.375517  0.124612  1
  Sm  Sm1  1  0.749347  0.624483  0.875388  1
  Sm  Sm2  1  0.750950  0.125982  0.375470  1
  Sm  Sm3  1  0.124453  0.249301  0.375396  1
  Sm  Sm4  1  0.374027  0.749069  0.124448  1
  Sm  Sm5  1  0.249050  0.874018  0.624530  1
  Sm  Sm6  1  0.875547  0.750699  0.624604  1
  Sm  Sm7  1  0.625973  0.250931  0.875552  1
  Sm  Sm8  1  0.374926  0.124924  0.249970  1
  Sm  Sm9  1  0.625074  0.875076  0.750030  1
  Y  Y10  1  0.124871  0.375102  0.749979  1
  Y  Y11  1  0.875129  0.624898  0.250021  1
  Al  Al12  1  0.249494  0.624743  0.374773  1
  Al  Al13  1  0.750506  0.375257  0.625227  1
  Al  Al14  1  0.749829  0.874699  0.125151  1
  Al  Al15  1  0.374703  0.249893  0.625127  1
  Al  Al16  1  0.625297  0.750107  0.374873  1
  Al  Al17  1  0.250171  0.125301  0.874849  1
  Al  Al18  1  0.124744  0.749559  0.874872  1
  Al  Al19  1  0.875256  0.250441  0.125128  1
  Al  Al20  1  0.626257  0.376216  0.250000  1
  Al  Al21  1  0.373743  0.623784  0.750000  1
  Al  Al22  1  0.876232  0.126230  0.749996  1
  Al  Al23  1  0.123768  0.873770  0.250004  1
  V  V24  1  0.000000  0.000000  0.000000  1
  V  V25  1  0.500000  0.000000  0.500000  1
  V  V26  1  0.000000  0.500000  0.500000  1
  V  V27  1  0.500000  0.000000  0.000000  1
  V  V28  1  0.500000  0.500000  0.000000  1
  V  V29  1  0.500000  0.500000  0.500000  1
  V  V30  1  0.000000  0.000000  0.500000  1
  V  V31  1  0.000000  0.500000  0.000000  1
  O  O32  1  0.480710  0.380192  0.294200  1
  O  O33  1  0.519290  0.619808  0.705800  1
  O  O34  1  0.585932  0.186286  0.205621  1
  O  O35  1  0.918408  0.124348  0.602106  1
  O  O36  1  0.293410  0.479129  0.379446  1
  O  O37  1  0.313480  0.913968  0.294170  1
  O  O38  1  0.414068  0.813714  0.794379  1
  O  O39  1  0.081592  0.875652  0.397894  1
  O  O40  1  0.706590  0.520871  0.620554  1
  O  O41  1  0.686520  0.086032  0.705830  1
  O  O42  1  0.022338  0.316257  0.897845  1
  O  O43  1  0.207431  0.586050  0.186463  1
  O  O44  1  0.119899  0.019393  0.205859  1
  O  O45  1  0.977662  0.683743  0.102155  1
  O  O46  1  0.792569  0.413950  0.813537  1
  O  O47  1  0.880101  0.980607  0.794141  1
  O  O48  1  0.599628  0.913906  0.120627  1
  O  O49  1  0.183584  0.477816  0.601950  1
  O  O50  1  0.400372  0.086094  0.879373  1
  O  O51  1  0.816416  0.522184  0.398050  1
  O  O52  1  0.899520  0.020991  0.313410  1
  O  O53  1  0.375397  0.581615  0.897773  1
  O  O54  1  0.100480  0.979009  0.686590  1
  O  O55  1  0.624603  0.418385  0.102227  1
  O  O56  1  0.377458  0.291402  0.478458  1
  O  O57  1  0.586049  0.900405  0.379597  1
  O  O58  1  0.622542  0.708598  0.521542  1
  O  O59  1  0.413951  0.099595  0.620403  1
  O  O60  1  0.120283  0.598537  0.912538  1
  O  O61  1  0.020869  0.206321  0.120335  1
  O  O62  1  0.879717  0.401463  0.087462  1
  O  O63  1  0.979131  0.793679  0.879665  1
  O  O64  1  0.312934  0.899075  0.021615  1
  O  O65  1  0.913858  0.292301  0.313335  1
  O  O66  1  0.687066  0.100925  0.978385  1
  O  O67  1  0.086142  0.707699  0.686665  1
  O  O68  1  0.185900  0.207744  0.587362  1
  O  O69  1  0.478893  0.600470  0.186658  1
  O  O70  1  0.814100  0.792256  0.412638  1
  O  O71  1  0.521107  0.399530  0.813342  1
  O  O72  1  0.292691  0.314351  0.912838  1
  O  O73  1  0.707309  0.685649  0.087162  1
  O  O74  1  0.208821  0.122711  0.021551  1
  O  O75  1  0.791179  0.877289  0.978449  1
  O  O76  1  0.901497  0.379605  0.587437  1
  O  O77  1  0.098503  0.620395  0.412563  1
  O  O78  1  0.600952  0.187114  0.478376  1
  O  O79  1  0.399048  0.812886  0.521624  1
