# generated using pymatgen
data_Yb3CuSb2H
_symmetry_space_group_name_H-M   'P 1'
_cell_length_a   4.42542700
_cell_length_b   11.82288300
_cell_length_c   11.85169000
_cell_angle_alpha   90.00000000
_cell_angle_beta   90.00000000
_cell_angle_gamma   90.00000000
_symmetry_Int_Tables_number   1
_chemical_formula_structural   Yb3CuSb2H
_chemical_formula_sum   'Yb12 Cu4 Sb8 H4'
_cell_volume   620.09589491
_cell_formula_units_Z   4
loop_
 _symmetry_equiv_pos_site_id
 _symmetry_equiv_pos_as_xyz
  1  'x, y, z'
loop_
 _atom_site_type_symbol
 _atom_site_label
 _atom_site_symmetry_multiplicity
 _atom_site_fract_x
 _atom_site_fract_y
 _atom_site_fract_z
 _atom_site_occupancy
  Yb  Yb0  1  0.250000  0.059125  0.623682  1
  Yb  Yb1  1  0.250000  0.559125  0.876318  1
  Yb  Yb2  1  0.750000  0.940875  0.376318  1
  Yb  Yb3  1  0.750000  0.440875  0.123682  1
  Yb  Yb4  1  0.250000  0.370143  0.557060  1
  Yb  Yb5  1  0.250000  0.870143  0.942940  1
  Yb  Yb6  1  0.750000  0.629857  0.442940  1
  Yb  Yb7  1  0.750000  0.129857  0.057060  1
  Yb  Yb8  1  0.250000  0.221948  0.289522  1
  Yb  Yb9  1  0.250000  0.721948  0.210478  1
  Yb  Yb10  1  0.750000  0.778052  0.710478  1
  Yb  Yb11  1  0.750000  0.278052  0.789522  1
  Cu  Cu12  1  0.250000  0.138782  0.852338  1
  Cu  Cu13  1  0.250000  0.638782  0.647662  1
  Cu  Cu14  1  0.750000  0.861218  0.147662  1
  Cu  Cu15  1  0.750000  0.361218  0.352338  1
  Sb  Sb16  1  0.250000  0.484009  0.317802  1
  Sb  Sb17  1  0.250000  0.984009  0.182198  1
  Sb  Sb18  1  0.750000  0.515991  0.682198  1
  Sb  Sb19  1  0.750000  0.015991  0.817802  1
  Sb  Sb20  1  0.250000  0.310754  0.993552  1
  Sb  Sb21  1  0.250000  0.810754  0.506448  1
  Sb  Sb22  1  0.750000  0.689246  0.006448  1
  Sb  Sb23  1  0.750000  0.189246  0.493552  1
  H  H24  1  0.250000  0.228795  0.728007  1
  H  H25  1  0.250000  0.728795  0.771993  1
  H  H26  1  0.750000  0.771205  0.271993  1
  H  H27  1  0.750000  0.271205  0.228007  1
