# generated using pymatgen
data_Hf12Th8Si15Sn
_symmetry_space_group_name_H-M   'P 1'
_cell_length_a   7.42058991
_cell_length_b   7.44090879
_cell_length_c   13.65369616
_cell_angle_alpha   89.76766223
_cell_angle_beta   89.98690990
_cell_angle_gamma   89.96981144
_symmetry_Int_Tables_number   1
_chemical_formula_structural   Hf12Th8Si15Sn
_chemical_formula_sum   'Hf12 Th8 Si15 Sn1'
_cell_volume   753.89524551
_cell_formula_units_Z   1
loop_
 _symmetry_equiv_pos_site_id
 _symmetry_equiv_pos_as_xyz
  1  'x, y, z'
loop_
 _atom_site_type_symbol
 _atom_site_label
 _atom_site_symmetry_multiplicity
 _atom_site_fract_x
 _atom_site_fract_y
 _atom_site_fract_z
 _atom_site_occupancy
  Hf  Hf0  1  0.174135  0.174564  0.998989  1
  Hf  Hf1  1  0.825918  0.826762  0.501063  1
  Hf  Hf2  1  0.325803  0.681378  0.248308  1
  Hf  Hf3  1  0.674167  0.325673  0.750636  1
  Hf  Hf4  1  0.148197  0.990072  0.375982  1
  Hf  Hf5  1  0.846833  0.002072  0.874821  1
  Hf  Hf6  1  0.502534  0.655108  0.626094  1
  Hf  Hf7  1  0.345693  0.496658  0.874704  1
  Hf  Hf8  1  0.498386  0.346341  0.118694  1
  Hf  Hf9  1  0.665917  0.514049  0.378696  1
  Hf  Hf10  1  0.995981  0.154541  0.625690  1
  Hf  Hf11  1  0.002072  0.844494  0.122802  1
  Th  Th12  1  0.989068  0.341742  0.213469  1
  Th  Th13  1  0.003933  0.657935  0.717382  1
  Th  Th14  1  0.150550  0.505050  0.471740  1
  Th  Th15  1  0.504475  0.840699  0.032186  1
  Th  Th16  1  0.842090  0.503408  0.964994  1
  Th  Th17  1  0.498711  0.156078  0.538112  1
  Th  Th18  1  0.341969  0.996063  0.784071  1
  Th  Th19  1  0.663948  0.996798  0.282172  1
  Si  Si20  1  0.631945  0.701816  0.815857  1
  Si  Si21  1  0.201520  0.870702  0.567376  1
  Si  Si22  1  0.132242  0.797230  0.933403  1
  Si  Si23  1  0.797771  0.130474  0.064001  1
  Si  Si24  1  0.867933  0.202686  0.434217  1
  Si  Si25  1  0.297672  0.368356  0.684889  1
  Si  Si26  1  0.699846  0.630624  0.183113  1
  Si  Si27  1  0.289695  0.039811  0.181121  1
  Si  Si28  1  0.710576  0.952047  0.686479  1
  Si  Si29  1  0.453361  0.792361  0.435318  1
  Si  Si30  1  0.208355  0.545223  0.064707  1
  Si  Si31  1  0.546183  0.208374  0.933381  1
  Si  Si32  1  0.788467  0.454382  0.567544  1
  Si  Si33  1  0.046286  0.290090  0.814903  1
  Si  Si34  1  0.957210  0.707300  0.313547  1
  Sn  Sn35  1  0.370557  0.299037  0.319540  1
