# generated using pymatgen
data_Th2Sc2BBr6
_symmetry_space_group_name_H-M   'P 1'
_cell_length_a   3.86631100
_cell_length_b   13.50144500
_cell_length_c   13.91785100
_cell_angle_alpha   90.00000000
_cell_angle_beta   90.00000000
_cell_angle_gamma   90.00000000
_symmetry_Int_Tables_number   1
_chemical_formula_structural   Th2Sc2BBr6
_chemical_formula_sum   'Th4 Sc4 B2 Br12'
_cell_volume   726.52275216
_cell_formula_units_Z   2
loop_
 _symmetry_equiv_pos_site_id
 _symmetry_equiv_pos_as_xyz
  1  'x, y, z'
loop_
 _atom_site_type_symbol
 _atom_site_label
 _atom_site_symmetry_multiplicity
 _atom_site_fract_x
 _atom_site_fract_y
 _atom_site_fract_z
 _atom_site_occupancy
  Th  Th0  1  0.000000  0.104575  0.083648  1
  Th  Th1  1  0.000000  0.895425  0.916352  1
  Th  Th2  1  0.000000  0.604575  0.416352  1
  Th  Th3  1  0.000000  0.395425  0.583648  1
  Sc  Sc4  1  0.500000  0.112883  0.866842  1
  Sc  Sc5  1  0.500000  0.887117  0.133158  1
  Sc  Sc6  1  0.500000  0.612883  0.633158  1
  Sc  Sc7  1  0.500000  0.387117  0.366842  1
  B  B8  1  0.500000  0.000000  0.000000  1
  B  B9  1  0.500000  0.500000  0.500000  1
  Br  Br10  1  0.500000  0.257313  0.691082  1
  Br  Br11  1  0.500000  0.742687  0.308918  1
  Br  Br12  1  0.500000  0.757313  0.808918  1
  Br  Br13  1  0.500000  0.242687  0.191082  1
  Br  Br14  1  0.000000  0.249583  0.922367  1
  Br  Br15  1  0.000000  0.750417  0.077633  1
  Br  Br16  1  0.000000  0.469892  0.247141  1
  Br  Br17  1  0.000000  0.530108  0.752859  1
  Br  Br18  1  0.000000  0.969892  0.252859  1
  Br  Br19  1  0.000000  0.030108  0.747141  1
  Br  Br20  1  0.000000  0.250417  0.422367  1
  Br  Br21  1  0.000000  0.749583  0.577633  1
