# generated using pymatgen
data_Sc6Co15Si7Ni
_symmetry_space_group_name_H-M   'P 1'
_cell_length_a   8.05805375
_cell_length_b   8.05805324
_cell_length_c   8.05805352
_cell_angle_alpha   60.09909343
_cell_angle_beta   60.09909436
_cell_angle_gamma   60.09909265
_symmetry_Int_Tables_number   1
_chemical_formula_structural   Sc6Co15Si7Ni
_chemical_formula_sum   'Sc6 Co15 Si7 Ni1'
_cell_volume   370.80831628
_cell_formula_units_Z   1
loop_
 _symmetry_equiv_pos_site_id
 _symmetry_equiv_pos_as_xyz
  1  'x, y, z'
loop_
 _atom_site_type_symbol
 _atom_site_label
 _atom_site_symmetry_multiplicity
 _atom_site_fract_x
 _atom_site_fract_y
 _atom_site_fract_z
 _atom_site_occupancy
  Sc  Sc0  1  0.712332  0.712332  0.287587  1
  Sc  Sc1  1  0.286339  0.716525  0.286339  1
  Sc  Sc2  1  0.716525  0.286339  0.286339  1
  Sc  Sc3  1  0.286339  0.286339  0.716525  1
  Sc  Sc4  1  0.712332  0.287587  0.712332  1
  Sc  Sc5  1  0.287587  0.712332  0.712332  1
  Co  Co6  1  0.879722  0.879722  0.360247  1
  Co  Co7  1  0.879722  0.360247  0.879722  1
  Co  Co8  1  0.360247  0.879722  0.879722  1
  Co  Co9  1  0.879909  0.879909  0.879909  1
  Co  Co10  1  0.119838  0.119838  0.639709  1
  Co  Co11  1  0.119838  0.639709  0.119838  1
  Co  Co12  1  0.639709  0.119838  0.119838  1
  Co  Co13  1  0.119789  0.119789  0.119789  1
  Co  Co14  1  0.672926  0.672926  0.979936  1
  Co  Co15  1  0.672926  0.979936  0.672926  1
  Co  Co16  1  0.979936  0.672926  0.672926  1
  Co  Co17  1  0.673531  0.673531  0.673531  1
  Co  Co18  1  0.326233  0.326233  0.019969  1
  Co  Co19  1  0.326233  0.019969  0.326233  1
  Co  Co20  1  0.019969  0.326233  0.326233  1
  Si  Si21  1  0.999992  0.999992  0.999992  1
  Si  Si22  1  0.999600  0.999600  0.501005  1
  Si  Si23  1  0.499861  0.998760  0.499861  1
  Si  Si24  1  0.998760  0.499861  0.499861  1
  Si  Si25  1  0.499861  0.499861  0.998760  1
  Si  Si26  1  0.999600  0.501005  0.999600  1
  Si  Si27  1  0.501005  0.999600  0.999600  1
  Ni  Ni28  1  0.329335  0.329335  0.329335  1
