# generated using pymatgen
data_FeRu(PtO4)2
_symmetry_space_group_name_H-M   'P 1'
_cell_length_a   5.56986899
_cell_length_b   5.56986795
_cell_length_c   5.56986884
_cell_angle_alpha   108.37334778
_cell_angle_beta   109.06556051
_cell_angle_gamma   110.98617056
_symmetry_Int_Tables_number   1
_chemical_formula_structural   FeRu(PtO4)2
_chemical_formula_sum   'Fe1 Ru1 Pt2 O8'
_cell_volume   132.94409865
_cell_formula_units_Z   1
loop_
 _symmetry_equiv_pos_site_id
 _symmetry_equiv_pos_as_xyz
  1  'x, y, z'
loop_
 _atom_site_type_symbol
 _atom_site_label
 _atom_site_symmetry_multiplicity
 _atom_site_fract_x
 _atom_site_fract_y
 _atom_site_fract_z
 _atom_site_occupancy
  Fe  Fe0  1  0.500777  0.000776  0.500000  1
  Ru  Ru1  1  0.745268  0.745268  0.000000  1
  Pt  Pt2  1  0.254799  0.254799  0.000000  1
  Pt  Pt3  1  0.002212  0.502211  0.500000  1
  O  O4  1  0.996720  0.186746  0.190025  1
  O  O5  1  0.502407  0.693064  0.190657  1
  O  O6  1  0.051545  0.751026  0.300518  1
  O  O7  1  0.557586  0.248304  0.309282  1
  O  O8  1  0.939021  0.248304  0.690717  1
  O  O9  1  0.450508  0.751026  0.699481  1
  O  O10  1  0.502406  0.311750  0.809342  1
  O  O11  1  0.996720  0.806694  0.809974  1
