# generated using pymatgen
data_Tb3CoNi5B2Ir
_symmetry_space_group_name_H-M   'P 1'
_cell_length_a   5.10954845
_cell_length_b   5.12617566
_cell_length_c   14.61414040
_cell_angle_alpha   90.09483679
_cell_angle_beta   89.97385206
_cell_angle_gamma   120.20477126
_symmetry_Int_Tables_number   1
_chemical_formula_structural   Tb3CoNi5B2Ir
_chemical_formula_sum   'Tb6 Co2 Ni10 B4 Ir2'
_cell_volume   330.81062215
_cell_formula_units_Z   2
loop_
 _symmetry_equiv_pos_site_id
 _symmetry_equiv_pos_as_xyz
  1  'x, y, z'
loop_
 _atom_site_type_symbol
 _atom_site_label
 _atom_site_symmetry_multiplicity
 _atom_site_fract_x
 _atom_site_fract_y
 _atom_site_fract_z
 _atom_site_occupancy
  Tb  Tb0  1  0.665665  0.332418  0.031466  1
  Tb  Tb1  1  0.333600  0.667206  0.966744  1
  Tb  Tb2  1  0.330463  0.665583  0.535747  1
  Tb  Tb3  1  0.664998  0.332220  0.470787  1
  Tb  Tb4  1  0.666514  0.333453  0.250868  1
  Tb  Tb5  1  0.333581  0.666617  0.749734  1
  Co  Co6  1  0.837879  0.674612  0.653592  1
  Co  Co7  1  0.837713  0.163554  0.653606  1
  Ni  Ni8  1  0.331263  0.165844  0.652325  1
  Ni  Ni9  1  0.164638  0.329437  0.347156  1
  Ni  Ni10  1  0.164723  0.834696  0.346968  1
  Ni  Ni11  1  0.670008  0.834836  0.347045  1
  Ni  Ni12  1  0.164447  0.329549  0.152709  1
  Ni  Ni13  1  0.164494  0.834656  0.152942  1
  Ni  Ni14  1  0.669358  0.834664  0.152852  1
  Ni  Ni15  1  0.835687  0.670494  0.846888  1
  Ni  Ni16  1  0.835561  0.165349  0.846814  1
  Ni  Ni17  1  0.331669  0.165868  0.846759  1
  B  B18  1  0.674072  0.337338  0.747238  1
  B  B19  1  0.332211  0.665457  0.249877  1
  B  B20  1  0.995088  0.997499  0.748322  1
  B  B21  1  0.000904  0.000926  0.249847  1
  Ir  Ir22  1  0.995704  0.997857  0.500165  1
  Ir  Ir23  1  0.999760  0.999867  0.999548  1
