# generated using pymatgen
data_LaCe3InHgRh4
_symmetry_space_group_name_H-M   'P 1'
_cell_length_a   7.71151889
_cell_length_b   7.71403931
_cell_length_c   3.76347900
_cell_angle_alpha   90.00000000
_cell_angle_beta   90.00000000
_cell_angle_gamma   88.96910800
_symmetry_Int_Tables_number   1
_chemical_formula_structural   LaCe3InHgRh4
_chemical_formula_sum   'La1 Ce3 In1 Hg1 Rh4'
_cell_volume   223.84168755
_cell_formula_units_Z   1
loop_
 _symmetry_equiv_pos_site_id
 _symmetry_equiv_pos_as_xyz
  1  'x, y, z'
loop_
 _atom_site_type_symbol
 _atom_site_label
 _atom_site_symmetry_multiplicity
 _atom_site_fract_x
 _atom_site_fract_y
 _atom_site_fract_z
 _atom_site_occupancy
  La  La0  1  0.673025  0.167083  0.500000  1
  Ce  Ce1  1  0.326881  0.830446  0.500000  1
  Ce  Ce2  1  0.166979  0.327276  0.500000  1
  Ce  Ce3  1  0.829952  0.670364  0.500000  1
  In  In4  1  0.497997  0.498152  0.000000  1
  Hg  Hg5  1  0.998713  0.997076  0.000000  1
  Rh  Rh6  1  0.147583  0.638600  0.000000  1
  Rh  Rh7  1  0.874610  0.385207  0.000000  1
  Rh  Rh8  1  0.628295  0.848288  0.000000  1
  Rh  Rh9  1  0.355964  0.137507  0.000000  1
