# generated using pymatgen
data_Eu2InPdPt
_symmetry_space_group_name_H-M   'P 1'
_cell_length_a   5.96726751
_cell_length_b   5.96726814
_cell_length_c   8.40346387
_cell_angle_alpha   77.51810116
_cell_angle_beta   77.51809579
_cell_angle_gamma   59.93222508
_symmetry_Int_Tables_number   1
_chemical_formula_structural   Eu2InPdPt
_chemical_formula_sum   'Eu4 In2 Pd2 Pt2'
_cell_volume   250.77752970
_cell_formula_units_Z   2
loop_
 _symmetry_equiv_pos_site_id
 _symmetry_equiv_pos_as_xyz
  1  'x, y, z'
loop_
 _atom_site_type_symbol
 _atom_site_label
 _atom_site_symmetry_multiplicity
 _atom_site_fract_x
 _atom_site_fract_y
 _atom_site_fract_z
 _atom_site_occupancy
  Eu  Eu0  1  0.504944  0.795275  0.351760  1
  Eu  Eu1  1  0.204725  0.495056  0.148240  1
  Eu  Eu2  1  0.498771  0.206676  0.649646  1
  Eu  Eu3  1  0.793324  0.501229  0.850354  1
  In  In4  1  0.848867  0.151133  0.250000  1
  In  In5  1  0.149590  0.850410  0.750000  1
  Pd  Pd6  1  0.271888  0.997774  0.998264  1
  Pd  Pd7  1  0.002226  0.728112  0.501736  1
  Pt  Pt8  1  0.726592  0.000929  0.003414  1
  Pt  Pt9  1  0.999071  0.273408  0.496586  1
