# generated using pymatgen
data_Pr12Ga3BiI12
_symmetry_space_group_name_H-M   'P 1'
_cell_length_a   11.08661257
_cell_length_b   11.08661333
_cell_length_c   10.84692200
_cell_angle_alpha   109.03384635
_cell_angle_beta   109.03384771
_cell_angle_gamma   109.90502853
_symmetry_Int_Tables_number   1
_chemical_formula_structural   Pr12Ga3BiI12
_chemical_formula_sum   'Pr12 Ga3 Bi1 I12'
_cell_volume   1031.80639332
_cell_formula_units_Z   1
loop_
 _symmetry_equiv_pos_site_id
 _symmetry_equiv_pos_as_xyz
  1  'x, y, z'
loop_
 _atom_site_type_symbol
 _atom_site_label
 _atom_site_symmetry_multiplicity
 _atom_site_fract_x
 _atom_site_fract_y
 _atom_site_fract_z
 _atom_site_occupancy
  Pr  Pr0  1  0.027532  0.263767  0.013767  1
  Pr  Pr1  1  0.770331  0.023747  0.501163  1
  Pr  Pr2  1  0.253416  0.729669  0.230831  1
  Pr  Pr3  1  0.476253  0.729669  0.998837  1
  Pr  Pr4  1  0.770331  0.246584  0.269169  1
  Pr  Pr5  1  0.016207  0.483793  0.750000  1
  Pr  Pr6  1  0.236233  0.263767  0.750000  1
  Pr  Pr7  1  0.476253  0.246584  0.477417  1
  Pr  Pr8  1  0.467587  0.483793  0.233793  1
  Pr  Pr9  1  0.253416  0.023747  0.022583  1
  Pr  Pr10  1  0.016207  0.032413  0.266207  1
  Pr  Pr11  1  0.236233  0.472468  0.486233  1
  Ga  Ga12  1  0.249125  0.498251  0.999125  1
  Ga  Ga13  1  0.249125  0.250875  0.250000  1
  Ga  Ga14  1  0.001749  0.250875  0.500875  1
  Bi  Bi15  1  0.500000  0.000000  0.250000  1
  I  I16  1  0.755032  0.744968  0.250000  1
  I  I17  1  0.991757  0.508243  0.250000  1
  I  I18  1  0.249355  0.756729  0.743104  1
  I  I19  1  0.755032  0.510065  0.505032  1
  I  I20  1  0.507373  0.250645  0.993749  1
  I  I21  1  0.743271  0.992627  0.986374  1
  I  I22  1  0.991757  0.983513  0.741757  1
  I  I23  1  0.516487  0.508243  0.758243  1
  I  I24  1  0.249355  0.992627  0.506251  1
  I  I25  1  0.743271  0.250645  0.756896  1
  I  I26  1  0.507373  0.756729  0.513626  1
  I  I27  1  0.989935  0.744968  0.994968  1
