# generated using pymatgen
data_MnCu6O8F
_symmetry_space_group_name_H-M   'P 1'
_cell_length_a   6.37813617
_cell_length_b   6.37813602
_cell_length_c   6.37813700
_cell_angle_alpha   60.00000009
_cell_angle_beta   60.00000088
_cell_angle_gamma   59.99999381
_symmetry_Int_Tables_number   1
_chemical_formula_structural   MnCu6O8F
_chemical_formula_sum   'Mn1 Cu6 O8 F1'
_cell_volume   183.47056233
_cell_formula_units_Z   1
loop_
 _symmetry_equiv_pos_site_id
 _symmetry_equiv_pos_as_xyz
  1  'x, y, z'
loop_
 _atom_site_type_symbol
 _atom_site_label
 _atom_site_symmetry_multiplicity
 _atom_site_fract_x
 _atom_site_fract_y
 _atom_site_fract_z
 _atom_site_occupancy
  Mn  Mn0  1  0.000000  0.000000  0.000000  1
  Cu  Cu1  1  0.000000  0.000000  0.500000  1
  Cu  Cu2  1  0.500000  0.000000  0.000000  1
  Cu  Cu3  1  0.000000  0.500000  0.000000  1
  Cu  Cu4  1  0.500000  0.500000  0.000000  1
  Cu  Cu5  1  0.000000  0.500000  0.500000  1
  Cu  Cu6  1  0.500000  0.000000  0.500000  1
  O  O7  1  0.140475  0.140475  0.578573  1
  O  O8  1  0.140475  0.578573  0.140475  1
  O  O9  1  0.578573  0.140475  0.140475  1
  O  O10  1  0.859525  0.421427  0.859525  1
  O  O11  1  0.140475  0.140475  0.140475  1
  O  O12  1  0.859525  0.859525  0.859525  1
  O  O13  1  0.859525  0.859525  0.421427  1
  O  O14  1  0.421427  0.859525  0.859525  1
  F  F15  1  0.500000  0.500000  0.500000  1
