# generated using pymatgen
data_Sr9CaSi5As
_symmetry_space_group_name_H-M   'P 1'
_cell_length_a   9.68212419
_cell_length_b   9.68212450
_cell_length_c   9.68212403
_cell_angle_alpha   130.95377476
_cell_angle_beta   130.95377824
_cell_angle_gamma   71.88653083
_symmetry_Int_Tables_number   1
_chemical_formula_structural   Sr9CaSi5As
_chemical_formula_sum   'Sr9 Ca1 Si5 As1'
_cell_volume   506.36540415
_cell_formula_units_Z   1
loop_
 _symmetry_equiv_pos_site_id
 _symmetry_equiv_pos_as_xyz
  1  'x, y, z'
loop_
 _atom_site_type_symbol
 _atom_site_label
 _atom_site_symmetry_multiplicity
 _atom_site_fract_x
 _atom_site_fract_y
 _atom_site_fract_z
 _atom_site_occupancy
  Sr  Sr0  1  0.537659  0.039828  0.858997  1
  Sr  Sr1  1  0.180831  0.678662  0.141003  1
  Sr  Sr2  1  0.039828  0.180831  0.502169  1
  Sr  Sr3  1  0.678662  0.537659  0.497831  1
  Sr  Sr4  1  0.464615  0.957789  0.140971  1
  Sr  Sr5  1  0.816818  0.323644  0.859029  1
  Sr  Sr6  1  0.957789  0.816818  0.493175  1
  Sr  Sr7  1  0.323644  0.464615  0.506825  1
  Sr  Sr8  1  0.998320  0.998320  0.000000  1
  Ca  Ca9  1  0.502161  0.502161  0.000000  1
  Si  Si10  1  0.750544  0.750544  0.000000  1
  Si  Si11  1  0.886459  0.393378  0.279949  1
  Si  Si12  1  0.113429  0.606509  0.720051  1
  Si  Si13  1  0.393378  0.113429  0.506919  1
  Si  Si14  1  0.606509  0.886459  0.493081  1
  As  As15  1  0.249354  0.249354  0.000000  1
