# generated using pymatgen
data_Lu5GaBiRu
_symmetry_space_group_name_H-M   'P 1'
_cell_length_a   8.57152705
_cell_length_b   8.57152670
_cell_length_c   8.69492184
_cell_angle_alpha   126.49656489
_cell_angle_beta   126.49655740
_cell_angle_gamma   78.07250402
_symmetry_Int_Tables_number   1
_chemical_formula_structural   Lu5GaBiRu
_chemical_formula_sum   'Lu10 Ga2 Bi2 Ru2'
_cell_volume   402.00177522
_cell_formula_units_Z   2
loop_
 _symmetry_equiv_pos_site_id
 _symmetry_equiv_pos_as_xyz
  1  'x, y, z'
loop_
 _atom_site_type_symbol
 _atom_site_label
 _atom_site_symmetry_multiplicity
 _atom_site_fract_x
 _atom_site_fract_y
 _atom_site_fract_z
 _atom_site_occupancy
  Lu  Lu0  1  0.000000  0.000000  0.000000  1
  Lu  Lu1  1  0.500000  0.500000  0.000000  1
  Lu  Lu2  1  0.781134  0.281134  0.790650  1
  Lu  Lu3  1  0.218866  0.718866  0.209350  1
  Lu  Lu4  1  0.490485  0.990485  0.209350  1
  Lu  Lu5  1  0.307738  0.461535  0.500000  1
  Lu  Lu6  1  0.038465  0.192262  0.500000  1
  Lu  Lu7  1  0.509515  0.009515  0.790650  1
  Lu  Lu8  1  0.692262  0.538465  0.500000  1
  Lu  Lu9  1  0.961535  0.807738  0.500000  1
  Ga  Ga10  1  0.138412  0.638412  0.776824  1
  Ga  Ga11  1  0.861588  0.361588  0.223176  1
  Bi  Bi12  1  0.250000  0.250000  0.000000  1
  Bi  Bi13  1  0.750000  0.750000  0.000000  1
  Ru  Ru14  1  0.635492  0.864508  0.500000  1
  Ru  Ru15  1  0.364508  0.135492  0.500000  1
