# generated using pymatgen
data_La5Pr3(TmRu2)2
_symmetry_space_group_name_H-M   'P 1'
_cell_length_a   6.64475403
_cell_length_b   7.25283840
_cell_length_c   9.01359391
_cell_angle_alpha   95.27718424
_cell_angle_beta   111.38413625
_cell_angle_gamma   89.99116186
_symmetry_Int_Tables_number   1
_chemical_formula_structural   La5Pr3(TmRu2)2
_chemical_formula_sum   'La5 Pr3 Tm2 Ru4'
_cell_volume   402.51435596
_cell_formula_units_Z   1
loop_
 _symmetry_equiv_pos_site_id
 _symmetry_equiv_pos_as_xyz
  1  'x, y, z'
loop_
 _atom_site_type_symbol
 _atom_site_label
 _atom_site_symmetry_multiplicity
 _atom_site_fract_x
 _atom_site_fract_y
 _atom_site_fract_z
 _atom_site_occupancy
  La  La0  1  0.795252  0.092598  0.815578  1
  La  La1  1  0.978617  0.406945  0.184830  1
  La  La2  1  0.206807  0.906106  0.185542  1
  La  La3  1  0.019291  0.592119  0.816050  1
  La  La4  1  0.211200  0.181148  0.578194  1
  Pr  Pr5  1  0.635510  0.313751  0.427354  1
  Pr  Pr6  1  0.790730  0.813706  0.425444  1
  Pr  Pr7  1  0.365055  0.684767  0.571507  1
  Tm  Tm8  1  0.434067  0.250166  0.002564  1
  Tm  Tm9  1  0.566834  0.750969  0.998667  1
  Ru  Ru10  1  0.605710  0.418670  0.787975  1
  Ru  Ru11  1  0.818002  0.081586  0.209645  1
  Ru  Ru12  1  0.389369  0.581528  0.209100  1
  Ru  Ru13  1  0.183555  0.925942  0.787550  1
