# generated using pymatgen
data_Zr6Al16Co3Cu4
_symmetry_space_group_name_H-M   'P 1'
_cell_length_a   8.59080505
_cell_length_b   8.57542369
_cell_length_c   8.59080501
_cell_angle_alpha   60.05920333
_cell_angle_beta   59.88159120
_cell_angle_gamma   60.05920543
_symmetry_Int_Tables_number   1
_chemical_formula_structural   Zr6Al16Co3Cu4
_chemical_formula_sum   'Zr6 Al16 Co3 Cu4'
_cell_volume   447.51287572
_cell_formula_units_Z   1
loop_
 _symmetry_equiv_pos_site_id
 _symmetry_equiv_pos_as_xyz
  1  'x, y, z'
loop_
 _atom_site_type_symbol
 _atom_site_label
 _atom_site_symmetry_multiplicity
 _atom_site_fract_x
 _atom_site_fract_y
 _atom_site_fract_z
 _atom_site_occupancy
  Zr  Zr0  1  0.691429  0.691429  0.308571  1
  Zr  Zr1  1  0.303221  0.696779  0.303221  1
  Zr  Zr2  1  0.691429  0.308571  0.308571  1
  Zr  Zr3  1  0.308571  0.308571  0.691429  1
  Zr  Zr4  1  0.696779  0.303221  0.696779  1
  Zr  Zr5  1  0.308571  0.691429  0.691429  1
  Al  Al6  1  0.875075  0.886715  0.351496  1
  Al  Al7  1  0.886715  0.351496  0.886715  1
  Al  Al8  1  0.351496  0.886715  0.875075  1
  Al  Al9  1  0.886715  0.875075  0.886715  1
  Al  Al10  1  0.124925  0.113285  0.648504  1
  Al  Al11  1  0.113285  0.648504  0.113285  1
  Al  Al12  1  0.648504  0.113285  0.124925  1
  Al  Al13  1  0.113285  0.124925  0.113285  1
  Al  Al14  1  0.672067  0.664075  0.999784  1
  Al  Al15  1  0.664075  0.999784  0.664075  1
  Al  Al16  1  0.999784  0.664075  0.672067  1
  Al  Al17  1  0.664075  0.672067  0.664075  1
  Al  Al18  1  0.327933  0.335925  0.000216  1
  Al  Al19  1  0.335925  0.000216  0.335925  1
  Al  Al20  1  0.000216  0.335925  0.327933  1
  Al  Al21  1  0.335925  0.327933  0.335925  1
  Co  Co22  1  0.000000  0.000000  0.000000  1
  Co  Co23  1  0.500000  0.000000  0.500000  1
  Co  Co24  1  0.000000  0.500000  0.000000  1
  Cu  Cu25  1  0.000000  0.000000  0.500000  1
  Cu  Cu26  1  0.000000  0.500000  0.500000  1
  Cu  Cu27  1  0.500000  0.500000  0.000000  1
  Cu  Cu28  1  0.500000  0.000000  0.000000  1
