# generated using pymatgen
data_Nd4TeSe3
_symmetry_space_group_name_H-M   'P 1'
_cell_length_a   4.22069200
_cell_length_b   4.22069107
_cell_length_c   14.72020900
_cell_angle_alpha   90.00000000
_cell_angle_beta   90.00000000
_cell_angle_gamma   119.99999159
_symmetry_Int_Tables_number   1
_chemical_formula_structural   Nd4TeSe3
_chemical_formula_sum   'Nd4 Te1 Se3'
_cell_volume   227.09724813
_cell_formula_units_Z   1
loop_
 _symmetry_equiv_pos_site_id
 _symmetry_equiv_pos_as_xyz
  1  'x, y, z'
loop_
 _atom_site_type_symbol
 _atom_site_label
 _atom_site_symmetry_multiplicity
 _atom_site_fract_x
 _atom_site_fract_y
 _atom_site_fract_z
 _atom_site_occupancy
  Nd  Nd0  1  0.333333  0.666667  0.895541  1
  Nd  Nd1  1  0.666667  0.333333  0.118894  1
  Nd  Nd2  1  0.666667  0.333333  0.381106  1
  Nd  Nd3  1  0.333333  0.666667  0.604459  1
  Te  Te4  1  0.666667  0.333333  0.750000  1
  Se  Se5  1  0.333333  0.666667  0.250000  1
  Se  Se6  1  0.000000  0.000000  0.492640  1
  Se  Se7  1  0.000000  0.000000  0.007360  1
