# generated using pymatgen
data_Lu8Ga7(Si3Tc4)3
_symmetry_space_group_name_H-M   'P 1'
_cell_length_a   6.80643748
_cell_length_b   6.81562501
_cell_length_c   12.75385467
_cell_angle_alpha   89.87435946
_cell_angle_beta   90.07971591
_cell_angle_gamma   89.86334545
_symmetry_Int_Tables_number   1
_chemical_formula_structural   Lu8Ga7(Si3Tc4)3
_chemical_formula_sum   'Lu8 Ga7 Si9 Tc12'
_cell_volume   591.64923697
_cell_formula_units_Z   1
loop_
 _symmetry_equiv_pos_site_id
 _symmetry_equiv_pos_as_xyz
  1  'x, y, z'
loop_
 _atom_site_type_symbol
 _atom_site_label
 _atom_site_symmetry_multiplicity
 _atom_site_fract_x
 _atom_site_fract_y
 _atom_site_fract_z
 _atom_site_occupancy
  Lu  Lu0  1  0.490730  0.333383  0.093787  1
  Lu  Lu1  1  0.992082  0.167567  0.406893  1
  Lu  Lu2  1  0.511116  0.667439  0.592642  1
  Lu  Lu3  1  0.009296  0.834525  0.906181  1
  Lu  Lu4  1  0.516040  0.667356  0.905725  1
  Lu  Lu5  1  0.013925  0.831743  0.593229  1
  Lu  Lu6  1  0.488650  0.333146  0.406863  1
  Lu  Lu7  1  0.984365  0.168020  0.094135  1
  Ga  Ga8  1  0.663812  0.050715  0.551365  1
  Ga  Ga9  1  0.164945  0.450221  0.949901  1
  Ga  Ga10  1  0.335598  0.949058  0.050207  1
  Ga  Ga11  1  0.526711  0.353602  0.745524  1
  Ga  Ga12  1  0.023169  0.147857  0.751202  1
  Ga  Ga13  1  0.471732  0.647097  0.247407  1
  Ga  Ga14  1  0.974462  0.857173  0.252402  1
  Si  Si15  1  0.841306  0.550537  0.449529  1
  Si  Si16  1  0.343684  0.947347  0.448573  1
  Si  Si17  1  0.841854  0.550442  0.050590  1
  Si  Si18  1  0.656741  0.050785  0.949842  1
  Si  Si19  1  0.159078  0.450394  0.550218  1
  Si  Si20  1  0.812057  0.636931  0.749976  1
  Si  Si21  1  0.311304  0.862593  0.749694  1
  Si  Si22  1  0.190445  0.362915  0.249965  1
  Si  Si23  1  0.687469  0.134729  0.250962  1
  Tc  Tc24  1  0.831463  0.363544  0.619515  1
  Tc  Tc25  1  0.331490  0.144534  0.873324  1
  Tc  Tc26  1  0.164186  0.643753  0.126728  1
  Tc  Tc27  1  0.673652  0.847067  0.377766  1
  Tc  Tc28  1  0.171561  0.644246  0.382465  1
  Tc  Tc29  1  0.684618  0.852642  0.119446  1
  Tc  Tc30  1  0.817288  0.353137  0.881378  1
  Tc  Tc31  1  0.315057  0.146141  0.617843  1
  Tc  Tc32  1  0.666212  0.979125  0.754038  1
  Tc  Tc33  1  0.166882  0.519526  0.745929  1
  Tc  Tc34  1  0.334704  0.020114  0.253847  1
  Tc  Tc35  1  0.832318  0.480597  0.250905  1
