# generated using pymatgen
data_CaLa2Pr4RuBr12
_symmetry_space_group_name_H-M   'P 1'
_cell_length_a   9.37561025
_cell_length_b   9.76901451
_cell_length_c   9.72890700
_cell_angle_alpha   107.77841154
_cell_angle_beta   106.39558250
_cell_angle_gamma   106.86808260
_symmetry_Int_Tables_number   1
_chemical_formula_structural   CaLa2Pr4RuBr12
_chemical_formula_sum   'Ca1 La2 Pr4 Ru1 Br12'
_cell_volume   741.72531661
_cell_formula_units_Z   1
loop_
 _symmetry_equiv_pos_site_id
 _symmetry_equiv_pos_as_xyz
  1  'x, y, z'
loop_
 _atom_site_type_symbol
 _atom_site_label
 _atom_site_symmetry_multiplicity
 _atom_site_fract_x
 _atom_site_fract_y
 _atom_site_fract_z
 _atom_site_occupancy
  Ca  Ca0  1  0.499429  0.499939  0.499038  1
  La  La1  1  0.976718  0.674345  0.886719  1
  La  La2  1  0.700623  0.898812  0.975787  1
  Pr  Pr3  1  0.302881  0.103667  0.024792  1
  Pr  Pr4  1  0.023503  0.321659  0.112856  1
  Pr  Pr5  1  0.113706  0.028060  0.323055  1
  Pr  Pr6  1  0.887382  0.971875  0.677815  1
  Ru  Ru7  1  0.988110  0.995230  0.999551  1
  Br  Br8  1  0.680536  0.221179  0.071315  1
  Br  Br9  1  0.378750  0.454531  0.168728  1
  Br  Br10  1  0.073583  0.686801  0.218048  1
  Br  Br11  1  0.782670  0.929114  0.318863  1
  Br  Br12  1  0.464106  0.172454  0.377150  1
  Br  Br13  1  0.161921  0.376793  0.459040  1
  Br  Br14  1  0.837444  0.623890  0.539105  1
  Br  Br15  1  0.534920  0.826769  0.616366  1
  Br  Br16  1  0.221303  0.072777  0.687874  1
  Br  Br17  1  0.928416  0.313086  0.784339  1
  Br  Br18  1  0.617893  0.539648  0.826695  1
  Br  Br19  1  0.326106  0.789371  0.932863  1
