# generated using pymatgen
data_Ac7YbTl3InSi8
_symmetry_space_group_name_H-M   'P 1'
_cell_length_a   4.51908100
_cell_length_b   8.12146803
_cell_length_c   15.35704065
_cell_angle_alpha   90.68879857
_cell_angle_beta   90.00000000
_cell_angle_gamma   90.00000000
_symmetry_Int_Tables_number   1
_chemical_formula_structural   Ac7YbTl3InSi8
_chemical_formula_sum   'Ac7 Yb1 Tl3 In1 Si8'
_cell_volume   563.58680277
_cell_formula_units_Z   1
loop_
 _symmetry_equiv_pos_site_id
 _symmetry_equiv_pos_as_xyz
  1  'x, y, z'
loop_
 _atom_site_type_symbol
 _atom_site_label
 _atom_site_symmetry_multiplicity
 _atom_site_fract_x
 _atom_site_fract_y
 _atom_site_fract_z
 _atom_site_occupancy
  Ac  Ac0  1  0.500000  0.749575  0.031552  1
  Ac  Ac1  1  0.500000  0.240335  0.960961  1
  Ac  Ac2  1  0.500000  0.256561  0.467572  1
  Ac  Ac3  1  0.500000  0.747845  0.539383  1
  Ac  Ac4  1  0.500000  0.618723  0.282847  1
  Ac  Ac5  1  0.500000  0.384567  0.720566  1
  Ac  Ac6  1  0.500000  0.119877  0.215548  1
  Yb  Yb7  1  0.500000  0.883732  0.781698  1
  Tl  Tl8  1  0.000000  0.942107  0.378541  1
  Tl  Tl9  1  0.000000  0.052480  0.628903  1
  Tl  Tl10  1  0.000000  0.441278  0.119585  1
  In  In11  1  0.000000  0.576713  0.871617  1
  Si  Si12  1  0.000000  0.549500  0.428135  1
  Si  Si13  1  0.000000  0.459239  0.579116  1
  Si  Si14  1  0.000000  0.041566  0.069861  1
  Si  Si15  1  0.000000  0.937712  0.919294  1
  Si  Si16  1  0.000000  0.834928  0.180821  1
  Si  Si17  1  0.000000  0.154890  0.815250  1
  Si  Si18  1  0.000000  0.333026  0.319847  1
  Si  Si19  1  0.000000  0.675347  0.688906  1
