# generated using pymatgen
data_Ho2Si7Ir12
_symmetry_space_group_name_H-M   'P 1'
_cell_length_a   9.76073300
_cell_length_b   9.76073175
_cell_length_c   3.87607200
_cell_angle_alpha   90.00000000
_cell_angle_beta   90.00000000
_cell_angle_gamma   120.00000764
_symmetry_Int_Tables_number   1
_chemical_formula_structural   Ho2Si7Ir12
_chemical_formula_sum   'Ho2 Si7 Ir12'
_cell_volume   319.80646887
_cell_formula_units_Z   1
loop_
 _symmetry_equiv_pos_site_id
 _symmetry_equiv_pos_as_xyz
  1  'x, y, z'
loop_
 _atom_site_type_symbol
 _atom_site_label
 _atom_site_symmetry_multiplicity
 _atom_site_fract_x
 _atom_site_fract_y
 _atom_site_fract_z
 _atom_site_occupancy
  Ho  Ho0  1  0.333333  0.666667  0.749797  1
  Ho  Ho1  1  0.666667  0.333333  0.250203  1
  Si  Si2  1  0.000000  0.000000  0.500000  1
  Si  Si3  1  0.405133  0.290465  0.751711  1
  Si  Si4  1  0.709535  0.114668  0.751711  1
  Si  Si5  1  0.885332  0.594867  0.751711  1
  Si  Si6  1  0.594867  0.709535  0.248289  1
  Si  Si7  1  0.290465  0.885332  0.248289  1
  Si  Si8  1  0.114668  0.405133  0.248289  1
  Ir  Ir9  1  0.444261  0.063524  0.751012  1
  Ir  Ir10  1  0.936476  0.380736  0.751012  1
  Ir  Ir11  1  0.619264  0.555739  0.751012  1
  Ir  Ir12  1  0.555739  0.936476  0.248988  1
  Ir  Ir13  1  0.063524  0.619264  0.248988  1
  Ir  Ir14  1  0.380736  0.444261  0.248988  1
  Ir  Ir15  1  0.144515  0.262144  0.746440  1
  Ir  Ir16  1  0.737856  0.882370  0.746440  1
  Ir  Ir17  1  0.117630  0.855485  0.746440  1
  Ir  Ir18  1  0.855485  0.737856  0.253560  1
  Ir  Ir19  1  0.262144  0.117630  0.253560  1
  Ir  Ir20  1  0.882370  0.144515  0.253560  1
