# generated using pymatgen
data_La2Ce2Zn7CuRu2
_symmetry_space_group_name_H-M   'P 1'
_cell_length_a   7.23056565
_cell_length_b   7.23056565
_cell_length_c   5.18647395
_cell_angle_alpha   90.18002599
_cell_angle_beta   90.18002599
_cell_angle_gamma   90.42069310
_symmetry_Int_Tables_number   1
_chemical_formula_structural   La2Ce2Zn7CuRu2
_chemical_formula_sum   'La2 Ce2 Zn7 Cu1 Ru2'
_cell_volume   271.14445124
_cell_formula_units_Z   1
loop_
 _symmetry_equiv_pos_site_id
 _symmetry_equiv_pos_as_xyz
  1  'x, y, z'
loop_
 _atom_site_type_symbol
 _atom_site_label
 _atom_site_symmetry_multiplicity
 _atom_site_fract_x
 _atom_site_fract_y
 _atom_site_fract_z
 _atom_site_occupancy
  La  La0  1  0.003896  0.503896  0.769400  1
  La  La1  1  0.495921  0.995921  0.227915  1
  Ce  Ce2  1  0.003496  0.997253  0.004947  1
  Ce  Ce3  1  0.497253  0.503496  0.004947  1
  Zn  Zn4  1  0.819627  0.685709  0.291441  1
  Zn  Zn5  1  0.813001  0.313001  0.288783  1
  Zn  Zn6  1  0.314263  0.185637  0.709716  1
  Zn  Zn7  1  0.185709  0.319627  0.291441  1
  Zn  Zn8  1  0.686490  0.186490  0.713767  1
  Zn  Zn9  1  0.685637  0.814263  0.709716  1
  Zn  Zn10  1  0.310540  0.810540  0.701901  1
  Cu  Cu11  1  0.182662  0.682662  0.283385  1
  Ru  Ru12  1  0.503344  0.498163  0.501321  1
  Ru  Ru13  1  0.998163  0.003344  0.501321  1
