# generated using pymatgen
data_LiYHo15Cd3Co4
_symmetry_space_group_name_H-M   'P 1'
_cell_length_a   9.45232392
_cell_length_b   9.45232257
_cell_length_c   9.48311385
_cell_angle_alpha   59.94884773
_cell_angle_beta   59.94885186
_cell_angle_gamma   59.75281776
_symmetry_Int_Tables_number   1
_chemical_formula_structural   LiYHo15Cd3Co4
_chemical_formula_sum   'Li1 Y1 Ho15 Cd3 Co4'
_cell_volume   597.53077417
_cell_formula_units_Z   1
loop_
 _symmetry_equiv_pos_site_id
 _symmetry_equiv_pos_as_xyz
  1  'x, y, z'
loop_
 _atom_site_type_symbol
 _atom_site_label
 _atom_site_symmetry_multiplicity
 _atom_site_fract_x
 _atom_site_fract_y
 _atom_site_fract_z
 _atom_site_occupancy
  Li  Li0  1  0.571164  0.571164  0.284419  1
  Y  Y1  1  0.936608  0.936608  0.563718  1
  Ho  Ho2  1  0.812829  0.185460  0.185946  1
  Ho  Ho3  1  0.937805  0.563047  0.563175  1
  Ho  Ho4  1  0.939736  0.559844  0.939517  1
  Ho  Ho5  1  0.813253  0.813253  0.184585  1
  Ho  Ho6  1  0.344201  0.344201  0.344963  1
  Ho  Ho7  1  0.559844  0.939736  0.939517  1
  Ho  Ho8  1  0.563047  0.937805  0.563175  1
  Ho  Ho9  1  0.188408  0.811636  0.809915  1
  Ho  Ho10  1  0.188537  0.188537  0.809645  1
  Ho  Ho11  1  0.347898  0.347898  0.958601  1
  Ho  Ho12  1  0.345237  0.965978  0.347184  1
  Ho  Ho13  1  0.811636  0.188408  0.809915  1
  Ho  Ho14  1  0.561941  0.561941  0.937679  1
  Ho  Ho15  1  0.185460  0.812829  0.185946  1
  Ho  Ho16  1  0.965978  0.345237  0.347184  1
  Cd  Cd17  1  0.258662  0.579988  0.578191  1
  Cd  Cd18  1  0.581532  0.581532  0.576780  1
  Cd  Cd19  1  0.579988  0.258662  0.578191  1
  Co  Co20  1  0.578309  0.142720  0.138623  1
  Co  Co21  1  0.143150  0.143150  0.136775  1
  Co  Co22  1  0.142720  0.578309  0.138623  1
  Co  Co23  1  0.142062  0.142062  0.577741  1
