# generated using pymatgen
data_LiOs5O12
_symmetry_space_group_name_H-M   'P 1'
_cell_length_a   4.59891909
_cell_length_b   4.59891852
_cell_length_c   9.43414500
_cell_angle_alpha   90.00000000
_cell_angle_beta   90.00000000
_cell_angle_gamma   90.76389198
_symmetry_Int_Tables_number   1
_chemical_formula_structural   LiOs5O12
_chemical_formula_sum   'Li1 Os5 O12'
_cell_volume   199.51494433
_cell_formula_units_Z   1
loop_
 _symmetry_equiv_pos_site_id
 _symmetry_equiv_pos_as_xyz
  1  'x, y, z'
loop_
 _atom_site_type_symbol
 _atom_site_label
 _atom_site_symmetry_multiplicity
 _atom_site_fract_x
 _atom_site_fract_y
 _atom_site_fract_z
 _atom_site_occupancy
  Li  Li0  1  0.000000  0.000000  0.000000  1
  Os  Os1  1  0.000000  0.000000  0.330776  1
  Os  Os2  1  0.000000  0.000000  0.669224  1
  Os  Os3  1  0.500000  0.500000  0.164598  1
  Os  Os4  1  0.500000  0.500000  0.500000  1
  Os  Os5  1  0.500000  0.500000  0.835402  1
  O  O6  1  0.193071  0.193071  0.500000  1
  O  O7  1  0.212514  0.212514  0.186944  1
  O  O8  1  0.212514  0.212514  0.813056  1
  O  O9  1  0.683533  0.316467  0.000000  1
  O  O10  1  0.698120  0.301880  0.338150  1
  O  O11  1  0.698120  0.301880  0.661850  1
  O  O12  1  0.301880  0.698120  0.338150  1
  O  O13  1  0.301880  0.698120  0.661850  1
  O  O14  1  0.316467  0.683533  0.000000  1
  O  O15  1  0.787486  0.787486  0.186944  1
  O  O16  1  0.787486  0.787486  0.813056  1
  O  O17  1  0.806929  0.806929  0.500000  1
