# generated using pymatgen
data_Y2TiSi3Ir3Rh
_symmetry_space_group_name_H-M   'P 1'
_cell_length_a   4.07418100
_cell_length_b   4.07418100
_cell_length_c   10.44688300
_cell_angle_alpha   90.00000000
_cell_angle_beta   90.00000000
_cell_angle_gamma   90.00000000
_symmetry_Int_Tables_number   1
_chemical_formula_structural   Y2TiSi3Ir3Rh
_chemical_formula_sum   'Y2 Ti1 Si3 Ir3 Rh1'
_cell_volume   173.40729715
_cell_formula_units_Z   1
loop_
 _symmetry_equiv_pos_site_id
 _symmetry_equiv_pos_as_xyz
  1  'x, y, z'
loop_
 _atom_site_type_symbol
 _atom_site_label
 _atom_site_symmetry_multiplicity
 _atom_site_fract_x
 _atom_site_fract_y
 _atom_site_fract_z
 _atom_site_occupancy
  Y  Y0  1  0.500000  0.000000  0.241153  1
  Y  Y1  1  0.000000  0.500000  0.758847  1
  Ti  Ti2  1  0.500000  0.500000  0.500000  1
  Si  Si3  1  0.000000  0.000000  0.500000  1
  Si  Si4  1  0.000000  0.500000  0.125962  1
  Si  Si5  1  0.500000  0.000000  0.874038  1
  Ir  Ir6  1  0.000000  0.500000  0.356512  1
  Ir  Ir7  1  0.500000  0.000000  0.643488  1
  Ir  Ir8  1  0.500000  0.500000  0.000000  1
  Rh  Rh9  1  0.000000  0.000000  0.000000  1
