# generated using pymatgen
data_LaYb3(ReC2)2
_symmetry_space_group_name_H-M   'P 1'
_cell_length_a   5.19947600
_cell_length_b   6.60375173
_cell_length_c   10.52928049
_cell_angle_alpha   90.07205171
_cell_angle_beta   90.00000000
_cell_angle_gamma   90.00000000
_symmetry_Int_Tables_number   1
_chemical_formula_structural   LaYb3(ReC2)2
_chemical_formula_sum   'La2 Yb6 Re4 C8'
_cell_volume   361.53360147
_cell_formula_units_Z   2
loop_
 _symmetry_equiv_pos_site_id
 _symmetry_equiv_pos_as_xyz
  1  'x, y, z'
loop_
 _atom_site_type_symbol
 _atom_site_label
 _atom_site_symmetry_multiplicity
 _atom_site_fract_x
 _atom_site_fract_y
 _atom_site_fract_z
 _atom_site_occupancy
  La  La0  1  0.250000  0.713474  0.548652  1
  La  La1  1  0.750000  0.286526  0.451348  1
  Yb  Yb2  1  0.750000  0.802917  0.046108  1
  Yb  Yb3  1  0.250000  0.197083  0.953892  1
  Yb  Yb4  1  0.250000  0.535981  0.209743  1
  Yb  Yb5  1  0.750000  0.464019  0.790257  1
  Yb  Yb6  1  0.750000  0.974228  0.746863  1
  Yb  Yb7  1  0.250000  0.025772  0.253137  1
  Re  Re8  1  0.250000  0.736565  0.860447  1
  Re  Re9  1  0.750000  0.263435  0.139553  1
  Re  Re10  1  0.750000  0.765132  0.342504  1
  Re  Re11  1  0.250000  0.234868  0.657496  1
  C  C12  1  0.250000  0.474661  0.764833  1
  C  C13  1  0.750000  0.525339  0.235167  1
  C  C14  1  0.750000  0.029170  0.251354  1
  C  C15  1  0.250000  0.970830  0.748646  1
  C  C16  1  0.250000  0.798930  0.034109  1
  C  C17  1  0.750000  0.201070  0.965891  1
  C  C18  1  0.750000  0.710586  0.517906  1
  C  C19  1  0.250000  0.289414  0.482094  1
