# generated using pymatgen
data_Lu(S8I)3
_symmetry_space_group_name_H-M   'P 1'
_cell_length_a   15.65622710
_cell_length_b   15.65622758
_cell_length_c   15.65622690
_cell_angle_alpha   119.23561154
_cell_angle_beta   119.23561216
_cell_angle_gamma   119.23561216
_symmetry_Int_Tables_number   1
_chemical_formula_structural   Lu(S8I)3
_chemical_formula_sum   'Lu1 S24 I3'
_cell_volume   869.93302504
_cell_formula_units_Z   1
loop_
 _symmetry_equiv_pos_site_id
 _symmetry_equiv_pos_as_xyz
  1  'x, y, z'
loop_
 _atom_site_type_symbol
 _atom_site_label
 _atom_site_symmetry_multiplicity
 _atom_site_fract_x
 _atom_site_fract_y
 _atom_site_fract_z
 _atom_site_occupancy
  Lu  Lu0  1  0.448690  0.448690  0.448690  1
  S  S1  1  0.992571  0.581479  0.581479  1
  S  S2  1  0.581479  0.581479  0.992571  1
  S  S3  1  0.581479  0.992571  0.581479  1
  S  S4  1  0.252088  0.857109  0.732073  1
  S  S5  1  0.857109  0.732073  0.252088  1
  S  S6  1  0.732073  0.252088  0.857109  1
  S  S7  1  0.857109  0.252088  0.732073  1
  S  S8  1  0.252088  0.732073  0.857109  1
  S  S9  1  0.732073  0.857109  0.252088  1
  S  S10  1  0.083801  0.608078  0.430847  1
  S  S11  1  0.608078  0.430847  0.083801  1
  S  S12  1  0.430847  0.083801  0.608078  1
  S  S13  1  0.608078  0.083801  0.430847  1
  S  S14  1  0.083801  0.430847  0.608078  1
  S  S15  1  0.430847  0.608078  0.083801  1
  S  S16  1  0.379900  0.768417  0.642778  1
  S  S17  1  0.768417  0.642778  0.379900  1
  S  S18  1  0.642778  0.379900  0.768417  1
  S  S19  1  0.768417  0.379900  0.642778  1
  S  S20  1  0.379900  0.642778  0.768417  1
  S  S21  1  0.642778  0.768417  0.379900  1
  S  S22  1  0.174559  0.457065  0.457065  1
  S  S23  1  0.457065  0.457065  0.174559  1
  S  S24  1  0.457065  0.174559  0.457065  1
  I  I25  1  0.044375  0.899819  0.899819  1
  I  I26  1  0.899819  0.899819  0.044375  1
  I  I27  1  0.899819  0.044375  0.899819  1
