# generated using pymatgen
data_HoSc4Pa3(ReB6)4
_symmetry_space_group_name_H-M   'P 1'
_cell_length_a   3.63047900
_cell_length_b   8.99989345
_cell_length_c   11.37045008
_cell_angle_alpha   90.08531051
_cell_angle_beta   90.00000000
_cell_angle_gamma   90.00000000
_symmetry_Int_Tables_number   1
_chemical_formula_structural   HoSc4Pa3(ReB6)4
_chemical_formula_sum   'Ho1 Sc4 Pa3 Re4 B24'
_cell_volume   371.51681201
_cell_formula_units_Z   1
loop_
 _symmetry_equiv_pos_site_id
 _symmetry_equiv_pos_as_xyz
  1  'x, y, z'
loop_
 _atom_site_type_symbol
 _atom_site_label
 _atom_site_symmetry_multiplicity
 _atom_site_fract_x
 _atom_site_fract_y
 _atom_site_fract_z
 _atom_site_occupancy
  Ho  Ho0  1  0.000000  0.181276  0.913328  1
  Sc  Sc1  1  0.000000  0.946159  0.374840  1
  Sc  Sc2  1  0.000000  0.055070  0.626649  1
  Sc  Sc3  1  0.000000  0.444086  0.124371  1
  Sc  Sc4  1  0.000000  0.553421  0.874679  1
  Pa  Pa5  1  0.000000  0.319342  0.413883  1
  Pa  Pa6  1  0.000000  0.679965  0.586719  1
  Pa  Pa7  1  0.000000  0.821418  0.085523  1
  Re  Re8  1  0.000000  0.640500  0.319530  1
  Re  Re9  1  0.000000  0.361468  0.678644  1
  Re  Re10  1  0.000000  0.140011  0.182682  1
  Re  Re11  1  0.000000  0.857658  0.819013  1
  B  B12  1  0.500000  0.554741  0.432509  1
  B  B13  1  0.500000  0.445487  0.567059  1
  B  B14  1  0.500000  0.054626  0.067491  1
  B  B15  1  0.500000  0.944908  0.932646  1
  B  B16  1  0.500000  0.753736  0.419395  1
  B  B17  1  0.500000  0.246590  0.581581  1
  B  B18  1  0.500000  0.253029  0.080058  1
  B  B19  1  0.500000  0.747222  0.919415  1
  B  B20  1  0.500000  0.794439  0.264643  1
  B  B21  1  0.500000  0.205497  0.735624  1
  B  B22  1  0.500000  0.294526  0.234181  1
  B  B23  1  0.500000  0.705428  0.765135  1
  B  B24  1  0.500000  0.629662  0.182292  1
  B  B25  1  0.500000  0.370021  0.817320  1
  B  B26  1  0.500000  0.129925  0.317285  1
  B  B27  1  0.500000  0.870299  0.683466  1
  B  B28  1  0.500000  0.981746  0.213964  1
  B  B29  1  0.500000  0.019046  0.785756  1
  B  B30  1  0.500000  0.481791  0.284563  1
  B  B31  1  0.500000  0.517777  0.715436  1
  B  B32  1  0.500000  0.599545  0.027290  1
  B  B33  1  0.500000  0.399460  0.972323  1
  B  B34  1  0.500000  0.100449  0.472986  1
  B  B35  1  0.500000  0.899674  0.527723  1
