# generated using pymatgen
data_Sc12Al4Zn3Au5C4
_symmetry_space_group_name_H-M   'P 1'
_cell_length_a   8.71894965
_cell_length_b   8.73419044
_cell_length_c   8.71894934
_cell_angle_alpha   60.11952790
_cell_angle_beta   60.07513213
_cell_angle_gamma   60.11954407
_symmetry_Int_Tables_number   1
_chemical_formula_structural   Sc12Al4Zn3Au5C4
_chemical_formula_sum   'Sc12 Al4 Zn3 Au5 C4'
_cell_volume   470.61436650
_cell_formula_units_Z   1
loop_
 _symmetry_equiv_pos_site_id
 _symmetry_equiv_pos_as_xyz
  1  'x, y, z'
loop_
 _atom_site_type_symbol
 _atom_site_label
 _atom_site_symmetry_multiplicity
 _atom_site_fract_x
 _atom_site_fract_y
 _atom_site_fract_z
 _atom_site_occupancy
  Sc  Sc0  1  0.806309  0.195273  0.806309  1
  Sc  Sc1  1  0.058647  0.443168  0.443056  1
  Sc  Sc2  1  0.442478  0.054971  0.058660  1
  Sc  Sc3  1  0.056223  0.443674  0.056223  1
  Sc  Sc4  1  0.443056  0.443168  0.058647  1
  Sc  Sc5  1  0.058660  0.054971  0.442478  1
  Sc  Sc6  1  0.806723  0.807299  0.194551  1
  Sc  Sc7  1  0.194551  0.807299  0.806723  1
  Sc  Sc8  1  0.806756  0.192924  0.192523  1
  Sc  Sc9  1  0.192523  0.192924  0.806756  1
  Sc  Sc10  1  0.442470  0.057288  0.442470  1
  Sc  Sc11  1  0.192793  0.807135  0.192793  1
  Al  Al12  1  0.627735  0.626235  0.627735  1
  Al  Al13  1  0.127553  0.624208  0.624184  1
  Al  Al14  1  0.625925  0.123638  0.625925  1
  Al  Al15  1  0.624184  0.624208  0.127553  1
  Zn  Zn16  1  0.420896  0.418024  0.743930  1
  Zn  Zn17  1  0.743930  0.418024  0.420896  1
  Zn  Zn18  1  0.831770  0.831186  0.831770  1
  Au  Au19  1  0.416820  0.410496  0.416820  1
  Au  Au20  1  0.489943  0.838237  0.839380  1
  Au  Au21  1  0.837591  0.493492  0.837591  1
  Au  Au22  1  0.839380  0.838237  0.489943  1
  Au  Au23  1  0.418505  0.752038  0.418505  1
  C  C24  1  0.125656  0.129148  0.125656  1
  C  C25  1  0.625165  0.124982  0.120642  1
  C  C26  1  0.123115  0.622776  0.123115  1
  C  C27  1  0.120642  0.124982  0.625165  1
