# generated using pymatgen
data_La2Cd(InIr6)3
_symmetry_space_group_name_H-M   'P 1'
_cell_length_a   8.94992328
_cell_length_b   8.94992328
_cell_length_c   5.21094200
_cell_angle_alpha   90.00000000
_cell_angle_beta   90.00000000
_cell_angle_gamma   89.97144789
_symmetry_Int_Tables_number   1
_chemical_formula_structural   La2Cd(InIr6)3
_chemical_formula_sum   'La2 Cd1 In3 Ir18'
_cell_volume   417.40227343
_cell_formula_units_Z   1
loop_
 _symmetry_equiv_pos_site_id
 _symmetry_equiv_pos_as_xyz
  1  'x, y, z'
loop_
 _atom_site_type_symbol
 _atom_site_label
 _atom_site_symmetry_multiplicity
 _atom_site_fract_x
 _atom_site_fract_y
 _atom_site_fract_z
 _atom_site_occupancy
  La  La0  1  0.499862  0.499103  0.000000  1
  La  La1  1  0.999103  0.999862  0.000000  1
  Cd  Cd2  1  0.620432  0.120432  0.000000  1
  In  In3  1  0.381100  0.881100  0.000000  1
  In  In4  1  0.120976  0.379394  0.000000  1
  In  In5  1  0.879394  0.620976  0.000000  1
  Ir  Ir6  1  0.499539  0.999539  0.500000  1
  Ir  Ir7  1  0.000390  0.500390  0.500000  1
  Ir  Ir8  1  0.703655  0.557740  0.500000  1
  Ir  Ir9  1  0.296590  0.441826  0.500000  1
  Ir  Ir10  1  0.202928  0.942378  0.500000  1
  Ir  Ir11  1  0.794989  0.058666  0.500000  1
  Ir  Ir12  1  0.442378  0.702928  0.500000  1
  Ir  Ir13  1  0.558666  0.294989  0.500000  1
  Ir  Ir14  1  0.057740  0.203655  0.500000  1
  Ir  Ir15  1  0.941826  0.796590  0.500000  1
  Ir  Ir16  1  0.820849  0.320849  0.757256  1
  Ir  Ir17  1  0.180182  0.680182  0.757101  1
  Ir  Ir18  1  0.319700  0.179486  0.757203  1
  Ir  Ir19  1  0.679486  0.819700  0.757203  1
  Ir  Ir20  1  0.180182  0.680182  0.242899  1
  Ir  Ir21  1  0.820849  0.320849  0.242744  1
  Ir  Ir22  1  0.679486  0.819700  0.242797  1
  Ir  Ir23  1  0.319700  0.179486  0.242797  1
