# generated using pymatgen
data_Rb8YEr5BeBr20
_symmetry_space_group_name_H-M   'P 1'
_cell_length_a   12.27160367
_cell_length_b   12.27268074
_cell_length_c   12.27268205
_cell_angle_alpha   59.99420042
_cell_angle_beta   60.00290842
_cell_angle_gamma   60.00290232
_symmetry_Int_Tables_number   1
_chemical_formula_structural   Rb8YEr5BeBr20
_chemical_formula_sum   'Rb8 Y1 Er5 Be1 Br20'
_cell_volume   1306.96895610
_cell_formula_units_Z   1
loop_
 _symmetry_equiv_pos_site_id
 _symmetry_equiv_pos_as_xyz
  1  'x, y, z'
loop_
 _atom_site_type_symbol
 _atom_site_label
 _atom_site_symmetry_multiplicity
 _atom_site_fract_x
 _atom_site_fract_y
 _atom_site_fract_z
 _atom_site_occupancy
  Rb  Rb0  1  0.358876  0.358803  0.358803  1
  Rb  Rb1  1  0.641184  0.641213  0.641213  1
  Rb  Rb2  1  0.358787  0.358816  0.923611  1
  Rb  Rb3  1  0.358787  0.923611  0.358816  1
  Rb  Rb4  1  0.641197  0.641124  0.076481  1
  Rb  Rb5  1  0.641197  0.076481  0.641124  1
  Rb  Rb6  1  0.923519  0.358803  0.358803  1
  Rb  Rb7  1  0.076389  0.641213  0.641213  1
  Y  Y8  1  0.845663  0.154337  0.154337  1
  Er  Er9  1  0.154770  0.845230  0.845230  1
  Er  Er10  1  0.154657  0.845343  0.154525  1
  Er  Er11  1  0.845475  0.154525  0.845343  1
  Er  Er12  1  0.154657  0.154525  0.845343  1
  Er  Er13  1  0.845475  0.845343  0.154525  1
  Be  Be14  1  0.000286  0.999714  0.999714  1
  Br  Br15  1  0.329824  0.000001  0.000001  1
  Br  Br16  1  0.670173  0.000001  0.000001  1
  Br  Br17  1  0.999999  0.329827  0.670176  1
  Br  Br18  1  0.999999  0.670176  0.329827  1
  Br  Br19  1  0.001240  0.330822  0.998760  1
  Br  Br20  1  0.669178  0.998760  0.330822  1
  Br  Br21  1  0.000013  0.670176  0.999987  1
  Br  Br22  1  0.329824  0.999987  0.670176  1
  Br  Br23  1  0.001240  0.998760  0.330822  1
  Br  Br24  1  0.000013  0.999987  0.670176  1
  Br  Br25  1  0.669178  0.330822  0.998760  1
  Br  Br26  1  0.329824  0.670176  0.999987  1
  Br  Br27  1  0.679473  0.320527  0.320527  1
  Br  Br28  1  0.319375  0.680625  0.680625  1
  Br  Br29  1  0.319419  0.680581  0.319401  1
  Br  Br30  1  0.680599  0.319401  0.680581  1
  Br  Br31  1  0.319419  0.319401  0.680581  1
  Br  Br32  1  0.680599  0.680581  0.319401  1
  Br  Br33  1  0.249846  0.250154  0.250154  1
  Br  Br34  1  0.749846  0.750154  0.750154  1
