# generated using pymatgen
data_Er6Sb7Rh16
_symmetry_space_group_name_H-M   'P 1'
_cell_length_a   9.04781196
_cell_length_b   9.04781144
_cell_length_c   9.04781200
_cell_angle_alpha   59.99999795
_cell_angle_beta   59.99999987
_cell_angle_gamma   60.00000011
_symmetry_Int_Tables_number   1
_chemical_formula_structural   Er6Sb7Rh16
_chemical_formula_sum   'Er6 Sb7 Rh16'
_cell_volume   523.73991198
_cell_formula_units_Z   1
loop_
 _symmetry_equiv_pos_site_id
 _symmetry_equiv_pos_as_xyz
  1  'x, y, z'
loop_
 _atom_site_type_symbol
 _atom_site_label
 _atom_site_symmetry_multiplicity
 _atom_site_fract_x
 _atom_site_fract_y
 _atom_site_fract_z
 _atom_site_occupancy
  Er  Er0  1  0.712995  0.712995  0.287005  1
  Er  Er1  1  0.287005  0.712995  0.287005  1
  Er  Er2  1  0.712995  0.287005  0.287005  1
  Er  Er3  1  0.287005  0.287005  0.712995  1
  Er  Er4  1  0.712995  0.287005  0.712995  1
  Er  Er5  1  0.287005  0.712995  0.712995  1
  Sb  Sb6  1  0.000000  0.000000  0.000000  1
  Sb  Sb7  1  0.000000  0.000000  0.500000  1
  Sb  Sb8  1  0.500000  0.000000  0.500000  1
  Sb  Sb9  1  0.000000  0.500000  0.500000  1
  Sb  Sb10  1  0.500000  0.500000  0.000000  1
  Sb  Sb11  1  0.000000  0.500000  0.000000  1
  Sb  Sb12  1  0.500000  0.000000  0.000000  1
  Rh  Rh13  1  0.880583  0.880583  0.358250  1
  Rh  Rh14  1  0.880583  0.358250  0.880583  1
  Rh  Rh15  1  0.358250  0.880583  0.880583  1
  Rh  Rh16  1  0.880583  0.880583  0.880583  1
  Rh  Rh17  1  0.119417  0.119417  0.641750  1
  Rh  Rh18  1  0.119417  0.641750  0.119417  1
  Rh  Rh19  1  0.641750  0.119417  0.119417  1
  Rh  Rh20  1  0.119417  0.119417  0.119417  1
  Rh  Rh21  1  0.663122  0.663122  0.010632  1
  Rh  Rh22  1  0.663122  0.010632  0.663122  1
  Rh  Rh23  1  0.010632  0.663122  0.663122  1
  Rh  Rh24  1  0.663122  0.663122  0.663122  1
  Rh  Rh25  1  0.336878  0.336878  0.989368  1
  Rh  Rh26  1  0.336878  0.989368  0.336878  1
  Rh  Rh27  1  0.989368  0.336878  0.336878  1
  Rh  Rh28  1  0.336878  0.336878  0.336878  1
