# generated using pymatgen
data_Dy4Fe12P12Ir5Rh3
_symmetry_space_group_name_H-M   'P 1'
_cell_length_a   3.80041800
_cell_length_b   10.29546291
_cell_length_c   12.21514709
_cell_angle_alpha   89.95164282
_cell_angle_beta   90.00000000
_cell_angle_gamma   90.00000000
_symmetry_Int_Tables_number   1
_chemical_formula_structural   Dy4Fe12P12Ir5Rh3
_chemical_formula_sum   'Dy4 Fe12 P12 Ir5 Rh3'
_cell_volume   477.94265438
_cell_formula_units_Z   1
loop_
 _symmetry_equiv_pos_site_id
 _symmetry_equiv_pos_as_xyz
  1  'x, y, z'
loop_
 _atom_site_type_symbol
 _atom_site_label
 _atom_site_symmetry_multiplicity
 _atom_site_fract_x
 _atom_site_fract_y
 _atom_site_fract_z
 _atom_site_occupancy
  Dy  Dy0  1  0.250000  0.581034  0.712831  1
  Dy  Dy1  1  0.250000  0.919121  0.212990  1
  Dy  Dy2  1  0.750000  0.419006  0.287171  1
  Dy  Dy3  1  0.750000  0.081308  0.787261  1
  Fe  Fe4  1  0.250000  0.222754  0.170246  1
  Fe  Fe5  1  0.250000  0.276341  0.669835  1
  Fe  Fe6  1  0.750000  0.777360  0.829714  1
  Fe  Fe7  1  0.750000  0.722687  0.329665  1
  Fe  Fe8  1  0.250000  0.877259  0.696317  1
  Fe  Fe9  1  0.250000  0.623146  0.196519  1
  Fe  Fe10  1  0.750000  0.123075  0.304297  1
  Fe  Fe11  1  0.750000  0.377072  0.803825  1
  Fe  Fe12  1  0.250000  0.458423  0.935788  1
  Fe  Fe13  1  0.250000  0.042665  0.436519  1
  Fe  Fe14  1  0.750000  0.541585  0.064164  1
  Fe  Fe15  1  0.750000  0.959094  0.563658  1
  P  P16  1  0.250000  0.429826  0.112450  1
  P  P17  1  0.250000  0.070259  0.612780  1
  P  P18  1  0.750000  0.570325  0.887664  1
  P  P19  1  0.750000  0.928761  0.387105  1
  P  P20  1  0.250000  0.273472  0.852539  1
  P  P21  1  0.250000  0.226571  0.351971  1
  P  P22  1  0.750000  0.726757  0.147404  1
  P  P23  1  0.750000  0.773282  0.647428  1
  P  P24  1  0.250000  0.605193  0.376137  1
  P  P25  1  0.250000  0.894752  0.875958  1
  P  P26  1  0.750000  0.394999  0.624514  1
  P  P27  1  0.750000  0.105215  0.124065  1
  Ir  Ir28  1  0.750000  0.209059  0.515968  1
  Ir  Ir29  1  0.250000  0.404882  0.475987  1
  Ir  Ir30  1  0.250000  0.094216  0.976614  1
  Ir  Ir31  1  0.750000  0.593613  0.523008  1
  Ir  Ir32  1  0.750000  0.905813  0.023288  1
  Rh  Rh33  1  0.250000  0.709177  0.984453  1
  Rh  Rh34  1  0.250000  0.791053  0.484240  1
  Rh  Rh35  1  0.750000  0.290844  0.015625  1
