# generated using pymatgen
data_Ho4CrOs6W
_symmetry_space_group_name_H-M   'P 1'
_cell_length_a   5.20739667
_cell_length_b   5.20739604
_cell_length_c   8.88108400
_cell_angle_alpha   90.00000000
_cell_angle_beta   90.00000000
_cell_angle_gamma   116.11149258
_symmetry_Int_Tables_number   1
_chemical_formula_structural   Ho4CrOs6W
_chemical_formula_sum   'Ho4 Cr1 Os6 W1'
_cell_volume   216.24906253
_cell_formula_units_Z   1
loop_
 _symmetry_equiv_pos_site_id
 _symmetry_equiv_pos_as_xyz
  1  'x, y, z'
loop_
 _atom_site_type_symbol
 _atom_site_label
 _atom_site_symmetry_multiplicity
 _atom_site_fract_x
 _atom_site_fract_y
 _atom_site_fract_z
 _atom_site_occupancy
  Ho  Ho0  1  0.328404  0.671596  0.436978  1
  Ho  Ho1  1  0.667193  0.332807  0.566645  1
  Ho  Ho2  1  0.667193  0.332807  0.933355  1
  Ho  Ho3  1  0.328404  0.671596  0.063022  1
  Cr  Cr4  1  0.173139  0.826861  0.750000  1
  Os  Os5  1  0.998905  0.001095  0.506304  1
  Os  Os6  1  0.998905  0.001095  0.993696  1
  Os  Os7  1  0.826741  0.650796  0.250000  1
  Os  Os8  1  0.349204  0.173259  0.250000  1
  Os  Os9  1  0.171988  0.348307  0.750000  1
  Os  Os10  1  0.651693  0.828012  0.750000  1
  W  W11  1  0.838230  0.161770  0.250000  1
