# generated using pymatgen
data_SrCaCu18Si7Ge
_symmetry_space_group_name_H-M   'P 1'
_cell_length_a   8.19652549
_cell_length_b   8.19439942
_cell_length_c   8.21041624
_cell_angle_alpha   120.52863374
_cell_angle_beta   120.54172618
_cell_angle_gamma   89.14294518
_symmetry_Int_Tables_number   1
_chemical_formula_structural   SrCaCu18Si7Ge
_chemical_formula_sum   'Sr1 Ca1 Cu18 Si7 Ge1'
_cell_volume   386.50593429
_cell_formula_units_Z   1
loop_
 _symmetry_equiv_pos_site_id
 _symmetry_equiv_pos_as_xyz
  1  'x, y, z'
loop_
 _atom_site_type_symbol
 _atom_site_label
 _atom_site_symmetry_multiplicity
 _atom_site_fract_x
 _atom_site_fract_y
 _atom_site_fract_z
 _atom_site_occupancy
  Sr  Sr0  1  0.750060  0.749816  0.999822  1
  Ca  Ca1  1  0.250703  0.250020  0.000011  1
  Cu  Cu2  1  0.934554  0.200129  0.139038  1
  Cu  Cu3  1  0.203546  0.065011  0.268316  1
  Cu  Cu4  1  0.796364  0.932145  0.730827  1
  Cu  Cu5  1  0.431168  0.295410  0.730919  1
  Cu  Cu6  1  0.067035  0.799002  0.863619  1
  Cu  Cu7  1  0.807408  0.055248  0.495594  1
  Cu  Cu8  1  0.553171  0.305542  0.491680  1
  Cu  Cu9  1  0.193109  0.943878  0.503363  1
  Cu  Cu10  1  0.442088  0.691333  0.499713  1
  Cu  Cu11  1  0.942411  0.440887  0.739242  1
  Cu  Cu12  1  0.691376  0.193228  0.250875  1
  Cu  Cu13  1  0.066137  0.564556  0.265008  1
  Cu  Cu14  1  0.698978  0.433624  0.138811  1
  Cu  Cu15  1  0.564000  0.702597  0.268296  1
  Cu  Cu16  1  0.498052  0.998165  0.498517  1
  Cu  Cu17  1  0.000492  0.500589  0.499317  1
  Cu  Cu18  1  0.306688  0.808553  0.749537  1
  Cu  Cu19  1  0.297992  0.566117  0.863607  1
  Si  Si20  1  0.556254  0.057833  0.850422  1
  Si  Si21  1  0.058992  0.208005  0.499974  1
  Si  Si22  1  0.292219  0.440628  0.500308  1
  Si  Si23  1  0.942068  0.793631  0.502979  1
  Si  Si24  1  0.440959  0.942358  0.149504  1
  Si  Si25  1  0.206155  0.704513  0.147369  1
  Si  Si26  1  0.706727  0.557802  0.497529  1
  Ge  Ge27  1  0.801289  0.299377  0.855810  1
