# generated using pymatgen
data_U2GeIr3
_symmetry_space_group_name_H-M   'P 1'
_cell_length_a   5.56699900
_cell_length_b   5.56694681
_cell_length_c   7.87060000
_cell_angle_alpha   90.00000000
_cell_angle_beta   90.00000000
_cell_angle_gamma   120.00031609
_symmetry_Int_Tables_number   1
_chemical_formula_structural   U2GeIr3
_chemical_formula_sum   'U4 Ge2 Ir6'
_cell_volume   211.23958444
_cell_formula_units_Z   2
loop_
 _symmetry_equiv_pos_site_id
 _symmetry_equiv_pos_as_xyz
  1  'x, y, z'
loop_
 _atom_site_type_symbol
 _atom_site_label
 _atom_site_symmetry_multiplicity
 _atom_site_fract_x
 _atom_site_fract_y
 _atom_site_fract_z
 _atom_site_occupancy
  U  U0  1  0.666633  0.333266  0.575603  1
  U  U1  1  0.333367  0.666734  0.424397  1
  U  U2  1  0.333367  0.666734  0.075603  1
  U  U3  1  0.666633  0.333266  0.924397  1
  Ge  Ge4  1  0.000000  0.000000  0.000000  1
  Ge  Ge5  1  0.000000  0.000000  0.500000  1
  Ir  Ir6  1  0.170530  0.341059  0.750000  1
  Ir  Ir7  1  0.658788  0.829304  0.750000  1
  Ir  Ir8  1  0.170517  0.829304  0.750000  1
  Ir  Ir9  1  0.829470  0.658941  0.250000  1
  Ir  Ir10  1  0.341212  0.170696  0.250000  1
  Ir  Ir11  1  0.829483  0.170696  0.250000  1
