# generated using pymatgen
data_SmY4Th3(ReB6)4
_symmetry_space_group_name_H-M   'P 1'
_cell_length_a   3.75962100
_cell_length_b   9.26687635
_cell_length_c   11.69218501
_cell_angle_alpha   89.90758088
_cell_angle_beta   90.00000000
_cell_angle_gamma   90.00000000
_symmetry_Int_Tables_number   1
_chemical_formula_structural   SmY4Th3(ReB6)4
_chemical_formula_sum   'Sm1 Y4 Th3 Re4 B24'
_cell_volume   407.35452861
_cell_formula_units_Z   1
loop_
 _symmetry_equiv_pos_site_id
 _symmetry_equiv_pos_as_xyz
  1  'x, y, z'
loop_
 _atom_site_type_symbol
 _atom_site_label
 _atom_site_symmetry_multiplicity
 _atom_site_fract_x
 _atom_site_fract_y
 _atom_site_fract_z
 _atom_site_occupancy
  Sm  Sm0  1  0.000000  0.677362  0.586401  1
  Y  Y1  1  0.000000  0.444602  0.127155  1
  Y  Y2  1  0.000000  0.556527  0.871433  1
  Y  Y3  1  0.000000  0.942406  0.372616  1
  Y  Y4  1  0.000000  0.055789  0.628122  1
  Th  Th5  1  0.000000  0.821478  0.085584  1
  Th  Th6  1  0.000000  0.178554  0.913664  1
  Th  Th7  1  0.000000  0.323668  0.414476  1
  Re  Re8  1  0.000000  0.138393  0.179970  1
  Re  Re9  1  0.000000  0.862466  0.820580  1
  Re  Re10  1  0.000000  0.638732  0.320251  1
  Re  Re11  1  0.000000  0.360690  0.679557  1
  B  B12  1  0.500000  0.055576  0.070370  1
  B  B13  1  0.500000  0.944366  0.929607  1
  B  B14  1  0.500000  0.555456  0.431410  1
  B  B15  1  0.500000  0.445479  0.569281  1
  B  B16  1  0.500000  0.249088  0.083379  1
  B  B17  1  0.500000  0.750682  0.916116  1
  B  B18  1  0.500000  0.748351  0.418023  1
  B  B19  1  0.500000  0.251927  0.583199  1
  B  B20  1  0.500000  0.290316  0.233539  1
  B  B21  1  0.500000  0.708859  0.765783  1
  B  B22  1  0.500000  0.790001  0.267370  1
  B  B23  1  0.500000  0.209848  0.733032  1
  B  B24  1  0.500000  0.130253  0.313853  1
  B  B25  1  0.500000  0.868823  0.685582  1
  B  B26  1  0.500000  0.630606  0.186730  1
  B  B27  1  0.500000  0.370045  0.812984  1
  B  B28  1  0.500000  0.485375  0.287096  1
  B  B29  1  0.500000  0.516374  0.712956  1
  B  B30  1  0.500000  0.984697  0.213896  1
  B  B31  1  0.500000  0.014900  0.785991  1
  B  B32  1  0.500000  0.101222  0.471790  1
  B  B33  1  0.500000  0.896849  0.528929  1
  B  B34  1  0.500000  0.604119  0.028326  1
  B  B35  1  0.500000  0.396120  0.970946  1
