# generated using pymatgen
data_La3Tb7IrRu3
_symmetry_space_group_name_H-M   'P 1'
_cell_length_a   6.51118458
_cell_length_b   7.23453962
_cell_length_c   8.80264692
_cell_angle_alpha   96.01038774
_cell_angle_beta   111.48789429
_cell_angle_gamma   90.38553551
_symmetry_Int_Tables_number   1
_chemical_formula_structural   La3Tb7IrRu3
_chemical_formula_sum   'La3 Tb7 Ir1 Ru3'
_cell_volume   383.25537827
_cell_formula_units_Z   1
loop_
 _symmetry_equiv_pos_site_id
 _symmetry_equiv_pos_as_xyz
  1  'x, y, z'
loop_
 _atom_site_type_symbol
 _atom_site_label
 _atom_site_symmetry_multiplicity
 _atom_site_fract_x
 _atom_site_fract_y
 _atom_site_fract_z
 _atom_site_occupancy
  La  La0  1  0.980938  0.909583  0.192286  1
  La  La1  1  0.788621  0.589316  0.807269  1
  La  La2  1  0.018258  0.091046  0.808044  1
  Tb  Tb3  1  0.210996  0.418737  0.190336  1
  Tb  Tb4  1  0.638100  0.814134  0.433562  1
  Tb  Tb5  1  0.207087  0.681315  0.565831  1
  Tb  Tb6  1  0.357874  0.186482  0.566266  1
  Tb  Tb7  1  0.787577  0.316610  0.429576  1
  Tb  Tb8  1  0.425875  0.748101  0.998196  1
  Tb  Tb9  1  0.574833  0.251700  0.002538  1
  Ir  Ir10  1  0.407867  0.076707  0.226021  1
  Ru  Ru11  1  0.828453  0.577951  0.224814  1
  Ru  Ru12  1  0.602696  0.919225  0.774602  1
  Ru  Ru13  1  0.170825  0.419091  0.780659  1
