# generated using pymatgen
data_DyScBe2GaIr5
_symmetry_space_group_name_H-M   'P 1'
_cell_length_a   9.57587215
_cell_length_b   9.57587215
_cell_length_c   3.17549900
_cell_angle_alpha   90.00000000
_cell_angle_beta   90.00000000
_cell_angle_gamma   89.19013508
_symmetry_Int_Tables_number   1
_chemical_formula_structural   DyScBe2GaIr5
_chemical_formula_sum   'Dy2 Sc2 Be4 Ga2 Ir10'
_cell_volume   291.15568360
_cell_formula_units_Z   2
loop_
 _symmetry_equiv_pos_site_id
 _symmetry_equiv_pos_as_xyz
  1  'x, y, z'
loop_
 _atom_site_type_symbol
 _atom_site_label
 _atom_site_symmetry_multiplicity
 _atom_site_fract_x
 _atom_site_fract_y
 _atom_site_fract_z
 _atom_site_occupancy
  Dy  Dy0  1  0.677144  0.177144  0.000000  1
  Dy  Dy1  1  0.322856  0.822856  0.000000  1
  Sc  Sc2  1  0.174565  0.325435  0.000000  1
  Sc  Sc3  1  0.825435  0.674565  0.000000  1
  Be  Be4  1  0.121076  0.621076  0.000000  1
  Be  Be5  1  0.878924  0.378924  0.000000  1
  Be  Be6  1  0.624817  0.875183  0.000000  1
  Be  Be7  1  0.375183  0.124817  0.000000  1
  Ga  Ga8  1  0.000000  0.000000  0.000000  1
  Ga  Ga9  1  0.500000  0.500000  0.000000  1
  Ir  Ir10  1  0.208693  0.073598  0.500000  1
  Ir  Ir11  1  0.791307  0.926402  0.500000  1
  Ir  Ir12  1  0.059838  0.785779  0.500000  1
  Ir  Ir13  1  0.714221  0.440162  0.500000  1
  Ir  Ir14  1  0.940162  0.214221  0.500000  1
  Ir  Ir15  1  0.285779  0.559838  0.500000  1
  Ir  Ir16  1  0.573598  0.708693  0.500000  1
  Ir  Ir17  1  0.426402  0.291307  0.500000  1
  Ir  Ir18  1  0.500000  0.000000  0.500000  1
  Ir  Ir19  1  0.000000  0.500000  0.500000  1
