# generated using pymatgen
data_Pm2ReTc3
_symmetry_space_group_name_H-M   'P 1'
_cell_length_a   5.34299924
_cell_length_b   5.61452687
_cell_length_c   5.62683216
_cell_angle_alpha   60.07393008
_cell_angle_beta   58.31871591
_cell_angle_gamma   58.30840638
_symmetry_Int_Tables_number   1
_chemical_formula_structural   Pm2ReTc3
_chemical_formula_sum   'Pm2 Re1 Tc3'
_cell_volume   116.28452974
_cell_formula_units_Z   1
loop_
 _symmetry_equiv_pos_site_id
 _symmetry_equiv_pos_as_xyz
  1  'x, y, z'
loop_
 _atom_site_type_symbol
 _atom_site_label
 _atom_site_symmetry_multiplicity
 _atom_site_fract_x
 _atom_site_fract_y
 _atom_site_fract_z
 _atom_site_occupancy
  Pm  Pm0  1  0.753419  0.748900  0.748814  1
  Pm  Pm1  1  0.996581  0.001100  0.001186  1
  Re  Re2  1  0.875000  0.375000  0.375000  1
  Tc  Tc3  1  0.375000  0.875000  0.375000  1
  Tc  Tc4  1  0.375000  0.375000  0.875000  1
  Tc  Tc5  1  0.375000  0.375000  0.375000  1
