# generated using pymatgen
data_SrEu(Ga4O7)2
_symmetry_space_group_name_H-M   'P 1'
_cell_length_a   8.24599707
_cell_length_b   8.24599706
_cell_length_c   5.76721251
_cell_angle_alpha   77.34995705
_cell_angle_beta   77.34996590
_cell_angle_gamma   68.63657760
_symmetry_Int_Tables_number   1
_chemical_formula_structural   SrEu(Ga4O7)2
_chemical_formula_sum   'Sr1 Eu1 Ga8 O14'
_cell_volume   352.13277924
_cell_formula_units_Z   1
loop_
 _symmetry_equiv_pos_site_id
 _symmetry_equiv_pos_as_xyz
  1  'x, y, z'
loop_
 _atom_site_type_symbol
 _atom_site_label
 _atom_site_symmetry_multiplicity
 _atom_site_fract_x
 _atom_site_fract_y
 _atom_site_fract_z
 _atom_site_occupancy
  Sr  Sr0  1  0.690597  0.309403  0.250000  1
  Eu  Eu1  1  0.311367  0.688633  0.750000  1
  Ga  Ga2  1  0.755122  0.580137  0.698714  1
  Ga  Ga3  1  0.419863  0.244878  0.801286  1
  Ga  Ga4  1  0.244389  0.420790  0.301045  1
  Ga  Ga5  1  0.579210  0.755611  0.198955  1
  Ga  Ga6  1  0.058514  0.180375  0.742317  1
  Ga  Ga7  1  0.819625  0.941486  0.757683  1
  Ga  Ga8  1  0.181274  0.057500  0.242494  1
  Ga  Ga9  1  0.942501  0.818726  0.257505  1
  O  O10  1  0.037590  0.962410  0.750000  1
  O  O11  1  0.965409  0.034591  0.250000  1
  O  O12  1  0.874664  0.363233  0.854328  1
  O  O13  1  0.636767  0.125336  0.645672  1
  O  O14  1  0.127473  0.638029  0.140410  1
  O  O15  1  0.361971  0.872527  0.359590  1
  O  O16  1  0.332860  0.435982  0.563017  1
  O  O17  1  0.564018  0.667140  0.936983  1
  O  O18  1  0.748603  0.872560  0.092221  1
  O  O19  1  0.127440  0.251397  0.407779  1
  O  O20  1  0.252380  0.125654  0.908051  1
  O  O21  1  0.874346  0.747620  0.591949  1
  O  O22  1  0.432003  0.337987  0.059302  1
  O  O23  1  0.662012  0.567998  0.440699  1
