# generated using pymatgen
data_ErSc3(Zn4Ru)2
_symmetry_space_group_name_H-M   'P 1'
_cell_length_a   6.85870500
_cell_length_b   6.85870500
_cell_length_c   4.99522900
_cell_angle_alpha   90.00000000
_cell_angle_beta   90.00000000
_cell_angle_gamma   90.00000000
_symmetry_Int_Tables_number   1
_chemical_formula_structural   ErSc3(Zn4Ru)2
_chemical_formula_sum   'Er1 Sc3 Zn8 Ru2'
_cell_volume   234.98473479
_cell_formula_units_Z   1
loop_
 _symmetry_equiv_pos_site_id
 _symmetry_equiv_pos_as_xyz
  1  'x, y, z'
loop_
 _atom_site_type_symbol
 _atom_site_label
 _atom_site_symmetry_multiplicity
 _atom_site_fract_x
 _atom_site_fract_y
 _atom_site_fract_z
 _atom_site_occupancy
  Er  Er0  1  0.000000  0.500000  0.755555  1
  Sc  Sc1  1  0.000000  0.000000  0.000044  1
  Sc  Sc2  1  0.500000  0.000000  0.245583  1
  Sc  Sc3  1  0.500000  0.500000  0.000044  1
  Zn  Zn4  1  0.193532  0.693532  0.269186  1
  Zn  Zn5  1  0.806468  0.693532  0.269186  1
  Zn  Zn6  1  0.806468  0.306468  0.269186  1
  Zn  Zn7  1  0.310973  0.189027  0.729799  1
  Zn  Zn8  1  0.193532  0.306468  0.269186  1
  Zn  Zn9  1  0.689027  0.189027  0.729799  1
  Zn  Zn10  1  0.689027  0.810973  0.729799  1
  Zn  Zn11  1  0.310973  0.810973  0.729799  1
  Ru  Ru12  1  0.500000  0.500000  0.501417  1
  Ru  Ru13  1  0.000000  0.000000  0.501417  1
