# generated using pymatgen
data_Y7Er3(In3Br)2
_symmetry_space_group_name_H-M   'P 1'
_cell_length_a   9.19638000
_cell_length_b   9.19638026
_cell_length_c   6.74952200
_cell_angle_alpha   90.00000000
_cell_angle_beta   90.00000000
_cell_angle_gamma   119.99999907
_symmetry_Int_Tables_number   1
_chemical_formula_structural   Y7Er3(In3Br)2
_chemical_formula_sum   'Y7 Er3 In6 Br2'
_cell_volume   494.35335023
_cell_formula_units_Z   1
loop_
 _symmetry_equiv_pos_site_id
 _symmetry_equiv_pos_as_xyz
  1  'x, y, z'
loop_
 _atom_site_type_symbol
 _atom_site_label
 _atom_site_symmetry_multiplicity
 _atom_site_fract_x
 _atom_site_fract_y
 _atom_site_fract_z
 _atom_site_occupancy
  Y  Y0  1  0.733964  0.733793  0.249848  1
  Y  Y1  1  0.999829  0.733793  0.750152  1
  Y  Y2  1  0.733964  0.000171  0.750152  1
  Y  Y3  1  0.333333  0.666667  0.500000  1
  Y  Y4  1  0.266207  0.266036  0.750152  1
  Y  Y5  1  0.999829  0.266036  0.249848  1
  Y  Y6  1  0.266207  0.000171  0.249848  1
  Er  Er7  1  0.666667  0.333333  0.500000  1
  Er  Er8  1  0.333333  0.666667  0.000000  1
  Er  Er9  1  0.666667  0.333333  0.000000  1
  In  In10  1  0.393746  0.000507  0.750398  1
  In  In11  1  0.999493  0.606254  0.249602  1
  In  In12  1  0.606760  0.000507  0.249602  1
  In  In13  1  0.999493  0.393240  0.750398  1
  In  In14  1  0.393746  0.393240  0.249602  1
  In  In15  1  0.606760  0.606254  0.750398  1
  Br  Br16  1  0.000000  0.000000  0.500000  1
  Br  Br17  1  0.000000  0.000000  0.000000  1
