# generated using pymatgen
data_Ho2UIr3
_symmetry_space_group_name_H-M   'P 1'
_cell_length_a   5.35965307
_cell_length_b   5.35965327
_cell_length_c   5.35965195
_cell_angle_alpha   64.83919978
_cell_angle_beta   64.83919480
_cell_angle_gamma   64.83919759
_symmetry_Int_Tables_number   1
_chemical_formula_structural   Ho2UIr3
_chemical_formula_sum   'Ho2 U1 Ir3'
_cell_volume   120.38718831
_cell_formula_units_Z   1
loop_
 _symmetry_equiv_pos_site_id
 _symmetry_equiv_pos_as_xyz
  1  'x, y, z'
loop_
 _atom_site_type_symbol
 _atom_site_label
 _atom_site_symmetry_multiplicity
 _atom_site_fract_x
 _atom_site_fract_y
 _atom_site_fract_z
 _atom_site_occupancy
  Ho  Ho0  1  0.750522  0.750522  0.750522  1
  Ho  Ho1  1  0.499478  0.499478  0.499478  1
  U  U2  1  0.125000  0.125000  0.125000  1
  Ir  Ir3  1  0.125000  0.625000  0.125000  1
  Ir  Ir4  1  0.125000  0.125000  0.625000  1
  Ir  Ir5  1  0.625000  0.125000  0.125000  1
