# generated using pymatgen
data_YTmLu18(Cd3Ru)2
_symmetry_space_group_name_H-M   'P 1'
_cell_length_a   9.38503502
_cell_length_b   9.38357041
_cell_length_c   9.69129000
_cell_angle_alpha   90.00000000
_cell_angle_beta   90.00000000
_cell_angle_gamma   119.97401654
_symmetry_Int_Tables_number   1
_chemical_formula_structural   YTmLu18(Cd3Ru)2
_chemical_formula_sum   'Y1 Tm1 Lu18 Cd6 Ru2'
_cell_volume   739.31562690
_cell_formula_units_Z   1
loop_
 _symmetry_equiv_pos_site_id
 _symmetry_equiv_pos_as_xyz
  1  'x, y, z'
loop_
 _atom_site_type_symbol
 _atom_site_label
 _atom_site_symmetry_multiplicity
 _atom_site_fract_x
 _atom_site_fract_y
 _atom_site_fract_z
 _atom_site_occupancy
  Y  Y0  1  0.081422  0.540181  0.750000  1
  Tm  Tm1  1  0.460254  0.919193  0.750000  1
  Lu  Lu2  1  0.999717  0.000198  0.499695  1
  Lu  Lu3  1  0.999717  0.000198  0.000305  1
  Lu  Lu4  1  0.209851  0.790510  0.440655  1
  Lu  Lu5  1  0.211052  0.420008  0.440946  1
  Lu  Lu6  1  0.579989  0.789145  0.441081  1
  Lu  Lu7  1  0.789052  0.210329  0.557347  1
  Lu  Lu8  1  0.788704  0.579658  0.557302  1
  Lu  Lu9  1  0.420351  0.210987  0.557374  1
  Lu  Lu10  1  0.789052  0.210329  0.942653  1
  Lu  Lu11  1  0.788704  0.579658  0.942698  1
  Lu  Lu12  1  0.420351  0.210987  0.942626  1
  Lu  Lu13  1  0.209851  0.790510  0.059345  1
  Lu  Lu14  1  0.211052  0.420008  0.059054  1
  Lu  Lu15  1  0.579989  0.789145  0.058919  1
  Lu  Lu16  1  0.541263  0.458763  0.250000  1
  Lu  Lu17  1  0.540775  0.080796  0.250000  1
  Lu  Lu18  1  0.919202  0.459293  0.250000  1
  Lu  Lu19  1  0.461080  0.539112  0.750000  1
  Cd  Cd20  1  0.886186  0.113663  0.250000  1
  Cd  Cd21  1  0.885517  0.772468  0.250000  1
  Cd  Cd22  1  0.227588  0.114458  0.250000  1
  Cd  Cd23  1  0.113099  0.887423  0.750000  1
  Cd  Cd24  1  0.114985  0.226464  0.750000  1
  Cd  Cd25  1  0.773113  0.885050  0.750000  1
  Ru  Ru26  1  0.332331  0.667528  0.250000  1
  Ru  Ru27  1  0.665755  0.333937  0.750000  1
