# generated using pymatgen
data_La4Pr6Ir3Ru
_symmetry_space_group_name_H-M   'P 1'
_cell_length_a   9.16535046
_cell_length_b   9.22235925
_cell_length_c   7.37209036
_cell_angle_alpha   84.33635951
_cell_angle_beta   84.43310901
_cell_angle_gamma   42.92722523
_symmetry_Int_Tables_number   1
_chemical_formula_structural   La4Pr6Ir3Ru
_chemical_formula_sum   'La4 Pr6 Ir3 Ru1'
_cell_volume   422.04412556
_cell_formula_units_Z   1
loop_
 _symmetry_equiv_pos_site_id
 _symmetry_equiv_pos_as_xyz
  1  'x, y, z'
loop_
 _atom_site_type_symbol
 _atom_site_label
 _atom_site_symmetry_multiplicity
 _atom_site_fract_x
 _atom_site_fract_y
 _atom_site_fract_z
 _atom_site_occupancy
  La  La0  1  0.008256  0.805038  0.912802  1
  La  La1  1  0.198375  0.987204  0.587263  1
  La  La2  1  0.985374  0.200379  0.086871  1
  La  La3  1  0.796181  0.015684  0.404453  1
  Pr  Pr4  1  0.359096  0.211919  0.819203  1
  Pr  Pr5  1  0.789301  0.643282  0.682154  1
  Pr  Pr6  1  0.641816  0.789660  0.182577  1
  Pr  Pr7  1  0.211832  0.356957  0.318250  1
  Pr  Pr8  1  0.568536  0.429610  0.749546  1
  Pr  Pr9  1  0.429611  0.571170  0.250368  1
  Ir  Ir10  1  0.175371  0.600321  0.579098  1
  Ir  Ir11  1  0.400300  0.821881  0.920773  1
  Ir  Ir12  1  0.821860  0.401825  0.422516  1
  Ru  Ru13  1  0.614090  0.165070  0.084126  1
