# generated using pymatgen
data_Li2CrCu(PO3)8
_symmetry_space_group_name_H-M   'P 1'
_cell_length_a   8.36319100
_cell_length_b   9.25308064
_cell_length_c   12.74984585
_cell_angle_alpha   89.95773659
_cell_angle_beta   90.00000000
_cell_angle_gamma   90.00000000
_symmetry_Int_Tables_number   1
_chemical_formula_structural   Li2CrCu(PO3)8
_chemical_formula_sum   'Li4 Cr2 Cu2 P16 O48'
_cell_volume   986.65013215
_cell_formula_units_Z   2
loop_
 _symmetry_equiv_pos_site_id
 _symmetry_equiv_pos_as_xyz
  1  'x, y, z'
loop_
 _atom_site_type_symbol
 _atom_site_label
 _atom_site_symmetry_multiplicity
 _atom_site_fract_x
 _atom_site_fract_y
 _atom_site_fract_z
 _atom_site_occupancy
  Li  Li0  1  0.001792  0.750000  0.000000  1
  Li  Li1  1  0.504722  0.750000  0.500000  1
  Li  Li2  1  0.495278  0.250000  0.500000  1
  Li  Li3  1  0.998208  0.250000  0.000000  1
  Cr  Cr4  1  0.631361  0.250000  0.000000  1
  Cr  Cr5  1  0.368639  0.750000  0.000000  1
  Cu  Cu6  1  0.869723  0.750000  0.500000  1
  Cu  Cu7  1  0.130277  0.250000  0.500000  1
  P  P8  1  0.464158  0.489111  0.849577  1
  P  P9  1  0.535842  0.989111  0.849577  1
  P  P10  1  0.964394  0.489262  0.649073  1
  P  P11  1  0.179839  0.995321  0.861642  1
  P  P12  1  0.179839  0.504679  0.138358  1
  P  P13  1  0.820161  0.004679  0.138358  1
  P  P14  1  0.464158  0.010889  0.150423  1
  P  P15  1  0.535842  0.510889  0.150423  1
  P  P16  1  0.035606  0.510738  0.350927  1
  P  P17  1  0.964394  0.010738  0.350927  1
  P  P18  1  0.319920  0.005834  0.362308  1
  P  P19  1  0.680080  0.505834  0.362308  1
  P  P20  1  0.319920  0.494166  0.637692  1
  P  P21  1  0.680080  0.994166  0.637692  1
  P  P22  1  0.035606  0.989262  0.649073  1
  P  P23  1  0.820161  0.495321  0.861642  1
  O  O24  1  0.864449  0.878248  0.374167  1
  O  O25  1  0.464602  0.369931  0.930284  1
  O  O26  1  0.535398  0.869931  0.930284  1
  O  O27  1  0.809295  0.366686  0.935901  1
  O  O28  1  0.190705  0.633314  0.064099  1
  O  O29  1  0.809295  0.133314  0.064099  1
  O  O30  1  0.464602  0.130069  0.069716  1
  O  O31  1  0.535398  0.630069  0.069716  1
  O  O32  1  0.094016  0.373841  0.103354  1
  O  O33  1  0.905984  0.873841  0.103354  1
  O  O34  1  0.366513  0.878741  0.125604  1
  O  O35  1  0.633487  0.378741  0.125604  1
  O  O36  1  0.356756  0.463664  0.179359  1
  O  O37  1  0.643244  0.963664  0.179359  1
  O  O38  1  0.101716  0.575485  0.242903  1
  O  O39  1  0.898284  0.075485  0.242903  1
  O  O40  1  0.397852  0.076746  0.257476  1
  O  O41  1  0.602148  0.576746  0.257476  1
  O  O42  1  0.143244  0.964671  0.321376  1
  O  O43  1  0.856756  0.464671  0.321376  1
  O  O44  1  0.135551  0.378248  0.374167  1
  O  O45  1  0.190705  0.866686  0.935901  1
  O  O46  1  0.406360  0.874550  0.396535  1
  O  O47  1  0.593640  0.374550  0.396535  1
  O  O48  1  0.037995  0.629748  0.432106  1
  O  O49  1  0.962005  0.129748  0.432106  1
  O  O50  1  0.310460  0.132617  0.438109  1
  O  O51  1  0.689540  0.632617  0.438109  1
  O  O52  1  0.310460  0.367383  0.561891  1
  O  O53  1  0.689540  0.867383  0.561891  1
  O  O54  1  0.037995  0.870252  0.567894  1
  O  O55  1  0.962005  0.370252  0.567894  1
  O  O56  1  0.406360  0.625450  0.603465  1
  O  O57  1  0.593640  0.125450  0.603465  1
  O  O58  1  0.135551  0.121752  0.625833  1
  O  O59  1  0.864449  0.621752  0.625833  1
  O  O60  1  0.143244  0.535329  0.678624  1
  O  O61  1  0.856756  0.035329  0.678624  1
  O  O62  1  0.397852  0.423254  0.742524  1
  O  O63  1  0.602148  0.923254  0.742524  1
  O  O64  1  0.101716  0.924515  0.757097  1
  O  O65  1  0.898284  0.424515  0.757097  1
  O  O66  1  0.356756  0.036336  0.820641  1
  O  O67  1  0.643244  0.536336  0.820641  1
  O  O68  1  0.366513  0.621259  0.874396  1
  O  O69  1  0.905984  0.626159  0.896646  1
  O  O70  1  0.094016  0.126159  0.896646  1
  O  O71  1  0.633487  0.121259  0.874396  1
