# generated using pymatgen
data_Th14CuRe4Ir
_symmetry_space_group_name_H-M   'P 1'
_cell_length_a   10.06215414
_cell_length_b   10.04966841
_cell_length_c   6.30859813
_cell_angle_alpha   90.31567656
_cell_angle_beta   89.59899391
_cell_angle_gamma   119.72687211
_symmetry_Int_Tables_number   1
_chemical_formula_structural   Th14CuRe4Ir
_chemical_formula_sum   'Th14 Cu1 Re4 Ir1'
_cell_volume   553.96594117
_cell_formula_units_Z   1
loop_
 _symmetry_equiv_pos_site_id
 _symmetry_equiv_pos_as_xyz
  1  'x, y, z'
loop_
 _atom_site_type_symbol
 _atom_site_label
 _atom_site_symmetry_multiplicity
 _atom_site_fract_x
 _atom_site_fract_y
 _atom_site_fract_z
 _atom_site_occupancy
  Th  Th0  1  0.465368  0.541183  0.291896  1
  Th  Th1  1  0.072277  0.539996  0.287838  1
  Th  Th2  1  0.917890  0.459888  0.794287  1
  Th  Th3  1  0.260246  0.127039  0.506101  1
  Th  Th4  1  0.542750  0.079855  0.796974  1
  Th  Th5  1  0.750720  0.876002  0.005119  1
  Th  Th6  1  0.665841  0.333582  0.281757  1
  Th  Th7  1  0.126750  0.874862  0.003204  1
  Th  Th8  1  0.459280  0.918141  0.293471  1
  Th  Th9  1  0.544355  0.464463  0.795555  1
  Th  Th10  1  0.867247  0.122750  0.507188  1
  Th  Th11  1  0.124037  0.245839  0.006591  1
  Th  Th12  1  0.872176  0.748521  0.504831  1
  Th  Th13  1  0.336586  0.670655  0.796585  1
  Cu  Cu14  1  0.184252  0.375215  0.556066  1
  Re  Re15  1  0.817063  0.629056  0.052780  1
  Re  Re16  1  0.820088  0.189285  0.051909  1
  Re  Re17  1  0.619531  0.808068  0.554199  1
  Re  Re18  1  0.369874  0.187973  0.048330  1
  Ir  Ir19  1  0.183667  0.807628  0.549320  1
