# generated using pymatgen
data_Ho20Cd6FeCo
_symmetry_space_group_name_H-M   'P 1'
_cell_length_a   9.51843700
_cell_length_b   9.51843740
_cell_length_c   9.77295200
_cell_angle_alpha   90.00000000
_cell_angle_beta   90.00000000
_cell_angle_gamma   119.99999513
_symmetry_Int_Tables_number   1
_chemical_formula_structural   Ho20Cd6FeCo
_chemical_formula_sum   'Ho20 Cd6 Fe1 Co1'
_cell_volume   766.80990957
_cell_formula_units_Z   1
loop_
 _symmetry_equiv_pos_site_id
 _symmetry_equiv_pos_as_xyz
  1  'x, y, z'
loop_
 _atom_site_type_symbol
 _atom_site_label
 _atom_site_symmetry_multiplicity
 _atom_site_fract_x
 _atom_site_fract_y
 _atom_site_fract_z
 _atom_site_occupancy
  Ho  Ho0  1  0.000000  0.000000  0.499961  1
  Ho  Ho1  1  0.000000  0.000000  0.000039  1
  Ho  Ho2  1  0.541527  0.458473  0.250000  1
  Ho  Ho3  1  0.541527  0.083054  0.250000  1
  Ho  Ho4  1  0.916946  0.458473  0.250000  1
  Ho  Ho5  1  0.457561  0.542439  0.750000  1
  Ho  Ho6  1  0.457561  0.915123  0.750000  1
  Ho  Ho7  1  0.084877  0.542439  0.750000  1
  Ho  Ho8  1  0.211952  0.788048  0.436555  1
  Ho  Ho9  1  0.211952  0.423905  0.436555  1
  Ho  Ho10  1  0.576095  0.788048  0.436555  1
  Ho  Ho11  1  0.787837  0.212163  0.563585  1
  Ho  Ho12  1  0.787837  0.575673  0.563585  1
  Ho  Ho13  1  0.424327  0.212163  0.563585  1
  Ho  Ho14  1  0.787837  0.212163  0.936415  1
  Ho  Ho15  1  0.787837  0.575673  0.936415  1
  Ho  Ho16  1  0.424327  0.212163  0.936415  1
  Ho  Ho17  1  0.211952  0.788048  0.063445  1
  Ho  Ho18  1  0.211952  0.423905  0.063445  1
  Ho  Ho19  1  0.576095  0.788048  0.063445  1
  Cd  Cd20  1  0.885421  0.114579  0.250000  1
  Cd  Cd21  1  0.885421  0.770842  0.250000  1
  Cd  Cd22  1  0.229158  0.114579  0.250000  1
  Cd  Cd23  1  0.114472  0.885528  0.750000  1
  Cd  Cd24  1  0.114472  0.228944  0.750000  1
  Cd  Cd25  1  0.771056  0.885528  0.750000  1
  Fe  Fe26  1  0.333333  0.666667  0.250000  1
  Co  Co27  1  0.666667  0.333333  0.750000  1
