# generated using pymatgen
data_PrSm2Pt9
_symmetry_space_group_name_H-M   'P 1'
_cell_length_a   9.44338670
_cell_length_b   9.44338713
_cell_length_c   9.44338618
_cell_angle_alpha   33.65605890
_cell_angle_beta   33.65605572
_cell_angle_gamma   33.65606143
_symmetry_Int_Tables_number   1
_chemical_formula_structural   PrSm2Pt9
_chemical_formula_sum   'Pr1 Sm2 Pt9'
_cell_volume   230.43034151
_cell_formula_units_Z   1
loop_
 _symmetry_equiv_pos_site_id
 _symmetry_equiv_pos_as_xyz
  1  'x, y, z'
loop_
 _atom_site_type_symbol
 _atom_site_label
 _atom_site_symmetry_multiplicity
 _atom_site_fract_x
 _atom_site_fract_y
 _atom_site_fract_z
 _atom_site_occupancy
  Pr  Pr0  1  0.000000  0.000000  0.000000  1
  Sm  Sm1  1  0.139126  0.139126  0.139126  1
  Sm  Sm2  1  0.860874  0.860874  0.860874  1
  Pt  Pt3  1  0.587261  0.587261  0.081015  1
  Pt  Pt4  1  0.332937  0.332937  0.332937  1
  Pt  Pt5  1  0.918984  0.412740  0.412739  1
  Pt  Pt6  1  0.412740  0.918984  0.412739  1
  Pt  Pt7  1  0.500000  0.500000  0.500000  1
  Pt  Pt8  1  0.587260  0.081016  0.587261  1
  Pt  Pt9  1  0.081016  0.587260  0.587261  1
  Pt  Pt10  1  0.667063  0.667063  0.667063  1
  Pt  Pt11  1  0.412739  0.412739  0.918985  1
