# generated using pymatgen
data_SrLa3(Sn4Pt3)2
_symmetry_space_group_name_H-M   'P 1'
_cell_length_a   14.86013200
_cell_length_b   14.84845014
_cell_length_c   4.52292900
_cell_angle_alpha   90.00000000
_cell_angle_beta   90.00000000
_cell_angle_gamma   120.02602854
_symmetry_Int_Tables_number   1
_chemical_formula_structural   SrLa3(Sn4Pt3)2
_chemical_formula_sum   'Sr2 La6 Sn16 Pt12'
_cell_volume   864.05269170
_cell_formula_units_Z   2
loop_
 _symmetry_equiv_pos_site_id
 _symmetry_equiv_pos_as_xyz
  1  'x, y, z'
loop_
 _atom_site_type_symbol
 _atom_site_label
 _atom_site_symmetry_multiplicity
 _atom_site_fract_x
 _atom_site_fract_y
 _atom_site_fract_z
 _atom_site_occupancy
  Sr  Sr0  1  0.815749  0.815829  0.500000  1
  Sr  Sr1  1  0.999919  0.184171  0.500000  1
  La  La2  1  0.184483  0.000000  0.500000  1
  La  La3  1  0.667027  0.333563  0.000000  1
  La  La4  1  0.333463  0.666437  0.000000  1
  La  La5  1  0.563952  0.000000  0.000000  1
  La  La6  1  0.435450  0.435614  0.000000  1
  La  La7  1  0.999836  0.564386  0.000000  1
  Sn  Sn8  1  0.495017  0.126327  0.500000  1
  Sn  Sn9  1  0.872959  0.368177  0.500000  1
  Sn  Sn10  1  0.631791  0.504695  0.500000  1
  Sn  Sn11  1  0.504782  0.631823  0.500000  1
  Sn  Sn12  1  0.368690  0.873673  0.500000  1
  Sn  Sn13  1  0.127096  0.495305  0.500000  1
  Sn  Sn14  1  0.374173  0.186127  0.000000  1
  Sn  Sn15  1  0.814168  0.188169  0.000000  1
  Sn  Sn16  1  0.812504  0.627840  0.000000  1
  Sn  Sn17  1  0.626000  0.811831  0.000000  1
  Sn  Sn18  1  0.000674  0.000000  0.000000  1
  Sn  Sn19  1  0.188047  0.813873  0.000000  1
  Sn  Sn20  1  0.724950  0.000000  0.500000  1
  Sn  Sn21  1  0.274627  0.274610  0.500000  1
  Sn  Sn22  1  0.000017  0.725390  0.500000  1
  Sn  Sn23  1  0.184665  0.372160  0.000000  1
  Pt  Pt24  1  0.999903  0.366262  0.000000  1
  Pt  Pt25  1  0.362870  0.000000  0.000000  1
  Pt  Pt26  1  0.477073  0.300530  0.500000  1
  Pt  Pt27  1  0.699143  0.176780  0.500000  1
  Pt  Pt28  1  0.823129  0.522698  0.500000  1
  Pt  Pt29  1  0.522363  0.823220  0.500000  1
  Pt  Pt30  1  0.176544  0.699470  0.500000  1
  Pt  Pt31  1  0.300431  0.477302  0.500000  1
  Pt  Pt32  1  0.003754  0.823731  0.000000  1
  Pt  Pt33  1  0.180023  0.176269  0.000000  1
  Pt  Pt34  1  0.821086  0.000000  0.000000  1
  Pt  Pt35  1  0.633642  0.633738  0.000000  1
