# generated using pymatgen
data_Zr8In4Ni3Au5
_symmetry_space_group_name_H-M   'P 1'
_cell_length_a   7.48802248
_cell_length_b   7.48802231
_cell_length_c   6.98534208
_cell_angle_alpha   89.98602871
_cell_angle_beta   89.98602336
_cell_angle_gamma   90.98380238
_symmetry_Int_Tables_number   1
_chemical_formula_structural   Zr8In4Ni3Au5
_chemical_formula_sum   'Zr8 In4 Ni3 Au5'
_cell_volume   391.61371903
_cell_formula_units_Z   1
loop_
 _symmetry_equiv_pos_site_id
 _symmetry_equiv_pos_as_xyz
  1  'x, y, z'
loop_
 _atom_site_type_symbol
 _atom_site_label
 _atom_site_symmetry_multiplicity
 _atom_site_fract_x
 _atom_site_fract_y
 _atom_site_fract_z
 _atom_site_occupancy
  Zr  Zr0  1  0.152922  0.152922  0.007187  1
  Zr  Zr1  1  0.832096  0.832096  0.001135  1
  Zr  Zr2  1  0.644801  0.362999  0.491385  1
  Zr  Zr3  1  0.362999  0.644801  0.491385  1
  Zr  Zr4  1  0.685104  0.332424  0.007453  1
  Zr  Zr5  1  0.332424  0.685104  0.007453  1
  Zr  Zr6  1  0.792890  0.792890  0.499862  1
  Zr  Zr7  1  0.201996  0.201996  0.488865  1
  In  In8  1  0.499681  0.005221  0.244974  1
  In  In9  1  0.501377  0.992854  0.751925  1
  In  In10  1  0.005221  0.499681  0.244974  1
  In  In11  1  0.992854  0.501377  0.751925  1
  Ni  Ni12  1  0.376329  0.376329  0.208539  1
  Ni  Ni13  1  0.628295  0.628295  0.788922  1
  Ni  Ni14  1  0.624174  0.624174  0.211577  1
  Au  Au15  1  0.867672  0.130037  0.712330  1
  Au  Au16  1  0.867065  0.127576  0.291530  1
  Au  Au17  1  0.374488  0.374488  0.794720  1
  Au  Au18  1  0.127576  0.867065  0.291530  1
  Au  Au19  1  0.130037  0.867672  0.712330  1
