# generated using pymatgen
data_Rb6Cd4Sn5S17
_symmetry_space_group_name_H-M   'P 1'
_cell_length_a   11.49300183
_cell_length_b   11.49300222
_cell_length_c   11.48950368
_cell_angle_alpha   78.63352834
_cell_angle_beta   78.63352910
_cell_angle_gamma   126.77938872
_symmetry_Int_Tables_number   1
_chemical_formula_structural   Rb6Cd4Sn5S17
_chemical_formula_sum   'Rb6 Cd4 Sn5 S17'
_cell_volume   1091.56034304
_cell_formula_units_Z   1
loop_
 _symmetry_equiv_pos_site_id
 _symmetry_equiv_pos_as_xyz
  1  'x, y, z'
loop_
 _atom_site_type_symbol
 _atom_site_label
 _atom_site_symmetry_multiplicity
 _atom_site_fract_x
 _atom_site_fract_y
 _atom_site_fract_z
 _atom_site_occupancy
  Rb  Rb0  1  0.250198  0.749802  0.500000  1
  Rb  Rb1  1  0.581336  0.418664  0.000000  1
  Rb  Rb2  1  0.511050  0.992018  0.979445  1
  Rb  Rb3  1  0.007982  0.488950  0.020555  1
  Rb  Rb4  1  0.988472  0.011528  0.500000  1
  Rb  Rb5  1  0.508884  0.491116  0.500000  1
  Cd  Cd6  1  0.034589  0.391868  0.358377  1
  Cd  Cd7  1  0.752879  0.393837  0.638435  1
  Cd  Cd8  1  0.608132  0.965411  0.641623  1
  Cd  Cd9  1  0.606163  0.247121  0.361565  1
  Sn  Sn10  1  0.998374  0.001626  0.000000  1
  Sn  Sn11  1  0.971921  0.701878  0.268663  1
  Sn  Sn12  1  0.970118  0.243987  0.731062  1
  Sn  Sn13  1  0.756013  0.029882  0.268938  1
  Sn  Sn14  1  0.298122  0.028079  0.731337  1
  S  S15  1  0.167367  0.676274  0.218634  1
  S  S16  1  0.890099  0.386437  0.786800  1
  S  S17  1  0.892808  0.677010  0.489432  1
  S  S18  1  0.167247  0.389355  0.511817  1
  S  S19  1  0.610645  0.832753  0.488183  1
  S  S20  1  0.322990  0.107192  0.510568  1
  S  S21  1  0.613563  0.109901  0.213200  1
  S  S22  1  0.323726  0.832633  0.781366  1
  S  S23  1  0.130709  0.990655  0.140250  1
  S  S24  1  0.130866  0.272681  0.860094  1
  S  S25  1  0.727319  0.869134  0.139906  1
  S  S26  1  0.009345  0.869291  0.859750  1
  S  S27  1  0.749536  0.534141  0.213465  1
  S  S28  1  0.754524  0.968036  0.784392  1
  S  S29  1  0.031964  0.245476  0.215608  1
  S  S30  1  0.465859  0.250464  0.786535  1
  S  S31  1  0.750998  0.249002  0.500000  1
