# generated using pymatgen
data_Pr8Zn(Si4Pd)3
_symmetry_space_group_name_H-M   'P 1'
_cell_length_a   8.27906500
_cell_length_b   8.27906609
_cell_length_c   8.62187900
_cell_angle_alpha   90.00000000
_cell_angle_beta   90.00000000
_cell_angle_gamma   120.00000764
_symmetry_Int_Tables_number   1
_chemical_formula_structural   Pr8Zn(Si4Pd)3
_chemical_formula_sum   'Pr8 Zn1 Si12 Pd3'
_cell_volume   511.79396872
_cell_formula_units_Z   1
loop_
 _symmetry_equiv_pos_site_id
 _symmetry_equiv_pos_as_xyz
  1  'x, y, z'
loop_
 _atom_site_type_symbol
 _atom_site_label
 _atom_site_symmetry_multiplicity
 _atom_site_fract_x
 _atom_site_fract_y
 _atom_site_fract_z
 _atom_site_occupancy
  Pr  Pr0  1  0.499638  0.500362  0.748838  1
  Pr  Pr1  1  0.500909  0.499091  0.251118  1
  Pr  Pr2  1  0.000724  0.500362  0.748838  1
  Pr  Pr3  1  0.998183  0.499091  0.251118  1
  Pr  Pr4  1  0.499638  0.999276  0.748838  1
  Pr  Pr5  1  0.500909  0.001817  0.251118  1
  Pr  Pr6  1  0.000000  0.000000  0.748974  1
  Pr  Pr7  1  0.000000  0.000000  0.251451  1
  Zn  Zn8  1  0.666667  0.333333  0.994954  1
  Si  Si9  1  0.835457  0.164543  0.001249  1
  Si  Si10  1  0.167340  0.832660  0.998946  1
  Si  Si11  1  0.329086  0.164543  0.001249  1
  Si  Si12  1  0.165837  0.834163  0.500162  1
  Si  Si13  1  0.665320  0.832660  0.998946  1
  Si  Si14  1  0.834179  0.165821  0.500016  1
  Si  Si15  1  0.835457  0.670914  0.001249  1
  Si  Si16  1  0.668326  0.834163  0.500162  1
  Si  Si17  1  0.167340  0.334680  0.998946  1
  Si  Si18  1  0.331643  0.165821  0.500016  1
  Si  Si19  1  0.165837  0.331674  0.500162  1
  Si  Si20  1  0.834179  0.668357  0.500016  1
  Pd  Pd21  1  0.333333  0.666667  0.003478  1
  Pd  Pd22  1  0.333333  0.666667  0.498003  1
  Pd  Pd23  1  0.666667  0.333333  0.502154  1
