# generated using pymatgen
data_Dy8Cd3PbAu8
_symmetry_space_group_name_H-M   'P 1'
_cell_length_a   8.06555500
_cell_length_b   8.06555500
_cell_length_c   7.34742400
_cell_angle_alpha   90.00000000
_cell_angle_beta   90.00000000
_cell_angle_gamma   90.00000000
_symmetry_Int_Tables_number   1
_chemical_formula_structural   Dy8Cd3PbAu8
_chemical_formula_sum   'Dy8 Cd3 Pb1 Au8'
_cell_volume   477.97327733
_cell_formula_units_Z   1
loop_
 _symmetry_equiv_pos_site_id
 _symmetry_equiv_pos_as_xyz
  1  'x, y, z'
loop_
 _atom_site_type_symbol
 _atom_site_label
 _atom_site_symmetry_multiplicity
 _atom_site_fract_x
 _atom_site_fract_y
 _atom_site_fract_z
 _atom_site_occupancy
  Dy  Dy0  1  0.843617  0.166288  0.501162  1
  Dy  Dy1  1  0.156383  0.833712  0.501162  1
  Dy  Dy2  1  0.333712  0.343617  0.998838  1
  Dy  Dy3  1  0.666288  0.656383  0.998838  1
  Dy  Dy4  1  0.683616  0.674286  0.501160  1
  Dy  Dy5  1  0.316384  0.325714  0.501160  1
  Dy  Dy6  1  0.174286  0.816384  0.998840  1
  Dy  Dy7  1  0.825714  0.183616  0.998840  1
  Cd  Cd8  1  0.500000  0.000000  0.250000  1
  Cd  Cd9  1  0.000000  0.500000  0.750000  1
  Cd  Cd10  1  0.500000  0.000000  0.750000  1
  Pb  Pb11  1  0.000000  0.500000  0.250000  1
  Au  Au12  1  0.619019  0.363708  0.268350  1
  Au  Au13  1  0.380981  0.636292  0.268350  1
  Au  Au14  1  0.132394  0.125036  0.767450  1
  Au  Au15  1  0.867606  0.874964  0.767450  1
  Au  Au16  1  0.374964  0.632394  0.732550  1
  Au  Au17  1  0.625036  0.367606  0.732550  1
  Au  Au18  1  0.863708  0.880981  0.231650  1
  Au  Au19  1  0.136292  0.119019  0.231650  1
