# generated using pymatgen
data_MgCo2(AsO4)2
_symmetry_space_group_name_H-M   'P 1'
_cell_length_a   8.55027500
_cell_length_b   5.35628953
_cell_length_c   9.07041867
_cell_angle_alpha   60.92805495
_cell_angle_beta   90.00000000
_cell_angle_gamma   90.00000000
_symmetry_Int_Tables_number   1
_chemical_formula_structural   MgCo2(AsO4)2
_chemical_formula_sum   'Mg2 Co4 As4 O16'
_cell_volume   363.06801331
_cell_formula_units_Z   2
loop_
 _symmetry_equiv_pos_site_id
 _symmetry_equiv_pos_as_xyz
  1  'x, y, z'
loop_
 _atom_site_type_symbol
 _atom_site_label
 _atom_site_symmetry_multiplicity
 _atom_site_fract_x
 _atom_site_fract_y
 _atom_site_fract_z
 _atom_site_occupancy
  Mg  Mg0  1  0.000000  0.000000  0.000000  1
  Mg  Mg1  1  0.500000  0.000000  0.500000  1
  Co  Co2  1  0.359373  0.985031  0.110030  1
  Co  Co3  1  0.640627  0.014969  0.889970  1
  Co  Co4  1  0.859373  0.014969  0.389970  1
  Co  Co5  1  0.140627  0.985031  0.610030  1
  As  As6  1  0.695700  0.653340  0.301366  1
  As  As7  1  0.304300  0.346660  0.698634  1
  As  As8  1  0.195700  0.346660  0.198634  1
  As  As9  1  0.804300  0.653340  0.801366  1
  O  O10  1  0.695588  0.289425  0.382527  1
  O  O11  1  0.304412  0.710575  0.617473  1
  O  O12  1  0.195588  0.710575  0.117473  1
  O  O13  1  0.804412  0.289425  0.882527  1
  O  O14  1  0.874077  0.831288  0.239053  1
  O  O15  1  0.125923  0.168712  0.760947  1
  O  O16  1  0.374077  0.168712  0.260947  1
  O  O17  1  0.625923  0.831288  0.739053  1
  O  O18  1  0.567409  0.795275  0.133014  1
  O  O19  1  0.432591  0.204725  0.866986  1
  O  O20  1  0.067409  0.204725  0.366986  1
  O  O21  1  0.932591  0.795275  0.633014  1
  O  O22  1  0.643515  0.739355  0.453811  1
  O  O23  1  0.356485  0.260645  0.546189  1
  O  O24  1  0.143515  0.260645  0.046189  1
  O  O25  1  0.856485  0.739355  0.953811  1
