# generated using pymatgen
data_La2Pr14Cd4Ir3Pt
_symmetry_space_group_name_H-M   'P 1'
_cell_length_a   10.05869191
_cell_length_b   10.05869050
_cell_length_c   10.06999635
_cell_angle_alpha   60.20231931
_cell_angle_beta   60.20232262
_cell_angle_gamma   60.15071511
_symmetry_Int_Tables_number   1
_chemical_formula_structural   La2Pr14Cd4Ir3Pt
_chemical_formula_sum   'La2 Pr14 Cd4 Ir3 Pt1'
_cell_volume   723.45891223
_cell_formula_units_Z   1
loop_
 _symmetry_equiv_pos_site_id
 _symmetry_equiv_pos_as_xyz
  1  'x, y, z'
loop_
 _atom_site_type_symbol
 _atom_site_label
 _atom_site_symmetry_multiplicity
 _atom_site_fract_x
 _atom_site_fract_y
 _atom_site_fract_z
 _atom_site_occupancy
  La  La0  1  0.345396  0.345396  0.346616  1
  La  La1  1  0.350521  0.350521  0.955233  1
  Pr  Pr2  1  0.351293  0.949996  0.351998  1
  Pr  Pr3  1  0.949996  0.351293  0.351998  1
  Pr  Pr4  1  0.806190  0.190554  0.190017  1
  Pr  Pr5  1  0.188965  0.810056  0.809025  1
  Pr  Pr6  1  0.190554  0.806190  0.190017  1
  Pr  Pr7  1  0.810056  0.188965  0.809025  1
  Pr  Pr8  1  0.190267  0.190267  0.806378  1
  Pr  Pr9  1  0.809689  0.809689  0.188723  1
  Pr  Pr10  1  0.939453  0.562343  0.562530  1
  Pr  Pr11  1  0.562178  0.938607  0.938422  1
  Pr  Pr12  1  0.562343  0.939453  0.562530  1
  Pr  Pr13  1  0.938607  0.562178  0.938422  1
  Pr  Pr14  1  0.562881  0.562881  0.939149  1
  Pr  Pr15  1  0.938667  0.938667  0.562153  1
  Cd  Cd16  1  0.580683  0.580683  0.579194  1
  Cd  Cd17  1  0.580250  0.580250  0.259964  1
  Cd  Cd18  1  0.580743  0.259769  0.579627  1
  Cd  Cd19  1  0.259769  0.580743  0.579627  1
  Ir  Ir20  1  0.142590  0.142590  0.573723  1
  Ir  Ir21  1  0.143045  0.573422  0.141461  1
  Ir  Ir22  1  0.573422  0.143045  0.141461  1
  Pt  Pt23  1  0.142445  0.142445  0.142707  1
