# generated using pymatgen
data_Th3MgZn2Pt3
_symmetry_space_group_name_H-M   'P 1'
_cell_length_a   7.48932088
_cell_length_b   7.46179552
_cell_length_c   4.06430800
_cell_angle_alpha   90.00000000
_cell_angle_beta   90.00000000
_cell_angle_gamma   119.87850039
_symmetry_Int_Tables_number   1
_chemical_formula_structural   Th3MgZn2Pt3
_chemical_formula_sum   'Th3 Mg1 Zn2 Pt3'
_cell_volume   196.93977432
_cell_formula_units_Z   1
loop_
 _symmetry_equiv_pos_site_id
 _symmetry_equiv_pos_as_xyz
  1  'x, y, z'
loop_
 _atom_site_type_symbol
 _atom_site_label
 _atom_site_symmetry_multiplicity
 _atom_site_fract_x
 _atom_site_fract_y
 _atom_site_fract_z
 _atom_site_occupancy
  Th  Th0  1  0.417975  0.413672  0.500000  1
  Th  Th1  1  0.582025  0.995697  0.500000  1
  Th  Th2  1  0.000000  0.600659  0.500000  1
  Mg  Mg3  1  0.000000  0.234486  0.000000  1
  Zn  Zn4  1  0.756912  0.759404  0.000000  1
  Zn  Zn5  1  0.243088  0.002491  0.000000  1
  Pt  Pt6  1  0.669320  0.332158  0.000000  1
  Pt  Pt7  1  0.330680  0.662838  0.000000  1
  Pt  Pt8  1  0.000000  0.998595  0.500000  1
