# generated using pymatgen
data_Zr6Ti7Al9(CoRh3)2
_symmetry_space_group_name_H-M   'P 1'
_cell_length_a   8.86148930
_cell_length_b   8.86148788
_cell_length_c   8.86148794
_cell_angle_alpha   59.88016176
_cell_angle_beta   59.88016582
_cell_angle_gamma   59.88017177
_symmetry_Int_Tables_number   1
_chemical_formula_structural   Zr6Ti7Al9(CoRh3)2
_chemical_formula_sum   'Zr6 Ti7 Al9 Co2 Rh6'
_cell_volume   490.70736623
_cell_formula_units_Z   1
loop_
 _symmetry_equiv_pos_site_id
 _symmetry_equiv_pos_as_xyz
  1  'x, y, z'
loop_
 _atom_site_type_symbol
 _atom_site_label
 _atom_site_symmetry_multiplicity
 _atom_site_fract_x
 _atom_site_fract_y
 _atom_site_fract_z
 _atom_site_occupancy
  Zr  Zr0  1  0.202433  0.202433  0.795756  1
  Zr  Zr1  1  0.795756  0.202433  0.202433  1
  Zr  Zr2  1  0.202433  0.795756  0.202433  1
  Zr  Zr3  1  0.800546  0.800546  0.191476  1
  Zr  Zr4  1  0.191476  0.800546  0.800546  1
  Zr  Zr5  1  0.800546  0.191476  0.800546  1
  Ti  Ti6  1  0.381092  0.381092  0.381092  1
  Ti  Ti7  1  0.381929  0.855478  0.381929  1
  Ti  Ti8  1  0.855478  0.381929  0.381929  1
  Ti  Ti9  1  0.381929  0.381929  0.855478  1
  Ti  Ti10  1  0.834242  0.502314  0.834242  1
  Ti  Ti11  1  0.502314  0.834242  0.834242  1
  Ti  Ti12  1  0.834242  0.834242  0.502314  1
  Al  Al13  1  0.165014  0.165014  0.165014  1
  Al  Al14  1  0.167628  0.498196  0.167628  1
  Al  Al15  1  0.498196  0.167628  0.167628  1
  Al  Al16  1  0.167628  0.167628  0.498196  1
  Al  Al17  1  0.616973  0.616973  0.616973  1
  Al  Al18  1  0.616017  0.152462  0.616017  1
  Al  Al19  1  0.152462  0.616017  0.616017  1
  Al  Al20  1  0.616017  0.616017  0.152462  1
  Al  Al21  1  0.828999  0.828999  0.828999  1
  Co  Co22  1  0.501189  0.501189  0.501189  1
  Co  Co23  1  0.001824  0.001824  0.001824  1
  Rh  Rh24  1  0.002375  0.002375  0.497279  1
  Rh  Rh25  1  0.497279  0.002375  0.002375  1
  Rh  Rh26  1  0.002375  0.497279  0.002375  1
  Rh  Rh27  1  0.500386  0.500386  0.000836  1
  Rh  Rh28  1  0.000836  0.500386  0.500386  1
  Rh  Rh29  1  0.500386  0.000836  0.500386  1
