# generated using pymatgen
data_YTm2ThAl18PtRh5
_symmetry_space_group_name_H-M   'P 1'
_cell_length_a   7.58270070
_cell_length_b   7.59268700
_cell_length_c   9.45214220
_cell_angle_alpha   89.98704754
_cell_angle_beta   89.98933700
_cell_angle_gamma   119.42266172
_symmetry_Int_Tables_number   1
_chemical_formula_structural   YTm2ThAl18PtRh5
_chemical_formula_sum   'Y1 Tm2 Th1 Al18 Pt1 Rh5'
_cell_volume   473.99912408
_cell_formula_units_Z   1
loop_
 _symmetry_equiv_pos_site_id
 _symmetry_equiv_pos_as_xyz
  1  'x, y, z'
loop_
 _atom_site_type_symbol
 _atom_site_label
 _atom_site_symmetry_multiplicity
 _atom_site_fract_x
 _atom_site_fract_y
 _atom_site_fract_z
 _atom_site_occupancy
  Y  Y0  1  0.672765  0.994624  0.249827  1
  Tm  Tm1  1  0.003920  0.327013  0.750096  1
  Tm  Tm2  1  0.328050  0.005750  0.749789  1
  Th  Th3  1  0.994634  0.671236  0.250347  1
  Al  Al4  1  0.132032  0.132728  0.250173  1
  Al  Al5  1  0.873049  0.874751  0.749667  1
  Al  Al6  1  0.004603  0.331555  0.072488  1
  Al  Al7  1  0.003671  0.667589  0.916158  1
  Al  Al8  1  0.000747  0.663803  0.582893  1
  Al  Al9  1  0.340059  0.004523  0.429159  1
  Al  Al10  1  0.001409  0.331172  0.428941  1
  Al  Al11  1  0.664328  0.001304  0.577955  1
  Al  Al12  1  0.664280  0.997961  0.920886  1
  Al  Al13  1  0.336215  0.001698  0.072058  1
  Al  Al14  1  0.331059  0.331443  0.556179  1
  Al  Al15  1  0.663349  0.666704  0.457370  1
  Al  Al16  1  0.662804  0.669235  0.044392  1
  Al  Al17  1  0.328844  0.332151  0.942160  1
  Al  Al18  1  0.344662  0.549238  0.250183  1
  Al  Al19  1  0.657707  0.449636  0.746999  1
  Al  Al20  1  0.543611  0.337643  0.253149  1
  Al  Al21  1  0.447123  0.660210  0.749629  1
  Pt  Pt22  1  0.673377  0.328485  0.999268  1
  Rh  Rh23  1  0.326339  0.671348  0.999404  1
  Rh  Rh24  1  0.326368  0.671381  0.500388  1
  Rh  Rh25  1  0.673224  0.328625  0.500680  1
  Rh  Rh26  1  0.000771  0.999227  0.999359  1
  Rh  Rh27  1  0.001000  0.998969  0.500402  1
