# generated using pymatgen
data_Na3Ni2RhO6
_symmetry_space_group_name_H-M   'P 1'
_cell_length_a   5.32416068
_cell_length_b   5.32416047
_cell_length_c   5.57385557
_cell_angle_alpha   80.82405036
_cell_angle_beta   99.17594931
_cell_angle_gamma   59.99828986
_symmetry_Int_Tables_number   1
_chemical_formula_structural   Na3Ni2RhO6
_chemical_formula_sum   'Na3 Ni2 Rh1 O6'
_cell_volume   129.68390123
_cell_formula_units_Z   1
loop_
 _symmetry_equiv_pos_site_id
 _symmetry_equiv_pos_as_xyz
  1  'x, y, z'
loop_
 _atom_site_type_symbol
 _atom_site_label
 _atom_site_symmetry_multiplicity
 _atom_site_fract_x
 _atom_site_fract_y
 _atom_site_fract_z
 _atom_site_occupancy
  Na  Na0  1  0.169474  0.169474  0.500000  1
  Na  Na1  1  0.830526  0.830526  0.500000  1
  Na  Na2  1  0.500000  0.500000  0.500000  1
  Ni  Ni3  1  0.666397  0.666397  0.000000  1
  Ni  Ni4  1  0.333603  0.333603  0.000000  1
  Rh  Rh5  1  0.000000  0.000000  0.000000  1
  O  O6  1  0.254425  0.745575  0.798572  1
  O  O7  1  0.067322  0.610377  0.202063  1
  O  O8  1  0.389623  0.932678  0.202063  1
  O  O9  1  0.932678  0.389623  0.797937  1
  O  O10  1  0.610377  0.067322  0.797937  1
  O  O11  1  0.745575  0.254425  0.201428  1
