# generated using pymatgen
data_TmLu7(ReC2)4
_symmetry_space_group_name_H-M   'P 1'
_cell_length_a   4.99203600
_cell_length_b   6.48125944
_cell_length_c   9.66837915
_cell_angle_alpha   90.07642778
_cell_angle_beta   90.00000000
_cell_angle_gamma   90.00000000
_symmetry_Int_Tables_number   1
_chemical_formula_structural   TmLu7(ReC2)4
_chemical_formula_sum   'Tm1 Lu7 Re4 C8'
_cell_volume   312.81703965
_cell_formula_units_Z   1
loop_
 _symmetry_equiv_pos_site_id
 _symmetry_equiv_pos_as_xyz
  1  'x, y, z'
loop_
 _atom_site_type_symbol
 _atom_site_label
 _atom_site_symmetry_multiplicity
 _atom_site_fract_x
 _atom_site_fract_y
 _atom_site_fract_z
 _atom_site_occupancy
  Tm  Tm0  1  0.750000  0.036016  0.717445  1
  Lu  Lu1  1  0.250000  0.824095  0.942229  1
  Lu  Lu2  1  0.250000  0.324508  0.557974  1
  Lu  Lu3  1  0.750000  0.175449  0.058005  1
  Lu  Lu4  1  0.750000  0.675889  0.442011  1
  Lu  Lu5  1  0.250000  0.463677  0.218176  1
  Lu  Lu6  1  0.250000  0.963944  0.282054  1
  Lu  Lu7  1  0.750000  0.536164  0.782027  1
  Re  Re8  1  0.250000  0.284740  0.870503  1
  Re  Re9  1  0.250000  0.784255  0.629589  1
  Re  Re10  1  0.750000  0.715028  0.130004  1
  Re  Re11  1  0.750000  0.215725  0.370133  1
  C  C12  1  0.250000  0.052451  0.740600  1
  C  C13  1  0.250000  0.552410  0.759549  1
  C  C14  1  0.750000  0.947492  0.259587  1
  C  C15  1  0.750000  0.447387  0.240415  1
  C  C16  1  0.250000  0.671339  0.443971  1
  C  C17  1  0.250000  0.171476  0.055826  1
  C  C18  1  0.750000  0.330436  0.555132  1
  C  C19  1  0.750000  0.827522  0.944771  1
