# generated using pymatgen
data_Li3Yb3TmAlPt4
_symmetry_space_group_name_H-M   'P 1'
_cell_length_a   4.03609800
_cell_length_b   7.12082181
_cell_length_c   8.25879613
_cell_angle_alpha   90.78919753
_cell_angle_beta   90.00000000
_cell_angle_gamma   90.00000000
_symmetry_Int_Tables_number   1
_chemical_formula_structural   Li3Yb3TmAlPt4
_chemical_formula_sum   'Li3 Yb3 Tm1 Al1 Pt4'
_cell_volume   237.33804823
_cell_formula_units_Z   1
loop_
 _symmetry_equiv_pos_site_id
 _symmetry_equiv_pos_as_xyz
  1  'x, y, z'
loop_
 _atom_site_type_symbol
 _atom_site_label
 _atom_site_symmetry_multiplicity
 _atom_site_fract_x
 _atom_site_fract_y
 _atom_site_fract_z
 _atom_site_occupancy
  Li  Li0  1  0.250000  0.131529  0.059441  1
  Li  Li1  1  0.250000  0.630348  0.437204  1
  Li  Li2  1  0.750000  0.873937  0.942953  1
  Yb  Yb3  1  0.250000  0.032414  0.681519  1
  Yb  Yb4  1  0.750000  0.957394  0.323226  1
  Yb  Yb5  1  0.750000  0.462605  0.177327  1
  Tm  Tm6  1  0.250000  0.542331  0.823184  1
  Al  Al7  1  0.750000  0.370282  0.559030  1
  Pt  Pt8  1  0.250000  0.264843  0.393900  1
  Pt  Pt9  1  0.250000  0.755086  0.116581  1
  Pt  Pt10  1  0.750000  0.720137  0.628411  1
  Pt  Pt11  1  0.750000  0.259094  0.857224  1
