# generated using pymatgen
data_La8Ho2Sn5Sb3
_symmetry_space_group_name_H-M   'P 1'
_cell_length_a   8.52313400
_cell_length_b   8.57211228
_cell_length_c   16.20560000
_cell_angle_alpha   90.25407875
_cell_angle_beta   90.00000000
_cell_angle_gamma   90.00000000
_symmetry_Int_Tables_number   1
_chemical_formula_structural   La8Ho2Sn5Sb3
_chemical_formula_sum   'La16 Ho4 Sn10 Sb6'
_cell_volume   1183.98994043
_cell_formula_units_Z   2
loop_
 _symmetry_equiv_pos_site_id
 _symmetry_equiv_pos_as_xyz
  1  'x, y, z'
loop_
 _atom_site_type_symbol
 _atom_site_label
 _atom_site_symmetry_multiplicity
 _atom_site_fract_x
 _atom_site_fract_y
 _atom_site_fract_z
 _atom_site_occupancy
  La  La0  1  0.379925  0.840424  0.882373  1
  La  La1  1  0.879925  0.659576  0.617627  1
  La  La2  1  0.619915  0.159032  0.382125  1
  La  La3  1  0.119915  0.340968  0.117875  1
  La  La4  1  0.620581  0.160088  0.117255  1
  La  La5  1  0.120581  0.339912  0.382745  1
  La  La6  1  0.378579  0.840675  0.618475  1
  La  La7  1  0.878579  0.659325  0.881525  1
  La  La8  1  0.541350  0.327356  0.895784  1
  La  La9  1  0.041350  0.172644  0.604216  1
  La  La10  1  0.460468  0.676788  0.396280  1
  La  La11  1  0.960468  0.823212  0.103720  1
  La  La12  1  0.462313  0.673112  0.104006  1
  La  La13  1  0.962313  0.826888  0.395994  1
  La  La14  1  0.536617  0.321563  0.602447  1
  La  La15  1  0.036617  0.178437  0.897553  1
  Ho  Ho16  1  0.211402  0.496866  0.749994  1
  Ho  Ho17  1  0.711402  0.003134  0.750006  1
  Ho  Ho18  1  0.789093  0.501846  0.248280  1
  Ho  Ho19  1  0.289093  0.998154  0.251720  1
  Sn  Sn20  1  0.277379  0.024370  0.450818  1
  Sn  Sn21  1  0.777379  0.475630  0.049182  1
  Sn  Sn22  1  0.572978  0.623253  0.749286  1
  Sn  Sn23  1  0.072978  0.876747  0.750714  1
  Sn  Sn24  1  0.426441  0.375940  0.250334  1
  Sn  Sn25  1  0.926441  0.124060  0.249666  1
  Sn  Sn26  1  0.343487  0.145587  0.750682  1
  Sn  Sn27  1  0.843487  0.354413  0.749318  1
  Sn  Sn28  1  0.657351  0.855017  0.250074  1
  Sn  Sn29  1  0.157351  0.644983  0.249926  1
  Sb  Sb30  1  0.275170  0.020070  0.052063  1
  Sb  Sb31  1  0.775170  0.479930  0.447937  1
  Sb  Sb32  1  0.723504  0.977168  0.551850  1
  Sb  Sb33  1  0.223504  0.522832  0.948150  1
  Sb  Sb34  1  0.723446  0.979129  0.947287  1
  Sb  Sb35  1  0.223446  0.520871  0.552713  1
