# generated using pymatgen
data_HoLuAsSe
_symmetry_space_group_name_H-M   'P 1'
_cell_length_a   7.03039354
_cell_length_b   7.03039354
_cell_length_c   7.03039264
_cell_angle_alpha   33.46850491
_cell_angle_beta   33.46850474
_cell_angle_gamma   33.46850972
_symmetry_Int_Tables_number   1
_chemical_formula_structural   HoLuAsSe
_chemical_formula_sum   'Ho1 Lu1 As1 Se1'
_cell_volume   94.11864746
_cell_formula_units_Z   1
loop_
 _symmetry_equiv_pos_site_id
 _symmetry_equiv_pos_as_xyz
  1  'x, y, z'
loop_
 _atom_site_type_symbol
 _atom_site_label
 _atom_site_symmetry_multiplicity
 _atom_site_fract_x
 _atom_site_fract_y
 _atom_site_fract_z
 _atom_site_occupancy
  Ho  Ho0  1  0.254471  0.254471  0.254471  1
  Lu  Lu1  1  0.745370  0.745370  0.745370  1
  As  As2  1  0.001811  0.001811  0.001811  1
  Se  Se3  1  0.498348  0.498348  0.498348  1
