# generated using pymatgen
data_ErLu7(ScIr3)2
_symmetry_space_group_name_H-M   'P 1'
_cell_length_a   10.60368500
_cell_length_b   10.61304300
_cell_length_c   6.19311700
_cell_angle_alpha   90.00000000
_cell_angle_beta   89.99722516
_cell_angle_gamma   90.00000000
_symmetry_Int_Tables_number   1
_chemical_formula_structural   ErLu7(ScIr3)2
_chemical_formula_sum   'Er2 Lu14 Sc4 Ir12'
_cell_volume   696.95706706
_cell_formula_units_Z   2
loop_
 _symmetry_equiv_pos_site_id
 _symmetry_equiv_pos_as_xyz
  1  'x, y, z'
loop_
 _atom_site_type_symbol
 _atom_site_label
 _atom_site_symmetry_multiplicity
 _atom_site_fract_x
 _atom_site_fract_y
 _atom_site_fract_z
 _atom_site_occupancy
  Er  Er0  1  0.086495  0.711855  0.624535  1
  Er  Er1  1  0.086495  0.288145  0.124535  1
  Lu  Lu2  1  0.289352  0.085607  0.376702  1
  Lu  Lu3  1  0.289352  0.914393  0.876702  1
  Lu  Lu4  1  0.710972  0.086085  0.876103  1
  Lu  Lu5  1  0.710972  0.913915  0.376103  1
  Lu  Lu6  1  0.586086  0.789017  0.876291  1
  Lu  Lu7  1  0.586086  0.210983  0.376291  1
  Lu  Lu8  1  0.414043  0.788984  0.376096  1
  Lu  Lu9  1  0.414043  0.211016  0.876096  1
  Lu  Lu10  1  0.211282  0.413789  0.623741  1
  Lu  Lu11  1  0.211282  0.586211  0.123741  1
  Lu  Lu12  1  0.788488  0.414051  0.123774  1
  Lu  Lu13  1  0.788488  0.585949  0.623774  1
  Lu  Lu14  1  0.913567  0.710998  0.123882  1
  Lu  Lu15  1  0.913567  0.289002  0.623882  1
  Sc  Sc16  1  0.999673  0.000461  0.499748  1
  Sc  Sc17  1  0.999673  0.999539  0.999748  1
  Sc  Sc18  1  0.500083  0.500071  0.999735  1
  Sc  Sc19  1  0.500083  0.499929  0.499735  1
  Ir  Ir20  1  0.849858  0.149269  0.250354  1
  Ir  Ir21  1  0.849858  0.850731  0.750354  1
  Ir  Ir22  1  0.149780  0.149084  0.748653  1
  Ir  Ir23  1  0.149780  0.850916  0.248653  1
  Ir  Ir24  1  0.649555  0.350448  0.750031  1
  Ir  Ir25  1  0.649555  0.649552  0.250031  1
  Ir  Ir26  1  0.351209  0.350607  0.250382  1
  Ir  Ir27  1  0.351209  0.649393  0.750382  1
  Ir  Ir28  1  0.500085  0.000030  0.122873  1
  Ir  Ir29  1  0.500085  0.999970  0.622873  1
  Ir  Ir30  1  0.999473  0.500034  0.877100  1
  Ir  Ir31  1  0.999473  0.499966  0.377100  1
