# generated using pymatgen
data_LiTh3Ru2Au3
_symmetry_space_group_name_H-M   'P 1'
_cell_length_a   7.48216300
_cell_length_b   7.48216255
_cell_length_c   3.95507800
_cell_angle_alpha   90.00000000
_cell_angle_beta   90.00000000
_cell_angle_gamma   119.99999758
_symmetry_Int_Tables_number   1
_chemical_formula_structural   LiTh3Ru2Au3
_chemical_formula_sum   'Li1 Th3 Ru2 Au3'
_cell_volume   191.75204273
_cell_formula_units_Z   1
loop_
 _symmetry_equiv_pos_site_id
 _symmetry_equiv_pos_as_xyz
  1  'x, y, z'
loop_
 _atom_site_type_symbol
 _atom_site_label
 _atom_site_symmetry_multiplicity
 _atom_site_fract_x
 _atom_site_fract_y
 _atom_site_fract_z
 _atom_site_occupancy
  Li  Li0  1  0.000000  0.000000  0.500000  1
  Th  Th1  1  0.431266  0.431266  0.500000  1
  Th  Th2  1  0.568734  0.000000  0.500000  1
  Th  Th3  1  0.000000  0.568734  0.500000  1
  Ru  Ru4  1  0.666667  0.333333  0.000000  1
  Ru  Ru5  1  0.333333  0.666667  0.000000  1
  Au  Au6  1  0.768529  0.768529  0.000000  1
  Au  Au7  1  0.231471  0.000000  0.000000  1
  Au  Au8  1  0.000000  0.231471  0.000000  1
