# generated using pymatgen
data_HfSiNi3Pd
_symmetry_space_group_name_H-M   'P 1'
_cell_length_a   4.72384530
_cell_length_b   4.72384542
_cell_length_c   4.72384610
_cell_angle_alpha   62.32174237
_cell_angle_beta   62.32174703
_cell_angle_gamma   62.32174241
_symmetry_Int_Tables_number   1
_chemical_formula_structural   HfSiNi3Pd
_chemical_formula_sum   'Hf1 Si1 Ni3 Pd1'
_cell_volume   78.39875326
_cell_formula_units_Z   1
loop_
 _symmetry_equiv_pos_site_id
 _symmetry_equiv_pos_as_xyz
  1  'x, y, z'
loop_
 _atom_site_type_symbol
 _atom_site_label
 _atom_site_symmetry_multiplicity
 _atom_site_fract_x
 _atom_site_fract_y
 _atom_site_fract_z
 _atom_site_occupancy
  Hf  Hf0  1  0.246868  0.246868  0.246868  1
  Si  Si1  1  0.627805  0.627805  0.627805  1
  Ni  Ni2  1  0.124632  0.626326  0.626326  1
  Ni  Ni3  1  0.626326  0.124632  0.626326  1
  Ni  Ni4  1  0.626326  0.626326  0.124632  1
  Pd  Pd5  1  0.998041  0.998041  0.998041  1
