# generated using pymatgen
data_DyHoLu14(Ga3Co)2
_symmetry_space_group_name_H-M   'P 1'
_cell_length_a   9.80352700
_cell_length_b   9.80352638
_cell_length_c   6.82260300
_cell_angle_alpha   90.00000000
_cell_angle_beta   90.00000000
_cell_angle_gamma   119.99999872
_symmetry_Int_Tables_number   1
_chemical_formula_structural   DyHoLu14(Ga3Co)2
_chemical_formula_sum   'Dy1 Ho1 Lu14 Ga6 Co2'
_cell_volume   567.86540161
_cell_formula_units_Z   1
loop_
 _symmetry_equiv_pos_site_id
 _symmetry_equiv_pos_as_xyz
  1  'x, y, z'
loop_
 _atom_site_type_symbol
 _atom_site_label
 _atom_site_symmetry_multiplicity
 _atom_site_fract_x
 _atom_site_fract_y
 _atom_site_fract_z
 _atom_site_occupancy
  Dy  Dy0  1  0.000000  0.000000  0.731116  1
  Ho  Ho1  1  0.000000  0.000000  0.231183  1
  Lu  Lu2  1  0.174388  0.825612  0.510772  1
  Lu  Lu3  1  0.651222  0.825612  0.510772  1
  Lu  Lu4  1  0.174388  0.348778  0.510772  1
  Lu  Lu5  1  0.825609  0.174391  0.010851  1
  Lu  Lu6  1  0.348782  0.174391  0.010851  1
  Lu  Lu7  1  0.825609  0.651218  0.010851  1
  Lu  Lu8  1  0.333333  0.666667  0.827743  1
  Lu  Lu9  1  0.666667  0.333333  0.327686  1
  Lu  Lu10  1  0.463570  0.536430  0.207322  1
  Lu  Lu11  1  0.072859  0.536430  0.207322  1
  Lu  Lu12  1  0.463570  0.927141  0.207322  1
  Lu  Lu13  1  0.536427  0.463573  0.707323  1
  Lu  Lu14  1  0.927147  0.463573  0.707323  1
  Lu  Lu15  1  0.536427  0.072853  0.707323  1
  Ga  Ga16  1  0.163810  0.836190  0.960252  1
  Ga  Ga17  1  0.672381  0.836190  0.960252  1
  Ga  Ga18  1  0.163810  0.327619  0.960252  1
  Ga  Ga19  1  0.836196  0.163804  0.460157  1
  Ga  Ga20  1  0.327608  0.163804  0.460157  1
  Ga  Ga21  1  0.836196  0.672392  0.460157  1
  Co  Co22  1  0.333333  0.666667  0.443576  1
  Co  Co23  1  0.666667  0.333333  0.943504  1
