# generated using pymatgen
data_Ba8Mn3Cd(PO4)8
_symmetry_space_group_name_H-M   'P 1'
_cell_length_a   5.41413419
_cell_length_b   9.14837546
_cell_length_c   16.48180066
_cell_angle_alpha   90.06444461
_cell_angle_beta   90.15940517
_cell_angle_gamma   90.00456868
_symmetry_Int_Tables_number   1
_chemical_formula_structural   Ba8Mn3Cd(PO4)8
_chemical_formula_sum   'Ba8 Mn3 Cd1 P8 O32'
_cell_volume   816.34868261
_cell_formula_units_Z   1
loop_
 _symmetry_equiv_pos_site_id
 _symmetry_equiv_pos_as_xyz
  1  'x, y, z'
loop_
 _atom_site_type_symbol
 _atom_site_label
 _atom_site_symmetry_multiplicity
 _atom_site_fract_x
 _atom_site_fract_y
 _atom_site_fract_z
 _atom_site_occupancy
  Ba  Ba0  1  0.703760  0.702722  0.020636  1
  Ba  Ba1  1  0.768441  0.344280  0.229968  1
  Ba  Ba2  1  0.738064  0.840614  0.271734  1
  Ba  Ba3  1  0.795542  0.202734  0.480392  1
  Ba  Ba4  1  0.202343  0.797539  0.521231  1
  Ba  Ba5  1  0.262615  0.156989  0.729254  1
  Ba  Ba6  1  0.236799  0.656141  0.769364  1
  Ba  Ba7  1  0.297648  0.300054  0.977536  1
  Mn  Mn8  1  0.269380  0.482535  0.364397  1
  Mn  Mn9  1  0.730506  0.516945  0.636192  1
  Mn  Mn10  1  0.769064  0.016286  0.862995  1
  Cd  Cd11  1  0.238382  0.986095  0.137911  1
  P  P12  1  0.757735  0.100930  0.076135  1
  P  P13  1  0.238234  0.600982  0.162941  1
  P  P14  1  0.264645  0.105345  0.341123  1
  P  P15  1  0.739522  0.594152  0.422480  1
  P  P16  1  0.260204  0.405448  0.577963  1
  P  P17  1  0.736220  0.894954  0.662365  1
  P  P18  1  0.763649  0.394924  0.836662  1
  P  P19  1  0.239120  0.902642  0.919795  1
  O  O20  1  0.289765  0.892079  0.011387  1
  O  O21  1  0.319664  0.532749  0.080850  1
  O  O22  1  0.982551  0.199731  0.098373  1
  O  O23  1  0.808479  0.945553  0.112226  1
  O  O24  1  0.525786  0.166590  0.119938  1
  O  O25  1  0.950809  0.616139  0.166648  1
  O  O26  1  0.367667  0.753409  0.172272  1
  O  O27  1  0.326579  0.501813  0.234898  1
  O  O28  1  0.158369  0.004541  0.272287  1
  O  O29  1  0.144229  0.260194  0.332151  1
  O  O30  1  0.551698  0.113739  0.333093  1
  O  O31  1  0.977104  0.649147  0.377724  1
  O  O32  1  0.671862  0.439536  0.388257  1
  O  O33  1  0.519091  0.695757  0.399328  1
  O  O34  1  0.190356  0.040193  0.424745  1
  O  O35  1  0.213056  0.403960  0.486115  1
  O  O36  1  0.786685  0.596056  0.514344  1
  O  O37  1  0.819850  0.964595  0.580798  1
  O  O38  1  0.480324  0.303760  0.601133  1
  O  O39  1  0.328209  0.560232  0.611897  1
  O  O40  1  0.022637  0.350572  0.622680  1
  O  O41  1  0.448279  0.886169  0.666383  1
  O  O42  1  0.854122  0.738936  0.669449  1
  O  O43  1  0.833643  0.990578  0.734580  1
  O  O44  1  0.666686  0.490011  0.764338  1
  O  O45  1  0.645172  0.239013  0.829564  1
  O  O46  1  0.051573  0.385682  0.832378  1
  O  O47  1  0.475449  0.850240  0.873471  1
  O  O48  1  0.171531  0.059473  0.889149  1
  O  O49  1  0.016295  0.803217  0.895949  1
  O  O50  1  0.681035  0.465528  0.918191  1
  O  O51  1  0.709576  0.098502  0.984325  1
