# generated using pymatgen
data_GaSe23
_symmetry_space_group_name_H-M   'P 1'
_cell_length_a   5.48466520
_cell_length_b   10.08254414
_cell_length_c   15.64949600
_cell_angle_alpha   98.94882388
_cell_angle_beta   86.30809311
_cell_angle_gamma   94.29197879
_symmetry_Int_Tables_number   1
_chemical_formula_structural   GaSe23
_chemical_formula_sum   'Ga1 Se23'
_cell_volume   851.25283311
_cell_formula_units_Z   1
loop_
 _symmetry_equiv_pos_site_id
 _symmetry_equiv_pos_as_xyz
  1  'x, y, z'
loop_
 _atom_site_type_symbol
 _atom_site_label
 _atom_site_symmetry_multiplicity
 _atom_site_fract_x
 _atom_site_fract_y
 _atom_site_fract_z
 _atom_site_occupancy
  Ga  Ga0  1  0.445407  0.192183  0.318217  1
  Se  Se1  1  0.543887  0.832192  0.404587  1
  Se  Se2  1  0.834143  0.353862  0.136746  1
  Se  Se3  1  0.721834  0.189695  0.432486  1
  Se  Se4  1  0.301734  0.777335  0.526925  1
  Se  Se5  1  0.156836  0.284955  0.031672  1
  Se  Se6  1  0.789640  0.723221  0.028605  1
  Se  Se7  1  0.192518  0.382313  0.344856  1
  Se  Se8  1  0.733266  0.635268  0.344145  1
  Se  Se9  1  0.728527  0.145305  0.186682  1
  Se  Se10  1  0.312801  0.906968  0.155903  1
  Se  Se11  1  0.776276  0.613896  0.630579  1
  Se  Se12  1  0.261621  0.353679  0.608772  1
  Se  Se13  1  0.224927  0.868889  0.869353  1
  Se  Se14  1  0.758428  0.123313  0.848644  1
  Se  Se15  1  0.090334  0.694706  0.124533  1
  Se  Se16  1  0.582005  0.817334  0.638046  1
  Se  Se17  1  0.439729  0.152273  0.550288  1
  Se  Se18  1  0.988326  0.670123  0.889789  1
  Se  Se19  1  0.003755  0.318282  0.900109  1
  Se  Se20  1  0.431850  0.515006  0.255010  1
  Se  Se21  1  0.125672  0.999394  0.291994  1
  Se  Se22  1  0.522191  0.475132  0.712579  1
  Se  Se23  1  0.034295  0.974681  0.769481  1
