# generated using pymatgen
data_Tb2Nd3Er3(CdPt)2
_symmetry_space_group_name_H-M   'P 1'
_cell_length_a   9.76393187
_cell_length_b   9.76393181
_cell_length_c   9.76393200
_cell_angle_alpha   59.99999936
_cell_angle_beta   59.99999955
_cell_angle_gamma   60.00000147
_symmetry_Int_Tables_number   1
_chemical_formula_structural   Tb2Nd3Er3(CdPt)2
_chemical_formula_sum   'Tb4 Nd6 Er6 Cd4 Pt4'
_cell_volume   658.20204552
_cell_formula_units_Z   2
loop_
 _symmetry_equiv_pos_site_id
 _symmetry_equiv_pos_as_xyz
  1  'x, y, z'
loop_
 _atom_site_type_symbol
 _atom_site_label
 _atom_site_symmetry_multiplicity
 _atom_site_fract_x
 _atom_site_fract_y
 _atom_site_fract_z
 _atom_site_occupancy
  Tb  Tb0  1  0.350860  0.350860  0.350860  1
  Tb  Tb1  1  0.350860  0.350860  0.947421  1
  Tb  Tb2  1  0.350860  0.947421  0.350860  1
  Tb  Tb3  1  0.947421  0.350860  0.350860  1
  Nd  Nd4  1  0.938023  0.561977  0.561977  1
  Nd  Nd5  1  0.561977  0.938023  0.938023  1
  Nd  Nd6  1  0.561977  0.938023  0.561977  1
  Nd  Nd7  1  0.938023  0.561977  0.938023  1
  Nd  Nd8  1  0.561977  0.561977  0.938023  1
  Nd  Nd9  1  0.938023  0.938023  0.561977  1
  Er  Er10  1  0.812958  0.187042  0.187042  1
  Er  Er11  1  0.187042  0.812958  0.812958  1
  Er  Er12  1  0.187042  0.812958  0.187042  1
  Er  Er13  1  0.812958  0.187042  0.812958  1
  Er  Er14  1  0.187042  0.187042  0.812958  1
  Er  Er15  1  0.812958  0.812958  0.187042  1
  Cd  Cd16  1  0.579797  0.579797  0.579797  1
  Cd  Cd17  1  0.579797  0.579797  0.260609  1
  Cd  Cd18  1  0.579797  0.260609  0.579797  1
  Cd  Cd19  1  0.260609  0.579797  0.579797  1
  Pt  Pt20  1  0.142042  0.142042  0.142042  1
  Pt  Pt21  1  0.142042  0.142042  0.573873  1
  Pt  Pt22  1  0.142042  0.573873  0.142042  1
  Pt  Pt23  1  0.573873  0.142042  0.142042  1
