# generated using pymatgen
data_Tm4MnReRu6
_symmetry_space_group_name_H-M   'P 1'
_cell_length_a   5.17235629
_cell_length_b   5.34829807
_cell_length_c   8.87695000
_cell_angle_alpha   90.00000000
_cell_angle_beta   90.00000000
_cell_angle_gamma   120.43146951
_symmetry_Int_Tables_number   1
_chemical_formula_structural   Tm4MnReRu6
_chemical_formula_sum   'Tm4 Mn1 Re1 Ru6'
_cell_volume   211.73554016
_cell_formula_units_Z   1
loop_
 _symmetry_equiv_pos_site_id
 _symmetry_equiv_pos_as_xyz
  1  'x, y, z'
loop_
 _atom_site_type_symbol
 _atom_site_label
 _atom_site_symmetry_multiplicity
 _atom_site_fract_x
 _atom_site_fract_y
 _atom_site_fract_z
 _atom_site_occupancy
  Tm  Tm0  1  0.331870  0.667739  0.435360  1
  Tm  Tm1  1  0.658830  0.327722  0.565356  1
  Tm  Tm2  1  0.658830  0.327722  0.934644  1
  Tm  Tm3  1  0.331870  0.667739  0.064640  1
  Mn  Mn4  1  0.835210  0.166199  0.250000  1
  Re  Re5  1  0.672094  0.835399  0.750000  1
  Ru  Ru6  1  0.984513  0.993734  0.497643  1
  Ru  Ru7  1  0.984513  0.993734  0.002357  1
  Ru  Ru8  1  0.828963  0.659922  0.250000  1
  Ru  Ru9  1  0.354206  0.177931  0.250000  1
  Ru  Ru10  1  0.178275  0.831681  0.750000  1
  Ru  Ru11  1  0.180825  0.350480  0.750000  1
