# generated using pymatgen
data_NaSr6Fe(CoO6)2
_symmetry_space_group_name_H-M   'P 1'
_cell_length_a   6.68141851
_cell_length_b   6.68160264
_cell_length_c   6.68042518
_cell_angle_alpha   92.22061469
_cell_angle_beta   92.20483634
_cell_angle_gamma   92.21432394
_symmetry_Int_Tables_number   1
_chemical_formula_structural   NaSr6Fe(CoO6)2
_chemical_formula_sum   'Na1 Sr6 Fe1 Co2 O12'
_cell_volume   297.54628230
_cell_formula_units_Z   1
loop_
 _symmetry_equiv_pos_site_id
 _symmetry_equiv_pos_as_xyz
  1  'x, y, z'
loop_
 _atom_site_type_symbol
 _atom_site_label
 _atom_site_symmetry_multiplicity
 _atom_site_fract_x
 _atom_site_fract_y
 _atom_site_fract_z
 _atom_site_occupancy
  Na  Na0  1  0.249987  0.250059  0.249954  1
  Sr  Sr1  1  0.610790  0.889189  0.249938  1
  Sr  Sr2  1  0.889242  0.249944  0.610884  1
  Sr  Sr3  1  0.250019  0.610732  0.889169  1
  Sr  Sr4  1  0.118323  0.749968  0.381636  1
  Sr  Sr5  1  0.750029  0.381475  0.118484  1
  Sr  Sr6  1  0.381748  0.118438  0.749985  1
  Fe  Fe7  1  0.750187  0.749804  0.750016  1
  Co  Co8  1  0.502260  0.502356  0.502316  1
  Co  Co9  1  0.997690  0.997705  0.997687  1
  O  O10  1  0.557290  0.233949  0.427312  1
  O  O11  1  0.233953  0.427267  0.557378  1
  O  O12  1  0.427398  0.557410  0.233907  1
  O  O13  1  0.028041  0.901339  0.715535  1
  O  O14  1  0.901308  0.715609  0.028107  1
  O  O15  1  0.715762  0.028449  0.901662  1
  O  O16  1  0.471644  0.784361  0.598537  1
  O  O17  1  0.784335  0.598500  0.471904  1
  O  O18  1  0.598597  0.471884  0.784410  1
  O  O19  1  0.942606  0.072774  0.266123  1
  O  O20  1  0.072901  0.266145  0.942604  1
  O  O21  1  0.265891  0.942643  0.072447  1
