# generated using pymatgen
data_ZrNp(PaH4)6
_symmetry_space_group_name_H-M   'P 1'
_cell_length_a   6.52696200
_cell_length_b   6.52696200
_cell_length_c   6.52696200
_cell_angle_alpha   90.00000000
_cell_angle_beta   90.00000000
_cell_angle_gamma   90.00000000
_symmetry_Int_Tables_number   1
_chemical_formula_structural   ZrNp(PaH4)6
_chemical_formula_sum   'Zr1 Np1 Pa6 H24'
_cell_volume   278.05662861
_cell_formula_units_Z   1
loop_
 _symmetry_equiv_pos_site_id
 _symmetry_equiv_pos_as_xyz
  1  'x, y, z'
loop_
 _atom_site_type_symbol
 _atom_site_label
 _atom_site_symmetry_multiplicity
 _atom_site_fract_x
 _atom_site_fract_y
 _atom_site_fract_z
 _atom_site_occupancy
  Zr  Zr0  1  0.500000  0.500000  0.500000  1
  Np  Np1  1  0.000000  0.000000  0.000000  1
  Pa  Pa2  1  0.252821  0.000000  0.500000  1
  Pa  Pa3  1  0.747179  0.000000  0.500000  1
  Pa  Pa4  1  0.000000  0.500000  0.252821  1
  Pa  Pa5  1  0.000000  0.500000  0.747179  1
  Pa  Pa6  1  0.500000  0.747179  0.000000  1
  Pa  Pa7  1  0.500000  0.252821  0.000000  1
  H  H8  1  0.000000  0.155994  0.304341  1
  H  H9  1  0.500000  0.204825  0.651026  1
  H  H10  1  0.500000  0.795175  0.348974  1
  H  H11  1  0.795175  0.651026  0.500000  1
  H  H12  1  0.204825  0.651026  0.500000  1
  H  H13  1  0.348974  0.500000  0.795175  1
  H  H14  1  0.651026  0.500000  0.795175  1
  H  H15  1  0.304341  0.000000  0.155994  1
  H  H16  1  0.155994  0.304341  0.000000  1
  H  H17  1  0.844006  0.695659  0.000000  1
  H  H18  1  0.304341  0.000000  0.844006  1
  H  H19  1  0.844006  0.304341  0.000000  1
  H  H20  1  0.695659  0.000000  0.155994  1
  H  H21  1  0.695659  0.000000  0.844006  1
  H  H22  1  0.155994  0.695659  0.000000  1
  H  H23  1  0.000000  0.844006  0.695659  1
  H  H24  1  0.000000  0.155994  0.695659  1
  H  H25  1  0.000000  0.844006  0.304341  1
  H  H26  1  0.651026  0.500000  0.204825  1
  H  H27  1  0.348974  0.500000  0.204825  1
  H  H28  1  0.795175  0.348974  0.500000  1
  H  H29  1  0.204825  0.348974  0.500000  1
  H  H30  1  0.500000  0.795175  0.651026  1
  H  H31  1  0.500000  0.204825  0.348974  1
