# generated using pymatgen
data_Mg4Zn6RuRh
_symmetry_space_group_name_H-M   'P 1'
_cell_length_a   5.18359824
_cell_length_b   5.24935872
_cell_length_c   8.35526000
_cell_angle_alpha   90.00000000
_cell_angle_beta   90.00000000
_cell_angle_gamma   120.42441516
_symmetry_Int_Tables_number   1
_chemical_formula_structural   Mg4Zn6RuRh
_chemical_formula_sum   'Mg4 Zn6 Ru1 Rh1'
_cell_volume   196.04461261
_cell_formula_units_Z   1
loop_
 _symmetry_equiv_pos_site_id
 _symmetry_equiv_pos_as_xyz
  1  'x, y, z'
loop_
 _atom_site_type_symbol
 _atom_site_label
 _atom_site_symmetry_multiplicity
 _atom_site_fract_x
 _atom_site_fract_y
 _atom_site_fract_z
 _atom_site_occupancy
  Mg  Mg0  1  0.323948  0.652899  0.066023  1
  Mg  Mg1  1  0.675192  0.331457  0.566915  1
  Mg  Mg2  1  0.675192  0.331457  0.933085  1
  Mg  Mg3  1  0.323948  0.652899  0.433977  1
  Zn  Zn4  1  0.002930  0.022065  0.999372  1
  Zn  Zn5  1  0.002930  0.022065  0.500628  1
  Zn  Zn6  1  0.338814  0.164740  0.250000  1
  Zn  Zn7  1  0.659068  0.825357  0.750000  1
  Zn  Zn8  1  0.169968  0.827675  0.750000  1
  Zn  Zn9  1  0.831733  0.663174  0.250000  1
  Ru  Ru10  1  0.175333  0.340573  0.750000  1
  Rh  Rh11  1  0.820946  0.165637  0.250000  1
