# generated using pymatgen
data_Li3Al(GePt3)2
_symmetry_space_group_name_H-M   'P 1'
_cell_length_a   4.03912300
_cell_length_b   6.88176300
_cell_length_c   12.08655400
_cell_angle_alpha   90.00000000
_cell_angle_beta   90.00056343
_cell_angle_gamma   90.00000000
_symmetry_Int_Tables_number   1
_chemical_formula_structural   Li3Al(GePt3)2
_chemical_formula_sum   'Li6 Al2 Ge4 Pt12'
_cell_volume   335.96132640
_cell_formula_units_Z   2
loop_
 _symmetry_equiv_pos_site_id
 _symmetry_equiv_pos_as_xyz
  1  'x, y, z'
loop_
 _atom_site_type_symbol
 _atom_site_label
 _atom_site_symmetry_multiplicity
 _atom_site_fract_x
 _atom_site_fract_y
 _atom_site_fract_z
 _atom_site_occupancy
  Li  Li0  1  0.000012  0.000000  0.999883  1
  Li  Li1  1  0.499859  0.500001  0.166883  1
  Li  Li2  1  0.999856  0.000000  0.333101  1
  Li  Li3  1  0.500005  0.500001  0.500112  1
  Li  Li4  1  0.000158  0.000000  0.667096  1
  Li  Li5  1  0.500149  0.500001  0.832925  1
  Al  Al6  1  0.000147  0.500001  0.667120  1
  Al  Al7  1  0.500148  0.000000  0.832887  1
  Ge  Ge8  1  0.999997  0.500001  0.998790  1
  Ge  Ge9  1  0.499831  0.000000  0.165764  1
  Ge  Ge10  1  0.999827  0.500001  0.334247  1
  Ge  Ge11  1  0.499998  0.000000  0.501201  1
  Pt  Pt12  1  0.500009  0.248465  0.999356  1
  Pt  Pt13  1  0.500009  0.751536  0.999356  1
  Pt  Pt14  1  0.999846  0.249800  0.166730  1
  Pt  Pt15  1  0.999846  0.750201  0.166730  1
  Pt  Pt16  1  0.499843  0.250205  0.333307  1
  Pt  Pt17  1  0.499843  0.749795  0.333307  1
  Pt  Pt18  1  0.000011  0.251534  0.500640  1
  Pt  Pt19  1  0.000011  0.748466  0.500640  1
  Pt  Pt20  1  0.500149  0.250991  0.667169  1
  Pt  Pt21  1  0.500149  0.749009  0.667169  1
  Pt  Pt22  1  0.000148  0.249004  0.832794  1
  Pt  Pt23  1  0.000148  0.750997  0.832794  1
