# generated using pymatgen
data_CrH5F8
_symmetry_space_group_name_H-M   'P 1'
_cell_length_a   3.89542337
_cell_length_b   5.01964521
_cell_length_c   9.45102846
_cell_angle_alpha   92.27328017
_cell_angle_beta   109.81676824
_cell_angle_gamma   92.84663562
_symmetry_Int_Tables_number   1
_chemical_formula_structural   CrH5F8
_chemical_formula_sum   'Cr1 H5 F8'
_cell_volume   173.32959393
_cell_formula_units_Z   1
loop_
 _symmetry_equiv_pos_site_id
 _symmetry_equiv_pos_as_xyz
  1  'x, y, z'
loop_
 _atom_site_type_symbol
 _atom_site_label
 _atom_site_symmetry_multiplicity
 _atom_site_fract_x
 _atom_site_fract_y
 _atom_site_fract_z
 _atom_site_occupancy
  Cr  Cr0  1  0.080401  0.626221  0.378529  1
  H  H1  1  0.891662  0.665487  0.833767  1
  H  H2  1  0.957433  0.098384  0.225073  1
  H  H3  1  0.129205  0.011847  0.908318  1
  H  H4  1  0.204128  0.152148  0.530925  1
  H  H5  1  0.928860  0.343505  0.942074  1
  F  F6  1  0.966127  0.873344  0.216296  1
  F  F7  1  0.020362  0.816095  0.797600  1
  F  F8  1  0.937732  0.328771  0.228122  1
  F  F9  1  0.738798  0.475106  0.894921  1
  F  F10  1  0.186826  0.378151  0.539787  1
  F  F11  1  0.579647  0.626634  0.377533  1
  F  F12  1  0.232838  0.925084  0.529284  1
  F  F13  1  0.189950  0.163059  0.990012  1
