# generated using pymatgen
data_Sr10Fe5Pt4WO30
_symmetry_space_group_name_H-M   'P 1'
_cell_length_a   5.65509435
_cell_length_b   7.91652924
_cell_length_c   14.90429469
_cell_angle_alpha   105.40205126
_cell_angle_beta   99.91878820
_cell_angle_gamma   89.94076883
_symmetry_Int_Tables_number   1
_chemical_formula_structural   Sr10Fe5Pt4WO30
_chemical_formula_sum   'Sr10 Fe5 Pt4 W1 O30'
_cell_volume   632.96464274
_cell_formula_units_Z   1
loop_
 _symmetry_equiv_pos_site_id
 _symmetry_equiv_pos_as_xyz
  1  'x, y, z'
loop_
 _atom_site_type_symbol
 _atom_site_label
 _atom_site_symmetry_multiplicity
 _atom_site_fract_x
 _atom_site_fract_y
 _atom_site_fract_z
 _atom_site_occupancy
  Sr  Sr0  1  0.099597  0.346694  0.204246  1
  Sr  Sr1  1  0.699925  0.950771  0.399301  1
  Sr  Sr2  1  0.301580  0.550916  0.600040  1
  Sr  Sr3  1  0.899350  0.142817  0.795484  1
  Sr  Sr4  1  0.498584  0.759854  0.000804  1
  Sr  Sr5  1  0.501416  0.240146  0.999196  1
  Sr  Sr6  1  0.100650  0.857183  0.204516  1
  Sr  Sr7  1  0.698420  0.449084  0.399960  1
  Sr  Sr8  1  0.300075  0.049229  0.600699  1
  Sr  Sr9  1  0.900403  0.653306  0.795754  1
  Fe  Fe10  1  0.000000  0.000000  0.000000  1
  Fe  Fe11  1  0.599894  0.601166  0.202004  1
  Fe  Fe12  1  0.200970  0.200541  0.401372  1
  Fe  Fe13  1  0.799030  0.799459  0.598628  1
  Fe  Fe14  1  0.400106  0.398834  0.797996  1
  Pt  Pt15  1  0.599627  0.100164  0.199672  1
  Pt  Pt16  1  0.199814  0.699810  0.400129  1
  Pt  Pt17  1  0.800186  0.300190  0.599871  1
  Pt  Pt18  1  0.400373  0.899836  0.800328  1
  W  W19  1  0.000000  0.500000  0.000000  1
  O  O20  1  0.299561  0.048694  0.098982  1
  O  O21  1  0.902566  0.651865  0.299249  1
  O  O22  1  0.501373  0.253474  0.500641  1
  O  O23  1  0.100605  0.851004  0.700782  1
  O  O24  1  0.708668  0.449661  0.903840  1
  O  O25  1  0.291332  0.550339  0.096160  1
  O  O26  1  0.899395  0.148996  0.299218  1
  O  O27  1  0.498627  0.746526  0.499359  1
  O  O28  1  0.097434  0.348135  0.700751  1
  O  O29  1  0.700439  0.951306  0.901018  1
  O  O30  1  0.561670  0.856057  0.215614  1
  O  O31  1  0.162678  0.457827  0.415884  1
  O  O32  1  0.762922  0.058067  0.615381  1
  O  O33  1  0.365858  0.657550  0.820094  1
  O  O34  1  0.973100  0.264815  0.015979  1
  O  O35  1  0.634142  0.342450  0.179906  1
  O  O36  1  0.237078  0.941933  0.384619  1
  O  O37  1  0.837322  0.542173  0.584116  1
  O  O38  1  0.438330  0.143943  0.784386  1
  O  O39  1  0.026900  0.735185  0.984021  1
  O  O40  1  0.196287  0.413430  0.903233  1
  O  O41  1  0.801648  0.007290  0.099299  1
  O  O42  1  0.397276  0.604551  0.298865  1
  O  O43  1  0.999684  0.207171  0.499771  1
  O  O44  1  0.600511  0.808762  0.699648  1
  O  O45  1  0.399489  0.191238  0.300352  1
  O  O46  1  0.000316  0.792829  0.500229  1
  O  O47  1  0.602724  0.395449  0.701135  1
  O  O48  1  0.198352  0.992710  0.900701  1
  O  O49  1  0.803713  0.586570  0.096767  1
