# generated using pymatgen
data_Tb11Y(Hg2Pd)4
_symmetry_space_group_name_H-M   'P 1'
_cell_length_a   13.16892063
_cell_length_b   13.16892034
_cell_length_c   3.74369400
_cell_angle_alpha   90.00000000
_cell_angle_beta   90.00000000
_cell_angle_gamma   112.39375468
_symmetry_Int_Tables_number   1
_chemical_formula_structural   Tb11Y(Hg2Pd)4
_chemical_formula_sum   'Tb11 Y1 Hg8 Pd4'
_cell_volume   600.27290740
_cell_formula_units_Z   1
loop_
 _symmetry_equiv_pos_site_id
 _symmetry_equiv_pos_as_xyz
  1  'x, y, z'
loop_
 _atom_site_type_symbol
 _atom_site_label
 _atom_site_symmetry_multiplicity
 _atom_site_fract_x
 _atom_site_fract_y
 _atom_site_fract_z
 _atom_site_occupancy
  Tb  Tb0  1  0.422284  0.086047  0.000000  1
  Tb  Tb1  1  0.577716  0.913953  0.000000  1
  Tb  Tb2  1  0.086047  0.422284  0.000000  1
  Tb  Tb3  1  0.913953  0.577716  0.000000  1
  Tb  Tb4  1  0.165966  0.834034  0.000000  1
  Tb  Tb5  1  0.834034  0.165966  0.000000  1
  Tb  Tb6  1  0.351161  0.648839  0.000000  1
  Tb  Tb7  1  0.648839  0.351161  0.000000  1
  Tb  Tb8  1  0.280165  0.280165  0.000000  1
  Tb  Tb9  1  0.719835  0.719835  0.000000  1
  Tb  Tb10  1  0.000000  0.000000  0.000000  1
  Y  Y11  1  0.500000  0.500000  0.500000  1
  Hg  Hg12  1  0.368705  0.856072  0.500000  1
  Hg  Hg13  1  0.631295  0.143928  0.500000  1
  Hg  Hg14  1  0.856074  0.368705  0.500000  1
  Hg  Hg15  1  0.143926  0.631295  0.500000  1
  Hg  Hg16  1  0.212553  0.051866  0.500000  1
  Hg  Hg17  1  0.787447  0.948134  0.500000  1
  Hg  Hg18  1  0.051865  0.212552  0.500000  1
  Hg  Hg19  1  0.948135  0.787448  0.500000  1
  Pd  Pd20  1  0.451479  0.261144  0.500000  1
  Pd  Pd21  1  0.548521  0.738856  0.500000  1
  Pd  Pd22  1  0.261145  0.451479  0.500000  1
  Pd  Pd23  1  0.738855  0.548521  0.500000  1
