# generated using pymatgen
data_NdHo2Tm(Ir2O7)2
_symmetry_space_group_name_H-M   'P 1'
_cell_length_a   7.29042150
_cell_length_b   7.22495970
_cell_length_c   7.23070900
_cell_angle_alpha   59.97367773
_cell_angle_beta   60.27057762
_cell_angle_gamma   60.25302369
_symmetry_Int_Tables_number   1
_chemical_formula_structural   NdHo2Tm(Ir2O7)2
_chemical_formula_sum   'Nd1 Ho2 Tm1 Ir4 O14'
_cell_volume   270.31743291
_cell_formula_units_Z   1
loop_
 _symmetry_equiv_pos_site_id
 _symmetry_equiv_pos_as_xyz
  1  'x, y, z'
loop_
 _atom_site_type_symbol
 _atom_site_label
 _atom_site_symmetry_multiplicity
 _atom_site_fract_x
 _atom_site_fract_y
 _atom_site_fract_z
 _atom_site_occupancy
  Nd  Nd0  1  0.625000  0.125000  0.125000  1
  Ho  Ho1  1  0.125000  0.125000  0.625000  1
  Ho  Ho2  1  0.125000  0.125000  0.125000  1
  Tm  Tm3  1  0.125000  0.625000  0.125000  1
  Ir  Ir4  1  0.125000  0.625000  0.625000  1
  Ir  Ir5  1  0.625000  0.125000  0.625000  1
  Ir  Ir6  1  0.625000  0.625000  0.125000  1
  Ir  Ir7  1  0.625000  0.625000  0.625000  1
  O  O8  1  0.723651  0.700999  0.287675  1
  O  O9  1  0.287846  0.288690  0.711731  1
  O  O10  1  0.721816  0.288013  0.702069  1
  O  O11  1  0.287384  0.710769  0.288453  1
  O  O12  1  0.287384  0.710769  0.713394  1
  O  O13  1  0.721816  0.288013  0.288102  1
  O  O14  1  0.526349  0.549001  0.962325  1
  O  O15  1  0.962154  0.961310  0.538269  1
  O  O16  1  0.528184  0.961987  0.547931  1
  O  O17  1  0.962616  0.539231  0.961547  1
  O  O18  1  0.962616  0.539231  0.536606  1
  O  O19  1  0.528184  0.961987  0.961898  1
  O  O20  1  0.238919  0.256440  0.252320  1
  O  O21  1  0.011081  0.993560  0.997680  1
