# generated using pymatgen
data_LiCaZn3Ir
_symmetry_space_group_name_H-M   'P 1'
_cell_length_a   5.15436336
_cell_length_b   5.37334995
_cell_length_c   5.37335000
_cell_angle_alpha   59.99999968
_cell_angle_beta   58.58434423
_cell_angle_gamma   58.58434643
_symmetry_Int_Tables_number   1
_chemical_formula_structural   LiCaZn3Ir
_chemical_formula_sum   'Li1 Ca1 Zn3 Ir1'
_cell_volume   102.92435708
_cell_formula_units_Z   1
loop_
 _symmetry_equiv_pos_site_id
 _symmetry_equiv_pos_as_xyz
  1  'x, y, z'
loop_
 _atom_site_type_symbol
 _atom_site_label
 _atom_site_symmetry_multiplicity
 _atom_site_fract_x
 _atom_site_fract_y
 _atom_site_fract_z
 _atom_site_occupancy
  Li  Li0  1  0.523378  0.492207  0.492207  1
  Ca  Ca1  1  0.748090  0.750637  0.750637  1
  Zn  Zn2  1  0.119243  0.129068  0.129068  1
  Zn  Zn3  1  0.119243  0.129068  0.622622  1
  Zn  Zn4  1  0.119243  0.622622  0.129068  1
  Ir  Ir5  1  0.620805  0.126399  0.126399  1
