# generated using pymatgen
data_Li3Er6Zn20S
_symmetry_space_group_name_H-M   'P 1'
_cell_length_a   9.01748913
_cell_length_b   9.01749329
_cell_length_c   9.04257400
_cell_angle_alpha   59.90777505
_cell_angle_beta   59.90795066
_cell_angle_gamma   59.85781378
_symmetry_Int_Tables_number   1
_chemical_formula_structural   Li3Er6Zn20S
_chemical_formula_sum   'Li3 Er6 Zn20 S1'
_cell_volume   518.65043648
_cell_formula_units_Z   1
loop_
 _symmetry_equiv_pos_site_id
 _symmetry_equiv_pos_as_xyz
  1  'x, y, z'
loop_
 _atom_site_type_symbol
 _atom_site_label
 _atom_site_symmetry_multiplicity
 _atom_site_fract_x
 _atom_site_fract_y
 _atom_site_fract_z
 _atom_site_occupancy
  Li  Li0  1  0.626558  0.125185  0.124110  1
  Li  Li1  1  0.125190  0.626573  0.124101  1
  Li  Li2  1  0.002766  0.002779  0.997244  1
  Er  Er3  1  0.712830  0.289450  0.289193  1
  Er  Er4  1  0.712811  0.289475  0.708505  1
  Er  Er5  1  0.708334  0.708330  0.291670  1
  Er  Er6  1  0.289477  0.712812  0.708510  1
  Er  Er7  1  0.289452  0.712813  0.289197  1
  Er  Er8  1  0.287138  0.287147  0.712862  1
  Zn  Zn9  1  0.122646  0.122643  0.632478  1
  Zn  Zn10  1  0.122645  0.122651  0.122245  1
  Zn  Zn11  1  0.368915  0.872568  0.879260  1
  Zn  Zn12  1  0.872567  0.368915  0.879260  1
  Zn  Zn13  1  0.875825  0.875830  0.366272  1
  Zn  Zn14  1  0.875829  0.875831  0.882075  1
  Zn  Zn15  1  0.501376  0.002051  0.998343  1
  Zn  Zn16  1  0.501378  0.002054  0.498229  1
  Zn  Zn17  1  0.499510  0.499506  0.000495  1
  Zn  Zn18  1  0.002055  0.501375  0.498231  1
  Zn  Zn19  1  0.002052  0.501377  0.998344  1
  Zn  Zn20  1  0.999824  0.999824  0.500179  1
  Zn  Zn21  1  0.011055  0.331948  0.328502  1
  Zn  Zn22  1  0.331953  0.011049  0.328502  1
  Zn  Zn23  1  0.329887  0.329883  0.012759  1
  Zn  Zn24  1  0.329886  0.329881  0.327475  1
  Zn  Zn25  1  0.988798  0.670094  0.670556  1
  Zn  Zn26  1  0.670091  0.988802  0.670556  1
  Zn  Zn27  1  0.670445  0.670447  0.989439  1
  Zn  Zn28  1  0.670448  0.670449  0.669673  1
  S  S29  1  0.498255  0.498260  0.501732  1
