# generated using pymatgen
data_ScH7
_symmetry_space_group_name_H-M   'P 1'
_cell_length_a   3.22880909
_cell_length_b   3.22872614
_cell_length_c   10.58639886
_cell_angle_alpha   87.95823081
_cell_angle_beta   88.24788974
_cell_angle_gamma   60.05394933
_symmetry_Int_Tables_number   1
_chemical_formula_structural   ScH7
_chemical_formula_sum   'Sc1 H7'
_cell_volume   95.55757266
_cell_formula_units_Z   1
loop_
 _symmetry_equiv_pos_site_id
 _symmetry_equiv_pos_as_xyz
  1  'x, y, z'
loop_
 _atom_site_type_symbol
 _atom_site_label
 _atom_site_symmetry_multiplicity
 _atom_site_fract_x
 _atom_site_fract_y
 _atom_site_fract_z
 _atom_site_occupancy
  Sc  Sc0  1  0.113407  0.695174  0.603315  1
  H  H1  1  0.693636  0.054779  0.189894  1
  H  H2  1  0.786723  0.370681  0.501932  1
  H  H3  1  0.630996  0.962365  0.249202  1
  H  H4  1  0.240791  0.639805  0.008746  1
  H  H5  1  0.447119  0.028336  0.606047  1
  H  H6  1  0.383442  0.655642  0.953374  1
  H  H7  1  0.775151  0.352980  0.705178  1
