# generated using pymatgen
data_K8Mn3Fe5P8(O7F2)4
_symmetry_space_group_name_H-M   'P 1'
_cell_length_a   6.94419900
_cell_length_b   10.57902200
_cell_length_c   11.41415900
_cell_angle_alpha   90.00000000
_cell_angle_beta   90.00000000
_cell_angle_gamma   90.00000000
_symmetry_Int_Tables_number   1
_chemical_formula_structural   K8Mn3Fe5P8(O7F2)4
_chemical_formula_sum   'K8 Mn3 Fe5 P8 O28 F8'
_cell_volume   838.51646779
_cell_formula_units_Z   1
loop_
 _symmetry_equiv_pos_site_id
 _symmetry_equiv_pos_as_xyz
  1  'x, y, z'
loop_
 _atom_site_type_symbol
 _atom_site_label
 _atom_site_symmetry_multiplicity
 _atom_site_fract_x
 _atom_site_fract_y
 _atom_site_fract_z
 _atom_site_occupancy
  K  K0  1  0.500927  0.064682  0.825880  1
  K  K1  1  0.999710  0.565346  0.672274  1
  K  K2  1  0.000635  0.934962  0.672586  1
  K  K3  1  0.500255  0.435823  0.826235  1
  K  K4  1  0.498297  0.934999  0.174630  1
  K  K5  1  0.001557  0.434395  0.327278  1
  K  K6  1  0.998186  0.065223  0.326897  1
  K  K7  1  0.500813  0.564672  0.174211  1
  Mn  Mn8  1  0.000980  0.251243  0.835628  1
  Mn  Mn9  1  0.500057  0.749855  0.664436  1
  Mn  Mn10  1  0.001031  0.999160  0.000059  1
  Fe  Fe11  1  0.998988  0.748779  0.164771  1
  Fe  Fe12  1  0.499949  0.250150  0.335217  1
  Fe  Fe13  1  0.499071  0.499053  0.499725  1
  Fe  Fe14  1  0.500987  0.000907  0.499808  1
  Fe  Fe15  1  0.998890  0.500908  0.000202  1
  P  P16  1  0.217977  0.248202  0.578117  1
  P  P17  1  0.282020  0.746520  0.921107  1
  P  P18  1  0.716023  0.750894  0.920914  1
  P  P19  1  0.782112  0.252112  0.578340  1
  P  P20  1  0.782310  0.751290  0.420508  1
  P  P21  1  0.717604  0.253072  0.080314  1
  P  P22  1  0.284241  0.249605  0.080568  1
  P  P23  1  0.217549  0.748257  0.420313  1
  O  O24  1  0.999944  0.249948  0.520725  1
  O  O25  1  0.498962  0.747494  0.979377  1
  O  O26  1  0.000010  0.749998  0.478584  1
  O  O27  1  0.500974  0.252513  0.021421  1
  O  O28  1  0.172776  0.327887  0.988857  1
  O  O29  1  0.326312  0.828776  0.511665  1
  O  O30  1  0.673661  0.670940  0.512033  1
  O  O31  1  0.826577  0.173701  0.988016  1
  O  O32  1  0.826929  0.673223  0.013059  1
  O  O33  1  0.673826  0.172167  0.486597  1
  O  O34  1  0.326121  0.327962  0.486179  1
  O  O35  1  0.173522  0.825234  0.013824  1
  O  O36  1  0.279332  0.109298  0.582552  1
  O  O37  1  0.220757  0.607939  0.914243  1
  O  O38  1  0.773818  0.890058  0.914387  1
  O  O39  1  0.720941  0.391080  0.582638  1
  O  O40  1  0.719963  0.890020  0.416458  1
  O  O41  1  0.779733  0.391520  0.086675  1
  O  O42  1  0.225428  0.110604  0.086598  1
  O  O43  1  0.279656  0.609456  0.416366  1
  O  O44  1  0.205409  0.309642  0.699244  1
  O  O45  1  0.295158  0.810211  0.800859  1
  O  O46  1  0.703673  0.687944  0.800287  1
  O  O47  1  0.794744  0.191496  0.699871  1
  O  O48  1  0.795126  0.689919  0.299454  1
  O  O49  1  0.704368  0.189519  0.200534  1
  O  O50  1  0.296859  0.312452  0.201142  1
  O  O51  1  0.204698  0.808841  0.298866  1
  F  F52  1  0.120860  0.070404  0.843028  1
  F  F53  1  0.379486  0.569411  0.653593  1
  F  F54  1  0.620462  0.930402  0.653707  1
  F  F55  1  0.885818  0.433824  0.845599  1
  F  F56  1  0.882461  0.923114  0.157745  1
  F  F57  1  0.617682  0.424150  0.345155  1
  F  F58  1  0.382474  0.076086  0.345290  1
  F  F59  1  0.111310  0.572659  0.155354  1
