# generated using pymatgen
data_Lu3CS2
_symmetry_space_group_name_H-M   'P 1'
_cell_length_a   6.53633623
_cell_length_b   6.53633685
_cell_length_c   6.53633665
_cell_angle_alpha   147.63055516
_cell_angle_beta   132.50102842
_cell_angle_gamma   58.65320044
_symmetry_Int_Tables_number   1
_chemical_formula_structural   Lu3CS2
_chemical_formula_sum   'Lu3 C1 S2'
_cell_volume   109.32404118
_cell_formula_units_Z   1
loop_
 _symmetry_equiv_pos_site_id
 _symmetry_equiv_pos_as_xyz
  1  'x, y, z'
loop_
 _atom_site_type_symbol
 _atom_site_label
 _atom_site_symmetry_multiplicity
 _atom_site_fract_x
 _atom_site_fract_y
 _atom_site_fract_z
 _atom_site_occupancy
  Lu  Lu0  1  0.859540  0.359540  0.500000  1
  Lu  Lu1  1  0.500000  0.000000  0.500000  1
  Lu  Lu2  1  0.140460  0.640460  0.500000  1
  C  C3  1  0.000000  0.000000  0.000000  1
  S  S4  1  0.673066  0.673066  0.000000  1
  S  S5  1  0.326934  0.326934  0.000000  1
