# generated using pymatgen
data_UTa5(TiMn2)6
_symmetry_space_group_name_H-M   'P 1'
_cell_length_a   4.28444100
_cell_length_b   6.05467700
_cell_length_c   12.78505300
_cell_angle_alpha   90.00000000
_cell_angle_beta   90.00010279
_cell_angle_gamma   90.00000000
_symmetry_Int_Tables_number   1
_chemical_formula_structural   UTa5(TiMn2)6
_chemical_formula_sum   'U1 Ta5 Ti6 Mn12'
_cell_volume   331.65586294
_cell_formula_units_Z   1
loop_
 _symmetry_equiv_pos_site_id
 _symmetry_equiv_pos_as_xyz
  1  'x, y, z'
loop_
 _atom_site_type_symbol
 _atom_site_label
 _atom_site_symmetry_multiplicity
 _atom_site_fract_x
 _atom_site_fract_y
 _atom_site_fract_z
 _atom_site_occupancy
  U  U0  1  0.000000  0.500000  0.000000  1
  Ta  Ta1  1  0.500037  0.000000  0.168821  1
  Ta  Ta2  1  0.000042  0.500000  0.336484  1
  Ta  Ta3  1  0.500001  0.000000  0.500000  1
  Ta  Ta4  1  0.999960  0.500000  0.663516  1
  Ta  Ta5  1  0.499963  0.000000  0.831179  1
  Ti  Ti6  1  0.000000  0.000000  0.000000  1
  Ti  Ti7  1  0.500049  0.500000  0.175171  1
  Ti  Ti8  1  0.000046  0.000000  0.334933  1
  Ti  Ti9  1  0.500001  0.500000  0.500000  1
  Ti  Ti10  1  0.999953  0.000000  0.665066  1
  Ti  Ti11  1  0.499953  0.500000  0.824829  1
  Mn  Mn12  1  0.500001  0.261298  0.000000  1
  Mn  Mn13  1  0.500001  0.738702  0.000000  1
  Mn  Mn14  1  0.000040  0.255813  0.160408  1
  Mn  Mn15  1  0.000040  0.744187  0.160408  1
  Mn  Mn16  1  0.500043  0.249497  0.331533  1
  Mn  Mn17  1  0.500043  0.750502  0.331533  1
  Mn  Mn18  1  0.000000  0.249000  0.500000  1
  Mn  Mn19  1  0.000000  0.751001  0.500000  1
  Mn  Mn20  1  0.499956  0.249497  0.668467  1
  Mn  Mn21  1  0.499956  0.750502  0.668467  1
  Mn  Mn22  1  0.999959  0.255813  0.839592  1
  Mn  Mn23  1  0.999959  0.744187  0.839592  1
