# generated using pymatgen
data_Tm11LuIn2Fe3
_symmetry_space_group_name_H-M   'P 1'
_cell_length_a   8.23550973
_cell_length_b   8.23445618
_cell_length_c   8.23445562
_cell_angle_alpha   108.51552141
_cell_angle_beta   108.51840972
_cell_angle_gamma   111.39168391
_symmetry_Int_Tables_number   1
_chemical_formula_structural   Tm11LuIn2Fe3
_chemical_formula_sum   'Tm11 Lu1 In2 Fe3'
_cell_volume   429.53520925
_cell_formula_units_Z   1
loop_
 _symmetry_equiv_pos_site_id
 _symmetry_equiv_pos_as_xyz
  1  'x, y, z'
loop_
 _atom_site_type_symbol
 _atom_site_label
 _atom_site_symmetry_multiplicity
 _atom_site_fract_x
 _atom_site_fract_y
 _atom_site_fract_z
 _atom_site_occupancy
  Tm  Tm0  1  0.307959  0.308810  0.616224  1
  Tm  Tm1  1  0.691922  0.692040  0.384305  1
  Tm  Tm2  1  0.691922  0.307617  0.999882  1
  Tm  Tm3  1  0.307959  0.691735  0.999149  1
  Tm  Tm4  1  0.191120  0.427539  0.236838  1
  Tm  Tm5  1  0.809095  0.573128  0.763566  1
  Tm  Tm6  1  0.191120  0.954281  0.763581  1
  Tm  Tm7  1  0.953718  0.189917  0.763802  1
  Tm  Tm8  1  0.809095  0.045530  0.235967  1
  Tm  Tm9  1  0.045649  0.809320  0.236328  1
  Tm  Tm10  1  0.426871  0.190302  0.236569  1
  Lu  Lu11  1  0.574120  0.809788  0.764332  1
  In  In12  1  0.999653  0.499976  0.499677  1
  In  In13  1  0.499703  0.999051  0.500651  1
  Fe  Fe14  1  0.384647  0.385031  0.999616  1
  Fe  Fe15  1  0.616996  0.616729  0.000267  1
  Fe  Fe16  1  0.998451  0.999205  0.999245  1
