# generated using pymatgen
data_Ca3Lu(Ga5Ir3)2
_symmetry_space_group_name_H-M   'P 1'
_cell_length_a   8.66715450
_cell_length_b   8.59073942
_cell_length_c   8.59074054
_cell_angle_alpha   140.73878016
_cell_angle_beta   110.81981830
_cell_angle_gamma   82.43278934
_symmetry_Int_Tables_number   1
_chemical_formula_structural   Ca3Lu(Ga5Ir3)2
_chemical_formula_sum   'Ca3 Lu1 Ga10 Ir6'
_cell_volume   367.06624539
_cell_formula_units_Z   1
loop_
 _symmetry_equiv_pos_site_id
 _symmetry_equiv_pos_as_xyz
  1  'x, y, z'
loop_
 _atom_site_type_symbol
 _atom_site_label
 _atom_site_symmetry_multiplicity
 _atom_site_fract_x
 _atom_site_fract_y
 _atom_site_fract_z
 _atom_site_occupancy
  Ca  Ca0  1  0.623619  0.350416  0.273203  1
  Ca  Ca1  1  0.376628  0.649565  0.727063  1
  Ca  Ca2  1  0.920734  0.147893  0.772840  1
  Lu  Lu3  1  0.075861  0.850954  0.224908  1
  Ga  Ga4  1  0.298818  0.050029  0.748791  1
  Ga  Ga5  1  0.391841  0.078292  0.313549  1
  Ga  Ga6  1  0.298818  0.550028  0.248790  1
  Ga  Ga7  1  0.001364  0.747417  0.746314  1
  Ga  Ga8  1  0.700409  0.447871  0.748848  1
  Ga  Ga9  1  0.234285  0.419610  0.814675  1
  Ga  Ga10  1  0.606170  0.919302  0.686868  1
  Ga  Ga11  1  0.763615  0.579419  0.184194  1
  Ga  Ga12  1  0.700409  0.951561  0.252537  1
  Ga  Ga13  1  0.001364  0.255050  0.253947  1
  Ir  Ir14  1  0.775000  0.849422  0.925578  1
  Ir  Ir15  1  0.068146  0.655462  0.412683  1
  Ir  Ir16  1  0.932897  0.347431  0.585466  1
  Ir  Ir17  1  0.232064  0.151062  0.081002  1
  Ir  Ir18  1  0.498979  0.748397  0.248160  1
  Ir  Ir19  1  0.498979  0.250818  0.750582  1
