# generated using pymatgen
data_Tm(ZnAg)6
_symmetry_space_group_name_H-M   'P 1'
_cell_length_a   7.05440202
_cell_length_b   7.05440214
_cell_length_c   7.05440166
_cell_angle_alpha   97.90382116
_cell_angle_beta   97.66340093
_cell_angle_gamma   136.81403422
_symmetry_Int_Tables_number   1
_chemical_formula_structural   Tm(ZnAg)6
_chemical_formula_sum   'Tm1 Zn6 Ag6'
_cell_volume   223.39270367
_cell_formula_units_Z   1
loop_
 _symmetry_equiv_pos_site_id
 _symmetry_equiv_pos_as_xyz
  1  'x, y, z'
loop_
 _atom_site_type_symbol
 _atom_site_label
 _atom_site_symmetry_multiplicity
 _atom_site_fract_x
 _atom_site_fract_y
 _atom_site_fract_z
 _atom_site_occupancy
  Tm  Tm0  1  0.000000  0.000000  0.000000  1
  Zn  Zn1  1  0.000000  0.000000  0.500000  1
  Zn  Zn2  1  0.500000  0.500000  0.500000  1
  Zn  Zn3  1  0.500000  0.000000  0.000000  1
  Zn  Zn4  1  0.000000  0.500000  0.000000  1
  Zn  Zn5  1  0.724279  0.500000  0.224279  1
  Zn  Zn6  1  0.275721  0.500000  0.775721  1
  Ag  Ag7  1  0.000000  0.347040  0.347040  1
  Ag  Ag8  1  0.000000  0.652960  0.652960  1
  Ag  Ag9  1  0.654175  0.000000  0.654175  1
  Ag  Ag10  1  0.345825  0.000000  0.345825  1
  Ag  Ag11  1  0.500000  0.305330  0.805330  1
  Ag  Ag12  1  0.500000  0.694670  0.194670  1
