# generated using pymatgen
data_Te(S4F3)2
_symmetry_space_group_name_H-M   'P 1'
_cell_length_a   8.11698253
_cell_length_b   8.15065614
_cell_length_c   12.27186277
_cell_angle_alpha   98.18653667
_cell_angle_beta   100.35079731
_cell_angle_gamma   90.40302552
_symmetry_Int_Tables_number   1
_chemical_formula_structural   Te(S4F3)2
_chemical_formula_sum   'Te2 S16 F12'
_cell_volume   790.09581676
_cell_formula_units_Z   2
loop_
 _symmetry_equiv_pos_site_id
 _symmetry_equiv_pos_as_xyz
  1  'x, y, z'
loop_
 _atom_site_type_symbol
 _atom_site_label
 _atom_site_symmetry_multiplicity
 _atom_site_fract_x
 _atom_site_fract_y
 _atom_site_fract_z
 _atom_site_occupancy
  Te  Te0  1  0.711507  0.220161  0.902875  1
  Te  Te1  1  0.288493  0.779839  0.097125  1
  S  S2  1  0.448055  0.753852  0.664956  1
  S  S3  1  0.551945  0.246148  0.335044  1
  S  S4  1  0.280367  0.903110  0.581929  1
  S  S5  1  0.719633  0.096890  0.418071  1
  S  S6  1  0.102690  0.976349  0.678199  1
  S  S7  1  0.897310  0.023651  0.321801  1
  S  S8  1  0.891175  0.824012  0.625893  1
  S  S9  1  0.108825  0.175988  0.374107  1
  S  S10  1  0.897746  0.640725  0.726492  1
  S  S11  1  0.102254  0.359275  0.273508  1
  S  S12  1  0.990598  0.428861  0.650246  1
  S  S13  1  0.009402  0.571139  0.349754  1
  S  S14  1  0.242673  0.419584  0.714368  1
  S  S15  1  0.757327  0.580416  0.285632  1
  S  S16  1  0.620164  0.491938  0.392081  1
  S  S17  1  0.379836  0.508062  0.607919  1
  F  F18  1  0.749743  0.250697  0.059269  1
  F  F19  1  0.250257  0.749303  0.940731  1
  F  F20  1  0.672490  0.190131  0.746149  1
  F  F21  1  0.327510  0.809869  0.253851  1
  F  F22  1  0.490079  0.148907  0.898263  1
  F  F23  1  0.509921  0.851093  0.101737  1
  F  F24  1  0.643338  0.439333  0.903514  1
  F  F25  1  0.356662  0.560667  0.096486  1
  F  F26  1  0.932656  0.290740  0.906078  1
  F  F27  1  0.067344  0.709260  0.093922  1
  F  F28  1  0.780247  0.000898  0.900598  1
  F  F29  1  0.219753  0.999102  0.099402  1
