# generated using pymatgen
data_Pr3Tm(Si5Os3)2
_symmetry_space_group_name_H-M   'P 1'
_cell_length_a   8.23172450
_cell_length_b   8.20485412
_cell_length_c   5.87764165
_cell_angle_alpha   70.45048780
_cell_angle_beta   70.33001778
_cell_angle_gamma   93.72138757
_symmetry_Int_Tables_number   1
_chemical_formula_structural   Pr3Tm(Si5Os3)2
_chemical_formula_sum   'Pr3 Tm1 Si10 Os6'
_cell_volume   345.13997211
_cell_formula_units_Z   1
loop_
 _symmetry_equiv_pos_site_id
 _symmetry_equiv_pos_as_xyz
  1  'x, y, z'
loop_
 _atom_site_type_symbol
 _atom_site_label
 _atom_site_symmetry_multiplicity
 _atom_site_fract_x
 _atom_site_fract_y
 _atom_site_fract_z
 _atom_site_occupancy
  Pr  Pr0  1  0.868819  0.602345  0.753648  1
  Pr  Pr1  1  0.396989  0.133293  0.744987  1
  Pr  Pr2  1  0.133176  0.396560  0.245452  1
  Tm  Tm3  1  0.601370  0.868438  0.255265  1
  Si  Si4  1  0.062078  0.261775  0.836187  1
  Si  Si5  1  0.738822  0.936961  0.665678  1
  Si  Si6  1  0.931939  0.741230  0.164213  1
  Si  Si7  1  0.259930  0.059013  0.337224  1
  Si  Si8  1  0.208050  0.791512  0.752264  1
  Si  Si9  1  0.789242  0.205487  0.249975  1
  Si  Si10  1  0.513825  0.489501  0.749602  1
  Si  Si11  1  0.491370  0.516191  0.246051  1
  Si  Si12  1  0.772156  0.225065  0.753420  1
  Si  Si13  1  0.231636  0.772824  0.248793  1
  Os  Os14  1  0.260857  0.544659  0.629696  1
  Os  Os15  1  0.460016  0.745305  0.864203  1
  Os  Os16  1  0.743050  0.457162  0.368743  1
  Os  Os17  1  0.541604  0.253461  0.132445  1
  Os  Os18  1  0.000836  0.996995  0.751156  1
  Os  Os19  1  0.994238  0.002226  0.250999  1
