# generated using pymatgen
data_Dy2Er3(In2Cu)2
_symmetry_space_group_name_H-M   'P 1'
_cell_length_a   3.64254900
_cell_length_b   8.01607602
_cell_length_c   17.90828774
_cell_angle_alpha   89.90058568
_cell_angle_beta   90.00000000
_cell_angle_gamma   90.00000000
_symmetry_Int_Tables_number   1
_chemical_formula_structural   Dy2Er3(In2Cu)2
_chemical_formula_sum   'Dy4 Er6 In8 Cu4'
_cell_volume   522.90240540
_cell_formula_units_Z   2
loop_
 _symmetry_equiv_pos_site_id
 _symmetry_equiv_pos_as_xyz
  1  'x, y, z'
loop_
 _atom_site_type_symbol
 _atom_site_label
 _atom_site_symmetry_multiplicity
 _atom_site_fract_x
 _atom_site_fract_y
 _atom_site_fract_z
 _atom_site_occupancy
  Dy  Dy0  1  0.000000  0.500000  0.500000  1
  Dy  Dy1  1  0.000000  0.000000  0.000000  1
  Dy  Dy2  1  0.000000  0.738768  0.280289  1
  Dy  Dy3  1  0.000000  0.261232  0.719711  1
  Er  Er4  1  0.000000  0.761176  0.780203  1
  Er  Er5  1  0.000000  0.238824  0.219797  1
  Er  Er6  1  0.000000  0.617943  0.083364  1
  Er  Er7  1  0.000000  0.382057  0.916636  1
  Er  Er8  1  0.000000  0.881806  0.583285  1
  Er  Er9  1  0.000000  0.118194  0.416715  1
  In  In10  1  0.500000  0.706288  0.930875  1
  In  In11  1  0.500000  0.293712  0.069125  1
  In  In12  1  0.500000  0.793995  0.431358  1
  In  In13  1  0.500000  0.206005  0.568642  1
  In  In14  1  0.500000  0.579939  0.650576  1
  In  In15  1  0.500000  0.420061  0.349424  1
  In  In16  1  0.500000  0.921300  0.150299  1
  In  In17  1  0.500000  0.078700  0.849701  1
  Cu  Cu18  1  0.500000  0.523409  0.196859  1
  Cu  Cu19  1  0.500000  0.476591  0.803141  1
  Cu  Cu20  1  0.500000  0.974360  0.697148  1
  Cu  Cu21  1  0.500000  0.025640  0.302852  1
