# generated using pymatgen
data_U(FeB)4
_symmetry_space_group_name_H-M   'P 1'
_cell_length_a   5.04154100
_cell_length_b   5.04154100
_cell_length_c   6.86623200
_cell_angle_alpha   90.00000000
_cell_angle_beta   90.00000000
_cell_angle_gamma   90.00000000
_symmetry_Int_Tables_number   1
_chemical_formula_structural   U(FeB)4
_chemical_formula_sum   'U2 Fe8 B8'
_cell_volume   174.51995018
_cell_formula_units_Z   2
loop_
 _symmetry_equiv_pos_site_id
 _symmetry_equiv_pos_as_xyz
  1  'x, y, z'
loop_
 _atom_site_type_symbol
 _atom_site_label
 _atom_site_symmetry_multiplicity
 _atom_site_fract_x
 _atom_site_fract_y
 _atom_site_fract_z
 _atom_site_occupancy
  U  U0  1  0.000000  0.000000  0.000000  1
  U  U1  1  0.500000  0.500000  0.500000  1
  Fe  Fe2  1  0.500000  0.743087  0.139512  1
  Fe  Fe3  1  0.756913  0.000000  0.639512  1
  Fe  Fe4  1  0.243087  0.000000  0.639512  1
  Fe  Fe5  1  0.000000  0.756913  0.360488  1
  Fe  Fe6  1  0.000000  0.243087  0.360488  1
  Fe  Fe7  1  0.500000  0.256913  0.139512  1
  Fe  Fe8  1  0.743087  0.500000  0.860488  1
  Fe  Fe9  1  0.256913  0.500000  0.860488  1
  B  B10  1  0.500000  0.827283  0.844271  1
  B  B11  1  0.672717  0.000000  0.344271  1
  B  B12  1  0.327283  0.000000  0.344271  1
  B  B13  1  0.000000  0.672717  0.655729  1
  B  B14  1  0.000000  0.327283  0.655729  1
  B  B15  1  0.500000  0.172717  0.844271  1
  B  B16  1  0.827283  0.500000  0.155729  1
  B  B17  1  0.172717  0.500000  0.155729  1
