# generated using pymatgen
data_Sc7Ta(V3Si4)4
_symmetry_space_group_name_H-M   'P 1'
_cell_length_a   6.61246680
_cell_length_b   6.61126531
_cell_length_c   12.23312261
_cell_angle_alpha   90.11862179
_cell_angle_beta   89.98993352
_cell_angle_gamma   90.05542169
_symmetry_Int_Tables_number   1
_chemical_formula_structural   Sc7Ta(V3Si4)4
_chemical_formula_sum   'Sc7 Ta1 V12 Si16'
_cell_volume   534.79123201
_cell_formula_units_Z   1
loop_
 _symmetry_equiv_pos_site_id
 _symmetry_equiv_pos_as_xyz
  1  'x, y, z'
loop_
 _atom_site_type_symbol
 _atom_site_label
 _atom_site_symmetry_multiplicity
 _atom_site_fract_x
 _atom_site_fract_y
 _atom_site_fract_z
 _atom_site_occupancy
  Sc  Sc0  1  0.837636  0.501486  0.278947  1
  Sc  Sc1  1  0.161673  0.498881  0.779377  1
  Sc  Sc2  1  0.501304  0.837148  0.720936  1
  Sc  Sc3  1  0.498657  0.161971  0.219329  1
  Sc  Sc4  1  0.998634  0.337486  0.529579  1
  Sc  Sc5  1  0.664275  0.999176  0.971322  1
  Sc  Sc6  1  0.337784  0.998475  0.470169  1
  Ta  Ta7  1  0.007981  0.658381  0.030777  1
  V  V8  1  0.329105  0.336371  0.000018  1
  V  V9  1  0.167640  0.830845  0.248887  1
  V  V10  1  0.832943  0.168603  0.751485  1
  V  V11  1  0.668245  0.668271  0.500170  1
  V  V12  1  0.004993  0.157080  0.124865  1
  V  V13  1  0.342964  0.506937  0.375559  1
  V  V14  1  0.657189  0.496019  0.878111  1
  V  V15  1  0.506261  0.343982  0.623731  1
  V  V16  1  0.492513  0.658386  0.121825  1
  V  V17  1  0.992616  0.842779  0.627209  1
  V  V18  1  0.153918  0.005927  0.875206  1
  V  V19  1  0.843601  0.991040  0.372575  1
  Si  Si20  1  0.292998  0.960072  0.064739  1
  Si  Si21  1  0.540180  0.793861  0.314083  1
  Si  Si22  1  0.459944  0.206478  0.815025  1
  Si  Si23  1  0.794355  0.540019  0.685531  1
  Si  Si24  1  0.206433  0.459888  0.185338  1
  Si  Si25  1  0.705966  0.039687  0.564976  1
  Si  Si26  1  0.959177  0.295790  0.935234  1
  Si  Si27  1  0.039702  0.705589  0.435365  1
  Si  Si28  1  0.706111  0.372516  0.070864  1
  Si  Si29  1  0.129025  0.203250  0.319592  1
  Si  Si30  1  0.869950  0.794426  0.822981  1
  Si  Si31  1  0.203606  0.129389  0.679912  1
  Si  Si32  1  0.797753  0.867879  0.177091  1
  Si  Si33  1  0.296525  0.630206  0.570042  1
  Si  Si34  1  0.368323  0.705404  0.929338  1
  Si  Si35  1  0.630020  0.296304  0.429809  1
