# generated using pymatgen
data_DyEr2SbO7
_symmetry_space_group_name_H-M   'P 1'
_cell_length_a   6.43763401
_cell_length_b   6.43763487
_cell_length_c   7.48044100
_cell_angle_alpha   90.00000000
_cell_angle_beta   90.00000000
_cell_angle_gamma   109.22158046
_symmetry_Int_Tables_number   1
_chemical_formula_structural   DyEr2SbO7
_chemical_formula_sum   'Dy2 Er4 Sb2 O14'
_cell_volume   292.73047586
_cell_formula_units_Z   2
loop_
 _symmetry_equiv_pos_site_id
 _symmetry_equiv_pos_as_xyz
  1  'x, y, z'
loop_
 _atom_site_type_symbol
 _atom_site_label
 _atom_site_symmetry_multiplicity
 _atom_site_fract_x
 _atom_site_fract_y
 _atom_site_fract_z
 _atom_site_occupancy
  Dy  Dy0  1  0.512662  0.512662  0.500000  1
  Dy  Dy1  1  0.487338  0.487338  0.000000  1
  Er  Er2  1  0.999432  0.468230  0.747621  1
  Er  Er3  1  0.000568  0.531770  0.247621  1
  Er  Er4  1  0.531770  0.000568  0.752379  1
  Er  Er5  1  0.468230  0.999432  0.252379  1
  Sb  Sb6  1  0.999484  0.999484  0.500000  1
  Sb  Sb7  1  0.000516  0.000516  0.000000  1
  O  O8  1  0.639215  0.360785  0.750000  1
  O  O9  1  0.360785  0.639215  0.250000  1
  O  O10  1  0.928164  0.071836  0.750000  1
  O  O11  1  0.071836  0.928164  0.250000  1
  O  O12  1  0.921650  0.673559  0.528426  1
  O  O13  1  0.078350  0.326441  0.028426  1
  O  O14  1  0.326441  0.078350  0.971574  1
  O  O15  1  0.673559  0.921650  0.471574  1
  O  O16  1  0.369005  0.630995  0.750000  1
  O  O17  1  0.630995  0.369005  0.250000  1
  O  O18  1  0.936240  0.680864  0.966955  1
  O  O19  1  0.063760  0.319136  0.466955  1
  O  O20  1  0.319136  0.063760  0.533045  1
  O  O21  1  0.680864  0.936240  0.033045  1
