# generated using pymatgen
data_TmMnCo4P3
_symmetry_space_group_name_H-M   'P 1'
_cell_length_a   3.62630300
_cell_length_b   10.23356100
_cell_length_c   11.72441700
_cell_angle_alpha   90.00000000
_cell_angle_beta   90.00000000
_cell_angle_gamma   90.00000000
_symmetry_Int_Tables_number   1
_chemical_formula_structural   TmMnCo4P3
_chemical_formula_sum   'Tm4 Mn4 Co16 P12'
_cell_volume   435.09303227
_cell_formula_units_Z   4
loop_
 _symmetry_equiv_pos_site_id
 _symmetry_equiv_pos_as_xyz
  1  'x, y, z'
loop_
 _atom_site_type_symbol
 _atom_site_label
 _atom_site_symmetry_multiplicity
 _atom_site_fract_x
 _atom_site_fract_y
 _atom_site_fract_z
 _atom_site_occupancy
  Tm  Tm0  1  0.250000  0.582035  0.704372  1
  Tm  Tm1  1  0.250000  0.917965  0.204372  1
  Tm  Tm2  1  0.750000  0.417965  0.295628  1
  Tm  Tm3  1  0.750000  0.082035  0.795628  1
  Mn  Mn4  1  0.250000  0.712141  0.988225  1
  Mn  Mn5  1  0.250000  0.787859  0.488225  1
  Mn  Mn6  1  0.750000  0.287859  0.011775  1
  Mn  Mn7  1  0.750000  0.212141  0.511775  1
  Co  Co8  1  0.250000  0.406776  0.487599  1
  Co  Co9  1  0.250000  0.093224  0.987599  1
  Co  Co10  1  0.750000  0.593224  0.512401  1
  Co  Co11  1  0.750000  0.906776  0.012401  1
  Co  Co12  1  0.250000  0.220802  0.177026  1
  Co  Co13  1  0.250000  0.279198  0.677026  1
  Co  Co14  1  0.750000  0.779198  0.822974  1
  Co  Co15  1  0.750000  0.720802  0.322974  1
  Co  Co16  1  0.250000  0.883701  0.698832  1
  Co  Co17  1  0.250000  0.616299  0.198832  1
  Co  Co18  1  0.750000  0.116299  0.301168  1
  Co  Co19  1  0.750000  0.383701  0.801168  1
  Co  Co20  1  0.250000  0.466201  0.931999  1
  Co  Co21  1  0.250000  0.033799  0.431999  1
  Co  Co22  1  0.750000  0.533799  0.068001  1
  Co  Co23  1  0.750000  0.966201  0.568001  1
  P  P24  1  0.250000  0.418050  0.112859  1
  P  P25  1  0.250000  0.081950  0.612859  1
  P  P26  1  0.750000  0.581950  0.887141  1
  P  P27  1  0.750000  0.918050  0.387141  1
  P  P28  1  0.250000  0.268435  0.868899  1
  P  P29  1  0.250000  0.231565  0.368899  1
  P  P30  1  0.750000  0.731565  0.131101  1
  P  P31  1  0.750000  0.768435  0.631101  1
  P  P32  1  0.250000  0.599918  0.390881  1
  P  P33  1  0.250000  0.900082  0.890881  1
  P  P34  1  0.750000  0.400082  0.609119  1
  P  P35  1  0.750000  0.099918  0.109119  1
