# generated using pymatgen
data_Sm3Dy2P12Ru16Pt3
_symmetry_space_group_name_H-M   'P 1'
_cell_length_a   12.65784100
_cell_length_b   12.65784137
_cell_length_c   3.98175900
_cell_angle_alpha   90.00000000
_cell_angle_beta   90.00000000
_cell_angle_gamma   120.00000165
_symmetry_Int_Tables_number   1
_chemical_formula_structural   Sm3Dy2P12Ru16Pt3
_chemical_formula_sum   'Sm3 Dy2 P12 Ru16 Pt3'
_cell_volume   552.49058240
_cell_formula_units_Z   1
loop_
 _symmetry_equiv_pos_site_id
 _symmetry_equiv_pos_as_xyz
  1  'x, y, z'
loop_
 _atom_site_type_symbol
 _atom_site_label
 _atom_site_symmetry_multiplicity
 _atom_site_fract_x
 _atom_site_fract_y
 _atom_site_fract_z
 _atom_site_occupancy
  Sm  Sm0  1  0.815571  0.999206  0.500000  1
  Sm  Sm1  1  0.183635  0.184429  0.500000  1
  Sm  Sm2  1  0.000794  0.816365  0.500000  1
  Dy  Dy3  1  0.666667  0.333333  0.000000  1
  Dy  Dy4  1  0.333333  0.666667  0.000000  1
  P  P5  1  0.625890  0.986277  0.000000  1
  P  P6  1  0.360387  0.374110  0.000000  1
  P  P7  1  0.013723  0.639613  0.000000  1
  P  P8  1  0.695982  0.528009  0.500000  1
  P  P9  1  0.832028  0.304018  0.500000  1
  P  P10  1  0.308162  0.828647  0.500000  1
  P  P11  1  0.520484  0.691838  0.500000  1
  P  P12  1  0.185344  0.001112  0.000000  1
  P  P13  1  0.815769  0.814656  0.000000  1
  P  P14  1  0.998888  0.184231  0.000000  1
  P  P15  1  0.471991  0.167972  0.500000  1
  P  P16  1  0.171353  0.479516  0.500000  1
  Ru  Ru17  1  0.618813  0.797700  0.000000  1
  Ru  Ru18  1  0.178887  0.381187  0.000000  1
  Ru  Ru19  1  0.380672  0.188174  0.000000  1
  Ru  Ru20  1  0.202300  0.821113  0.000000  1
  Ru  Ru21  1  0.807502  0.619328  0.000000  1
  Ru  Ru22  1  0.126410  0.635479  0.500000  1
  Ru  Ru23  1  0.364521  0.490932  0.500000  1
  Ru  Ru24  1  0.509068  0.873590  0.500000  1
  Ru  Ru25  1  0.000000  0.000000  0.000000  1
  Ru  Ru26  1  0.715213  0.714017  0.500000  1
  Ru  Ru27  1  0.998804  0.284787  0.500000  1
  Ru  Ru28  1  0.453371  0.005836  0.000000  1
  Ru  Ru29  1  0.552465  0.546629  0.000000  1
  Ru  Ru30  1  0.994164  0.447535  0.000000  1
  Ru  Ru31  1  0.811826  0.192498  0.000000  1
  Ru  Ru32  1  0.285983  0.001196  0.500000  1
  Pt  Pt33  1  0.867827  0.501247  0.500000  1
  Pt  Pt34  1  0.498753  0.366580  0.500000  1
  Pt  Pt35  1  0.633420  0.132173  0.500000  1
