# generated using pymatgen
data_Tb3Dy2Bi2Rh
_symmetry_space_group_name_H-M   'P 1'
_cell_length_a   8.06476400
_cell_length_b   9.01207000
_cell_length_c   12.52887900
_cell_angle_alpha   90.00000000
_cell_angle_beta   90.00000000
_cell_angle_gamma   90.00000000
_symmetry_Int_Tables_number   1
_chemical_formula_structural   Tb3Dy2Bi2Rh
_chemical_formula_sum   'Tb12 Dy8 Bi8 Rh4'
_cell_volume   910.60165328
_cell_formula_units_Z   4
loop_
 _symmetry_equiv_pos_site_id
 _symmetry_equiv_pos_as_xyz
  1  'x, y, z'
loop_
 _atom_site_type_symbol
 _atom_site_label
 _atom_site_symmetry_multiplicity
 _atom_site_fract_x
 _atom_site_fract_y
 _atom_site_fract_z
 _atom_site_occupancy
  Tb  Tb0  1  0.842634  0.750000  0.794507  1
  Tb  Tb1  1  0.157366  0.250000  0.205493  1
  Tb  Tb2  1  0.342634  0.250000  0.705493  1
  Tb  Tb3  1  0.657366  0.750000  0.294507  1
  Tb  Tb4  1  0.375292  0.750000  0.693808  1
  Tb  Tb5  1  0.624708  0.250000  0.306192  1
  Tb  Tb6  1  0.875292  0.250000  0.806192  1
  Tb  Tb7  1  0.124708  0.750000  0.193808  1
  Tb  Tb8  1  0.954498  0.750000  0.501483  1
  Tb  Tb9  1  0.045502  0.250000  0.498517  1
  Tb  Tb10  1  0.454498  0.250000  0.998517  1
  Tb  Tb11  1  0.545502  0.750000  0.001483  1
  Dy  Dy12  1  0.677738  0.039594  0.565540  1
  Dy  Dy13  1  0.322262  0.960406  0.434460  1
  Dy  Dy14  1  0.177738  0.960406  0.934460  1
  Dy  Dy15  1  0.322262  0.539594  0.434460  1
  Dy  Dy16  1  0.822262  0.039594  0.065540  1
  Dy  Dy17  1  0.677738  0.460406  0.565540  1
  Dy  Dy18  1  0.822262  0.460406  0.065540  1
  Dy  Dy19  1  0.177738  0.539594  0.934460  1
  Bi  Bi20  1  0.569634  0.491904  0.826421  1
  Bi  Bi21  1  0.430366  0.508096  0.173579  1
  Bi  Bi22  1  0.069634  0.508096  0.673579  1
  Bi  Bi23  1  0.430366  0.991904  0.173579  1
  Bi  Bi24  1  0.930366  0.491904  0.326421  1
  Bi  Bi25  1  0.569634  0.008096  0.826421  1
  Bi  Bi26  1  0.930366  0.008096  0.326421  1
  Bi  Bi27  1  0.069634  0.991904  0.673579  1
  Rh  Rh28  1  0.567971  0.750000  0.509661  1
  Rh  Rh29  1  0.432029  0.250000  0.490339  1
  Rh  Rh30  1  0.067971  0.250000  0.990339  1
  Rh  Rh31  1  0.932029  0.750000  0.009661  1
