# generated using pymatgen
data_CePrHgPd2
_symmetry_space_group_name_H-M   'P 1'
_cell_length_a   7.87823700
_cell_length_b   7.86901500
_cell_length_c   3.85116000
_cell_angle_alpha   90.00000000
_cell_angle_beta   90.00000000
_cell_angle_gamma   90.00000000
_symmetry_Int_Tables_number   1
_chemical_formula_structural   CePrHgPd2
_chemical_formula_sum   'Ce2 Pr2 Hg2 Pd4'
_cell_volume   238.74867874
_cell_formula_units_Z   2
loop_
 _symmetry_equiv_pos_site_id
 _symmetry_equiv_pos_as_xyz
  1  'x, y, z'
loop_
 _atom_site_type_symbol
 _atom_site_label
 _atom_site_symmetry_multiplicity
 _atom_site_fract_x
 _atom_site_fract_y
 _atom_site_fract_z
 _atom_site_occupancy
  Ce  Ce0  1  0.824040  0.676135  0.500000  1
  Ce  Ce1  1  0.324040  0.823865  0.500000  1
  Pr  Pr2  1  0.676158  0.175073  0.500000  1
  Pr  Pr3  1  0.176158  0.324927  0.500000  1
  Hg  Hg4  1  0.998921  0.999693  0.000000  1
  Hg  Hg5  1  0.498921  0.500307  0.000000  1
  Pd  Pd6  1  0.373636  0.111883  0.000000  1
  Pd  Pd7  1  0.127245  0.638713  0.000000  1
  Pd  Pd8  1  0.627245  0.861287  0.000000  1
  Pd  Pd9  1  0.873636  0.388117  0.000000  1
