# generated using pymatgen
data_Tm4MnAl2CrB16
_symmetry_space_group_name_H-M   'P 1'
_cell_length_a   3.44977600
_cell_length_b   5.90375534
_cell_length_c   11.40745760
_cell_angle_alpha   89.94370601
_cell_angle_beta   90.00000000
_cell_angle_gamma   90.00000000
_symmetry_Int_Tables_number   1
_chemical_formula_structural   Tm4MnAl2CrB16
_chemical_formula_sum   'Tm4 Mn1 Al2 Cr1 B16'
_cell_volume   232.33139578
_cell_formula_units_Z   1
loop_
 _symmetry_equiv_pos_site_id
 _symmetry_equiv_pos_as_xyz
  1  'x, y, z'
loop_
 _atom_site_type_symbol
 _atom_site_label
 _atom_site_symmetry_multiplicity
 _atom_site_fract_x
 _atom_site_fract_y
 _atom_site_fract_z
 _atom_site_occupancy
  Tm  Tm0  1  0.500000  0.375048  0.152276  1
  Tm  Tm1  1  0.500000  0.626990  0.854435  1
  Tm  Tm2  1  0.500000  0.126566  0.648582  1
  Tm  Tm3  1  0.500000  0.874223  0.343921  1
  Mn  Mn4  1  0.500000  0.872155  0.084202  1
  Al  Al5  1  0.500000  0.634268  0.586161  1
  Al  Al6  1  0.500000  0.132341  0.916648  1
  Cr  Cr7  1  0.500000  0.371034  0.413664  1
  B  B8  1  0.000000  0.110107  0.049780  1
  B  B9  1  0.000000  0.882147  0.955387  1
  B  B10  1  0.000000  0.382355  0.546298  1
  B  B11  1  0.000000  0.612979  0.450330  1
  B  B12  1  0.000000  0.134882  0.467538  1
  B  B13  1  0.000000  0.866520  0.531362  1
  B  B14  1  0.000000  0.365684  0.969023  1
  B  B15  1  0.000000  0.637264  0.033014  1
  B  B16  1  0.000000  0.019487  0.190944  1
  B  B17  1  0.000000  0.974222  0.806750  1
  B  B18  1  0.000000  0.473849  0.694578  1
  B  B19  1  0.000000  0.522505  0.306990  1
  B  B20  1  0.000000  0.212657  0.314245  1
  B  B21  1  0.000000  0.788456  0.687410  1
  B  B22  1  0.000000  0.288212  0.813528  1
  B  B23  1  0.000000  0.716048  0.182934  1
