# generated using pymatgen
data_Nd16Ni3Ag4Os
_symmetry_space_group_name_H-M   'P 1'
_cell_length_a   9.83162123
_cell_length_b   9.83161999
_cell_length_c   9.83162044
_cell_angle_alpha   59.44654264
_cell_angle_beta   59.44654802
_cell_angle_gamma   59.44654843
_symmetry_Int_Tables_number   1
_chemical_formula_structural   Nd16Ni3Ag4Os
_chemical_formula_sum   'Nd16 Ni3 Ag4 Os1'
_cell_volume   663.52511806
_cell_formula_units_Z   1
loop_
 _symmetry_equiv_pos_site_id
 _symmetry_equiv_pos_as_xyz
  1  'x, y, z'
loop_
 _atom_site_type_symbol
 _atom_site_label
 _atom_site_symmetry_multiplicity
 _atom_site_fract_x
 _atom_site_fract_y
 _atom_site_fract_z
 _atom_site_occupancy
  Nd  Nd0  1  0.599144  0.599144  0.599144  1
  Nd  Nd1  1  0.600489  0.600489  0.203434  1
  Nd  Nd2  1  0.600489  0.203434  0.600489  1
  Nd  Nd3  1  0.203434  0.600489  0.600489  1
  Nd  Nd4  1  0.059093  0.438957  0.438957  1
  Nd  Nd5  1  0.441552  0.057117  0.057117  1
  Nd  Nd6  1  0.438957  0.059093  0.438957  1
  Nd  Nd7  1  0.057117  0.441552  0.057117  1
  Nd  Nd8  1  0.438957  0.438957  0.059093  1
  Nd  Nd9  1  0.057117  0.057117  0.441552  1
  Nd  Nd10  1  0.185561  0.814180  0.814180  1
  Nd  Nd11  1  0.807022  0.188718  0.188718  1
  Nd  Nd12  1  0.814180  0.185561  0.814180  1
  Nd  Nd13  1  0.188718  0.807022  0.188718  1
  Nd  Nd14  1  0.814180  0.814180  0.185561  1
  Nd  Nd15  1  0.188718  0.188718  0.807022  1
  Ni  Ni16  1  0.394292  0.394292  0.823850  1
  Ni  Ni17  1  0.394292  0.823850  0.394292  1
  Ni  Ni18  1  0.823850  0.394292  0.394292  1
  Ag  Ag19  1  0.832210  0.832210  0.832210  1
  Ag  Ag20  1  0.829601  0.829601  0.509897  1
  Ag  Ag21  1  0.829601  0.509897  0.829601  1
  Ag  Ag22  1  0.509897  0.829601  0.829601  1
  Os  Os23  1  0.391529  0.391529  0.391529  1
