# generated using pymatgen
data_Li2Ho(Ni10P3)2
_symmetry_space_group_name_H-M   'P 1'
_cell_length_a   7.84646473
_cell_length_b   7.84646507
_cell_length_c   7.84646400
_cell_angle_alpha   60.00000450
_cell_angle_beta   60.00000309
_cell_angle_gamma   59.99999860
_symmetry_Int_Tables_number   1
_chemical_formula_structural   Li2Ho(Ni10P3)2
_chemical_formula_sum   'Li2 Ho1 Ni20 P6'
_cell_volume   341.59152069
_cell_formula_units_Z   1
loop_
 _symmetry_equiv_pos_site_id
 _symmetry_equiv_pos_as_xyz
  1  'x, y, z'
loop_
 _atom_site_type_symbol
 _atom_site_label
 _atom_site_symmetry_multiplicity
 _atom_site_fract_x
 _atom_site_fract_y
 _atom_site_fract_z
 _atom_site_occupancy
  Li  Li0  1  0.250000  0.250000  0.250000  1
  Li  Li1  1  0.000000  0.000000  0.000000  1
  Ho  Ho2  1  0.750000  0.750000  0.750000  1
  Ni  Ni3  1  0.381296  0.381296  0.381296  1
  Ni  Ni4  1  0.610946  0.610946  0.610946  1
  Ni  Ni5  1  0.381296  0.381296  0.856113  1
  Ni  Ni6  1  0.381296  0.856113  0.381296  1
  Ni  Ni7  1  0.610946  0.610946  0.167162  1
  Ni  Ni8  1  0.610946  0.167162  0.610946  1
  Ni  Ni9  1  0.856113  0.381296  0.381296  1
  Ni  Ni10  1  0.167162  0.610946  0.610946  1
  Ni  Ni11  1  0.349128  0.000743  0.000743  1
  Ni  Ni12  1  0.649386  0.000743  0.000743  1
  Ni  Ni13  1  0.000743  0.349128  0.649386  1
  Ni  Ni14  1  0.000743  0.649386  0.349128  1
  Ni  Ni15  1  0.000743  0.349128  0.000743  1
  Ni  Ni16  1  0.649386  0.000743  0.349128  1
  Ni  Ni17  1  0.000743  0.649386  0.000743  1
  Ni  Ni18  1  0.349128  0.000743  0.649386  1
  Ni  Ni19  1  0.000743  0.000743  0.349128  1
  Ni  Ni20  1  0.000743  0.000743  0.649386  1
  Ni  Ni21  1  0.649386  0.349128  0.000743  1
  Ni  Ni22  1  0.349128  0.649386  0.000743  1
  P  P23  1  0.738444  0.261556  0.261556  1
  P  P24  1  0.261556  0.738444  0.738444  1
  P  P25  1  0.261556  0.738444  0.261556  1
  P  P26  1  0.738444  0.261556  0.738444  1
  P  P27  1  0.261556  0.261556  0.738444  1
  P  P28  1  0.738444  0.738444  0.261556  1
