# generated using pymatgen
data_Ca3Ce2Dy(HfSb5)2
_symmetry_space_group_name_H-M   'P 1'
_cell_length_a   9.42028400
_cell_length_b   9.45492724
_cell_length_c   6.26982000
_cell_angle_alpha   90.00000000
_cell_angle_beta   90.00000000
_cell_angle_gamma   119.87886135
_symmetry_Int_Tables_number   1
_chemical_formula_structural   Ca3Ce2Dy(HfSb5)2
_chemical_formula_sum   'Ca3 Ce2 Dy1 Hf2 Sb10'
_cell_volume   484.21331795
_cell_formula_units_Z   1
loop_
 _symmetry_equiv_pos_site_id
 _symmetry_equiv_pos_as_xyz
  1  'x, y, z'
loop_
 _atom_site_type_symbol
 _atom_site_label
 _atom_site_symmetry_multiplicity
 _atom_site_fract_x
 _atom_site_fract_y
 _atom_site_fract_z
 _atom_site_occupancy
  Ca  Ca0  1  0.384260  0.000000  0.750000  1
  Ca  Ca1  1  0.002075  0.382227  0.750000  1
  Ca  Ca2  1  0.619848  0.617773  0.750000  1
  Ce  Ce3  1  0.998546  0.619453  0.250000  1
  Ce  Ce4  1  0.379093  0.380547  0.250000  1
  Dy  Dy5  1  0.620952  0.000000  0.250000  1
  Hf  Hf6  1  0.997795  0.000000  0.995199  1
  Hf  Hf7  1  0.997795  0.000000  0.504801  1
  Sb  Sb8  1  0.260181  0.000000  0.250000  1
  Sb  Sb9  1  0.735067  0.000000  0.750000  1
  Sb  Sb10  1  0.996565  0.260354  0.250000  1
  Sb  Sb11  1  0.002172  0.736264  0.750000  1
  Sb  Sb12  1  0.736211  0.739646  0.250000  1
  Sb  Sb13  1  0.265909  0.263736  0.750000  1
  Sb  Sb14  1  0.335557  0.669350  0.010297  1
  Sb  Sb15  1  0.666208  0.330650  0.010297  1
  Sb  Sb16  1  0.666208  0.330650  0.489703  1
  Sb  Sb17  1  0.335557  0.669350  0.489703  1
