# generated using pymatgen
data_Ba2CoCuF10
_symmetry_space_group_name_H-M   'P 1'
_cell_length_a   5.01664700
_cell_length_b   5.76802000
_cell_length_c   14.02328400
_cell_angle_alpha   90.00000000
_cell_angle_beta   90.00000000
_cell_angle_gamma   90.00000000
_symmetry_Int_Tables_number   1
_chemical_formula_structural   Ba2CoCuF10
_chemical_formula_sum   'Ba4 Co2 Cu2 F20'
_cell_volume   405.77943183
_cell_formula_units_Z   2
loop_
 _symmetry_equiv_pos_site_id
 _symmetry_equiv_pos_as_xyz
  1  'x, y, z'
loop_
 _atom_site_type_symbol
 _atom_site_label
 _atom_site_symmetry_multiplicity
 _atom_site_fract_x
 _atom_site_fract_y
 _atom_site_fract_z
 _atom_site_occupancy
  Ba  Ba0  1  0.729048  0.664170  0.659718  1
  Ba  Ba1  1  0.229048  0.835830  0.340282  1
  Ba  Ba2  1  0.273848  0.156706  0.844074  1
  Ba  Ba3  1  0.773848  0.343294  0.155926  1
  Co  Co4  1  0.322695  0.147474  0.585673  1
  Co  Co5  1  0.822695  0.352526  0.414327  1
  Cu  Cu6  1  0.676176  0.650080  0.916227  1
  Cu  Cu7  1  0.176176  0.849920  0.083773  1
  F  F8  1  0.970374  0.596353  0.483081  1
  F  F9  1  0.470374  0.903647  0.516919  1
  F  F10  1  0.030443  0.103982  0.015764  1
  F  F11  1  0.530443  0.396018  0.984236  1
  F  F12  1  0.666793  0.575903  0.326242  1
  F  F13  1  0.166793  0.924097  0.673758  1
  F  F14  1  0.338416  0.064167  0.170340  1
  F  F15  1  0.838416  0.435833  0.829660  1
  F  F16  1  0.188406  0.395407  0.657587  1
  F  F17  1  0.688406  0.104593  0.342413  1
  F  F18  1  0.803715  0.904459  0.841506  1
  F  F19  1  0.303715  0.595541  0.158494  1
  F  F20  1  0.618683  0.153614  0.674629  1
  F  F21  1  0.118683  0.346386  0.325371  1
  F  F22  1  0.382617  0.648270  0.828865  1
  F  F23  1  0.882617  0.851730  0.171135  1
  F  F24  1  0.513041  0.375835  0.502609  1
  F  F25  1  0.013041  0.124165  0.497391  1
  F  F26  1  0.485744  0.873766  0.996876  1
  F  F27  1  0.985744  0.626234  0.003124  1
