# generated using pymatgen
data_Hf4TaNb5N12
_symmetry_space_group_name_H-M   'P 1'
_cell_length_a   5.31917061
_cell_length_b   5.32830383
_cell_length_c   10.57577000
_cell_angle_alpha   90.00000000
_cell_angle_beta   90.00000000
_cell_angle_gamma   120.05679789
_symmetry_Int_Tables_number   1
_chemical_formula_structural   Hf4TaNb5N12
_chemical_formula_sum   'Hf4 Ta1 Nb5 N12'
_cell_volume   259.43387637
_cell_formula_units_Z   1
loop_
 _symmetry_equiv_pos_site_id
 _symmetry_equiv_pos_as_xyz
  1  'x, y, z'
loop_
 _atom_site_type_symbol
 _atom_site_label
 _atom_site_symmetry_multiplicity
 _atom_site_fract_x
 _atom_site_fract_y
 _atom_site_fract_z
 _atom_site_occupancy
  Hf  Hf0  1  0.665813  0.332349  0.999980  1
  Hf  Hf1  1  0.334187  0.666537  0.999980  1
  Hf  Hf2  1  0.334187  0.666537  0.500020  1
  Hf  Hf3  1  0.665813  0.332349  0.500020  1
  Ta  Ta4  1  0.000000  0.681139  0.250000  1
  Nb  Nb5  1  0.680217  0.680133  0.750000  1
  Nb  Nb6  1  0.319783  0.999916  0.750000  1
  Nb  Nb7  1  0.000000  0.320113  0.750000  1
  Nb  Nb8  1  0.319511  0.319759  0.250000  1
  Nb  Nb9  1  0.680489  0.000248  0.250000  1
  N  N10  1  0.657458  0.653713  0.374058  1
  N  N11  1  0.342542  0.996255  0.374058  1
  N  N12  1  0.000000  0.351297  0.373474  1
  N  N13  1  0.346691  0.346594  0.625483  1
  N  N14  1  0.653309  0.999904  0.625483  1
  N  N15  1  0.000000  0.652696  0.625526  1
  N  N16  1  0.346691  0.346594  0.874517  1
  N  N17  1  0.653309  0.999904  0.874517  1
  N  N18  1  0.000000  0.652696  0.874474  1
  N  N19  1  0.657458  0.653713  0.125942  1
  N  N20  1  0.342542  0.996255  0.125942  1
  N  N21  1  0.000000  0.351297  0.126526  1
