# generated using pymatgen
data_Tb5DyCo2(P3Ir4)4
_symmetry_space_group_name_H-M   'P 1'
_cell_length_a   3.93829000
_cell_length_b   11.11146801
_cell_length_c   12.80071001
_cell_angle_alpha   90.00426534
_cell_angle_beta   90.00000000
_cell_angle_gamma   90.00000000
_symmetry_Int_Tables_number   1
_chemical_formula_structural   Tb5DyCo2(P3Ir4)4
_chemical_formula_sum   'Tb5 Dy1 Co2 P12 Ir16'
_cell_volume   560.16141532
_cell_formula_units_Z   1
loop_
 _symmetry_equiv_pos_site_id
 _symmetry_equiv_pos_as_xyz
  1  'x, y, z'
loop_
 _atom_site_type_symbol
 _atom_site_label
 _atom_site_symmetry_multiplicity
 _atom_site_fract_x
 _atom_site_fract_y
 _atom_site_fract_z
 _atom_site_occupancy
  Tb  Tb0  1  0.000000  0.500002  0.522580  1
  Tb  Tb1  1  0.500000  0.999986  0.477359  1
  Tb  Tb2  1  0.500000  0.184191  0.200491  1
  Tb  Tb3  1  0.000000  0.684218  0.799516  1
  Tb  Tb4  1  0.000000  0.315820  0.799540  1
  Dy  Dy5  1  0.500000  0.815711  0.200496  1
  Co  Co6  1  0.000000  0.500068  0.977889  1
  Co  Co7  1  0.500000  0.999849  0.022358  1
  P  P8  1  0.500000  0.500057  0.880721  1
  P  P9  1  0.000000  0.999806  0.119400  1
  P  P10  1  0.500000  0.499891  0.357773  1
  P  P11  1  0.000000  0.000000  0.642253  1
  P  P12  1  0.500000  0.315288  0.619122  1
  P  P13  1  0.500000  0.684728  0.619051  1
  P  P14  1  0.000000  0.184605  0.380855  1
  P  P15  1  0.000000  0.815277  0.380664  1
  P  P16  1  0.500000  0.852175  0.896779  1
  P  P17  1  0.500000  0.147844  0.896815  1
  P  P18  1  0.000000  0.648232  0.103260  1
  P  P19  1  0.000000  0.352167  0.103256  1
  Ir  Ir20  1  0.500000  0.500002  0.177988  1
  Ir  Ir21  1  0.000000  0.999930  0.822079  1
  Ir  Ir22  1  0.500000  0.500036  0.702582  1
  Ir  Ir23  1  0.000000  0.999749  0.297260  1
  Ir  Ir24  1  0.500000  0.339232  0.997898  1
  Ir  Ir25  1  0.500000  0.660838  0.998088  1
  Ir  Ir26  1  0.000000  0.160710  0.002154  1
  Ir  Ir27  1  0.000000  0.839140  0.002348  1
  Ir  Ir28  1  0.500000  0.292664  0.429315  1
  Ir  Ir29  1  0.500000  0.707313  0.429112  1
  Ir  Ir30  1  0.000000  0.207194  0.570664  1
  Ir  Ir31  1  0.000000  0.792739  0.570610  1
  Ir  Ir32  1  0.500000  0.870732  0.714596  1
  Ir  Ir33  1  0.500000  0.129246  0.714654  1
  Ir  Ir34  1  0.000000  0.629746  0.285023  1
  Ir  Ir35  1  0.000000  0.370816  0.285451  1
