# generated using pymatgen
data_TbHo5GaCo2
_symmetry_space_group_name_H-M   'P 1'
_cell_length_a   8.24596376
_cell_length_b   8.25869527
_cell_length_c   8.25869550
_cell_angle_alpha   112.04435944
_cell_angle_beta   109.49718597
_cell_angle_gamma   106.97051256
_symmetry_Int_Tables_number   1
_chemical_formula_structural   TbHo5GaCo2
_chemical_formula_sum   'Tb2 Ho10 Ga2 Co4'
_cell_volume   431.79242825
_cell_formula_units_Z   2
loop_
 _symmetry_equiv_pos_site_id
 _symmetry_equiv_pos_as_xyz
  1  'x, y, z'
loop_
 _atom_site_type_symbol
 _atom_site_label
 _atom_site_symmetry_multiplicity
 _atom_site_fract_x
 _atom_site_fract_y
 _atom_site_fract_z
 _atom_site_occupancy
  Tb  Tb0  1  0.958562  0.261343  0.697219  1
  Tb  Tb1  1  0.041438  0.738657  0.302781  1
  Ho  Ho2  1  0.673240  0.861739  0.187752  1
  Ho  Ho3  1  0.326760  0.514512  0.188499  1
  Ho  Ho4  1  0.326760  0.138261  0.812248  1
  Ho  Ho5  1  0.673240  0.485488  0.811501  1
  Ho  Ho6  1  0.563961  0.261271  0.302690  1
  Ho  Ho7  1  0.436039  0.738729  0.697310  1
  Ho  Ho8  1  0.180731  0.780852  0.961120  1
  Ho  Ho9  1  0.819269  0.780388  0.600122  1
  Ho  Ho10  1  0.180731  0.219612  0.399878  1
  Ho  Ho11  1  0.819269  0.219148  0.038880  1
  Ga  Ga12  1  0.000000  0.500000  0.500000  1
  Ga  Ga13  1  0.500000  0.000000  0.500000  1
  Co  Co14  1  0.115119  0.114738  0.000382  1
  Co  Co15  1  0.884881  0.885262  0.999618  1
  Co  Co16  1  0.663345  0.499812  0.163533  1
  Co  Co17  1  0.336655  0.500188  0.836467  1
