# generated using pymatgen
data_Dy3Er9(TcOs)2
_symmetry_space_group_name_H-M   'P 1'
_cell_length_a   6.25627518
_cell_length_b   7.39225021
_cell_length_c   9.00020200
_cell_angle_alpha   90.00000000
_cell_angle_beta   90.00000000
_cell_angle_gamma   89.97247133
_symmetry_Int_Tables_number   1
_chemical_formula_structural   Dy3Er9(TcOs)2
_chemical_formula_sum   'Dy3 Er9 Tc2 Os2'
_cell_volume   416.24085788
_cell_formula_units_Z   1
loop_
 _symmetry_equiv_pos_site_id
 _symmetry_equiv_pos_as_xyz
  1  'x, y, z'
loop_
 _atom_site_type_symbol
 _atom_site_label
 _atom_site_symmetry_multiplicity
 _atom_site_fract_x
 _atom_site_fract_y
 _atom_site_fract_z
 _atom_site_occupancy
  Dy  Dy0  1  0.876254  0.539244  0.250000  1
  Dy  Dy1  1  0.623826  0.039262  0.250000  1
  Dy  Dy2  1  0.129241  0.459675  0.750000  1
  Er  Er3  1  0.337228  0.674901  0.062197  1
  Er  Er4  1  0.162870  0.174552  0.437869  1
  Er  Er5  1  0.664338  0.324861  0.563080  1
  Er  Er6  1  0.835327  0.825050  0.936810  1
  Er  Er7  1  0.664338  0.324861  0.936920  1
  Er  Er8  1  0.835327  0.825050  0.563190  1
  Er  Er9  1  0.337228  0.674901  0.437803  1
  Er  Er10  1  0.162870  0.174552  0.062131  1
  Er  Er11  1  0.370531  0.959582  0.750000  1
  Tc  Tc12  1  0.039509  0.883967  0.250000  1
  Tc  Tc13  1  0.460529  0.383857  0.250000  1
  Os  Os14  1  0.959360  0.117442  0.750000  1
  Os  Os15  1  0.541225  0.618245  0.750000  1
