# generated using pymatgen
data_GaRhS3
_symmetry_space_group_name_H-M   'P 1'
_cell_length_a   3.65864300
_cell_length_b   9.77107000
_cell_length_c   12.05464900
_cell_angle_alpha   90.00000000
_cell_angle_beta   90.00000000
_cell_angle_gamma   90.00000000
_symmetry_Int_Tables_number   1
_chemical_formula_structural   GaRhS3
_chemical_formula_sum   'Ga4 Rh4 S12'
_cell_volume   430.93992157
_cell_formula_units_Z   4
loop_
 _symmetry_equiv_pos_site_id
 _symmetry_equiv_pos_as_xyz
  1  'x, y, z'
loop_
 _atom_site_type_symbol
 _atom_site_label
 _atom_site_symmetry_multiplicity
 _atom_site_fract_x
 _atom_site_fract_y
 _atom_site_fract_z
 _atom_site_occupancy
  Ga  Ga0  1  0.750000  0.261315  0.799545  1
  Ga  Ga1  1  0.250000  0.738685  0.200455  1
  Ga  Ga2  1  0.750000  0.761315  0.700455  1
  Ga  Ga3  1  0.250000  0.238685  0.299545  1
  Rh  Rh4  1  0.250000  0.408597  0.608921  1
  Rh  Rh5  1  0.750000  0.591403  0.391079  1
  Rh  Rh6  1  0.250000  0.908597  0.891079  1
  Rh  Rh7  1  0.750000  0.091403  0.108921  1
  S  S8  1  0.250000  0.934283  0.089438  1
  S  S9  1  0.750000  0.065717  0.910562  1
  S  S10  1  0.250000  0.434283  0.410562  1
  S  S11  1  0.750000  0.565717  0.589438  1
  S  S12  1  0.750000  0.094855  0.310406  1
  S  S13  1  0.250000  0.905145  0.689594  1
  S  S14  1  0.750000  0.594855  0.189594  1
  S  S15  1  0.250000  0.405145  0.810406  1
  S  S16  1  0.250000  0.253343  0.109505  1
  S  S17  1  0.750000  0.746657  0.890495  1
  S  S18  1  0.250000  0.753343  0.390495  1
  S  S19  1  0.750000  0.246657  0.609505  1
