# generated using pymatgen
data_La9Nd11(Sn3Sb)4
_symmetry_space_group_name_H-M   'P 1'
_cell_length_a   8.48412494
_cell_length_b   8.50212020
_cell_length_c   16.12881900
_cell_angle_alpha   89.96623761
_cell_angle_beta   88.34340935
_cell_angle_gamma   90.11597764
_symmetry_Int_Tables_number   1
_chemical_formula_structural   La9Nd11(Sn3Sb)4
_chemical_formula_sum   'La9 Nd11 Sn12 Sb4'
_cell_volume   1162.93202990
_cell_formula_units_Z   1
loop_
 _symmetry_equiv_pos_site_id
 _symmetry_equiv_pos_as_xyz
  1  'x, y, z'
loop_
 _atom_site_type_symbol
 _atom_site_label
 _atom_site_symmetry_multiplicity
 _atom_site_fract_x
 _atom_site_fract_y
 _atom_site_fract_z
 _atom_site_occupancy
  La  La0  1  0.441851  0.826860  0.892168  1
  La  La1  1  0.960170  0.678452  0.602012  1
  La  La2  1  0.540016  0.178821  0.397549  1
  La  La3  1  0.057595  0.327758  0.107695  1
  La  La4  1  0.563666  0.171020  0.110071  1
  La  La5  1  0.043672  0.324767  0.396435  1
  La  La6  1  0.456641  0.823720  0.602787  1
  La  La7  1  0.937344  0.670703  0.890538  1
  La  La8  1  0.594781  0.333091  0.887336  1
  Nd  Nd9  1  0.111175  0.162192  0.616957  1
  Nd  Nd10  1  0.388600  0.663100  0.382263  1
  Nd  Nd11  1  0.903428  0.836853  0.115779  1
  Nd  Nd12  1  0.405202  0.663622  0.114961  1
  Nd  Nd13  1  0.892170  0.837761  0.382330  1
  Nd  Nd14  1  0.607950  0.336895  0.617330  1
  Nd  Nd15  1  0.095119  0.162421  0.884850  1
  Nd  Nd16  1  0.271919  0.499697  0.746572  1
  Nd  Nd17  1  0.772224  0.999376  0.751021  1
  Nd  Nd18  1  0.727545  0.500408  0.249836  1
  Nd  Nd19  1  0.228219  0.000996  0.252905  1
  Sn  Sn20  1  0.764647  0.009193  0.953034  1
  Sn  Sn21  1  0.275739  0.470536  0.544338  1
  Sn  Sn22  1  0.224533  0.970886  0.455058  1
  Sn  Sn23  1  0.738088  0.514690  0.049286  1
  Sn  Sn24  1  0.645580  0.633987  0.747460  1
  Sn  Sn25  1  0.146007  0.865648  0.748889  1
  Sn  Sn26  1  0.353871  0.366697  0.250680  1
  Sn  Sn27  1  0.854791  0.134547  0.252048  1
  Sn  Sn28  1  0.401308  0.125413  0.749927  1
  Sn  Sn29  1  0.902549  0.372073  0.748553  1
  Sn  Sn30  1  0.597954  0.872718  0.250723  1
  Sn  Sn31  1  0.097945  0.627900  0.248856  1
  Sb  Sb32  1  0.240184  0.988922  0.048412  1
  Sb  Sb33  1  0.724714  0.529602  0.454927  1
  Sb  Sb34  1  0.775231  0.029019  0.544997  1
  Sb  Sb35  1  0.257571  0.489664  0.951420  1
