# generated using pymatgen
data_Th3Mg3Hg2Ir
_symmetry_space_group_name_H-M   'P 1'
_cell_length_a   7.96684200
_cell_length_b   7.96684325
_cell_length_c   4.11419300
_cell_angle_alpha   90.00000000
_cell_angle_beta   90.00000000
_cell_angle_gamma   119.99999482
_symmetry_Int_Tables_number   1
_chemical_formula_structural   Th3Mg3Hg2Ir
_chemical_formula_sum   'Th3 Mg3 Hg2 Ir1'
_cell_volume   226.14541745
_cell_formula_units_Z   1
loop_
 _symmetry_equiv_pos_site_id
 _symmetry_equiv_pos_as_xyz
  1  'x, y, z'
loop_
 _atom_site_type_symbol
 _atom_site_label
 _atom_site_symmetry_multiplicity
 _atom_site_fract_x
 _atom_site_fract_y
 _atom_site_fract_z
 _atom_site_occupancy
  Th  Th0  1  0.598833  0.030432  0.000000  1
  Th  Th1  1  0.969568  0.568401  0.000000  1
  Th  Th2  1  0.431599  0.401167  0.000000  1
  Mg  Mg3  1  0.253199  0.001099  0.500000  1
  Mg  Mg4  1  0.998901  0.252099  0.500000  1
  Mg  Mg5  1  0.747901  0.746801  0.500000  1
  Hg  Hg6  1  0.333333  0.666667  0.500000  1
  Hg  Hg7  1  0.000000  0.000000  0.000000  1
  Ir  Ir8  1  0.666667  0.333333  0.500000  1
