# generated using pymatgen
data_Lu4Mn3PdF28
_symmetry_space_group_name_H-M   'P 1'
_cell_length_a   5.36959033
_cell_length_b   8.55762909
_cell_length_c   11.57380833
_cell_angle_alpha   62.85455724
_cell_angle_beta   90.02361606
_cell_angle_gamma   90.03965460
_symmetry_Int_Tables_number   1
_chemical_formula_structural   Lu4Mn3PdF28
_chemical_formula_sum   'Lu4 Mn3 Pd1 F28'
_cell_volume   473.24735066
_cell_formula_units_Z   1
loop_
 _symmetry_equiv_pos_site_id
 _symmetry_equiv_pos_as_xyz
  1  'x, y, z'
loop_
 _atom_site_type_symbol
 _atom_site_label
 _atom_site_symmetry_multiplicity
 _atom_site_fract_x
 _atom_site_fract_y
 _atom_site_fract_z
 _atom_site_occupancy
  Lu  Lu0  1  0.261281  0.813747  0.261333  1
  Lu  Lu1  1  0.738712  0.186973  0.735828  1
  Lu  Lu2  1  0.761919  0.190287  0.234204  1
  Lu  Lu3  1  0.236421  0.812157  0.767365  1
  Mn  Mn4  1  0.758840  0.726243  0.044109  1
  Mn  Mn5  1  0.240699  0.273689  0.956001  1
  Mn  Mn6  1  0.259662  0.273801  0.455639  1
  Pd  Pd7  1  0.740308  0.728288  0.542784  1
  F  F8  1  0.936149  0.697369  0.413857  1
  F  F9  1  0.070122  0.296838  0.578672  1
  F  F10  1  0.430282  0.297213  0.078821  1
  F  F11  1  0.569177  0.702489  0.921754  1
  F  F12  1  0.475279  0.725105  0.134199  1
  F  F13  1  0.524469  0.273662  0.866324  1
  F  F14  1  0.975708  0.276287  0.364356  1
  F  F15  1  0.042154  0.722099  0.637487  1
  F  F16  1  0.945857  0.745990  0.171759  1
  F  F17  1  0.054129  0.253281  0.827780  1
  F  F18  1  0.445979  0.255097  0.326398  1
  F  F19  1  0.552015  0.746171  0.680227  1
  F  F20  1  0.778222  0.484753  0.139308  1
  F  F21  1  0.221976  0.515114  0.861627  1
  F  F22  1  0.279012  0.515785  0.359295  1
  F  F23  1  0.720478  0.474439  0.644221  1
  F  F24  1  0.947615  0.277249  0.040120  1
  F  F25  1  0.052165  0.722648  0.960187  1
  F  F26  1  0.429940  0.721318  0.457963  1
  F  F27  1  0.552470  0.276414  0.540404  1
  F  F28  1  0.746395  0.981988  0.450579  1
  F  F29  1  0.253548  0.034008  0.546664  1
  F  F30  1  0.246223  0.033378  0.046556  1
  F  F31  1  0.753879  0.966039  0.953441  1
  F  F32  1  0.587360  0.970440  0.231682  1
  F  F33  1  0.413124  0.029925  0.769717  1
  F  F34  1  0.085572  0.029633  0.268587  1
  F  F35  1  0.912855  0.970082  0.730752  1
