# generated using pymatgen
data_Cs4NaAl2TlBi4
_symmetry_space_group_name_H-M   'P 1'
_cell_length_a   10.21968423
_cell_length_b   10.21968417
_cell_length_c   10.21968420
_cell_angle_alpha   135.34050732
_cell_angle_beta   63.44199893
_cell_angle_gamma   137.37544637
_symmetry_Int_Tables_number   1
_chemical_formula_structural   Cs4NaAl2TlBi4
_chemical_formula_sum   'Cs4 Na1 Al2 Tl1 Bi4'
_cell_volume   501.49185220
_cell_formula_units_Z   1
loop_
 _symmetry_equiv_pos_site_id
 _symmetry_equiv_pos_as_xyz
  1  'x, y, z'
loop_
 _atom_site_type_symbol
 _atom_site_label
 _atom_site_symmetry_multiplicity
 _atom_site_fract_x
 _atom_site_fract_y
 _atom_site_fract_z
 _atom_site_occupancy
  Cs  Cs0  1  0.832244  0.266100  0.100059  1
  Cs  Cs1  1  0.667756  0.767815  0.433856  1
  Cs  Cs2  1  0.333959  0.233901  0.566144  1
  Cs  Cs3  1  0.166041  0.732185  0.899941  1
  Na  Na4  1  0.250000  0.750000  0.500000  1
  Al  Al5  1  0.250000  0.250000  0.000000  1
  Al  Al6  1  0.750000  0.750000  0.000000  1
  Tl  Tl7  1  0.750000  0.250000  0.500000  1
  Bi  Bi8  1  0.406519  0.697471  0.110255  1
  Bi  Bi9  1  0.093482  0.203737  0.290952  1
  Bi  Bi10  1  0.912785  0.802530  0.709048  1
  Bi  Bi11  1  0.587216  0.296263  0.889745  1
