# generated using pymatgen
data_Tb2YHo3Ta2O14
_symmetry_space_group_name_H-M   'P 1'
_cell_length_a   6.49659055
_cell_length_b   6.50172714
_cell_length_c   7.47168023
_cell_angle_alpha   90.04070653
_cell_angle_beta   90.00448674
_cell_angle_gamma   108.52973036
_symmetry_Int_Tables_number   1
_chemical_formula_structural   Tb2YHo3Ta2O14
_chemical_formula_sum   'Tb2 Y1 Ho3 Ta2 O14'
_cell_volume   299.23576350
_cell_formula_units_Z   1
loop_
 _symmetry_equiv_pos_site_id
 _symmetry_equiv_pos_as_xyz
  1  'x, y, z'
loop_
 _atom_site_type_symbol
 _atom_site_label
 _atom_site_symmetry_multiplicity
 _atom_site_fract_x
 _atom_site_fract_y
 _atom_site_fract_z
 _atom_site_occupancy
  Tb  Tb0  1  0.463044  0.462645  0.999533  1
  Tb  Tb1  1  0.999538  0.535578  0.241143  1
  Y  Y2  1  0.535865  0.536942  0.500343  1
  Ho  Ho3  1  0.999546  0.464623  0.740550  1
  Ho  Ho4  1  0.534960  0.000273  0.758602  1
  Ho  Ho5  1  0.465432  0.999586  0.259211  1
  Ta  Ta6  1  0.002264  0.002003  0.500442  1
  Ta  Ta7  1  0.997879  0.997756  0.999424  1
  O  O8  1  0.930294  0.068606  0.750029  1
  O  O9  1  0.068892  0.932294  0.249941  1
  O  O10  1  0.361315  0.641414  0.250162  1
  O  O11  1  0.640961  0.358320  0.749750  1
  O  O12  1  0.369969  0.630331  0.749187  1
  O  O13  1  0.626856  0.368097  0.251395  1
  O  O14  1  0.328576  0.080807  0.975508  1
  O  O15  1  0.671932  0.919200  0.475433  1
  O  O16  1  0.307318  0.047805  0.545647  1
  O  O17  1  0.693078  0.952011  0.045644  1
  O  O18  1  0.050410  0.307839  0.456818  1
  O  O19  1  0.950702  0.693049  0.953136  1
  O  O20  1  0.918082  0.672218  0.525822  1
  O  O21  1  0.083086  0.328604  0.022281  1
