# generated using pymatgen
data_Tb2Tm3Co19(Si5P)2
_symmetry_space_group_name_H-M   'P 1'
_cell_length_a   12.08032200
_cell_length_b   12.10937650
_cell_length_c   3.70067100
_cell_angle_alpha   90.00000000
_cell_angle_beta   90.00000000
_cell_angle_gamma   119.92066766
_symmetry_Int_Tables_number   1
_chemical_formula_structural   Tb2Tm3Co19(Si5P)2
_chemical_formula_sum   'Tb2 Tm3 Co19 Si10 P2'
_cell_volume   469.20002195
_cell_formula_units_Z   1
loop_
 _symmetry_equiv_pos_site_id
 _symmetry_equiv_pos_as_xyz
  1  'x, y, z'
loop_
 _atom_site_type_symbol
 _atom_site_label
 _atom_site_symmetry_multiplicity
 _atom_site_fract_x
 _atom_site_fract_y
 _atom_site_fract_z
 _atom_site_occupancy
  Tb  Tb0  1  0.332688  0.666159  0.000000  1
  Tb  Tb1  1  0.666529  0.333841  0.000000  1
  Tm  Tm2  1  0.185110  0.000000  0.500000  1
  Tm  Tm3  1  0.000777  0.185700  0.500000  1
  Tm  Tm4  1  0.815077  0.814300  0.500000  1
  Co  Co5  1  0.196373  0.371946  0.000000  1
  Co  Co6  1  0.624413  0.820506  0.000000  1
  Co  Co7  1  0.175705  0.804058  0.000000  1
  Co  Co8  1  0.824426  0.628054  0.000000  1
  Co  Co9  1  0.803907  0.179494  0.000000  1
  Co  Co10  1  0.371647  0.195942  0.000000  1
  Co  Co11  1  0.558532  0.000000  0.000000  1
  Co  Co12  1  0.000746  0.558689  0.000000  1
  Co  Co13  1  0.442056  0.441311  0.000000  1
  Co  Co14  1  0.123384  0.478325  0.500000  1
  Co  Co15  1  0.521380  0.643538  0.500000  1
  Co  Co16  1  0.354771  0.876922  0.500000  1
  Co  Co17  1  0.645060  0.521675  0.500000  1
  Co  Co18  1  0.877840  0.356462  0.500000  1
  Co  Co19  1  0.477849  0.123078  0.500000  1
  Co  Co20  1  0.720269  0.000000  0.500000  1
  Co  Co21  1  0.999905  0.723899  0.500000  1
  Co  Co22  1  0.276006  0.276101  0.500000  1
  Co  Co23  1  0.004358  0.000000  0.000000  1
  Si  Si24  1  0.369804  0.000000  0.000000  1
  Si  Si25  1  0.000389  0.369995  0.000000  1
  Si  Si26  1  0.630394  0.630005  0.000000  1
  Si  Si27  1  0.318458  0.476834  0.500000  1
  Si  Si28  1  0.522424  0.840118  0.500000  1
  Si  Si29  1  0.158833  0.681729  0.500000  1
  Si  Si30  1  0.841624  0.523166  0.500000  1
  Si  Si31  1  0.682306  0.159882  0.500000  1
  Si  Si32  1  0.477104  0.318271  0.500000  1
  Si  Si33  1  0.819473  0.000000  0.000000  1
  P  P34  1  0.999762  0.819144  0.000000  1
  P  P35  1  0.180620  0.180856  0.000000  1
