# generated using pymatgen
data_Pr5ZrRhO12
_symmetry_space_group_name_H-M   'P 1'
_cell_length_a   7.15834986
_cell_length_b   7.15834915
_cell_length_c   7.78988605
_cell_angle_alpha   74.27706330
_cell_angle_beta   74.27706610
_cell_angle_gamma   50.69217244
_symmetry_Int_Tables_number   1
_chemical_formula_structural   Pr5ZrRhO12
_chemical_formula_sum   'Pr5 Zr1 Rh1 O12'
_cell_volume   294.64686468
_cell_formula_units_Z   1
loop_
 _symmetry_equiv_pos_site_id
 _symmetry_equiv_pos_as_xyz
  1  'x, y, z'
loop_
 _atom_site_type_symbol
 _atom_site_label
 _atom_site_symmetry_multiplicity
 _atom_site_fract_x
 _atom_site_fract_y
 _atom_site_fract_z
 _atom_site_occupancy
  Pr  Pr0  1  0.303496  0.307380  0.359717  1
  Pr  Pr1  1  0.692620  0.696504  0.640283  1
  Pr  Pr2  1  0.682090  0.699096  0.170830  1
  Pr  Pr3  1  0.300904  0.317910  0.829170  1
  Pr  Pr4  1  0.006563  0.993437  0.500000  1
  Zr  Zr5  1  0.779681  0.220319  0.000000  1
  Rh  Rh6  1  0.253794  0.746206  0.000000  1
  O  O7  1  0.091728  0.597515  0.574577  1
  O  O8  1  0.017776  0.981517  0.188942  1
  O  O9  1  0.402485  0.908272  0.425423  1
  O  O10  1  0.497050  0.504112  0.180587  1
  O  O11  1  0.099553  0.589064  0.079840  1
  O  O12  1  0.901443  0.409706  0.420244  1
  O  O13  1  0.018483  0.982224  0.811058  1
  O  O14  1  0.590294  0.098556  0.579756  1
  O  O15  1  0.495888  0.502950  0.819413  1
  O  O16  1  0.559990  0.104775  0.081479  1
  O  O17  1  0.410936  0.900447  0.920160  1
  O  O18  1  0.895225  0.440010  0.918521  1
