# generated using pymatgen
data_Ta2Be2Pt
_symmetry_space_group_name_H-M   'P 1'
_cell_length_a   6.02188500
_cell_length_b   6.02188500
_cell_length_c   3.69014600
_cell_angle_alpha   90.00000000
_cell_angle_beta   90.00000000
_cell_angle_gamma   90.00000000
_symmetry_Int_Tables_number   1
_chemical_formula_structural   Ta2Be2Pt
_chemical_formula_sum   'Ta4 Be4 Pt2'
_cell_volume   133.81612955
_cell_formula_units_Z   2
loop_
 _symmetry_equiv_pos_site_id
 _symmetry_equiv_pos_as_xyz
  1  'x, y, z'
loop_
 _atom_site_type_symbol
 _atom_site_label
 _atom_site_symmetry_multiplicity
 _atom_site_fract_x
 _atom_site_fract_y
 _atom_site_fract_z
 _atom_site_occupancy
  Ta  Ta0  1  0.671125  0.171125  0.500000  1
  Ta  Ta1  1  0.328875  0.828875  0.500000  1
  Ta  Ta2  1  0.171125  0.328875  0.500000  1
  Ta  Ta3  1  0.828875  0.671125  0.500000  1
  Be  Be4  1  0.126111  0.626111  0.000000  1
  Be  Be5  1  0.873889  0.373889  0.000000  1
  Be  Be6  1  0.626111  0.873889  0.000000  1
  Be  Be7  1  0.373889  0.126111  0.000000  1
  Pt  Pt8  1  0.500000  0.500000  0.000000  1
  Pt  Pt9  1  0.000000  0.000000  0.000000  1
