# generated using pymatgen
data_Tm3(ThSi2)2
_symmetry_space_group_name_H-M   'P 1'
_cell_length_a   7.68357600
_cell_length_b   7.52490749
_cell_length_c   7.75670860
_cell_angle_alpha   69.57487283
_cell_angle_beta   90.00000000
_cell_angle_gamma   90.00000000
_symmetry_Int_Tables_number   1
_chemical_formula_structural   Tm3(ThSi2)2
_chemical_formula_sum   'Tm6 Th4 Si8'
_cell_volume   420.28261463
_cell_formula_units_Z   2
loop_
 _symmetry_equiv_pos_site_id
 _symmetry_equiv_pos_as_xyz
  1  'x, y, z'
loop_
 _atom_site_type_symbol
 _atom_site_label
 _atom_site_symmetry_multiplicity
 _atom_site_fract_x
 _atom_site_fract_y
 _atom_site_fract_z
 _atom_site_occupancy
  Tm  Tm0  1  0.673557  0.736605  0.256253  1
  Tm  Tm1  1  0.326443  0.263395  0.743747  1
  Tm  Tm2  1  0.173557  0.763395  0.743747  1
  Tm  Tm3  1  0.826443  0.236605  0.256253  1
  Tm  Tm4  1  0.000000  0.000000  0.000000  1
  Tm  Tm5  1  0.500000  0.500000  0.000000  1
  Th  Th6  1  0.678283  0.931602  0.693429  1
  Th  Th7  1  0.321717  0.068398  0.306571  1
  Th  Th8  1  0.178283  0.568398  0.306571  1
  Th  Th9  1  0.821717  0.431602  0.693429  1
  Si  Si10  1  0.963640  0.842970  0.418499  1
  Si  Si11  1  0.036360  0.157030  0.581501  1
  Si  Si12  1  0.463640  0.657030  0.581501  1
  Si  Si13  1  0.536360  0.342970  0.418499  1
  Si  Si14  1  0.879879  0.623814  0.993056  1
  Si  Si15  1  0.120121  0.376186  0.006944  1
  Si  Si16  1  0.379879  0.876186  0.006944  1
  Si  Si17  1  0.620121  0.123814  0.993056  1
