# generated using pymatgen
data_Ho8Ga12CuIr3
_symmetry_space_group_name_H-M   'P 1'
_cell_length_a   7.05608000
_cell_length_b   8.83478677
_cell_length_c   8.83478700
_cell_angle_alpha   119.99999712
_cell_angle_beta   90.00000000
_cell_angle_gamma   90.00000000
_symmetry_Int_Tables_number   1
_chemical_formula_structural   Ho8Ga12CuIr3
_chemical_formula_sum   'Ho8 Ga12 Cu1 Ir3'
_cell_volume   476.96476330
_cell_formula_units_Z   1
loop_
 _symmetry_equiv_pos_site_id
 _symmetry_equiv_pos_as_xyz
  1  'x, y, z'
loop_
 _atom_site_type_symbol
 _atom_site_label
 _atom_site_symmetry_multiplicity
 _atom_site_fract_x
 _atom_site_fract_y
 _atom_site_fract_z
 _atom_site_occupancy
  Ho  Ho0  1  0.751054  0.000000  0.000000  1
  Ho  Ho1  1  0.248542  0.000000  0.000000  1
  Ho  Ho2  1  0.748498  0.471615  0.528385  1
  Ho  Ho3  1  0.246108  0.519053  0.480947  1
  Ho  Ho4  1  0.748498  0.056769  0.528385  1
  Ho  Ho5  1  0.246108  0.961894  0.480947  1
  Ho  Ho6  1  0.748498  0.471615  0.943231  1
  Ho  Ho7  1  0.246108  0.519053  0.038106  1
  Ga  Ga8  1  0.947092  0.829682  0.170318  1
  Ga  Ga9  1  0.047309  0.168910  0.831090  1
  Ga  Ga10  1  0.947092  0.340637  0.170318  1
  Ga  Ga11  1  0.453053  0.167650  0.832350  1
  Ga  Ga12  1  0.047309  0.662177  0.831090  1
  Ga  Ga13  1  0.546569  0.830944  0.169056  1
  Ga  Ga14  1  0.947092  0.829682  0.659363  1
  Ga  Ga15  1  0.453053  0.664700  0.832350  1
  Ga  Ga16  1  0.047309  0.168910  0.337823  1
  Ga  Ga17  1  0.546569  0.338112  0.169056  1
  Ga  Ga18  1  0.453053  0.167650  0.335300  1
  Ga  Ga19  1  0.546569  0.830944  0.661888  1
  Cu  Cu20  1  0.554265  0.666667  0.333333  1
  Ir  Ir21  1  0.981168  0.666667  0.333333  1
  Ir  Ir22  1  0.032570  0.333333  0.666667  1
  Ir  Ir23  1  0.466509  0.333333  0.666667  1
