# generated using pymatgen
data_LaSeO3F
_symmetry_space_group_name_H-M   'P 1'
_cell_length_a   4.64816500
_cell_length_b   7.37785411
_cell_length_c   6.85248742
_cell_angle_alpha   94.44941525
_cell_angle_beta   94.70717666
_cell_angle_gamma   96.37759617
_symmetry_Int_Tables_number   1
_chemical_formula_structural   LaSeO3F
_chemical_formula_sum   'La2 Se2 O6 F2'
_cell_volume   231.86033945
_cell_formula_units_Z   2
loop_
 _symmetry_equiv_pos_site_id
 _symmetry_equiv_pos_as_xyz
  1  'x, y, z'
loop_
 _atom_site_type_symbol
 _atom_site_label
 _atom_site_symmetry_multiplicity
 _atom_site_fract_x
 _atom_site_fract_y
 _atom_site_fract_z
 _atom_site_occupancy
  La  La0  1  0.449907  0.236425  0.345563  1
  La  La1  1  0.550094  0.763574  0.654432  1
  Se  Se2  1  0.309889  0.711861  0.163013  1
  Se  Se3  1  0.690112  0.288143  0.836991  1
  O  O4  1  0.434315  0.227933  0.991666  1
  O  O5  1  0.338420  0.902783  0.334562  1
  O  O6  1  0.487125  0.575761  0.320946  1
  O  O7  1  0.512883  0.424242  0.679046  1
  O  O8  1  0.661573  0.097214  0.665439  1
  O  O9  1  0.565680  0.772078  0.008333  1
  F  F10  1  0.951297  0.267184  0.306075  1
  F  F11  1  0.048707  0.732805  0.693933  1
