# generated using pymatgen
data_Ho3HfAs6Ru7
_symmetry_space_group_name_H-M   'P 1'
_cell_length_a   7.19882642
_cell_length_b   7.17739237
_cell_length_c   7.17739211
_cell_angle_alpha   109.41064758
_cell_angle_beta   109.53172337
_cell_angle_gamma   109.53172820
_symmetry_Int_Tables_number   1
_chemical_formula_structural   Ho3HfAs6Ru7
_chemical_formula_sum   'Ho3 Hf1 As6 Ru7'
_cell_volume   285.26489811
_cell_formula_units_Z   1
loop_
 _symmetry_equiv_pos_site_id
 _symmetry_equiv_pos_as_xyz
  1  'x, y, z'
loop_
 _atom_site_type_symbol
 _atom_site_label
 _atom_site_symmetry_multiplicity
 _atom_site_fract_x
 _atom_site_fract_y
 _atom_site_fract_z
 _atom_site_occupancy
  Ho  Ho0  1  0.000000  0.000000  0.500000  1
  Ho  Ho1  1  0.000000  0.500000  0.000000  1
  Ho  Ho2  1  0.500000  0.500000  0.500000  1
  Hf  Hf3  1  0.500000  0.000000  0.000000  1
  As  As4  1  0.316174  0.000000  0.312907  1
  As  As5  1  0.996733  0.312907  0.312907  1
  As  As6  1  0.003267  0.687093  0.687093  1
  As  As7  1  0.316174  0.312907  0.000000  1
  As  As8  1  0.683826  0.687093  0.000000  1
  As  As9  1  0.683826  0.000000  0.687093  1
  Ru  Ru10  1  0.743805  0.487610  0.243805  1
  Ru  Ru11  1  0.500000  0.756195  0.243805  1
  Ru  Ru12  1  0.500000  0.243805  0.756195  1
  Ru  Ru13  1  0.743805  0.243805  0.487610  1
  Ru  Ru14  1  0.256195  0.756195  0.512390  1
  Ru  Ru15  1  0.256195  0.512390  0.756195  1
  Ru  Ru16  1  0.000000  0.000000  0.000000  1
