# generated using pymatgen
data_CeNiHgPt3
_symmetry_space_group_name_H-M   'P 1'
_cell_length_a   5.25233407
_cell_length_b   5.42687890
_cell_length_c   5.42687900
_cell_angle_alpha   59.99999332
_cell_angle_beta   58.89446568
_cell_angle_gamma   58.89447610
_symmetry_Int_Tables_number   1
_chemical_formula_structural   CeNiHgPt3
_chemical_formula_sum   'Ce1 Ni1 Hg1 Pt3'
_cell_volume   107.51639207
_cell_formula_units_Z   1
loop_
 _symmetry_equiv_pos_site_id
 _symmetry_equiv_pos_as_xyz
  1  'x, y, z'
loop_
 _atom_site_type_symbol
 _atom_site_label
 _atom_site_symmetry_multiplicity
 _atom_site_fract_x
 _atom_site_fract_y
 _atom_site_fract_z
 _atom_site_occupancy
  Ce  Ce0  1  0.000689  0.999771  0.999771  1
  Ni  Ni1  1  0.128978  0.623674  0.623674  1
  Hg  Hg2  1  0.242452  0.252516  0.252516  1
  Pt  Pt3  1  0.625960  0.624016  0.624016  1
  Pt  Pt4  1  0.625960  0.624016  0.126007  1
  Pt  Pt5  1  0.625960  0.126007  0.624016  1
