# generated using pymatgen
data_TbEr2Mg3Ga2Hg
_symmetry_space_group_name_H-M   'P 1'
_cell_length_a   7.39514179
_cell_length_b   7.39514095
_cell_length_c   4.36983000
_cell_angle_alpha   90.00000000
_cell_angle_beta   90.00000000
_cell_angle_gamma   120.26300285
_symmetry_Int_Tables_number   1
_chemical_formula_structural   TbEr2Mg3Ga2Hg
_chemical_formula_sum   'Tb1 Er2 Mg3 Ga2 Hg1'
_cell_volume   206.41015514
_cell_formula_units_Z   1
loop_
 _symmetry_equiv_pos_site_id
 _symmetry_equiv_pos_as_xyz
  1  'x, y, z'
loop_
 _atom_site_type_symbol
 _atom_site_label
 _atom_site_symmetry_multiplicity
 _atom_site_fract_x
 _atom_site_fract_y
 _atom_site_fract_z
 _atom_site_occupancy
  Tb  Tb0  1  0.427321  0.427321  0.000000  1
  Er  Er1  1  0.573223  0.000277  0.000000  1
  Er  Er2  1  0.000277  0.573223  0.000000  1
  Mg  Mg3  1  0.249489  0.999645  0.500000  1
  Mg  Mg4  1  0.999645  0.249489  0.500000  1
  Mg  Mg5  1  0.750642  0.750642  0.500000  1
  Ga  Ga6  1  0.332911  0.668327  0.500000  1
  Ga  Ga7  1  0.668327  0.332911  0.500000  1
  Hg  Hg8  1  0.998166  0.998166  0.000000  1
