# generated using pymatgen
data_ErTm3Co5Os3
_symmetry_space_group_name_H-M   'P 1'
_cell_length_a   5.09423734
_cell_length_b   5.12510917
_cell_length_c   8.44776909
_cell_angle_alpha   89.99999787
_cell_angle_beta   90.01429646
_cell_angle_gamma   120.20067273
_symmetry_Int_Tables_number   1
_chemical_formula_structural   ErTm3Co5Os3
_chemical_formula_sum   'Er1 Tm3 Co5 Os3'
_cell_volume   190.62207614
_cell_formula_units_Z   1
loop_
 _symmetry_equiv_pos_site_id
 _symmetry_equiv_pos_as_xyz
  1  'x, y, z'
loop_
 _atom_site_type_symbol
 _atom_site_label
 _atom_site_symmetry_multiplicity
 _atom_site_fract_x
 _atom_site_fract_y
 _atom_site_fract_z
 _atom_site_occupancy
  Er  Er0  1  0.327288  0.663644  0.067462  1
  Tm  Tm1  1  0.327281  0.663641  0.432809  1
  Tm  Tm2  1  0.662184  0.331091  0.561239  1
  Tm  Tm3  1  0.662162  0.331080  0.938642  1
  Co  Co4  1  0.830455  0.163998  0.250204  1
  Co  Co5  1  0.830455  0.666457  0.250204  1
  Co  Co6  1  0.336677  0.168339  0.250202  1
  Co  Co7  1  0.183001  0.835020  0.749848  1
  Co  Co8  1  0.183001  0.347983  0.749848  1
  Os  Os9  1  0.992398  0.996200  0.494682  1
  Os  Os10  1  0.992488  0.996244  0.005086  1
  Os  Os11  1  0.672607  0.836304  0.749775  1
