# generated using pymatgen
data_PrNd3Ta4(Bi2O11)2
_symmetry_space_group_name_H-M   'P 1'
_cell_length_a   6.69548240
_cell_length_b   7.76165076
_cell_length_c   9.93043477
_cell_angle_alpha   101.22791578
_cell_angle_beta   90.67113825
_cell_angle_gamma   90.00568074
_symmetry_Int_Tables_number   1
_chemical_formula_structural   PrNd3Ta4(Bi2O11)2
_chemical_formula_sum   'Pr1 Nd3 Ta4 Bi4 O22'
_cell_volume   506.15130688
_cell_formula_units_Z   1
loop_
 _symmetry_equiv_pos_site_id
 _symmetry_equiv_pos_as_xyz
  1  'x, y, z'
loop_
 _atom_site_type_symbol
 _atom_site_label
 _atom_site_symmetry_multiplicity
 _atom_site_fract_x
 _atom_site_fract_y
 _atom_site_fract_z
 _atom_site_occupancy
  Pr  Pr0  1  0.749469  0.370157  0.483518  1
  Nd  Nd1  1  0.250139  0.630764  0.517476  1
  Nd  Nd2  1  0.759054  0.872742  0.488187  1
  Nd  Nd3  1  0.240837  0.126722  0.511765  1
  Ta  Ta4  1  0.914986  0.701910  0.808047  1
  Ta  Ta5  1  0.085591  0.298524  0.192353  1
  Ta  Ta6  1  0.915849  0.200755  0.809947  1
  Ta  Ta7  1  0.084276  0.799089  0.190587  1
  Bi  Bi8  1  0.431599  0.954008  0.815926  1
  Bi  Bi9  1  0.568183  0.045482  0.183684  1
  Bi  Bi10  1  0.394928  0.455056  0.827290  1
  Bi  Bi11  1  0.604317  0.545288  0.172917  1
  O  O12  1  0.217829  0.726500  0.763023  1
  O  O13  1  0.782549  0.273049  0.236139  1
  O  O14  1  0.634691  0.662649  0.839127  1
  O  O15  1  0.365703  0.337158  0.160463  1
  O  O16  1  0.635104  0.255412  0.843011  1
  O  O17  1  0.364890  0.744667  0.156574  1
  O  O18  1  0.894460  0.154422  0.596163  1
  O  O19  1  0.106526  0.843660  0.403984  1
  O  O20  1  0.216453  0.151800  0.760951  1
  O  O21  1  0.784041  0.848310  0.239126  1
  O  O22  1  0.899196  0.644040  0.596884  1
  O  O23  1  0.103523  0.357832  0.402992  1
  O  O24  1  0.024216  0.549821  0.196043  1
  O  O25  1  0.975472  0.450078  0.803618  1
  O  O26  1  0.998543  0.781008  0.000024  1
  O  O27  1  0.002015  0.218960  0.999945  1
  O  O28  1  0.570436  0.600288  0.389609  1
  O  O29  1  0.426296  0.401306  0.610467  1
  O  O30  1  0.158634  0.054436  0.216431  1
  O  O31  1  0.841014  0.945569  0.784045  1
  O  O32  1  0.546310  0.099529  0.398341  1
  O  O33  1  0.452869  0.899008  0.601343  1
