# generated using pymatgen
data_Mg2Si4IrRh7
_symmetry_space_group_name_H-M   'P 1'
_cell_length_a   4.01790300
_cell_length_b   9.06697700
_cell_length_c   10.95920800
_cell_angle_alpha   90.00000000
_cell_angle_beta   90.00000000
_cell_angle_gamma   90.00000000
_symmetry_Int_Tables_number   1
_chemical_formula_structural   Mg2Si4IrRh7
_chemical_formula_sum   'Mg4 Si8 Ir2 Rh14'
_cell_volume   399.24651287
_cell_formula_units_Z   2
loop_
 _symmetry_equiv_pos_site_id
 _symmetry_equiv_pos_as_xyz
  1  'x, y, z'
loop_
 _atom_site_type_symbol
 _atom_site_label
 _atom_site_symmetry_multiplicity
 _atom_site_fract_x
 _atom_site_fract_y
 _atom_site_fract_z
 _atom_site_occupancy
  Mg  Mg0  1  0.250000  0.126670  0.819404  1
  Mg  Mg1  1  0.250000  0.373330  0.319404  1
  Mg  Mg2  1  0.750000  0.874170  0.180754  1
  Mg  Mg3  1  0.750000  0.625830  0.680754  1
  Si  Si4  1  0.250000  0.407610  0.633841  1
  Si  Si5  1  0.250000  0.092390  0.133841  1
  Si  Si6  1  0.750000  0.593046  0.367179  1
  Si  Si7  1  0.750000  0.906954  0.867179  1
  Si  Si8  1  0.250000  0.617323  0.063259  1
  Si  Si9  1  0.250000  0.882677  0.563259  1
  Si  Si10  1  0.750000  0.382582  0.936942  1
  Si  Si11  1  0.750000  0.117418  0.436942  1
  Ir  Ir12  1  0.250000  0.619841  0.505352  1
  Ir  Ir13  1  0.250000  0.880159  0.005352  1
  Rh  Rh14  1  0.750000  0.380359  0.492824  1
  Rh  Rh15  1  0.750000  0.119641  0.992824  1
  Rh  Rh16  1  0.250000  0.706687  0.266387  1
  Rh  Rh17  1  0.250000  0.793313  0.766387  1
  Rh  Rh18  1  0.750000  0.296507  0.732845  1
  Rh  Rh19  1  0.750000  0.203493  0.232845  1
  Rh  Rh20  1  0.250000  0.167451  0.557812  1
  Rh  Rh21  1  0.250000  0.332549  0.057812  1
  Rh  Rh22  1  0.750000  0.834030  0.441840  1
  Rh  Rh23  1  0.750000  0.665970  0.941840  1
  Rh  Rh24  1  0.250000  0.011126  0.338443  1
  Rh  Rh25  1  0.250000  0.488874  0.838443  1
  Rh  Rh26  1  0.750000  0.989314  0.663118  1
  Rh  Rh27  1  0.750000  0.510686  0.163118  1
