# generated using pymatgen
data_SmTa6Cl18
_symmetry_space_group_name_H-M   'P 1'
_cell_length_a   10.19439927
_cell_length_b   10.19439958
_cell_length_c   10.19440000
_cell_angle_alpha   55.95192629
_cell_angle_beta   55.95191773
_cell_angle_gamma   55.95191837
_symmetry_Int_Tables_number   1
_chemical_formula_structural   SmTa6Cl18
_chemical_formula_sum   'Sm1 Ta6 Cl18'
_cell_volume   678.87975173
_cell_formula_units_Z   1
loop_
 _symmetry_equiv_pos_site_id
 _symmetry_equiv_pos_as_xyz
  1  'x, y, z'
loop_
 _atom_site_type_symbol
 _atom_site_label
 _atom_site_symmetry_multiplicity
 _atom_site_fract_x
 _atom_site_fract_y
 _atom_site_fract_z
 _atom_site_occupancy
  Sm  Sm0  1  0.000000  0.000000  0.000000  1
  Ta  Ta1  1  0.409967  0.302196  0.648056  1
  Ta  Ta2  1  0.351944  0.590033  0.697804  1
  Ta  Ta3  1  0.697804  0.351944  0.590033  1
  Ta  Ta4  1  0.302196  0.648056  0.409967  1
  Ta  Ta5  1  0.648056  0.409967  0.302196  1
  Ta  Ta6  1  0.590033  0.697804  0.351944  1
  Cl  Cl7  1  0.568499  0.162650  0.441668  1
  Cl  Cl8  1  0.224455  0.370940  0.906950  1
  Cl  Cl9  1  0.906950  0.224455  0.370940  1
  Cl  Cl10  1  0.370940  0.906950  0.224455  1
  Cl  Cl11  1  0.775545  0.629060  0.093050  1
  Cl  Cl12  1  0.093050  0.775545  0.629060  1
  Cl  Cl13  1  0.698778  0.953945  0.164313  1
  Cl  Cl14  1  0.953945  0.164313  0.698778  1
  Cl  Cl15  1  0.164313  0.698778  0.953945  1
  Cl  Cl16  1  0.301222  0.046055  0.835687  1
  Cl  Cl17  1  0.046055  0.835687  0.301222  1
  Cl  Cl18  1  0.835687  0.301222  0.046055  1
  Cl  Cl19  1  0.558332  0.431501  0.837350  1
  Cl  Cl20  1  0.162650  0.441668  0.568499  1
  Cl  Cl21  1  0.441668  0.568499  0.162650  1
  Cl  Cl22  1  0.431501  0.837350  0.558332  1
  Cl  Cl23  1  0.837350  0.558332  0.431501  1
  Cl  Cl24  1  0.629060  0.093050  0.775545  1
