# generated using pymatgen
data_Dy3HoFe6(P6Rh7)2
_symmetry_space_group_name_H-M   'P 1'
_cell_length_a   3.82645300
_cell_length_b   10.64623007
_cell_length_c   12.34376402
_cell_angle_alpha   90.00966447
_cell_angle_beta   90.00000000
_cell_angle_gamma   90.00000000
_symmetry_Int_Tables_number   1
_chemical_formula_structural   Dy3HoFe6(P6Rh7)2
_chemical_formula_sum   'Dy3 Ho1 Fe6 P12 Rh14'
_cell_volume   502.85159822
_cell_formula_units_Z   1
loop_
 _symmetry_equiv_pos_site_id
 _symmetry_equiv_pos_as_xyz
  1  'x, y, z'
loop_
 _atom_site_type_symbol
 _atom_site_label
 _atom_site_symmetry_multiplicity
 _atom_site_fract_x
 _atom_site_fract_y
 _atom_site_fract_z
 _atom_site_occupancy
  Dy  Dy0  1  0.250000  0.923281  0.210884  1
  Dy  Dy1  1  0.750000  0.415913  0.290853  1
  Dy  Dy2  1  0.750000  0.084275  0.790785  1
  Ho  Ho3  1  0.250000  0.576451  0.711055  1
  Fe  Fe4  1  0.750000  0.123383  0.302285  1
  Fe  Fe5  1  0.750000  0.376681  0.802139  1
  Fe  Fe6  1  0.250000  0.460159  0.932493  1
  Fe  Fe7  1  0.250000  0.039931  0.432903  1
  Fe  Fe8  1  0.750000  0.540108  0.064654  1
  Fe  Fe9  1  0.750000  0.959841  0.564985  1
  P  P10  1  0.250000  0.430704  0.105692  1
  P  P11  1  0.250000  0.069131  0.605980  1
  P  P12  1  0.750000  0.559281  0.887833  1
  P  P13  1  0.750000  0.940651  0.388275  1
  P  P14  1  0.250000  0.274575  0.863733  1
  P  P15  1  0.250000  0.225492  0.363922  1
  P  P16  1  0.750000  0.731769  0.130285  1
  P  P17  1  0.750000  0.768007  0.630495  1
  P  P18  1  0.250000  0.600109  0.389712  1
  P  P19  1  0.250000  0.900027  0.889857  1
  P  P20  1  0.750000  0.397373  0.620477  1
  P  P21  1  0.750000  0.102871  0.120174  1
  Rh  Rh22  1  0.250000  0.716400  0.991545  1
  Rh  Rh23  1  0.250000  0.783522  0.491653  1
  Rh  Rh24  1  0.750000  0.286249  0.009331  1
  Rh  Rh25  1  0.750000  0.214014  0.509526  1
  Rh  Rh26  1  0.250000  0.405174  0.477505  1
  Rh  Rh27  1  0.250000  0.095139  0.977487  1
  Rh  Rh28  1  0.750000  0.588088  0.520549  1
  Rh  Rh29  1  0.750000  0.911904  0.019814  1
  Rh  Rh30  1  0.250000  0.228587  0.174569  1
  Rh  Rh31  1  0.250000  0.271684  0.674525  1
  Rh  Rh32  1  0.750000  0.764611  0.825411  1
  Rh  Rh33  1  0.750000  0.734812  0.325737  1
  Rh  Rh34  1  0.250000  0.881012  0.701584  1
  Rh  Rh35  1  0.250000  0.618790  0.201294  1
