# generated using pymatgen
data_Nd3Dy5Pu4O24
_symmetry_space_group_name_H-M   'P 1'
_cell_length_a   5.62537200
_cell_length_b   7.92635357
_cell_length_c   11.88775200
_cell_angle_alpha   74.51562361
_cell_angle_beta   90.00000000
_cell_angle_gamma   90.00000000
_symmetry_Int_Tables_number   1
_chemical_formula_structural   Nd3Dy5Pu4O24
_chemical_formula_sum   'Nd3 Dy5 Pu4 O24'
_cell_volume   510.81985017
_cell_formula_units_Z   1
loop_
 _symmetry_equiv_pos_site_id
 _symmetry_equiv_pos_as_xyz
  1  'x, y, z'
loop_
 _atom_site_type_symbol
 _atom_site_label
 _atom_site_symmetry_multiplicity
 _atom_site_fract_x
 _atom_site_fract_y
 _atom_site_fract_z
 _atom_site_occupancy
  Nd  Nd0  1  0.745372  0.000000  0.750000  1
  Nd  Nd1  1  0.253209  0.000000  0.250000  1
  Nd  Nd2  1  0.690952  0.500000  0.750000  1
  Dy  Dy3  1  0.182195  0.792875  0.579264  1
  Dy  Dy4  1  0.818676  0.790500  0.081235  1
  Dy  Dy5  1  0.303846  0.500000  0.250000  1
  Dy  Dy6  1  0.182195  0.207125  0.920736  1
  Dy  Dy7  1  0.818676  0.209500  0.418765  1
  Pu  Pu8  1  0.255151  0.722044  0.888253  1
  Pu  Pu9  1  0.743164  0.720149  0.385878  1
  Pu  Pu10  1  0.255151  0.277956  0.611747  1
  Pu  Pu11  1  0.743164  0.279851  0.114122  1
  O  O12  1  0.053277  0.941063  0.901827  1
  O  O13  1  0.553952  0.841816  0.936135  1
  O  O14  1  0.947550  0.942335  0.399995  1
  O  O15  1  0.444828  0.794593  0.727077  1
  O  O16  1  0.448219  0.842151  0.436088  1
  O  O17  1  0.972012  0.716231  0.765566  1
  O  O18  1  0.557349  0.795993  0.227785  1
  O  O19  1  0.870338  0.628514  0.550759  1
  O  O20  1  0.371792  0.483936  0.886028  1
  O  O21  1  0.034925  0.708932  0.266802  1
  O  O22  1  0.371792  0.516064  0.613972  1
  O  O23  1  0.870338  0.371486  0.949241  1
  O  O24  1  0.133458  0.629731  0.056157  1
  O  O25  1  0.616425  0.483024  0.381212  1
  O  O26  1  0.972012  0.283769  0.734434  1
  O  O27  1  0.616425  0.516976  0.118788  1
  O  O28  1  0.133458  0.370269  0.443843  1
  O  O29  1  0.444828  0.205407  0.772923  1
  O  O30  1  0.034925  0.291068  0.233198  1
  O  O31  1  0.553952  0.158184  0.563865  1
  O  O32  1  0.557349  0.204007  0.272215  1
  O  O33  1  0.053277  0.058937  0.598173  1
  O  O34  1  0.448219  0.157849  0.063912  1
  O  O35  1  0.947550  0.057665  0.100005  1
