# generated using pymatgen
data_CeFe2SiC
_symmetry_space_group_name_H-M   'P 1'
_cell_length_a   5.63076779
_cell_length_b   5.63076750
_cell_length_c   6.71231200
_cell_angle_alpha   90.00000000
_cell_angle_beta   90.00000000
_cell_angle_gamma   140.11438566
_symmetry_Int_Tables_number   1
_chemical_formula_structural   CeFe2SiC
_chemical_formula_sum   'Ce2 Fe4 Si2 C2'
_cell_volume   136.47071367
_cell_formula_units_Z   2
loop_
 _symmetry_equiv_pos_site_id
 _symmetry_equiv_pos_as_xyz
  1  'x, y, z'
loop_
 _atom_site_type_symbol
 _atom_site_label
 _atom_site_symmetry_multiplicity
 _atom_site_fract_x
 _atom_site_fract_y
 _atom_site_fract_z
 _atom_site_occupancy
  Ce  Ce0  1  0.556544  0.443456  0.250000  1
  Ce  Ce1  1  0.443456  0.556544  0.750000  1
  Fe  Fe2  1  0.835816  0.164184  0.061052  1
  Fe  Fe3  1  0.164184  0.835816  0.938948  1
  Fe  Fe4  1  0.164184  0.835816  0.561052  1
  Fe  Fe5  1  0.835816  0.164184  0.438948  1
  Si  Si6  1  0.274162  0.725838  0.250000  1
  Si  Si7  1  0.725838  0.274162  0.750000  1
  C  C8  1  0.000000  0.000000  0.000000  1
  C  C9  1  0.000000  0.000000  0.500000  1
