# generated using pymatgen
data_Er4Tm11Lu5(CoSb2)4
_symmetry_space_group_name_H-M   'P 1'
_cell_length_a   7.73435205
_cell_length_b   8.73350429
_cell_length_c   12.04224131
_cell_angle_alpha   90.00936727
_cell_angle_beta   89.94724408
_cell_angle_gamma   89.97214141
_symmetry_Int_Tables_number   1
_chemical_formula_structural   Er4Tm11Lu5(CoSb2)4
_chemical_formula_sum   'Er4 Tm11 Lu5 Co4 Sb8'
_cell_volume   813.42882570
_cell_formula_units_Z   1
loop_
 _symmetry_equiv_pos_site_id
 _symmetry_equiv_pos_as_xyz
  1  'x, y, z'
loop_
 _atom_site_type_symbol
 _atom_site_label
 _atom_site_symmetry_multiplicity
 _atom_site_fract_x
 _atom_site_fract_y
 _atom_site_fract_z
 _atom_site_occupancy
  Er  Er0  1  0.622610  0.749866  0.308532  1
  Er  Er1  1  0.122783  0.249968  0.191397  1
  Er  Er2  1  0.377204  0.249901  0.691577  1
  Er  Er3  1  0.877754  0.750260  0.808602  1
  Tm  Tm4  1  0.157103  0.750149  0.204329  1
  Tm  Tm5  1  0.657203  0.249817  0.295556  1
  Tm  Tm6  1  0.843142  0.250012  0.795607  1
  Tm  Tm7  1  0.342724  0.749918  0.704530  1
  Tm  Tm8  1  0.448904  0.750107  0.997892  1
  Tm  Tm9  1  0.949565  0.250110  0.502069  1
  Tm  Tm10  1  0.550314  0.249717  0.002048  1
  Tm  Tm11  1  0.050508  0.750153  0.497937  1
  Tm  Tm12  1  0.675942  0.962375  0.565514  1
  Tm  Tm13  1  0.824115  0.537241  0.065458  1
  Tm  Tm14  1  0.324077  0.462534  0.434455  1
  Lu  Lu15  1  0.825527  0.962672  0.065322  1
  Lu  Lu16  1  0.324998  0.037546  0.434538  1
  Lu  Lu17  1  0.174832  0.462488  0.934504  1
  Lu  Lu18  1  0.674940  0.537635  0.565458  1
  Lu  Lu19  1  0.174449  0.037490  0.934565  1
  Co  Co20  1  0.431008  0.749904  0.490933  1
  Co  Co21  1  0.931923  0.249609  0.008776  1
  Co  Co22  1  0.569034  0.249908  0.509070  1
  Co  Co23  1  0.069333  0.750493  0.990972  1
  Sb  Sb24  1  0.931752  0.991521  0.327630  1
  Sb  Sb25  1  0.432001  0.008548  0.172374  1
  Sb  Sb26  1  0.068254  0.491461  0.672375  1
  Sb  Sb27  1  0.568222  0.508479  0.827677  1
  Sb  Sb28  1  0.068632  0.008651  0.672542  1
  Sb  Sb29  1  0.568019  0.991526  0.827833  1
  Sb  Sb30  1  0.931571  0.508541  0.327606  1
  Sb  Sb31  1  0.431558  0.491403  0.172322  1
