# generated using pymatgen
data_SiI35
_symmetry_space_group_name_H-M   'P 1'
_cell_length_a   17.58017498
_cell_length_b   12.54030950
_cell_length_c   11.87107100
_cell_angle_alpha   88.81408644
_cell_angle_beta   66.02770740
_cell_angle_gamma   92.31545562
_symmetry_Int_Tables_number   1
_chemical_formula_structural   SiI35
_chemical_formula_sum   'Si1 I35'
_cell_volume   2387.43274716
_cell_formula_units_Z   1
loop_
 _symmetry_equiv_pos_site_id
 _symmetry_equiv_pos_as_xyz
  1  'x, y, z'
loop_
 _atom_site_type_symbol
 _atom_site_label
 _atom_site_symmetry_multiplicity
 _atom_site_fract_x
 _atom_site_fract_y
 _atom_site_fract_z
 _atom_site_occupancy
  Si  Si0  1  0.177272  0.443886  0.610090  1
  I  I1  1  0.516378  0.270672  0.543344  1
  I  I2  1  0.764995  0.592033  0.568274  1
  I  I3  1  0.474982  0.691946  0.725143  1
  I  I4  1  0.061449  0.900295  0.828553  1
  I  I5  1  0.891858  0.156265  0.026308  1
  I  I6  1  0.659563  0.305910  0.294470  1
  I  I7  1  0.620832  0.340165  0.827596  1
  I  I8  1  0.333730  0.775371  0.686559  1
  I  I9  1  0.379879  0.536523  0.123020  1
  I  I10  1  0.657481  0.126862  0.788587  1
  I  I11  1  0.927876  0.563899  0.373167  1
  I  I12  1  0.078477  0.963495  0.584544  1
  I  I13  1  0.908010  0.113478  0.263472  1
  I  I14  1  0.873605  0.207686  0.801600  1
  I  I15  1  0.648279  0.043227  0.270629  1
  I  I16  1  0.034162  0.831447  0.086007  1
  I  I17  1  0.354259  0.997536  0.736098  1
  I  I18  1  0.918313  0.336246  0.321649  1
  I  I19  1  0.892849  0.928861  0.653629  1
  I  I20  1  0.823070  0.658016  0.894339  1
  I  I21  1  0.362922  0.034016  0.138856  1
  I  I22  1  0.352624  0.293734  0.141018  1
  I  I23  1  0.607211  0.611771  0.787371  1
  I  I24  1  0.131906  0.412999  0.443008  1
  I  I25  1  0.717107  0.893783  0.747536  1
  I  I26  1  0.835769  0.440123  0.853492  1
  I  I27  1  0.504781  0.036744  0.208674  1
  I  I28  1  0.135644  0.287035  0.753543  1
  I  I29  1  0.669197  0.779312  0.292971  1
  I  I30  1  0.854723  0.808817  0.190839  1
  I  I31  1  0.382801  0.225233  0.778346  1
  I  I32  1  0.329682  0.474454  0.524475  1
  I  I33  1  0.656751  0.540630  0.269335  1
  I  I34  1  0.112217  0.602734  0.719113  1
  I  I35  1  0.349343  0.774796  0.144349  1
