# generated using pymatgen
data_TiV2O5
_symmetry_space_group_name_H-M   'P 1'
_cell_length_a   7.57321396
_cell_length_b   5.33907317
_cell_length_c   10.13410641
_cell_angle_alpha   89.91361039
_cell_angle_beta   89.98617467
_cell_angle_gamma   69.27414319
_symmetry_Int_Tables_number   1
_chemical_formula_structural   TiV2O5
_chemical_formula_sum   'Ti4 V8 O20'
_cell_volume   383.24345164
_cell_formula_units_Z   4
loop_
 _symmetry_equiv_pos_site_id
 _symmetry_equiv_pos_as_xyz
  1  'x, y, z'
loop_
 _atom_site_type_symbol
 _atom_site_label
 _atom_site_symmetry_multiplicity
 _atom_site_fract_x
 _atom_site_fract_y
 _atom_site_fract_z
 _atom_site_occupancy
  Ti  Ti0  1  0.067049  0.732384  0.058528  1
  Ti  Ti1  1  0.431944  0.271286  0.562001  1
  Ti  Ti2  1  0.567038  0.732325  0.059328  1
  Ti  Ti3  1  0.906844  0.373727  0.255913  1
  V  V4  1  0.094127  0.622670  0.748843  1
  V  V5  1  0.070963  0.721521  0.441942  1
  V  V6  1  0.430719  0.276273  0.938939  1
  V  V7  1  0.406006  0.375893  0.250973  1
  V  V8  1  0.595230  0.620052  0.749527  1
  V  V9  1  0.567489  0.726206  0.438916  1
  V  V10  1  0.930604  0.275423  0.561441  1
  V  V11  1  0.929594  0.281827  0.938819  1
  O  O12  1  0.160101  0.378455  0.570190  1
  O  O13  1  0.151546  0.397729  0.933558  1
  O  O14  1  0.114953  0.513665  0.243854  1
  O  O15  1  0.025063  0.900155  0.612556  1
  O  O16  1  0.026827  0.900757  0.890508  1
  O  O17  1  0.475686  0.102733  0.387667  1
  O  O18  1  0.480678  0.081627  0.116791  1
  O  O19  1  0.383004  0.467296  0.747662  1
  O  O20  1  0.342215  0.628138  0.076400  1
  O  O21  1  0.348342  0.608181  0.423897  1
  O  O22  1  0.649153  0.383925  0.570610  1
  O  O23  1  0.650101  0.395509  0.931102  1
  O  O24  1  0.627645  0.515859  0.243796  1
  O  O25  1  0.520224  0.916861  0.616219  1
  O  O26  1  0.523373  0.897645  0.888740  1
  O  O27  1  0.974063  0.101262  0.374691  1
  O  O28  1  0.976135  0.091792  0.119463  1
  O  O29  1  0.882294  0.470918  0.750027  1
  O  O30  1  0.847408  0.609214  0.425035  1
  O  O31  1  0.843581  0.628691  0.072065  1
