# generated using pymatgen
data_Ca5PrRuWO12
_symmetry_space_group_name_H-M   'P 1'
_cell_length_a   6.63956058
_cell_length_b   6.61935662
_cell_length_c   6.65235699
_cell_angle_alpha   92.52231235
_cell_angle_beta   92.22081663
_cell_angle_gamma   92.36007654
_symmetry_Int_Tables_number   1
_chemical_formula_structural   Ca5PrRuWO12
_chemical_formula_sum   'Ca5 Pr1 Ru1 W1 O12'
_cell_volume   291.59647835
_cell_formula_units_Z   1
loop_
 _symmetry_equiv_pos_site_id
 _symmetry_equiv_pos_as_xyz
  1  'x, y, z'
loop_
 _atom_site_type_symbol
 _atom_site_label
 _atom_site_symmetry_multiplicity
 _atom_site_fract_x
 _atom_site_fract_y
 _atom_site_fract_z
 _atom_site_occupancy
  Ca  Ca0  1  0.740700  0.928583  0.434411  1
  Ca  Ca1  1  0.557445  0.256491  0.075894  1
  Ca  Ca2  1  0.438432  0.742992  0.928017  1
  Ca  Ca3  1  0.264129  0.068614  0.564692  1
  Ca  Ca4  1  0.075166  0.569383  0.257672  1
  Pr  Pr5  1  0.924985  0.430654  0.737527  1
  Ru  Ru6  1  0.496879  0.501837  0.495028  1
  W  W7  1  0.000724  0.000146  0.005832  1
  O  O8  1  0.941118  0.284221  0.069424  1
  O  O9  1  0.936430  0.059775  0.718291  1
  O  O10  1  0.786877  0.584083  0.451439  1
  O  O11  1  0.718985  0.933358  0.056109  1
  O  O12  1  0.576540  0.451802  0.786697  1
  O  O13  1  0.551825  0.215554  0.421765  1
  O  O14  1  0.452013  0.785188  0.580294  1
  O  O15  1  0.419988  0.548721  0.213267  1
  O  O16  1  0.280897  0.065636  0.943656  1
  O  O17  1  0.210872  0.416632  0.540938  1
  O  O18  1  0.066307  0.942844  0.283878  1
  O  O19  1  0.059689  0.713486  0.935171  1
