# generated using pymatgen
data_Cr3CoSiN
_symmetry_space_group_name_H-M   'P 1'
_cell_length_a   6.27863200
_cell_length_b   6.27863200
_cell_length_c   6.27863200
_cell_angle_alpha   90.00000000
_cell_angle_beta   90.00000000
_cell_angle_gamma   90.00000000
_symmetry_Int_Tables_number   1
_chemical_formula_structural   Cr3CoSiN
_chemical_formula_sum   'Cr12 Co4 Si4 N4'
_cell_volume   247.51133206
_cell_formula_units_Z   4
loop_
 _symmetry_equiv_pos_site_id
 _symmetry_equiv_pos_as_xyz
  1  'x, y, z'
loop_
 _atom_site_type_symbol
 _atom_site_label
 _atom_site_symmetry_multiplicity
 _atom_site_fract_x
 _atom_site_fract_y
 _atom_site_fract_z
 _atom_site_occupancy
  Cr  Cr0  1  0.794848  0.959494  0.372822  1
  Cr  Cr1  1  0.705152  0.040506  0.872822  1
  Cr  Cr2  1  0.205152  0.459494  0.127178  1
  Cr  Cr3  1  0.294848  0.540506  0.627178  1
  Cr  Cr4  1  0.959494  0.372822  0.794848  1
  Cr  Cr5  1  0.040506  0.872822  0.705152  1
  Cr  Cr6  1  0.459494  0.127178  0.205152  1
  Cr  Cr7  1  0.540506  0.627178  0.294848  1
  Cr  Cr8  1  0.372822  0.794848  0.959494  1
  Cr  Cr9  1  0.872822  0.705152  0.040506  1
  Cr  Cr10  1  0.127178  0.205152  0.459494  1
  Cr  Cr11  1  0.627178  0.294848  0.540506  1
  Co  Co12  1  0.571220  0.428780  0.928780  1
  Co  Co13  1  0.428780  0.928780  0.571220  1
  Co  Co14  1  0.928780  0.571220  0.428780  1
  Co  Co15  1  0.071220  0.071220  0.071220  1
  Si  Si16  1  0.176147  0.823853  0.323853  1
  Si  Si17  1  0.323853  0.176147  0.823853  1
  Si  Si18  1  0.823853  0.323853  0.176147  1
  Si  Si19  1  0.676147  0.676147  0.676147  1
  N  N20  1  0.873309  0.126691  0.626691  1
  N  N21  1  0.626691  0.873309  0.126691  1
  N  N22  1  0.126691  0.626691  0.873309  1
  N  N23  1  0.373309  0.373309  0.373309  1
