# generated using pymatgen
data_Ho3Si3Pt
_symmetry_space_group_name_H-M   'P 1'
_cell_length_a   4.24642500
_cell_length_b   10.64029400
_cell_length_c   12.28817800
_cell_angle_alpha   90.00000000
_cell_angle_beta   90.00000000
_cell_angle_gamma   90.00000000
_symmetry_Int_Tables_number   1
_chemical_formula_structural   Ho3Si3Pt
_chemical_formula_sum   'Ho12 Si12 Pt4'
_cell_volume   555.21933261
_cell_formula_units_Z   4
loop_
 _symmetry_equiv_pos_site_id
 _symmetry_equiv_pos_as_xyz
  1  'x, y, z'
loop_
 _atom_site_type_symbol
 _atom_site_label
 _atom_site_symmetry_multiplicity
 _atom_site_fract_x
 _atom_site_fract_y
 _atom_site_fract_z
 _atom_site_occupancy
  Ho  Ho0  1  0.250000  0.878348  0.020699  1
  Ho  Ho1  1  0.250000  0.621652  0.520699  1
  Ho  Ho2  1  0.750000  0.121652  0.979301  1
  Ho  Ho3  1  0.750000  0.378348  0.479301  1
  Ho  Ho4  1  0.250000  0.919093  0.601666  1
  Ho  Ho5  1  0.250000  0.580907  0.101666  1
  Ho  Ho6  1  0.750000  0.080907  0.398334  1
  Ho  Ho7  1  0.750000  0.419093  0.898334  1
  Ho  Ho8  1  0.250000  0.660210  0.800815  1
  Ho  Ho9  1  0.250000  0.839790  0.300815  1
  Ho  Ho10  1  0.750000  0.339790  0.199185  1
  Ho  Ho11  1  0.750000  0.160210  0.699185  1
  Si  Si12  1  0.250000  0.015506  0.822944  1
  Si  Si13  1  0.250000  0.484494  0.322944  1
  Si  Si14  1  0.750000  0.984494  0.177056  1
  Si  Si15  1  0.750000  0.515506  0.677056  1
  Si  Si16  1  0.250000  0.245932  0.843305  1
  Si  Si17  1  0.250000  0.254068  0.343305  1
  Si  Si18  1  0.750000  0.754068  0.156695  1
  Si  Si19  1  0.750000  0.745932  0.656695  1
  Si  Si20  1  0.250000  0.193918  0.541097  1
  Si  Si21  1  0.250000  0.306082  0.041097  1
  Si  Si22  1  0.750000  0.806082  0.458903  1
  Si  Si23  1  0.750000  0.693918  0.958903  1
  Pt  Pt24  1  0.250000  0.389060  0.680284  1
  Pt  Pt25  1  0.250000  0.110940  0.180284  1
  Pt  Pt26  1  0.750000  0.610940  0.319716  1
  Pt  Pt27  1  0.750000  0.889060  0.819716  1
