# generated using pymatgen
data_Ho2Tm2ReB12Ru
_symmetry_space_group_name_H-M   'P 1'
_cell_length_a   3.64222300
_cell_length_b   9.10542439
_cell_length_c   11.49275301
_cell_angle_alpha   89.81119965
_cell_angle_beta   90.00000000
_cell_angle_gamma   90.00000000
_symmetry_Int_Tables_number   1
_chemical_formula_structural   Ho2Tm2ReB12Ru
_chemical_formula_sum   'Ho4 Tm4 Re2 B24 Ru2'
_cell_volume   381.14343228
_cell_formula_units_Z   2
loop_
 _symmetry_equiv_pos_site_id
 _symmetry_equiv_pos_as_xyz
  1  'x, y, z'
loop_
 _atom_site_type_symbol
 _atom_site_label
 _atom_site_symmetry_multiplicity
 _atom_site_fract_x
 _atom_site_fract_y
 _atom_site_fract_z
 _atom_site_occupancy
  Ho  Ho0  1  0.000000  0.324317  0.415373  1
  Ho  Ho1  1  0.000000  0.675683  0.584627  1
  Ho  Ho2  1  0.000000  0.820746  0.087633  1
  Ho  Ho3  1  0.000000  0.179254  0.912367  1
  Tm  Tm4  1  0.000000  0.943024  0.370986  1
  Tm  Tm5  1  0.000000  0.056976  0.629014  1
  Tm  Tm6  1  0.000000  0.442875  0.129197  1
  Tm  Tm7  1  0.000000  0.557125  0.870803  1
  Re  Re8  1  0.000000  0.638647  0.319949  1
  Re  Re9  1  0.000000  0.361353  0.680051  1
  B  B10  1  0.500000  0.553060  0.433104  1
  B  B11  1  0.500000  0.446940  0.566896  1
  B  B12  1  0.500000  0.053859  0.066967  1
  B  B13  1  0.500000  0.946141  0.933033  1
  B  B14  1  0.500000  0.749617  0.419098  1
  B  B15  1  0.500000  0.250383  0.580902  1
  B  B16  1  0.500000  0.249138  0.080996  1
  B  B17  1  0.500000  0.750862  0.919004  1
  B  B18  1  0.500000  0.792329  0.265267  1
  B  B19  1  0.500000  0.207671  0.734733  1
  B  B20  1  0.500000  0.291074  0.234026  1
  B  B21  1  0.500000  0.708926  0.765974  1
  B  B22  1  0.500000  0.630855  0.184675  1
  B  B23  1  0.500000  0.369145  0.815325  1
  B  B24  1  0.500000  0.130602  0.314343  1
  B  B25  1  0.500000  0.869398  0.685657  1
  B  B26  1  0.500000  0.982882  0.212242  1
  B  B27  1  0.500000  0.017118  0.787758  1
  B  B28  1  0.500000  0.481903  0.287083  1
  B  B29  1  0.500000  0.518097  0.712917  1
  B  B30  1  0.500000  0.602735  0.028250  1
  B  B31  1  0.500000  0.397265  0.971750  1
  B  B32  1  0.500000  0.102466  0.471490  1
  B  B33  1  0.500000  0.897534  0.528510  1
  Ru  Ru34  1  0.000000  0.138017  0.178833  1
  Ru  Ru35  1  0.000000  0.861983  0.821167  1
