# generated using pymatgen
data_Sm3PtI3
_symmetry_space_group_name_H-M   'P 1'
_cell_length_a   10.77994409
_cell_length_b   10.77994409
_cell_length_c   10.77994400
_cell_angle_alpha   109.47121670
_cell_angle_beta   109.47121671
_cell_angle_gamma   109.47122189
_symmetry_Int_Tables_number   1
_chemical_formula_structural   Sm3PtI3
_chemical_formula_sum   'Sm12 Pt4 I12'
_cell_volume   964.33441554
_cell_formula_units_Z   4
loop_
 _symmetry_equiv_pos_site_id
 _symmetry_equiv_pos_as_xyz
  1  'x, y, z'
loop_
 _atom_site_type_symbol
 _atom_site_label
 _atom_site_symmetry_multiplicity
 _atom_site_fract_x
 _atom_site_fract_y
 _atom_site_fract_z
 _atom_site_occupancy
  Sm  Sm0  1  0.042942  0.271472  0.021472  1
  Sm  Sm1  1  0.750000  0.021472  0.478528  1
  Sm  Sm2  1  0.271472  0.750000  0.228528  1
  Sm  Sm3  1  0.478528  0.750000  0.021472  1
  Sm  Sm4  1  0.750000  0.228528  0.271472  1
  Sm  Sm5  1  0.021472  0.478528  0.750000  1
  Sm  Sm6  1  0.228528  0.271472  0.750000  1
  Sm  Sm7  1  0.478528  0.228528  0.457058  1
  Sm  Sm8  1  0.457058  0.478528  0.228528  1
  Sm  Sm9  1  0.271472  0.021472  0.042942  1
  Sm  Sm10  1  0.021472  0.042942  0.271472  1
  Sm  Sm11  1  0.228528  0.457058  0.478528  1
  Pt  Pt12  1  0.500000  0.000000  0.250000  1
  Pt  Pt13  1  0.250000  0.500000  0.000000  1
  Pt  Pt14  1  0.250000  0.250000  0.250000  1
  Pt  Pt15  1  0.000000  0.250000  0.500000  1
  I  I16  1  0.758419  0.741581  0.250000  1
  I  I17  1  0.991581  0.508419  0.250000  1
  I  I18  1  0.250000  0.758419  0.741581  1
  I  I19  1  0.758419  0.516839  0.508419  1
  I  I20  1  0.508419  0.250000  0.991581  1
  I  I21  1  0.741581  0.991581  0.983161  1
  I  I22  1  0.991581  0.983161  0.741581  1
  I  I23  1  0.516839  0.508419  0.758419  1
  I  I24  1  0.250000  0.991581  0.508419  1
  I  I25  1  0.741581  0.250000  0.758419  1
  I  I26  1  0.508419  0.758419  0.516839  1
  I  I27  1  0.983161  0.741581  0.991581  1
