# generated using pymatgen
data_Yb10CdRh5
_symmetry_space_group_name_H-M   'P 1'
_cell_length_a   8.65900066
_cell_length_b   8.65900058
_cell_length_c   8.65899990
_cell_angle_alpha   128.34047526
_cell_angle_beta   128.34047525
_cell_angle_gamma   76.07412095
_symmetry_Int_Tables_number   1
_chemical_formula_structural   Yb10CdRh5
_chemical_formula_sum   'Yb10 Cd1 Rh5'
_cell_volume   388.28297125
_cell_formula_units_Z   1
loop_
 _symmetry_equiv_pos_site_id
 _symmetry_equiv_pos_as_xyz
  1  'x, y, z'
loop_
 _atom_site_type_symbol
 _atom_site_label
 _atom_site_symmetry_multiplicity
 _atom_site_fract_x
 _atom_site_fract_y
 _atom_site_fract_z
 _atom_site_occupancy
  Yb  Yb0  1  0.515208  0.045199  0.834310  1
  Yb  Yb1  1  0.289112  0.454801  0.470010  1
  Yb  Yb2  1  0.454801  0.984792  0.165690  1
  Yb  Yb3  1  0.045199  0.210888  0.529990  1
  Yb  Yb4  1  0.210888  0.680898  0.165690  1
  Yb  Yb5  1  0.680898  0.515208  0.470010  1
  Yb  Yb6  1  0.504850  0.504850  0.000000  1
  Yb  Yb7  1  0.984792  0.819102  0.529990  1
  Yb  Yb8  1  0.819102  0.289112  0.834310  1
  Yb  Yb9  1  0.995150  0.995150  0.000000  1
  Cd  Cd10  1  0.750000  0.750000  0.000000  1
  Rh  Rh11  1  0.630488  0.869512  0.500000  1
  Rh  Rh12  1  0.250000  0.250000  0.000000  1
  Rh  Rh13  1  0.369512  0.130488  0.500000  1
  Rh  Rh14  1  0.130488  0.630488  0.760975  1
  Rh  Rh15  1  0.869512  0.369512  0.239025  1
