# generated using pymatgen
data_Ho2Fe5P6Pd5
_symmetry_space_group_name_H-M   'P 1'
_cell_length_a   3.79777400
_cell_length_b   10.57200000
_cell_length_c   12.52324400
_cell_angle_alpha   90.00000000
_cell_angle_beta   90.00000000
_cell_angle_gamma   90.00000000
_symmetry_Int_Tables_number   1
_chemical_formula_structural   Ho2Fe5P6Pd5
_chemical_formula_sum   'Ho4 Fe10 P12 Pd10'
_cell_volume   502.80908225
_cell_formula_units_Z   2
loop_
 _symmetry_equiv_pos_site_id
 _symmetry_equiv_pos_as_xyz
  1  'x, y, z'
loop_
 _atom_site_type_symbol
 _atom_site_label
 _atom_site_symmetry_multiplicity
 _atom_site_fract_x
 _atom_site_fract_y
 _atom_site_fract_z
 _atom_site_occupancy
  Ho  Ho0  1  0.250000  0.579618  0.716944  1
  Ho  Ho1  1  0.250000  0.920382  0.216944  1
  Ho  Ho2  1  0.750000  0.425150  0.283992  1
  Ho  Ho3  1  0.750000  0.074850  0.783992  1
  Fe  Fe4  1  0.750000  0.774648  0.828797  1
  Fe  Fe5  1  0.750000  0.725352  0.328797  1
  Fe  Fe6  1  0.250000  0.869385  0.695487  1
  Fe  Fe7  1  0.250000  0.630615  0.195487  1
  Fe  Fe8  1  0.750000  0.124378  0.304584  1
  Fe  Fe9  1  0.750000  0.375622  0.804584  1
  Fe  Fe10  1  0.250000  0.460367  0.933796  1
  Fe  Fe11  1  0.250000  0.039633  0.433796  1
  Fe  Fe12  1  0.750000  0.546230  0.065502  1
  Fe  Fe13  1  0.750000  0.953770  0.565502  1
  P  P14  1  0.250000  0.447839  0.109943  1
  P  P15  1  0.250000  0.052161  0.609943  1
  P  P16  1  0.750000  0.565810  0.888275  1
  P  P17  1  0.750000  0.934190  0.388275  1
  P  P18  1  0.250000  0.274782  0.861424  1
  P  P19  1  0.250000  0.225218  0.361424  1
  P  P20  1  0.750000  0.726734  0.151308  1
  P  P21  1  0.750000  0.773266  0.651308  1
  P  P22  1  0.250000  0.612129  0.369708  1
  P  P23  1  0.250000  0.887871  0.869708  1
  P  P24  1  0.750000  0.403015  0.626240  1
  P  P25  1  0.750000  0.096985  0.126240  1
  Pd  Pd26  1  0.250000  0.709731  0.985397  1
  Pd  Pd27  1  0.250000  0.790269  0.485397  1
  Pd  Pd28  1  0.750000  0.284437  0.008752  1
  Pd  Pd29  1  0.750000  0.215563  0.508752  1
  Pd  Pd30  1  0.250000  0.414209  0.467754  1
  Pd  Pd31  1  0.250000  0.085791  0.967754  1
  Pd  Pd32  1  0.750000  0.597438  0.529788  1
  Pd  Pd33  1  0.750000  0.902562  0.029788  1
  Pd  Pd34  1  0.250000  0.230183  0.172309  1
  Pd  Pd35  1  0.250000  0.269817  0.672309  1
