# generated using pymatgen
data_ErTh3Al12(GaIr)6
_symmetry_space_group_name_H-M   'P 1'
_cell_length_a   7.62347830
_cell_length_b   7.63245820
_cell_length_c   9.58424100
_cell_angle_alpha   90.00000000
_cell_angle_beta   90.00000000
_cell_angle_gamma   119.73003799
_symmetry_Int_Tables_number   1
_chemical_formula_structural   ErTh3Al12(GaIr)6
_chemical_formula_sum   'Er1 Th3 Al12 Ga6 Ir6'
_cell_volume   484.26263645
_cell_formula_units_Z   1
loop_
 _symmetry_equiv_pos_site_id
 _symmetry_equiv_pos_as_xyz
  1  'x, y, z'
loop_
 _atom_site_type_symbol
 _atom_site_label
 _atom_site_symmetry_multiplicity
 _atom_site_fract_x
 _atom_site_fract_y
 _atom_site_fract_z
 _atom_site_occupancy
  Er  Er0  1  0.330121  0.003892  0.250000  1
  Th  Th1  1  0.996347  0.669706  0.750000  1
  Th  Th2  1  0.002234  0.330900  0.250000  1
  Th  Th3  1  0.668853  0.995959  0.750000  1
  Al  Al4  1  0.006002  0.334619  0.572202  1
  Al  Al5  1  0.999861  0.670811  0.424758  1
  Al  Al6  1  0.999861  0.670811  0.075242  1
  Al  Al7  1  0.334292  0.004562  0.933924  1
  Al  Al8  1  0.006002  0.334619  0.927798  1
  Al  Al9  1  0.660440  0.995068  0.075285  1
  Al  Al10  1  0.660440  0.995068  0.424715  1
  Al  Al11  1  0.334292  0.004562  0.566076  1
  Al  Al12  1  0.336913  0.333070  0.057824  1
  Al  Al13  1  0.662493  0.662528  0.948909  1
  Al  Al14  1  0.662493  0.662528  0.551091  1
  Al  Al15  1  0.336913  0.333070  0.442176  1
  Ga  Ga16  1  0.135367  0.132436  0.750000  1
  Ga  Ga17  1  0.872512  0.869738  0.250000  1
  Ga  Ga18  1  0.340781  0.542084  0.750000  1
  Ga  Ga19  1  0.656377  0.450729  0.250000  1
  Ga  Ga20  1  0.541480  0.337492  0.750000  1
  Ga  Ga21  1  0.456200  0.664467  0.250000  1
  Ir  Ir22  1  0.673812  0.329036  0.499906  1
  Ir  Ir23  1  0.327340  0.671034  0.499919  1
  Ir  Ir24  1  0.327340  0.671034  0.000081  1
  Ir  Ir25  1  0.673812  0.329036  0.000094  1
  Ir  Ir26  1  0.998711  0.000573  0.500157  1
  Ir  Ir27  1  0.998711  0.000573  0.999843  1
