# generated using pymatgen
data_Ac3In4Cl
_symmetry_space_group_name_H-M   'P 1'
_cell_length_a   8.85183902
_cell_length_b   8.85183757
_cell_length_c   8.85183752
_cell_angle_alpha   118.79989585
_cell_angle_beta   118.79989182
_cell_angle_gamma   92.09152654
_symmetry_Int_Tables_number   1
_chemical_formula_structural   Ac3In4Cl
_chemical_formula_sum   'Ac6 In8 Cl2'
_cell_volume   498.97610305
_cell_formula_units_Z   2
loop_
 _symmetry_equiv_pos_site_id
 _symmetry_equiv_pos_as_xyz
  1  'x, y, z'
loop_
 _atom_site_type_symbol
 _atom_site_label
 _atom_site_symmetry_multiplicity
 _atom_site_fract_x
 _atom_site_fract_y
 _atom_site_fract_z
 _atom_site_occupancy
  Ac  Ac0  1  0.750000  0.750000  0.000000  1
  Ac  Ac1  1  0.250000  0.250000  0.000000  1
  Ac  Ac2  1  0.339045  0.839045  0.178089  1
  Ac  Ac3  1  0.660955  0.160955  0.821911  1
  Ac  Ac4  1  0.839045  0.660955  0.500000  1
  Ac  Ac5  1  0.160955  0.339045  0.500000  1
  In  In6  1  0.953496  0.453496  0.786823  1
  In  In7  1  0.666673  0.166673  0.213177  1
  In  In8  1  0.453496  0.666673  0.500000  1
  In  In9  1  0.166673  0.953496  0.500000  1
  In  In10  1  0.046504  0.546504  0.213177  1
  In  In11  1  0.333327  0.833327  0.786823  1
  In  In12  1  0.546504  0.333327  0.500000  1
  In  In13  1  0.833327  0.046504  0.500000  1
  Cl  Cl14  1  0.000000  0.000000  0.000000  1
  Cl  Cl15  1  0.500000  0.500000  0.000000  1
