# generated using pymatgen
data_Sr4NdP3O13
_symmetry_space_group_name_H-M   'P 1'
_cell_length_a   7.34793300
_cell_length_b   9.76664177
_cell_length_c   9.89837000
_cell_angle_alpha   60.44119727
_cell_angle_beta   90.00000000
_cell_angle_gamma   90.00000000
_symmetry_Int_Tables_number   1
_chemical_formula_structural   Sr4NdP3O13
_chemical_formula_sum   'Sr8 Nd2 P6 O26'
_cell_volume   617.90033261
_cell_formula_units_Z   2
loop_
 _symmetry_equiv_pos_site_id
 _symmetry_equiv_pos_as_xyz
  1  'x, y, z'
loop_
 _atom_site_type_symbol
 _atom_site_label
 _atom_site_symmetry_multiplicity
 _atom_site_fract_x
 _atom_site_fract_y
 _atom_site_fract_z
 _atom_site_occupancy
  Sr  Sr0  1  0.499957  0.332628  0.326558  1
  Sr  Sr1  1  0.999957  0.667372  0.673442  1
  Sr  Sr2  1  0.500043  0.667372  0.673442  1
  Sr  Sr3  1  0.000043  0.332628  0.326558  1
  Sr  Sr4  1  0.250000  0.009223  0.764557  1
  Sr  Sr5  1  0.250000  0.223588  0.014190  1
  Sr  Sr6  1  0.750000  0.990777  0.235443  1
  Sr  Sr7  1  0.750000  0.776412  0.985810  1
  Nd  Nd8  1  0.250000  0.756210  0.237390  1
  Nd  Nd9  1  0.750000  0.243790  0.762610  1
  P  P10  1  0.250000  0.963959  0.402777  1
  P  P11  1  0.250000  0.632067  0.966473  1
  P  P12  1  0.250000  0.396816  0.628716  1
  P  P13  1  0.750000  0.036041  0.597223  1
  P  P14  1  0.750000  0.367933  0.033527  1
  P  P15  1  0.750000  0.603184  0.371284  1
  O  O16  1  0.250000  0.884837  0.582820  1
  O  O17  1  0.250000  0.525275  0.890495  1
  O  O18  1  0.250000  0.580407  0.542959  1
  O  O19  1  0.750000  0.115163  0.417180  1
  O  O20  1  0.750000  0.474725  0.109505  1
  O  O21  1  0.750000  0.419593  0.457041  1
  O  O22  1  0.419851  0.904503  0.351282  1
  O  O23  1  0.423055  0.737446  0.908738  1
  O  O24  1  0.422121  0.336098  0.735697  1
  O  O25  1  0.919851  0.095497  0.648718  1
  O  O26  1  0.923055  0.262554  0.091262  1
  O  O27  1  0.922121  0.663902  0.264303  1
  O  O28  1  0.580149  0.095497  0.648718  1
  O  O29  1  0.576945  0.262554  0.091262  1
  O  O30  1  0.577879  0.663902  0.264303  1
  O  O31  1  0.080149  0.904503  0.351282  1
  O  O32  1  0.076945  0.737446  0.908738  1
  O  O33  1  0.077879  0.336098  0.735697  1
  O  O34  1  0.250000  0.146258  0.325245  1
  O  O35  1  0.250000  0.535010  0.148718  1
  O  O36  1  0.250000  0.335801  0.510651  1
  O  O37  1  0.750000  0.853742  0.674755  1
  O  O38  1  0.750000  0.464990  0.851282  1
  O  O39  1  0.750000  0.664199  0.489349  1
  O  O40  1  0.250000  0.973185  0.023981  1
  O  O41  1  0.750000  0.026815  0.976019  1
