# generated using pymatgen
data_Tb7Sm(Si4W3)4
_symmetry_space_group_name_H-M   'P 1'
_cell_length_a   6.80472062
_cell_length_b   6.95963160
_cell_length_c   12.93571801
_cell_angle_alpha   89.92156268
_cell_angle_beta   90.00362848
_cell_angle_gamma   89.98130542
_symmetry_Int_Tables_number   1
_chemical_formula_structural   Tb7Sm(Si4W3)4
_chemical_formula_sum   'Tb7 Sm1 Si16 W12'
_cell_volume   612.61363526
_cell_formula_units_Z   1
loop_
 _symmetry_equiv_pos_site_id
 _symmetry_equiv_pos_as_xyz
  1  'x, y, z'
loop_
 _atom_site_type_symbol
 _atom_site_label
 _atom_site_symmetry_multiplicity
 _atom_site_fract_x
 _atom_site_fract_y
 _atom_site_fract_z
 _atom_site_occupancy
  Tb  Tb0  1  0.495516  0.667102  0.593546  1
  Tb  Tb1  1  0.995803  0.832703  0.906458  1
  Tb  Tb2  1  0.504691  0.332636  0.093703  1
  Tb  Tb3  1  0.004505  0.167483  0.406173  1
  Tb  Tb4  1  0.504511  0.333052  0.406362  1
  Tb  Tb5  1  0.004294  0.167616  0.093617  1
  Tb  Tb6  1  0.495584  0.667103  0.906760  1
  Sm  Sm7  1  0.996106  0.833122  0.592644  1
  Si  Si8  1  0.659999  0.957080  0.452270  1
  Si  Si9  1  0.161195  0.543213  0.047310  1
  Si  Si10  1  0.339239  0.043349  0.952819  1
  Si  Si11  1  0.838198  0.454793  0.547025  1
  Si  Si12  1  0.340712  0.044203  0.546875  1
  Si  Si13  1  0.839054  0.456995  0.952741  1
  Si  Si14  1  0.660981  0.956587  0.047347  1
  Si  Si15  1  0.161380  0.542455  0.452164  1
  Si  Si16  1  0.463077  0.369338  0.750310  1
  Si  Si17  1  0.963261  0.131543  0.750299  1
  Si  Si18  1  0.536577  0.630752  0.249793  1
  Si  Si19  1  0.036596  0.869526  0.250132  1
  Si  Si20  1  0.695409  0.868399  0.750540  1
  Si  Si21  1  0.197012  0.630345  0.750481  1
  Si  Si22  1  0.303625  0.131925  0.250005  1
  Si  Si23  1  0.803447  0.368445  0.250049  1
  W  W24  1  0.666558  0.164026  0.626479  1
  W  W25  1  0.167446  0.336294  0.874293  1
  W  W26  1  0.332263  0.836629  0.125797  1
  W  W27  1  0.832003  0.662978  0.373730  1
  W  W28  1  0.332729  0.836386  0.373724  1
  W  W29  1  0.832739  0.663549  0.125997  1
  W  W30  1  0.667686  0.163600  0.874498  1
  W  W31  1  0.167669  0.336513  0.625791  1
  W  W32  1  0.834051  0.497744  0.750133  1
  W  W33  1  0.334510  0.002307  0.750196  1
  W  W34  1  0.165772  0.501785  0.249930  1
  W  W35  1  0.665802  0.998422  0.250001  1
