# generated using pymatgen
data_TbY2(B3Ir4)2
_symmetry_space_group_name_H-M   'P 1'
_cell_length_a   10.01446079
_cell_length_b   9.18974245
_cell_length_c   5.57619700
_cell_angle_alpha   81.43936491
_cell_angle_beta   65.15171234
_cell_angle_gamma   33.40893679
_symmetry_Int_Tables_number   1
_chemical_formula_structural   TbY2(B3Ir4)2
_chemical_formula_sum   'Tb1 Y2 B6 Ir8'
_cell_volume   234.53116147
_cell_formula_units_Z   1
loop_
 _symmetry_equiv_pos_site_id
 _symmetry_equiv_pos_as_xyz
  1  'x, y, z'
loop_
 _atom_site_type_symbol
 _atom_site_label
 _atom_site_symmetry_multiplicity
 _atom_site_fract_x
 _atom_site_fract_y
 _atom_site_fract_z
 _atom_site_occupancy
  Tb  Tb0  1  0.000000  0.000000  0.000000  1
  Y  Y1  1  0.178591  0.178591  0.821409  1
  Y  Y2  1  0.821409  0.821409  0.178591  1
  B  B3  1  0.825010  0.524364  0.475636  1
  B  B4  1  0.174990  0.475636  0.524364  1
  B  B5  1  0.475636  0.174990  0.825010  1
  B  B6  1  0.671524  0.328476  0.671524  1
  B  B7  1  0.524364  0.825010  0.174990  1
  B  B8  1  0.328476  0.671524  0.328476  1
  Ir  Ir9  1  0.414213  0.414213  0.585787  1
  Ir  Ir10  1  0.587174  0.587174  0.912826  1
  Ir  Ir11  1  0.087174  0.087174  0.412826  1
  Ir  Ir12  1  0.912826  0.912826  0.587174  1
  Ir  Ir13  1  0.585787  0.585787  0.414213  1
  Ir  Ir14  1  0.250000  0.250000  0.250000  1
  Ir  Ir15  1  0.412826  0.412826  0.087174  1
  Ir  Ir16  1  0.750000  0.750000  0.750000  1
