# generated using pymatgen
data_La8In(Si4Pt)3
_symmetry_space_group_name_H-M   'P 1'
_cell_length_a   8.34987100
_cell_length_b   8.34987127
_cell_length_c   8.91491100
_cell_angle_alpha   90.00000000
_cell_angle_beta   90.00000000
_cell_angle_gamma   119.99999498
_symmetry_Int_Tables_number   1
_chemical_formula_structural   La8In(Si4Pt)3
_chemical_formula_sum   'La8 In1 Si12 Pt3'
_cell_volume   538.27872032
_cell_formula_units_Z   1
loop_
 _symmetry_equiv_pos_site_id
 _symmetry_equiv_pos_as_xyz
  1  'x, y, z'
loop_
 _atom_site_type_symbol
 _atom_site_label
 _atom_site_symmetry_multiplicity
 _atom_site_fract_x
 _atom_site_fract_y
 _atom_site_fract_z
 _atom_site_occupancy
  La  La0  1  0.000000  0.000000  0.245064  1
  La  La1  1  0.000000  0.000000  0.755342  1
  La  La2  1  0.502407  0.497593  0.244170  1
  La  La3  1  0.502407  0.004817  0.244170  1
  La  La4  1  0.995183  0.497593  0.244170  1
  La  La5  1  0.501692  0.498308  0.755447  1
  La  La6  1  0.501692  0.003383  0.755447  1
  La  La7  1  0.996617  0.498308  0.755447  1
  In  In8  1  0.333333  0.666667  0.497520  1
  Si  Si9  1  0.155448  0.844552  0.500923  1
  Si  Si10  1  0.155448  0.310897  0.500923  1
  Si  Si11  1  0.689103  0.844552  0.500923  1
  Si  Si12  1  0.830934  0.169066  0.499507  1
  Si  Si13  1  0.830934  0.661867  0.499507  1
  Si  Si14  1  0.338133  0.169066  0.499507  1
  Si  Si15  1  0.835380  0.164620  0.999910  1
  Si  Si16  1  0.835380  0.670759  0.999910  1
  Si  Si17  1  0.329241  0.164620  0.999910  1
  Si  Si18  1  0.166665  0.833335  0.999956  1
  Si  Si19  1  0.166665  0.333330  0.999956  1
  Si  Si20  1  0.666670  0.833335  0.999956  1
  Pt  Pt21  1  0.666667  0.333333  0.501397  1
  Pt  Pt22  1  0.666667  0.333333  0.999330  1
  Pt  Pt23  1  0.333333  0.666667  0.001611  1
