# generated using pymatgen
data_Tb16In5GaOs2
_symmetry_space_group_name_H-M   'P 1'
_cell_length_a   10.35222995
_cell_length_b   10.35223053
_cell_length_c   7.18604678
_cell_angle_alpha   89.93010371
_cell_angle_beta   90.06989778
_cell_angle_gamma   119.99283877
_symmetry_Int_Tables_number   1
_chemical_formula_structural   Tb16In5GaOs2
_chemical_formula_sum   'Tb16 In5 Ga1 Os2'
_cell_volume   666.99015011
_cell_formula_units_Z   1
loop_
 _symmetry_equiv_pos_site_id
 _symmetry_equiv_pos_as_xyz
  1  'x, y, z'
loop_
 _atom_site_type_symbol
 _atom_site_label
 _atom_site_symmetry_multiplicity
 _atom_site_fract_x
 _atom_site_fract_y
 _atom_site_fract_z
 _atom_site_occupancy
  Tb  Tb0  1  0.833069  0.652674  0.495496  1
  Tb  Tb1  1  0.347326  0.166931  0.495496  1
  Tb  Tb2  1  0.823753  0.176247  0.492000  1
  Tb  Tb3  1  0.176150  0.352998  0.992612  1
  Tb  Tb4  1  0.647002  0.823850  0.992612  1
  Tb  Tb5  1  0.175949  0.824051  0.982766  1
  Tb  Tb6  1  0.666634  0.333366  0.168759  1
  Tb  Tb7  1  0.329731  0.670269  0.664782  1
  Tb  Tb8  1  0.535748  0.070259  0.789673  1
  Tb  Tb9  1  0.929741  0.464252  0.789673  1
  Tb  Tb10  1  0.534857  0.465143  0.785327  1
  Tb  Tb11  1  0.458909  0.927550  0.290744  1
  Tb  Tb12  1  0.072450  0.541091  0.290744  1
  Tb  Tb13  1  0.465552  0.534448  0.289640  1
  Tb  Tb14  1  0.002034  0.997966  0.769227  1
  Tb  Tb15  1  0.001461  0.998539  0.271357  1
  In  In16  1  0.836259  0.672179  0.041105  1
  In  In17  1  0.327821  0.163741  0.041105  1
  In  In18  1  0.836287  0.163713  0.040687  1
  In  In19  1  0.164879  0.328055  0.540438  1
  In  In20  1  0.671945  0.835121  0.540438  1
  Ga  Ga21  1  0.163549  0.836451  0.543076  1
  Os  Os22  1  0.666199  0.333801  0.559114  1
  Os  Os23  1  0.332692  0.667308  0.059203  1
