# generated using pymatgen
data_Hf4Ta2Nb2GaP3
_symmetry_space_group_name_H-M   'P 1'
_cell_length_a   3.54752700
_cell_length_b   6.95082947
_cell_length_c   8.43068224
_cell_angle_alpha   89.31309997
_cell_angle_beta   90.00000000
_cell_angle_gamma   90.00000000
_symmetry_Int_Tables_number   1
_chemical_formula_structural   Hf4Ta2Nb2GaP3
_chemical_formula_sum   'Hf4 Ta2 Nb2 Ga1 P3'
_cell_volume   207.87097499
_cell_formula_units_Z   1
loop_
 _symmetry_equiv_pos_site_id
 _symmetry_equiv_pos_as_xyz
  1  'x, y, z'
loop_
 _atom_site_type_symbol
 _atom_site_label
 _atom_site_symmetry_multiplicity
 _atom_site_fract_x
 _atom_site_fract_y
 _atom_site_fract_z
 _atom_site_occupancy
  Hf  Hf0  1  0.250000  0.037597  0.668577  1
  Hf  Hf1  1  0.250000  0.533460  0.829267  1
  Hf  Hf2  1  0.750000  0.470305  0.160000  1
  Hf  Hf3  1  0.750000  0.955428  0.332178  1
  Ta  Ta4  1  0.250000  0.640841  0.442750  1
  Ta  Ta5  1  0.250000  0.134544  0.054375  1
  Nb  Nb6  1  0.750000  0.855730  0.939420  1
  Nb  Nb7  1  0.750000  0.369667  0.568386  1
  Ga  Ga8  1  0.250000  0.257472  0.356974  1
  P  P9  1  0.250000  0.764061  0.147643  1
  P  P10  1  0.750000  0.744972  0.643201  1
  P  P11  1  0.750000  0.235923  0.857229  1
