# generated using pymatgen
data_BaYb3Bi2
_symmetry_space_group_name_H-M   'P 1'
_cell_length_a   9.54745667
_cell_length_b   9.54745675
_cell_length_c   9.54745662
_cell_angle_alpha   149.70672750
_cell_angle_beta   149.70672549
_cell_angle_gamma   43.37206432
_symmetry_Int_Tables_number   1
_chemical_formula_structural   BaYb3Bi2
_chemical_formula_sum   'Ba1 Yb3 Bi2'
_cell_volume   220.84593113
_cell_formula_units_Z   1
loop_
 _symmetry_equiv_pos_site_id
 _symmetry_equiv_pos_as_xyz
  1  'x, y, z'
loop_
 _atom_site_type_symbol
 _atom_site_label
 _atom_site_symmetry_multiplicity
 _atom_site_fract_x
 _atom_site_fract_y
 _atom_site_fract_z
 _atom_site_occupancy
  Ba  Ba0  1  0.675601  0.675601  0.000000  1
  Yb  Yb1  1  0.996989  0.496989  0.500000  1
  Yb  Yb2  1  0.329878  0.329878  0.000000  1
  Yb  Yb3  1  0.496989  0.996989  0.500000  1
  Bi  Bi4  1  0.130396  0.130396  0.000000  1
  Bi  Bi5  1  0.870149  0.870149  0.000000  1
