# generated using pymatgen
data_Lu6Ni20P13
_symmetry_space_group_name_H-M   'P 1'
_cell_length_a   12.58757500
_cell_length_b   12.58757586
_cell_length_c   3.69767100
_cell_angle_alpha   90.00000000
_cell_angle_beta   90.00000000
_cell_angle_gamma   119.99999512
_symmetry_Int_Tables_number   1
_chemical_formula_structural   Lu6Ni20P13
_chemical_formula_sum   'Lu6 Ni20 P13'
_cell_volume   507.39138872
_cell_formula_units_Z   1
loop_
 _symmetry_equiv_pos_site_id
 _symmetry_equiv_pos_as_xyz
  1  'x, y, z'
loop_
 _atom_site_type_symbol
 _atom_site_label
 _atom_site_symmetry_multiplicity
 _atom_site_fract_x
 _atom_site_fract_y
 _atom_site_fract_z
 _atom_site_occupancy
  Lu  Lu0  1  0.471705  0.281386  0.000000  1
  Lu  Lu1  1  0.718614  0.190318  0.000000  1
  Lu  Lu2  1  0.809682  0.528295  0.000000  1
  Lu  Lu3  1  0.189102  0.471159  0.500000  1
  Lu  Lu4  1  0.528841  0.717943  0.500000  1
  Lu  Lu5  1  0.282057  0.810898  0.500000  1
  Ni  Ni6  1  0.196640  0.103939  0.000000  1
  Ni  Ni7  1  0.896061  0.092700  0.000000  1
  Ni  Ni8  1  0.907300  0.803360  0.000000  1
  Ni  Ni9  1  0.666667  0.333333  0.500000  1
  Ni  Ni10  1  0.076083  0.157635  0.500000  1
  Ni  Ni11  1  0.842365  0.918448  0.500000  1
  Ni  Ni12  1  0.081552  0.923917  0.500000  1
  Ni  Ni13  1  0.333333  0.666667  0.000000  1
  Ni  Ni14  1  0.438014  0.019990  0.000000  1
  Ni  Ni15  1  0.980010  0.418024  0.000000  1
  Ni  Ni16  1  0.581976  0.561986  0.000000  1
  Ni  Ni17  1  0.320229  0.070870  0.500000  1
  Ni  Ni18  1  0.929130  0.249360  0.500000  1
  Ni  Ni19  1  0.750640  0.679771  0.500000  1
  Ni  Ni20  1  0.020095  0.586215  0.500000  1
  Ni  Ni21  1  0.413785  0.433880  0.500000  1
  Ni  Ni22  1  0.566120  0.979905  0.500000  1
  Ni  Ni23  1  0.243052  0.321489  0.000000  1
  Ni  Ni24  1  0.678511  0.921563  0.000000  1
  Ni  Ni25  1  0.078437  0.756948  0.000000  1
  P  P26  1  0.526147  0.138953  0.500000  1
  P  P27  1  0.861047  0.387195  0.500000  1
  P  P28  1  0.612805  0.473853  0.500000  1
  P  P29  1  0.282693  0.231984  0.500000  1
  P  P30  1  0.768016  0.050709  0.500000  1
  P  P31  1  0.949291  0.717307  0.500000  1
  P  P32  1  0.139484  0.615094  0.000000  1
  P  P33  1  0.384906  0.524390  0.000000  1
  P  P34  1  0.475610  0.860516  0.000000  1
  P  P35  1  0.051243  0.285406  0.000000  1
  P  P36  1  0.714594  0.765836  0.000000  1
  P  P37  1  0.234164  0.948757  0.000000  1
  P  P38  1  0.000000  0.000000  0.000000  1
