# generated using pymatgen
data_Pa6P5S
_symmetry_space_group_name_H-M   'P 1'
_cell_length_a   3.99530759
_cell_length_b   9.56260418
_cell_length_c   7.97393651
_cell_angle_alpha   89.93305045
_cell_angle_beta   59.90743525
_cell_angle_gamma   89.99150861
_symmetry_Int_Tables_number   1
_chemical_formula_structural   Pa6P5S
_chemical_formula_sum   'Pa6 P5 S1'
_cell_volume   263.58677199
_cell_formula_units_Z   1
loop_
 _symmetry_equiv_pos_site_id
 _symmetry_equiv_pos_as_xyz
  1  'x, y, z'
loop_
 _atom_site_type_symbol
 _atom_site_label
 _atom_site_symmetry_multiplicity
 _atom_site_fract_x
 _atom_site_fract_y
 _atom_site_fract_z
 _atom_site_occupancy
  Pa  Pa0  1  0.938338  0.899525  0.656039  1
  Pa  Pa1  1  0.272331  0.230658  0.322078  1
  Pa  Pa2  1  0.605293  0.564743  0.989085  1
  Pa  Pa3  1  0.271548  0.229865  0.822830  1
  Pa  Pa4  1  0.605206  0.564755  0.489140  1
  Pa  Pa5  1  0.938960  0.900341  0.155400  1
  P  P6  1  0.272113  0.733558  0.322215  1
  P  P7  1  0.938422  0.396349  0.655980  1
  P  P8  1  0.605320  0.065032  0.489106  1
  P  P9  1  0.938822  0.397602  0.155598  1
  P  P10  1  0.271797  0.732314  0.822593  1
  S  S11  1  0.605361  0.064989  0.989030  1
