# generated using pymatgen
data_Ho2ThIn2GaNi3
_symmetry_space_group_name_H-M   'P 1'
_cell_length_a   7.36436000
_cell_length_b   7.26942475
_cell_length_c   3.85350900
_cell_angle_alpha   90.00000000
_cell_angle_beta   90.00000000
_cell_angle_gamma   120.43294507
_symmetry_Int_Tables_number   1
_chemical_formula_structural   Ho2ThIn2GaNi3
_chemical_formula_sum   'Ho2 Th1 In2 Ga1 Ni3'
_cell_volume   177.87332117
_cell_formula_units_Z   1
loop_
 _symmetry_equiv_pos_site_id
 _symmetry_equiv_pos_as_xyz
  1  'x, y, z'
loop_
 _atom_site_type_symbol
 _atom_site_label
 _atom_site_symmetry_multiplicity
 _atom_site_fract_x
 _atom_site_fract_y
 _atom_site_fract_z
 _atom_site_occupancy
  Ho  Ho0  1  0.992217  0.401780  0.500000  1
  Ho  Ho1  1  0.590437  0.598220  0.500000  1
  Th  Th2  1  0.430868  0.000000  0.500000  1
  In  In3  1  0.991144  0.742777  0.000000  1
  In  In4  1  0.248367  0.257223  0.000000  1
  Ga  Ga5  1  0.763598  0.000000  0.000000  1
  Ni  Ni6  1  0.340986  0.683733  0.000000  1
  Ni  Ni7  1  0.657254  0.316267  0.000000  1
  Ni  Ni8  1  0.985128  0.000000  0.500000  1
