# generated using pymatgen
data_TbTmWO6
_symmetry_space_group_name_H-M   'P 1'
_cell_length_a   5.39580700
_cell_length_b   7.69213564
_cell_length_c   11.39173537
_cell_angle_alpha   75.54017103
_cell_angle_beta   90.00000000
_cell_angle_gamma   90.00000000
_symmetry_Int_Tables_number   1
_chemical_formula_structural   TbTmWO6
_chemical_formula_sum   'Tb4 Tm4 W4 O24'
_cell_volume   457.83970484
_cell_formula_units_Z   4
loop_
 _symmetry_equiv_pos_site_id
 _symmetry_equiv_pos_as_xyz
  1  'x, y, z'
loop_
 _atom_site_type_symbol
 _atom_site_label
 _atom_site_symmetry_multiplicity
 _atom_site_fract_x
 _atom_site_fract_y
 _atom_site_fract_z
 _atom_site_occupancy
  Tb  Tb0  1  0.742063  0.000000  0.750000  1
  Tb  Tb1  1  0.257937  0.000000  0.250000  1
  Tb  Tb2  1  0.683614  0.500000  0.750000  1
  Tb  Tb3  1  0.316386  0.500000  0.250000  1
  Tm  Tm4  1  0.183688  0.793661  0.579079  1
  Tm  Tm5  1  0.816312  0.793661  0.079079  1
  Tm  Tm6  1  0.183688  0.206339  0.920921  1
  Tm  Tm7  1  0.816312  0.206339  0.420921  1
  W  W8  1  0.255568  0.723841  0.886213  1
  W  W9  1  0.744432  0.723841  0.386213  1
  W  W10  1  0.255568  0.276159  0.613787  1
  W  W11  1  0.744432  0.276159  0.113787  1
  O  O12  1  0.047283  0.940804  0.897414  1
  O  O13  1  0.536567  0.843533  0.933140  1
  O  O14  1  0.952717  0.940804  0.397414  1
  O  O15  1  0.455523  0.790820  0.726490  1
  O  O16  1  0.463433  0.843533  0.433140  1
  O  O17  1  0.982417  0.712612  0.770706  1
  O  O18  1  0.544477  0.790820  0.226490  1
  O  O19  1  0.853935  0.635318  0.549513  1
  O  O20  1  0.357787  0.488797  0.887247  1
  O  O21  1  0.017583  0.712612  0.270706  1
  O  O22  1  0.357787  0.511203  0.612753  1
  O  O23  1  0.853935  0.364682  0.950487  1
  O  O24  1  0.146065  0.635318  0.049513  1
  O  O25  1  0.642213  0.488797  0.387247  1
  O  O26  1  0.982417  0.287388  0.729294  1
  O  O27  1  0.642213  0.511203  0.112753  1
  O  O28  1  0.146065  0.364682  0.450487  1
  O  O29  1  0.455523  0.209180  0.773510  1
  O  O30  1  0.017583  0.287388  0.229294  1
  O  O31  1  0.536567  0.156467  0.566860  1
  O  O32  1  0.544477  0.209180  0.273510  1
  O  O33  1  0.047283  0.059196  0.602586  1
  O  O34  1  0.463433  0.156467  0.066860  1
  O  O35  1  0.952717  0.059196  0.102586  1
