# generated using pymatgen
data_Er16Al4CoRu3
_symmetry_space_group_name_H-M   'P 1'
_cell_length_a   9.39283315
_cell_length_b   9.39283381
_cell_length_c   9.39283335
_cell_angle_alpha   60.22981954
_cell_angle_beta   60.22982136
_cell_angle_gamma   60.22982186
_symmetry_Int_Tables_number   1
_chemical_formula_structural   Er16Al4CoRu3
_chemical_formula_sum   'Er16 Al4 Co1 Ru3'
_cell_volume   589.01810902
_cell_formula_units_Z   1
loop_
 _symmetry_equiv_pos_site_id
 _symmetry_equiv_pos_as_xyz
  1  'x, y, z'
loop_
 _atom_site_type_symbol
 _atom_site_label
 _atom_site_symmetry_multiplicity
 _atom_site_fract_x
 _atom_site_fract_y
 _atom_site_fract_z
 _atom_site_occupancy
  Er  Er0  1  0.062343  0.062343  0.436569  1
  Er  Er1  1  0.651274  0.051964  0.651274  1
  Er  Er2  1  0.193753  0.805308  0.193753  1
  Er  Er3  1  0.440005  0.059990  0.440005  1
  Er  Er4  1  0.193753  0.193753  0.805308  1
  Er  Er5  1  0.647614  0.647614  0.647614  1
  Er  Er6  1  0.051964  0.651274  0.651274  1
  Er  Er7  1  0.436569  0.062343  0.062343  1
  Er  Er8  1  0.651274  0.651274  0.051964  1
  Er  Er9  1  0.189706  0.807542  0.807542  1
  Er  Er10  1  0.807542  0.189706  0.807542  1
  Er  Er11  1  0.805308  0.193753  0.193753  1
  Er  Er12  1  0.807542  0.807542  0.189706  1
  Er  Er13  1  0.059990  0.440005  0.440005  1
  Er  Er14  1  0.440005  0.440005  0.059990  1
  Er  Er15  1  0.062343  0.436569  0.062343  1
  Al  Al16  1  0.731859  0.422065  0.422065  1
  Al  Al17  1  0.422065  0.422065  0.731859  1
  Al  Al18  1  0.422065  0.731859  0.422065  1
  Al  Al19  1  0.422876  0.422876  0.422876  1
  Co  Co20  1  0.859485  0.859485  0.859485  1
  Ru  Ru21  1  0.423492  0.858587  0.858587  1
  Ru  Ru22  1  0.858587  0.858587  0.423492  1
  Ru  Ru23  1  0.858587  0.423492  0.858587  1
