# generated using pymatgen
data_Nd6Ni18P13Pt2
_symmetry_space_group_name_H-M   'P 1'
_cell_length_a   12.87037500
_cell_length_b   12.87037414
_cell_length_c   3.83947000
_cell_angle_alpha   90.00000000
_cell_angle_beta   90.00000000
_cell_angle_gamma   119.99999964
_symmetry_Int_Tables_number   1
_chemical_formula_structural   Nd6Ni18P13Pt2
_chemical_formula_sum   'Nd6 Ni18 P13 Pt2'
_cell_volume   550.78776534
_cell_formula_units_Z   1
loop_
 _symmetry_equiv_pos_site_id
 _symmetry_equiv_pos_as_xyz
  1  'x, y, z'
loop_
 _atom_site_type_symbol
 _atom_site_label
 _atom_site_symmetry_multiplicity
 _atom_site_fract_x
 _atom_site_fract_y
 _atom_site_fract_z
 _atom_site_occupancy
  Nd  Nd0  1  0.463354  0.181892  0.000000  1
  Nd  Nd1  1  0.718538  0.536646  0.000000  1
  Nd  Nd2  1  0.818108  0.281462  0.000000  1
  Nd  Nd3  1  0.537119  0.817047  0.500000  1
  Nd  Nd4  1  0.279929  0.462881  0.500000  1
  Nd  Nd5  1  0.182953  0.720071  0.500000  1
  Ni  Ni6  1  0.191379  0.088650  0.000000  1
  Ni  Ni7  1  0.897270  0.808621  0.000000  1
  Ni  Ni8  1  0.911350  0.102730  0.000000  1
  Ni  Ni9  1  0.853719  0.929931  0.500000  1
  Ni  Ni10  1  0.076212  0.146281  0.500000  1
  Ni  Ni11  1  0.070069  0.923788  0.500000  1
  Ni  Ni12  1  0.435519  0.411590  0.000000  1
  Ni  Ni13  1  0.976072  0.564481  0.000000  1
  Ni  Ni14  1  0.588410  0.023928  0.000000  1
  Ni  Ni15  1  0.568271  0.592703  0.500000  1
  Ni  Ni16  1  0.024432  0.431729  0.500000  1
  Ni  Ni17  1  0.407297  0.975568  0.500000  1
  Ni  Ni18  1  0.076068  0.314610  0.000000  1
  Ni  Ni19  1  0.238541  0.923932  0.000000  1
  Ni  Ni20  1  0.685390  0.761459  0.000000  1
  Ni  Ni21  1  0.931362  0.690368  0.500000  1
  Ni  Ni22  1  0.759007  0.068638  0.500000  1
  Ni  Ni23  1  0.309632  0.240993  0.500000  1
  P  P24  1  0.233321  0.277204  0.000000  1
  P  P25  1  0.043884  0.766679  0.000000  1
  P  P26  1  0.722796  0.956116  0.000000  1
  P  P27  1  0.770555  0.728626  0.500000  1
  P  P28  1  0.958072  0.229445  0.500000  1
  P  P29  1  0.271374  0.041928  0.500000  1
  P  P30  1  0.486868  0.611914  0.000000  1
  P  P31  1  0.125046  0.513132  0.000000  1
  P  P32  1  0.388086  0.874954  0.000000  1
  P  P33  1  0.513404  0.388860  0.500000  1
  P  P34  1  0.875456  0.486596  0.500000  1
  P  P35  1  0.611140  0.124544  0.500000  1
  P  P36  1  0.000000  0.000000  0.000000  1
  Pt  Pt37  1  0.333333  0.666667  0.000000  1
  Pt  Pt38  1  0.666667  0.333333  0.500000  1
