# generated using pymatgen
data_Ba4In13Au9
_symmetry_space_group_name_H-M   'P 1'
_cell_length_a   12.97191100
_cell_length_b   12.97191122
_cell_length_c   4.66298700
_cell_angle_alpha   90.00000000
_cell_angle_beta   90.00000000
_cell_angle_gamma   119.99999690
_symmetry_Int_Tables_number   1
_chemical_formula_structural   Ba4In13Au9
_chemical_formula_sum   'Ba4 In13 Au9'
_cell_volume   679.52083583
_cell_formula_units_Z   1
loop_
 _symmetry_equiv_pos_site_id
 _symmetry_equiv_pos_as_xyz
  1  'x, y, z'
loop_
 _atom_site_type_symbol
 _atom_site_label
 _atom_site_symmetry_multiplicity
 _atom_site_fract_x
 _atom_site_fract_y
 _atom_site_fract_z
 _atom_site_occupancy
  Ba  Ba0  1  0.204695  0.795305  0.500000  1
  Ba  Ba1  1  0.590609  0.795305  0.500000  1
  Ba  Ba2  1  0.204695  0.409391  0.500000  1
  Ba  Ba3  1  0.666667  0.333333  0.000000  1
  In  In4  1  0.949378  0.291439  0.000000  1
  In  In5  1  0.708561  0.657939  0.000000  1
  In  In6  1  0.949378  0.657939  0.000000  1
  In  In7  1  0.342061  0.050622  0.000000  1
  In  In8  1  0.164089  0.082045  0.500000  1
  In  In9  1  0.917955  0.835911  0.500000  1
  In  In10  1  0.708561  0.050622  0.000000  1
  In  In11  1  0.532982  0.065964  0.500000  1
  In  In12  1  0.917955  0.082045  0.500000  1
  In  In13  1  0.342061  0.291439  0.000000  1
  In  In14  1  0.532982  0.467018  0.500000  1
  In  In15  1  0.934036  0.467018  0.500000  1
  In  In16  1  0.333333  0.666667  0.000000  1
  Au  Au17  1  0.456162  0.543838  0.000000  1
  Au  Au18  1  0.831146  0.915573  0.000000  1
  Au  Au19  1  0.456162  0.912322  0.000000  1
  Au  Au20  1  0.084427  0.168854  0.000000  1
  Au  Au21  1  0.084427  0.915573  0.000000  1
  Au  Au22  1  0.789444  0.578888  0.500000  1
  Au  Au23  1  0.087678  0.543838  0.000000  1
  Au  Au24  1  0.789444  0.210556  0.500000  1
  Au  Au25  1  0.421112  0.210556  0.500000  1
