# generated using pymatgen
data_Ho7Tm3(SnSb)3
_symmetry_space_group_name_H-M   'P 1'
_cell_length_a   6.35960800
_cell_length_b   8.91476525
_cell_length_c   8.91508301
_cell_angle_alpha   119.99802240
_cell_angle_beta   89.99944092
_cell_angle_gamma   90.00034657
_symmetry_Int_Tables_number   1
_chemical_formula_structural   Ho7Tm3(SnSb)3
_chemical_formula_sum   'Ho7 Tm3 Sn3 Sb3'
_cell_volume   437.72861218
_cell_formula_units_Z   1
loop_
 _symmetry_equiv_pos_site_id
 _symmetry_equiv_pos_as_xyz
  1  'x, y, z'
loop_
 _atom_site_type_symbol
 _atom_site_label
 _atom_site_symmetry_multiplicity
 _atom_site_fract_x
 _atom_site_fract_y
 _atom_site_fract_z
 _atom_site_occupancy
  Ho  Ho0  1  0.498846  0.333337  0.666684  1
  Ho  Ho1  1  0.750149  0.239858  0.999873  1
  Ho  Ho2  1  0.750158  0.759938  0.760093  1
  Ho  Ho3  1  0.750153  0.000098  0.240038  1
  Ho  Ho4  1  0.249915  0.760117  0.999926  1
  Ho  Ho5  1  0.249912  0.239878  0.239927  1
  Ho  Ho6  1  0.249915  0.000110  0.760144  1
  Tm  Tm7  1  0.498179  0.666652  0.333315  1
  Tm  Tm8  1  0.001623  0.666657  0.333311  1
  Tm  Tm9  1  0.001520  0.333347  0.666686  1
  Sn  Sn10  1  0.249236  0.395452  0.000817  1
  Sn  Sn11  1  0.249254  0.605409  0.604596  1
  Sn  Sn12  1  0.249261  0.999202  0.394593  1
  Sb  Sb13  1  0.750624  0.605987  0.000626  1
  Sb  Sb14  1  0.750620  0.394591  0.393970  1
  Sb  Sb15  1  0.750637  0.999366  0.605400  1
