# generated using pymatgen
data_CaYb(Co3Si2)2
_symmetry_space_group_name_H-M   'P 1'
_cell_length_a   6.28548081
_cell_length_b   6.28548000
_cell_length_c   6.28547958
_cell_angle_alpha   130.05771900
_cell_angle_beta   114.71348206
_cell_angle_gamma   86.46605941
_symmetry_Int_Tables_number   1
_chemical_formula_structural   CaYb(Co3Si2)2
_chemical_formula_sum   'Ca1 Yb1 Co6 Si4'
_cell_volume   164.79503785
_cell_formula_units_Z   1
loop_
 _symmetry_equiv_pos_site_id
 _symmetry_equiv_pos_as_xyz
  1  'x, y, z'
loop_
 _atom_site_type_symbol
 _atom_site_label
 _atom_site_symmetry_multiplicity
 _atom_site_fract_x
 _atom_site_fract_y
 _atom_site_fract_z
 _atom_site_occupancy
  Ca  Ca0  1  0.750000  0.469510  0.719510  1
  Yb  Yb1  1  0.250000  0.535748  0.285748  1
  Co  Co2  1  0.999750  0.998978  0.498727  1
  Co  Co3  1  0.500250  0.998978  0.999228  1
  Co  Co4  1  0.717508  0.998864  0.717272  1
  Co  Co5  1  0.218407  0.499764  0.717272  1
  Co  Co6  1  0.281593  0.998864  0.281357  1
  Co  Co7  1  0.782492  0.499764  0.281357  1
  Si  Si8  1  0.079277  0.879258  0.799981  1
  Si  Si9  1  0.922250  0.122034  0.199784  1
  Si  Si10  1  0.577750  0.777535  0.199784  1
  Si  Si11  1  0.420723  0.220703  0.799981  1
