# generated using pymatgen
data_Li4P4Os3Rh
_symmetry_space_group_name_H-M   'P 1'
_cell_length_a   3.83609900
_cell_length_b   6.68214262
_cell_length_c   6.64775221
_cell_angle_alpha   89.87580123
_cell_angle_beta   90.00000000
_cell_angle_gamma   90.00000000
_symmetry_Int_Tables_number   1
_chemical_formula_structural   Li4P4Os3Rh
_chemical_formula_sum   'Li4 P4 Os3 Rh1'
_cell_volume   170.40382963
_cell_formula_units_Z   1
loop_
 _symmetry_equiv_pos_site_id
 _symmetry_equiv_pos_as_xyz
  1  'x, y, z'
loop_
 _atom_site_type_symbol
 _atom_site_label
 _atom_site_symmetry_multiplicity
 _atom_site_fract_x
 _atom_site_fract_y
 _atom_site_fract_z
 _atom_site_occupancy
  Li  Li0  1  0.250000  0.029326  0.849104  1
  Li  Li1  1  0.250000  0.519896  0.654664  1
  Li  Li2  1  0.750000  0.976580  0.152862  1
  Li  Li3  1  0.750000  0.476058  0.346506  1
  P  P4  1  0.250000  0.794430  0.367473  1
  P  P5  1  0.250000  0.300641  0.137055  1
  P  P6  1  0.750000  0.203888  0.625652  1
  P  P7  1  0.750000  0.704887  0.868966  1
  Os  Os8  1  0.250000  0.142351  0.440755  1
  Os  Os9  1  0.250000  0.644791  0.053290  1
  Os  Os10  1  0.750000  0.855586  0.557929  1
  Rh  Rh11  1  0.750000  0.351566  0.945744  1
