# generated using pymatgen
data_LaAuI6
_symmetry_space_group_name_H-M   'P 1'
_cell_length_a   8.86181605
_cell_length_b   11.48624680
_cell_length_c   16.58381472
_cell_angle_alpha   103.37774001
_cell_angle_beta   95.54872924
_cell_angle_gamma   112.10025053
_symmetry_Int_Tables_number   1
_chemical_formula_structural   LaAuI6
_chemical_formula_sum   'La4 Au4 I24'
_cell_volume   1489.63798370
_cell_formula_units_Z   4
loop_
 _symmetry_equiv_pos_site_id
 _symmetry_equiv_pos_as_xyz
  1  'x, y, z'
loop_
 _atom_site_type_symbol
 _atom_site_label
 _atom_site_symmetry_multiplicity
 _atom_site_fract_x
 _atom_site_fract_y
 _atom_site_fract_z
 _atom_site_occupancy
  La  La0  1  0.578984  0.916942  0.621586  1
  La  La1  1  0.421016  0.083058  0.378414  1
  La  La2  1  0.980069  0.311307  0.871023  1
  La  La3  1  0.019931  0.688693  0.128977  1
  Au  Au4  1  0.296283  0.630804  0.763491  1
  Au  Au5  1  0.703717  0.369196  0.236509  1
  Au  Au6  1  0.500000  0.500000  0.500000  1
  Au  Au7  1  0.000000  0.000000  0.000000  1
  I  I8  1  0.613531  0.732957  0.748397  1
  I  I9  1  0.386469  0.267043  0.251603  1
  I  I10  1  0.273682  0.844089  0.736677  1
  I  I11  1  0.726318  0.155911  0.263323  1
  I  I12  1  0.977095  0.532809  0.774780  1
  I  I13  1  0.022905  0.467191  0.225220  1
  I  I14  1  0.319761  0.414053  0.785053  1
  I  I15  1  0.680239  0.585947  0.214947  1
  I  I16  1  0.692199  0.368034  0.507443  1
  I  I17  1  0.307801  0.631966  0.492557  1
  I  I18  1  0.765873  0.725087  0.523518  1
  I  I19  1  0.234127  0.274913  0.476482  1
  I  I20  1  0.783876  0.106160  0.975338  1
  I  I21  1  0.216124  0.893840  0.024662  1
  I  I22  1  0.764161  0.796935  0.030473  1
  I  I23  1  0.235839  0.203065  0.969527  1
  I  I24  1  0.612375  0.191590  0.745235  1
  I  I25  1  0.387625  0.808410  0.254765  1
  I  I26  1  0.959885  0.052094  0.726094  1
  I  I27  1  0.040115  0.947906  0.273906  1
  I  I28  1  0.735896  0.052664  0.481035  1
  I  I29  1  0.264104  0.947336  0.518965  1
  I  I30  1  0.754309  0.433748  0.977519  1
  I  I31  1  0.245691  0.566252  0.022481  1
