# generated using pymatgen
data_CsLi2(IO3)3
_symmetry_space_group_name_H-M   'P 1'
_cell_length_a   11.41012900
_cell_length_b   8.42024190
_cell_length_c   11.44876500
_cell_angle_alpha   68.97660036
_cell_angle_beta   90.00000000
_cell_angle_gamma   90.00000000
_symmetry_Int_Tables_number   1
_chemical_formula_structural   CsLi2(IO3)3
_chemical_formula_sum   'Cs4 Li8 I12 O36'
_cell_volume   1026.73265606
_cell_formula_units_Z   4
loop_
 _symmetry_equiv_pos_site_id
 _symmetry_equiv_pos_as_xyz
  1  'x, y, z'
loop_
 _atom_site_type_symbol
 _atom_site_label
 _atom_site_symmetry_multiplicity
 _atom_site_fract_x
 _atom_site_fract_y
 _atom_site_fract_z
 _atom_site_occupancy
  Cs  Cs0  1  0.459044  0.707535  0.336692  1
  Cs  Cs1  1  0.959044  0.292465  0.163308  1
  Cs  Cs2  1  0.540956  0.292465  0.663308  1
  Cs  Cs3  1  0.040956  0.707535  0.836692  1
  Li  Li4  1  0.216258  0.625933  0.140118  1
  Li  Li5  1  0.716258  0.374067  0.359882  1
  Li  Li6  1  0.783742  0.374067  0.859882  1
  Li  Li7  1  0.283742  0.625933  0.640118  1
  Li  Li8  1  0.210505  0.017042  0.151769  1
  Li  Li9  1  0.710505  0.982958  0.348231  1
  Li  Li10  1  0.789495  0.982958  0.848231  1
  Li  Li11  1  0.289495  0.017042  0.651769  1
  I  I12  1  0.132898  0.916786  0.439081  1
  I  I13  1  0.632898  0.083214  0.060919  1
  I  I14  1  0.867102  0.083214  0.560919  1
  I  I15  1  0.367102  0.916786  0.939081  1
  I  I16  1  0.180045  0.408372  0.454424  1
  I  I17  1  0.680045  0.591628  0.045576  1
  I  I18  1  0.819955  0.591628  0.545576  1
  I  I19  1  0.319955  0.408372  0.954424  1
  I  I20  1  0.447836  0.226478  0.317770  1
  I  I21  1  0.947836  0.773522  0.182230  1
  I  I22  1  0.552164  0.773522  0.682230  1
  I  I23  1  0.052164  0.226478  0.817770  1
  O  O24  1  0.080081  0.130877  0.422420  1
  O  O25  1  0.580081  0.869123  0.077580  1
  O  O26  1  0.919919  0.869123  0.577580  1
  O  O27  1  0.419919  0.130877  0.922420  1
  O  O28  1  0.790948  0.140389  0.409946  1
  O  O29  1  0.290948  0.859611  0.090054  1
  O  O30  1  0.255517  0.978747  0.328505  1
  O  O31  1  0.209052  0.859611  0.590054  1
  O  O32  1  0.456466  0.952489  0.673380  1
  O  O33  1  0.956466  0.047511  0.826620  1
  O  O34  1  0.543534  0.047511  0.326620  1
  O  O35  1  0.043534  0.952489  0.173380  1
  O  O36  1  0.454030  0.650984  0.620982  1
  O  O37  1  0.954030  0.349016  0.879018  1
  O  O38  1  0.545970  0.349016  0.379018  1
  O  O39  1  0.045970  0.650984  0.120982  1
  O  O40  1  0.538270  0.651532  0.849836  1
  O  O41  1  0.038270  0.348468  0.650164  1
  O  O42  1  0.461730  0.348468  0.150164  1
  O  O43  1  0.961730  0.651532  0.349836  1
  O  O44  1  0.286618  0.257018  0.551455  1
  O  O45  1  0.786618  0.742982  0.948545  1
  O  O46  1  0.713382  0.742982  0.448545  1
  O  O47  1  0.213382  0.257018  0.051455  1
  O  O48  1  0.241502  0.463993  0.804012  1
  O  O49  1  0.741502  0.536007  0.695988  1
  O  O50  1  0.758498  0.536007  0.195988  1
  O  O51  1  0.258498  0.463993  0.304012  1
  O  O52  1  0.278031  0.596327  0.990806  1
  O  O53  1  0.778031  0.403673  0.509194  1
  O  O54  1  0.721969  0.403673  0.009194  1
  O  O55  1  0.221969  0.596327  0.490806  1
  O  O56  1  0.244483  0.978747  0.828505  1
  O  O57  1  0.744483  0.021253  0.671495  1
  O  O58  1  0.755517  0.021253  0.171495  1
  O  O59  1  0.709052  0.140389  0.909946  1
