# generated using pymatgen
data_Nd4Ir3PtF28
_symmetry_space_group_name_H-M   'P 1'
_cell_length_a   5.71744970
_cell_length_b   9.18155523
_cell_length_c   12.25672236
_cell_angle_alpha   62.24672832
_cell_angle_beta   90.10034783
_cell_angle_gamma   90.05595017
_symmetry_Int_Tables_number   1
_chemical_formula_structural   Nd4Ir3PtF28
_chemical_formula_sum   'Nd4 Ir3 Pt1 F28'
_cell_volume   569.39865212
_cell_formula_units_Z   1
loop_
 _symmetry_equiv_pos_site_id
 _symmetry_equiv_pos_as_xyz
  1  'x, y, z'
loop_
 _atom_site_type_symbol
 _atom_site_label
 _atom_site_symmetry_multiplicity
 _atom_site_fract_x
 _atom_site_fract_y
 _atom_site_fract_z
 _atom_site_occupancy
  Nd  Nd0  1  0.259707  0.811051  0.265073  1
  Nd  Nd1  1  0.739389  0.190699  0.733386  1
  Nd  Nd2  1  0.760797  0.188474  0.235154  1
  Nd  Nd3  1  0.239879  0.810683  0.766168  1
  Ir  Ir4  1  0.755431  0.726491  0.043347  1
  Ir  Ir5  1  0.244077  0.272938  0.957256  1
  Ir  Ir6  1  0.256830  0.274093  0.455655  1
  Pt  Pt7  1  0.742844  0.727026  0.543395  1
  F  F8  1  0.934244  0.704134  0.418673  1
  F  F9  1  0.065287  0.293425  0.580409  1
  F  F10  1  0.441045  0.293106  0.081373  1
  F  F11  1  0.560208  0.707740  0.918102  1
  F  F12  1  0.472291  0.730666  0.133840  1
  F  F13  1  0.526534  0.267139  0.867882  1
  F  F14  1  0.971706  0.273481  0.363436  1
  F  F15  1  0.028321  0.728542  0.632749  1
  F  F16  1  0.947631  0.743998  0.170431  1
  F  F17  1  0.051601  0.254333  0.830755  1
  F  F18  1  0.445695  0.256875  0.328737  1
  F  F19  1  0.555605  0.745029  0.671455  1
  F  F20  1  0.762604  0.487519  0.137914  1
  F  F21  1  0.236673  0.512884  0.861601  1
  F  F22  1  0.267840  0.513266  0.360180  1
  F  F23  1  0.733220  0.485518  0.640602  1
  F  F24  1  0.956075  0.283564  0.042124  1
  F  F25  1  0.043974  0.716990  0.957445  1
  F  F26  1  0.451776  0.717289  0.460277  1
  F  F27  1  0.548630  0.281003  0.541894  1
  F  F28  1  0.742530  0.968987  0.451204  1
  F  F29  1  0.255367  0.035037  0.548018  1
  F  F30  1  0.240601  0.033017  0.049300  1
  F  F31  1  0.758178  0.965510  0.951316  1
  F  F32  1  0.587791  0.968052  0.231656  1
  F  F33  1  0.413127  0.030307  0.769506  1
  F  F34  1  0.088180  0.030435  0.269097  1
  F  F35  1  0.914315  0.970703  0.730588  1
