# generated using pymatgen
data_Tm4Hf3ScPt4
_symmetry_space_group_name_H-M   'P 1'
_cell_length_a   4.65041800
_cell_length_b   6.95468923
_cell_length_c   8.22629935
_cell_angle_alpha   89.27263072
_cell_angle_beta   90.00000000
_cell_angle_gamma   90.00000000
_symmetry_Int_Tables_number   1
_chemical_formula_structural   Tm4Hf3ScPt4
_chemical_formula_sum   'Tm4 Hf3 Sc1 Pt4'
_cell_volume   266.03527827
_cell_formula_units_Z   1
loop_
 _symmetry_equiv_pos_site_id
 _symmetry_equiv_pos_as_xyz
  1  'x, y, z'
loop_
 _atom_site_type_symbol
 _atom_site_label
 _atom_site_symmetry_multiplicity
 _atom_site_fract_x
 _atom_site_fract_y
 _atom_site_fract_z
 _atom_site_occupancy
  Tm  Tm0  1  0.250000  0.980699  0.325403  1
  Tm  Tm1  1  0.250000  0.483345  0.177195  1
  Tm  Tm2  1  0.750000  0.016792  0.677301  1
  Tm  Tm3  1  0.750000  0.518874  0.818563  1
  Hf  Hf4  1  0.250000  0.857031  0.923890  1
  Hf  Hf5  1  0.250000  0.354436  0.574605  1
  Hf  Hf6  1  0.750000  0.146900  0.078117  1
  Sc  Sc7  1  0.750000  0.645202  0.422038  1
  Pt  Pt8  1  0.250000  0.235078  0.904168  1
  Pt  Pt9  1  0.250000  0.735042  0.604622  1
  Pt  Pt10  1  0.750000  0.766758  0.090456  1
  Pt  Pt11  1  0.750000  0.259845  0.403643  1
