# generated using pymatgen
data_Ho8Lu12CdBi11
_symmetry_space_group_name_H-M   'P 1'
_cell_length_a   8.15990468
_cell_length_b   9.38676900
_cell_length_c   12.00428000
_cell_angle_alpha   90.00000000
_cell_angle_beta   90.27746756
_cell_angle_gamma   90.00000000
_symmetry_Int_Tables_number   1
_chemical_formula_structural   Ho8Lu12CdBi11
_chemical_formula_sum   'Ho8 Lu12 Cd1 Bi11'
_cell_volume   919.45872936
_cell_formula_units_Z   1
loop_
 _symmetry_equiv_pos_site_id
 _symmetry_equiv_pos_as_xyz
  1  'x, y, z'
loop_
 _atom_site_type_symbol
 _atom_site_label
 _atom_site_symmetry_multiplicity
 _atom_site_fract_x
 _atom_site_fract_y
 _atom_site_fract_z
 _atom_site_occupancy
  Ho  Ho0  1  0.189911  0.750000  0.718771  1
  Ho  Ho1  1  0.681468  0.750000  0.785874  1
  Ho  Ho2  1  0.810572  0.250000  0.283422  1
  Ho  Ho3  1  0.312792  0.250000  0.218267  1
  Ho  Ho4  1  0.352162  0.750000  0.211537  1
  Ho  Ho5  1  0.849037  0.750000  0.286222  1
  Ho  Ho6  1  0.652340  0.250000  0.783488  1
  Ho  Ho7  1  0.151458  0.250000  0.715510  1
  Lu  Lu8  1  0.031988  0.750000  0.991367  1
  Lu  Lu9  1  0.521180  0.750000  0.509493  1
  Lu  Lu10  1  0.980976  0.250000  0.009850  1
  Lu  Lu11  1  0.478268  0.250000  0.490273  1
  Lu  Lu12  1  0.309169  0.445284  0.940166  1
  Lu  Lu13  1  0.809219  0.067512  0.558524  1
  Lu  Lu14  1  0.686593  0.929207  0.056003  1
  Lu  Lu15  1  0.189831  0.567366  0.439860  1
  Lu  Lu16  1  0.686593  0.570793  0.056003  1
  Lu  Lu17  1  0.189831  0.932634  0.439860  1
  Lu  Lu18  1  0.309169  0.054716  0.940166  1
  Lu  Lu19  1  0.809219  0.432488  0.558524  1
  Cd  Cd20  1  0.404464  0.750000  0.958365  1
  Bi  Bi21  1  0.437523  0.003616  0.672577  1
  Bi  Bi22  1  0.938134  0.496801  0.826399  1
  Bi  Bi23  1  0.562442  0.503711  0.327965  1
  Bi  Bi24  1  0.060381  0.996847  0.174650  1
  Bi  Bi25  1  0.562442  0.996289  0.327965  1
  Bi  Bi26  1  0.060381  0.503153  0.174650  1
  Bi  Bi27  1  0.437523  0.496384  0.672577  1
  Bi  Bi28  1  0.938134  0.003199  0.826399  1
  Bi  Bi29  1  0.900932  0.750000  0.546072  1
  Bi  Bi30  1  0.596986  0.250000  0.043130  1
  Bi  Bi31  1  0.098881  0.250000  0.456067  1
