# generated using pymatgen
data_ZrSc(Al3Ir)3
_symmetry_space_group_name_H-M   'P 1'
_cell_length_a   7.48103923
_cell_length_b   7.47792782
_cell_length_c   9.29723900
_cell_angle_alpha   90.00000000
_cell_angle_beta   90.00000000
_cell_angle_gamma   119.79734528
_symmetry_Int_Tables_number   1
_chemical_formula_structural   ZrSc(Al3Ir)3
_chemical_formula_sum   'Zr2 Sc2 Al18 Ir6'
_cell_volume   451.34753668
_cell_formula_units_Z   2
loop_
 _symmetry_equiv_pos_site_id
 _symmetry_equiv_pos_as_xyz
  1  'x, y, z'
loop_
 _atom_site_type_symbol
 _atom_site_label
 _atom_site_symmetry_multiplicity
 _atom_site_fract_x
 _atom_site_fract_y
 _atom_site_fract_z
 _atom_site_occupancy
  Zr  Zr0  1  0.995341  0.671614  0.250000  1
  Zr  Zr1  1  0.004659  0.328386  0.750000  1
  Sc  Sc2  1  0.670837  0.994230  0.250000  1
  Sc  Sc3  1  0.329163  0.005770  0.750000  1
  Al  Al4  1  0.123672  0.123214  0.250000  1
  Al  Al5  1  0.876328  0.876786  0.750000  1
  Al  Al6  1  0.997235  0.334088  0.077041  1
  Al  Al7  1  0.002765  0.665912  0.922959  1
  Al  Al8  1  0.002765  0.665912  0.577041  1
  Al  Al9  1  0.335235  0.998808  0.422478  1
  Al  Al10  1  0.997235  0.334088  0.422959  1
  Al  Al11  1  0.664765  0.001192  0.577522  1
  Al  Al12  1  0.664765  0.001192  0.922478  1
  Al  Al13  1  0.335235  0.998808  0.077522  1
  Al  Al14  1  0.331533  0.331290  0.558651  1
  Al  Al15  1  0.668467  0.668710  0.441349  1
  Al  Al16  1  0.668467  0.668710  0.058651  1
  Al  Al17  1  0.331533  0.331290  0.941349  1
  Al  Al18  1  0.337317  0.551789  0.250000  1
  Al  Al19  1  0.662683  0.448211  0.750000  1
  Al  Al20  1  0.554476  0.341460  0.250000  1
  Al  Al21  1  0.445524  0.658540  0.750000  1
  Ir  Ir22  1  0.672491  0.327811  0.999388  1
  Ir  Ir23  1  0.327509  0.672189  0.000612  1
  Ir  Ir24  1  0.327509  0.672189  0.499388  1
  Ir  Ir25  1  0.672491  0.327811  0.500612  1
  Ir  Ir26  1  0.000000  0.000000  0.000000  1
  Ir  Ir27  1  0.000000  0.000000  0.500000  1
