# generated using pymatgen
data_Y5Ge2Te3
_symmetry_space_group_name_H-M   'P 1'
_cell_length_a   7.50477518
_cell_length_b   7.50477538
_cell_length_c   7.51010600
_cell_angle_alpha   99.18502406
_cell_angle_beta   99.78773554
_cell_angle_gamma   132.07819465
_symmetry_Int_Tables_number   1
_chemical_formula_structural   Y5Ge2Te3
_chemical_formula_sum   'Y5 Ge2 Te3'
_cell_volume   286.92933338
_cell_formula_units_Z   1
loop_
 _symmetry_equiv_pos_site_id
 _symmetry_equiv_pos_as_xyz
  1  'x, y, z'
loop_
 _atom_site_type_symbol
 _atom_site_label
 _atom_site_symmetry_multiplicity
 _atom_site_fract_x
 _atom_site_fract_y
 _atom_site_fract_z
 _atom_site_occupancy
  Y  Y0  1  0.384719  0.774505  0.159224  1
  Y  Y1  1  0.004707  0.982382  0.987089  1
  Y  Y2  1  0.595579  0.217527  0.813106  1
  Y  Y3  1  0.215083  0.425323  0.640407  1
  Y  Y4  1  0.799988  0.600149  0.400137  1
  Ge  Ge5  1  0.505400  0.502223  0.007624  1
  Ge  Ge6  1  0.094342  0.697698  0.792040  1
  Te  Te7  1  0.689184  0.902679  0.591863  1
  Te  Te8  1  0.300222  0.100018  0.400241  1
  Te  Te9  1  0.910774  0.297495  0.208270  1
