# generated using pymatgen
data_Rb3Tm(AsSe2)6
_symmetry_space_group_name_H-M   'P 1'
_cell_length_a   9.87835000
_cell_length_b   9.87834996
_cell_length_c   8.44356700
_cell_angle_alpha   90.00000000
_cell_angle_beta   90.00000000
_cell_angle_gamma   120.00000014
_symmetry_Int_Tables_number   1
_chemical_formula_structural   Rb3Tm(AsSe2)6
_chemical_formula_sum   'Rb3 Tm1 As6 Se12'
_cell_volume   713.55162965
_cell_formula_units_Z   1
loop_
 _symmetry_equiv_pos_site_id
 _symmetry_equiv_pos_as_xyz
  1  'x, y, z'
loop_
 _atom_site_type_symbol
 _atom_site_label
 _atom_site_symmetry_multiplicity
 _atom_site_fract_x
 _atom_site_fract_y
 _atom_site_fract_z
 _atom_site_occupancy
  Rb  Rb0  1  0.000000  0.000000  0.000000  1
  Rb  Rb1  1  0.333333  0.666667  0.840850  1
  Rb  Rb2  1  0.666667  0.333333  0.159150  1
  Tm  Tm3  1  0.000000  0.000000  0.500000  1
  As  As4  1  0.291496  0.838053  0.374531  1
  As  As5  1  0.161947  0.453443  0.374531  1
  As  As6  1  0.546557  0.708504  0.374531  1
  As  As7  1  0.708504  0.161947  0.625469  1
  As  As8  1  0.838053  0.546557  0.625469  1
  As  As9  1  0.453443  0.291496  0.625469  1
  Se  Se10  1  0.261647  0.056192  0.305757  1
  Se  Se11  1  0.943808  0.205456  0.305757  1
  Se  Se12  1  0.794544  0.738353  0.305757  1
  Se  Se13  1  0.738353  0.943808  0.694243  1
  Se  Se14  1  0.056192  0.794544  0.694243  1
  Se  Se15  1  0.205456  0.261647  0.694243  1
  Se  Se16  1  0.528487  0.907076  0.213179  1
  Se  Se17  1  0.092924  0.621410  0.213179  1
  Se  Se18  1  0.378590  0.471513  0.213179  1
  Se  Se19  1  0.471513  0.092924  0.786821  1
  Se  Se20  1  0.907076  0.378590  0.786821  1
  Se  Se21  1  0.621410  0.528487  0.786821  1
