# generated using pymatgen
data_Ho3Tm2Os2C7
_symmetry_space_group_name_H-M   'P 1'
_cell_length_a   8.12731443
_cell_length_b   8.10022339
_cell_length_c   3.48904400
_cell_angle_alpha   90.00000000
_cell_angle_beta   90.00000000
_cell_angle_gamma   121.72725875
_symmetry_Int_Tables_number   1
_chemical_formula_structural   Ho3Tm2Os2C7
_chemical_formula_sum   'Ho3 Tm2 Os2 C7'
_cell_volume   195.36914639
_cell_formula_units_Z   1
loop_
 _symmetry_equiv_pos_site_id
 _symmetry_equiv_pos_as_xyz
  1  'x, y, z'
loop_
 _atom_site_type_symbol
 _atom_site_label
 _atom_site_symmetry_multiplicity
 _atom_site_fract_x
 _atom_site_fract_y
 _atom_site_fract_z
 _atom_site_occupancy
  Ho  Ho0  1  0.500000  0.500000  0.000000  1
  Ho  Ho1  1  0.077090  0.335930  0.500000  1
  Ho  Ho2  1  0.922910  0.664070  0.500000  1
  Tm  Tm3  1  0.659777  0.922249  0.500000  1
  Tm  Tm4  1  0.340223  0.077751  0.500000  1
  Os  Os5  1  0.714512  0.285750  0.000000  1
  Os  Os6  1  0.285488  0.714250  0.000000  1
  C  C7  1  0.631308  0.368473  0.500000  1
  C  C8  1  0.368692  0.631527  0.500000  1
  C  C9  1  0.000000  0.000000  0.000000  1
  C  C10  1  0.174232  0.169927  0.000000  1
  C  C11  1  0.825768  0.830073  0.000000  1
  C  C12  1  0.000000  0.500000  0.000000  1
  C  C13  1  0.500000  0.000000  0.000000  1
