# generated using pymatgen
data_TbYEr8(In2Ni)4
_symmetry_space_group_name_H-M   'P 1'
_cell_length_a   3.57253300
_cell_length_b   7.96979868
_cell_length_c   17.88484231
_cell_angle_alpha   89.93108976
_cell_angle_beta   90.00000000
_cell_angle_gamma   90.00000000
_symmetry_Int_Tables_number   1
_chemical_formula_structural   TbYEr8(In2Ni)4
_chemical_formula_sum   'Tb1 Y1 Er8 In8 Ni4'
_cell_volume   509.22345764
_cell_formula_units_Z   1
loop_
 _symmetry_equiv_pos_site_id
 _symmetry_equiv_pos_as_xyz
  1  'x, y, z'
loop_
 _atom_site_type_symbol
 _atom_site_label
 _atom_site_symmetry_multiplicity
 _atom_site_fract_x
 _atom_site_fract_y
 _atom_site_fract_z
 _atom_site_occupancy
  Tb  Tb0  1  0.000000  0.000000  0.000000  1
  Y  Y1  1  0.000000  0.500000  0.500000  1
  Er  Er2  1  0.000000  0.746203  0.278660  1
  Er  Er3  1  0.000000  0.253797  0.721340  1
  Er  Er4  1  0.000000  0.753369  0.778383  1
  Er  Er5  1  0.000000  0.246631  0.221617  1
  Er  Er6  1  0.000000  0.617918  0.088878  1
  Er  Er7  1  0.000000  0.382082  0.911122  1
  Er  Er8  1  0.000000  0.883044  0.588719  1
  Er  Er9  1  0.000000  0.116956  0.411281  1
  In  In10  1  0.500000  0.703435  0.930849  1
  In  In11  1  0.500000  0.296565  0.069151  1
  In  In12  1  0.500000  0.795878  0.431176  1
  In  In13  1  0.500000  0.204122  0.568824  1
  In  In14  1  0.500000  0.573359  0.652223  1
  In  In15  1  0.500000  0.426641  0.347777  1
  In  In16  1  0.500000  0.927309  0.152672  1
  In  In17  1  0.500000  0.072691  0.847328  1
  Ni  Ni18  1  0.500000  0.525375  0.196183  1
  Ni  Ni19  1  0.500000  0.474625  0.803817  1
  Ni  Ni20  1  0.500000  0.974514  0.695856  1
  Ni  Ni21  1  0.500000  0.025486  0.304144  1
