# generated using pymatgen
data_PaVAsCl13
_symmetry_space_group_name_H-M   'P 1'
_cell_length_a   10.09982598
_cell_length_b   10.09982667
_cell_length_c   12.45912200
_cell_angle_alpha   90.00000000
_cell_angle_beta   90.00000000
_cell_angle_gamma   115.49904859
_symmetry_Int_Tables_number   1
_chemical_formula_structural   PaVAsCl13
_chemical_formula_sum   'Pa2 V2 As2 Cl26'
_cell_volume   1147.11494658
_cell_formula_units_Z   2
loop_
 _symmetry_equiv_pos_site_id
 _symmetry_equiv_pos_as_xyz
  1  'x, y, z'
loop_
 _atom_site_type_symbol
 _atom_site_label
 _atom_site_symmetry_multiplicity
 _atom_site_fract_x
 _atom_site_fract_y
 _atom_site_fract_z
 _atom_site_occupancy
  Pa  Pa0  1  0.793256  0.206744  0.997701  1
  Pa  Pa1  1  0.206744  0.793256  0.497701  1
  V  V2  1  0.140039  0.859961  0.035816  1
  V  V3  1  0.859961  0.140039  0.535816  1
  As  As4  1  0.451931  0.548069  0.345435  1
  As  As5  1  0.548069  0.451931  0.845435  1
  Cl  Cl6  1  0.313413  0.021272  0.616843  1
  Cl  Cl7  1  0.864298  0.135702  0.368676  1
  Cl  Cl8  1  0.622393  0.690219  0.869408  1
  Cl  Cl9  1  0.135702  0.864298  0.868676  1
  Cl  Cl10  1  0.926230  0.757615  0.095216  1
  Cl  Cl11  1  0.690219  0.622393  0.369408  1
  Cl  Cl12  1  0.743353  0.256647  0.585186  1
  Cl  Cl13  1  0.242385  0.073770  0.095216  1
  Cl  Cl14  1  0.686587  0.978728  0.116843  1
  Cl  Cl15  1  0.256647  0.743353  0.085186  1
  Cl  Cl16  1  0.073770  0.242385  0.595216  1
  Cl  Cl17  1  0.099293  0.564848  0.376998  1
  Cl  Cl18  1  0.978728  0.686587  0.616843  1
  Cl  Cl19  1  0.021272  0.313413  0.116843  1
  Cl  Cl20  1  0.083748  0.916252  0.379456  1
  Cl  Cl21  1  0.900707  0.435152  0.876998  1
  Cl  Cl22  1  0.564848  0.099293  0.876998  1
  Cl  Cl23  1  0.435152  0.900707  0.376998  1
  Cl  Cl24  1  0.309781  0.377607  0.869408  1
  Cl  Cl25  1  0.377607  0.309781  0.369408  1
  Cl  Cl26  1  0.916252  0.083748  0.879456  1
  Cl  Cl27  1  0.552003  0.447997  0.667866  1
  Cl  Cl28  1  0.330726  0.669274  0.612234  1
  Cl  Cl29  1  0.669274  0.330726  0.112234  1
  Cl  Cl30  1  0.757615  0.926230  0.595216  1
  Cl  Cl31  1  0.447997  0.552003  0.167866  1
