# generated using pymatgen
data_HoTm3FeSi4Rh
_symmetry_space_group_name_H-M   'P 1'
_cell_length_a   5.59106728
_cell_length_b   5.59106690
_cell_length_c   9.92922869
_cell_angle_alpha   63.34446517
_cell_angle_beta   63.34446844
_cell_angle_gamma   43.57559109
_symmetry_Int_Tables_number   1
_chemical_formula_structural   HoTm3FeSi4Rh
_chemical_formula_sum   'Ho1 Tm3 Fe1 Si4 Rh1'
_cell_volume   187.32599089
_cell_formula_units_Z   1
loop_
 _symmetry_equiv_pos_site_id
 _symmetry_equiv_pos_as_xyz
  1  'x, y, z'
loop_
 _atom_site_type_symbol
 _atom_site_label
 _atom_site_symmetry_multiplicity
 _atom_site_fract_x
 _atom_site_fract_y
 _atom_site_fract_z
 _atom_site_occupancy
  Ho  Ho0  1  0.186106  0.186106  0.891492  1
  Tm  Tm1  1  0.002524  0.002524  0.324859  1
  Tm  Tm2  1  0.000453  0.000453  0.671467  1
  Tm  Tm3  1  0.813279  0.813279  0.107849  1
  Fe  Fe4  1  0.271261  0.271261  0.379039  1
  Si  Si5  1  0.651840  0.651840  0.429715  1
  Si  Si6  1  0.361133  0.361133  0.557836  1
  Si  Si7  1  0.500105  0.500105  0.129453  1
  Si  Si8  1  0.485560  0.485560  0.881197  1
  Rh  Rh9  1  0.727738  0.727738  0.627093  1
