# generated using pymatgen
data_RbVNiS4
_symmetry_space_group_name_H-M   'P 1'
_cell_length_a   7.93661200
_cell_length_b   7.93661200
_cell_length_c   12.26363500
_cell_angle_alpha   90.00000000
_cell_angle_beta   90.00000000
_cell_angle_gamma   90.00000000
_symmetry_Int_Tables_number   1
_chemical_formula_structural   RbVNiS4
_chemical_formula_sum   'Rb4 V4 Ni4 S16'
_cell_volume   772.48403903
_cell_formula_units_Z   4
loop_
 _symmetry_equiv_pos_site_id
 _symmetry_equiv_pos_as_xyz
  1  'x, y, z'
loop_
 _atom_site_type_symbol
 _atom_site_label
 _atom_site_symmetry_multiplicity
 _atom_site_fract_x
 _atom_site_fract_y
 _atom_site_fract_z
 _atom_site_occupancy
  Rb  Rb0  1  0.000000  0.500000  0.250000  1
  Rb  Rb1  1  0.500000  0.000000  0.750000  1
  Rb  Rb2  1  0.500000  0.000000  0.250000  1
  Rb  Rb3  1  0.000000  0.500000  0.750000  1
  V  V4  1  0.250098  0.749902  0.500000  1
  V  V5  1  0.749902  0.250098  0.500000  1
  V  V6  1  0.249902  0.249902  0.000000  1
  V  V7  1  0.750098  0.750098  0.000000  1
  Ni  Ni8  1  0.500000  0.500000  0.500000  1
  Ni  Ni9  1  0.000000  0.000000  0.000000  1
  Ni  Ni10  1  0.000000  0.000000  0.500000  1
  Ni  Ni11  1  0.500000  0.500000  0.000000  1
  S  S12  1  0.278051  0.980092  0.000000  1
  S  S13  1  0.019908  0.721949  0.000000  1
  S  S14  1  0.480092  0.221949  0.500000  1
  S  S15  1  0.980092  0.278051  0.000000  1
  S  S16  1  0.519908  0.778051  0.500000  1
  S  S17  1  0.870979  0.129021  0.637080  1
  S  S18  1  0.721949  0.019908  0.000000  1
  S  S19  1  0.370979  0.370979  0.137080  1
  S  S20  1  0.221949  0.480092  0.500000  1
  S  S21  1  0.870979  0.129021  0.362920  1
  S  S22  1  0.778051  0.519908  0.500000  1
  S  S23  1  0.370979  0.370979  0.862920  1
  S  S24  1  0.629021  0.629021  0.862920  1
  S  S25  1  0.629021  0.629021  0.137080  1
  S  S26  1  0.129021  0.870979  0.362920  1
  S  S27  1  0.129021  0.870979  0.637080  1
