# generated using pymatgen
data_NaPr8(InAu4)5
_symmetry_space_group_name_H-M   'P 1'
_cell_length_a   8.80256623
_cell_length_b   8.80194008
_cell_length_c   10.34735400
_cell_angle_alpha   89.73596280
_cell_angle_beta   89.73629401
_cell_angle_gamma   108.79797103
_symmetry_Int_Tables_number   1
_chemical_formula_structural   NaPr8(InAu4)5
_chemical_formula_sum   'Na1 Pr8 In5 Au20'
_cell_volume   758.92307953
_cell_formula_units_Z   1
loop_
 _symmetry_equiv_pos_site_id
 _symmetry_equiv_pos_as_xyz
  1  'x, y, z'
loop_
 _atom_site_type_symbol
 _atom_site_label
 _atom_site_symmetry_multiplicity
 _atom_site_fract_x
 _atom_site_fract_y
 _atom_site_fract_z
 _atom_site_occupancy
  Na  Na0  1  0.000000  0.000000  0.000000  1
  Pr  Pr1  1  0.700160  0.299654  0.999989  1
  Pr  Pr2  1  0.200125  0.799894  0.499605  1
  Pr  Pr3  1  0.801293  0.801263  0.295451  1
  Pr  Pr4  1  0.301857  0.301649  0.202386  1
  Pr  Pr5  1  0.799875  0.200106  0.500395  1
  Pr  Pr6  1  0.299840  0.700346  0.000011  1
  Pr  Pr7  1  0.698143  0.698351  0.797614  1
  Pr  Pr8  1  0.198707  0.198737  0.704549  1
  In  In9  1  0.517292  0.017494  0.250410  1
  In  In10  1  0.982238  0.482550  0.749372  1
  In  In11  1  0.017762  0.517450  0.250628  1
  In  In12  1  0.482708  0.982506  0.749590  1
  In  In13  1  0.500000  0.500000  0.500000  1
  Au  Au14  1  0.158894  0.430356  0.476411  1
  Au  Au15  1  0.905124  0.904890  0.595954  1
  Au  Au16  1  0.569600  0.841288  0.523356  1
  Au  Au17  1  0.888060  0.168774  0.208071  1
  Au  Au18  1  0.393090  0.669005  0.290846  1
  Au  Au19  1  0.669188  0.393105  0.291111  1
  Au  Au20  1  0.402356  0.402523  0.906809  1
  Au  Au21  1  0.932459  0.657306  0.022269  1
  Au  Au22  1  0.330812  0.606895  0.708889  1
  Au  Au23  1  0.342432  0.067305  0.977592  1
  Au  Au24  1  0.597644  0.597477  0.093191  1
  Au  Au25  1  0.657568  0.932695  0.022408  1
  Au  Au26  1  0.094876  0.095110  0.404046  1
  Au  Au27  1  0.606910  0.330995  0.709154  1
  Au  Au28  1  0.111940  0.831226  0.791929  1
  Au  Au29  1  0.067541  0.342694  0.977731  1
  Au  Au30  1  0.841106  0.569644  0.523589  1
  Au  Au31  1  0.168467  0.888223  0.207931  1
  Au  Au32  1  0.430400  0.158712  0.476644  1
  Au  Au33  1  0.831533  0.111777  0.792069  1
