# generated using pymatgen
data_Y5Ho15GaBi11
_symmetry_space_group_name_H-M   'P 1'
_cell_length_a   8.20613405
_cell_length_b   9.46361200
_cell_length_c   12.03801718
_cell_angle_alpha   90.00000000
_cell_angle_beta   90.29564219
_cell_angle_gamma   90.00000000
_symmetry_Int_Tables_number   1
_chemical_formula_structural   Y5Ho15GaBi11
_chemical_formula_sum   'Y5 Ho15 Ga1 Bi11'
_cell_volume   934.85598022
_cell_formula_units_Z   1
loop_
 _symmetry_equiv_pos_site_id
 _symmetry_equiv_pos_as_xyz
  1  'x, y, z'
loop_
 _atom_site_type_symbol
 _atom_site_label
 _atom_site_symmetry_multiplicity
 _atom_site_fract_x
 _atom_site_fract_y
 _atom_site_fract_z
 _atom_site_occupancy
  Y  Y0  1  0.811683  0.250000  0.280268  1
  Y  Y1  1  0.313840  0.250000  0.220157  1
  Y  Y2  1  0.852424  0.750000  0.285552  1
  Y  Y3  1  0.648426  0.250000  0.785412  1
  Y  Y4  1  0.148961  0.250000  0.715707  1
  Ho  Ho5  1  0.036503  0.750000  0.989841  1
  Ho  Ho6  1  0.526746  0.750000  0.511713  1
  Ho  Ho7  1  0.977862  0.250000  0.009919  1
  Ho  Ho8  1  0.474094  0.250000  0.489028  1
  Ho  Ho9  1  0.191017  0.750000  0.722448  1
  Ho  Ho10  1  0.673006  0.750000  0.788709  1
  Ho  Ho11  1  0.308630  0.451518  0.940540  1
  Ho  Ho12  1  0.805331  0.063033  0.559587  1
  Ho  Ho13  1  0.685566  0.930158  0.055055  1
  Ho  Ho14  1  0.194952  0.563761  0.439073  1
  Ho  Ho15  1  0.685566  0.569842  0.055055  1
  Ho  Ho16  1  0.194952  0.936239  0.439073  1
  Ho  Ho17  1  0.308630  0.048482  0.940540  1
  Ho  Ho18  1  0.805331  0.436967  0.559587  1
  Ho  Ho19  1  0.355756  0.750000  0.205535  1
  Ga  Ga20  1  0.410818  0.750000  0.961451  1
  Bi  Bi21  1  0.435129  0.003398  0.674449  1
  Bi  Bi22  1  0.934878  0.498220  0.825569  1
  Bi  Bi23  1  0.564720  0.504797  0.326128  1
  Bi  Bi24  1  0.064309  0.996633  0.174405  1
  Bi  Bi25  1  0.564720  0.995203  0.326128  1
  Bi  Bi26  1  0.064309  0.503367  0.174405  1
  Bi  Bi27  1  0.435129  0.496602  0.674449  1
  Bi  Bi28  1  0.934878  0.001780  0.825569  1
  Bi  Bi29  1  0.911653  0.750000  0.544453  1
  Bi  Bi30  1  0.590280  0.250000  0.042027  1
  Bi  Bi31  1  0.089905  0.250000  0.458171  1
