# generated using pymatgen
data_Ho4TmZn2Sb
_symmetry_space_group_name_H-M   'P 1'
_cell_length_a   8.47341680
_cell_length_b   8.47341720
_cell_length_c   8.47341682
_cell_angle_alpha   123.44413455
_cell_angle_beta   123.44413601
_cell_angle_gamma   84.13139749
_symmetry_Int_Tables_number   1
_chemical_formula_structural   Ho4TmZn2Sb
_chemical_formula_sum   'Ho8 Tm2 Zn4 Sb2'
_cell_volume   405.46837473
_cell_formula_units_Z   2
loop_
 _symmetry_equiv_pos_site_id
 _symmetry_equiv_pos_as_xyz
  1  'x, y, z'
loop_
 _atom_site_type_symbol
 _atom_site_label
 _atom_site_symmetry_multiplicity
 _atom_site_fract_x
 _atom_site_fract_y
 _atom_site_fract_z
 _atom_site_occupancy
  Ho  Ho0  1  0.510798  0.010798  0.809308  1
  Ho  Ho1  1  0.201491  0.701491  0.190692  1
  Ho  Ho2  1  0.010798  0.201491  0.500000  1
  Ho  Ho3  1  0.701491  0.510798  0.500000  1
  Ho  Ho4  1  0.489202  0.989202  0.190692  1
  Ho  Ho5  1  0.798509  0.298509  0.809308  1
  Ho  Ho6  1  0.989202  0.798509  0.500000  1
  Ho  Ho7  1  0.298509  0.489202  0.500000  1
  Tm  Tm8  1  0.500000  0.500000  0.000000  1
  Tm  Tm9  1  0.000000  0.000000  0.000000  1
  Zn  Zn10  1  0.137349  0.637349  0.774699  1
  Zn  Zn11  1  0.862651  0.362651  0.225301  1
  Zn  Zn12  1  0.637349  0.862651  0.500000  1
  Zn  Zn13  1  0.362651  0.137349  0.500000  1
  Sb  Sb14  1  0.250000  0.250000  0.000000  1
  Sb  Sb15  1  0.750000  0.750000  0.000000  1
