# generated using pymatgen
data_Ac3AlAu5
_symmetry_space_group_name_H-M   'P 1'
_cell_length_a   9.09975641
_cell_length_b   9.09975695
_cell_length_c   9.09975614
_cell_angle_alpha   128.74093764
_cell_angle_beta   125.99503998
_cell_angle_gamma   77.67156200
_symmetry_Int_Tables_number   1
_chemical_formula_structural   Ac3AlAu5
_chemical_formula_sum   'Ac6 Al2 Au10'
_cell_volume   461.08120641
_cell_formula_units_Z   2
loop_
 _symmetry_equiv_pos_site_id
 _symmetry_equiv_pos_as_xyz
  1  'x, y, z'
loop_
 _atom_site_type_symbol
 _atom_site_label
 _atom_site_symmetry_multiplicity
 _atom_site_fract_x
 _atom_site_fract_y
 _atom_site_fract_z
 _atom_site_occupancy
  Ac  Ac0  1  0.823853  0.048903  0.774950  1
  Ac  Ac1  1  0.226045  0.451097  0.774950  1
  Ac  Ac2  1  0.176147  0.951097  0.225050  1
  Ac  Ac3  1  0.381729  0.250000  0.131729  1
  Ac  Ac4  1  0.773955  0.548903  0.225050  1
  Ac  Ac5  1  0.618271  0.750000  0.868271  1
  Al  Al6  1  0.213338  0.750000  0.463338  1
  Al  Al7  1  0.786662  0.250000  0.536662  1
  Au  Au8  1  0.832131  0.596176  0.635513  1
  Au  Au9  1  0.539337  0.303382  0.635513  1
  Au  Au10  1  0.460663  0.096176  0.764045  1
  Au  Au11  1  0.832131  0.196618  0.235955  1
  Au  Au12  1  0.167869  0.403824  0.364487  1
  Au  Au13  1  0.460663  0.696618  0.364487  1
  Au  Au14  1  0.539337  0.903824  0.235955  1
  Au  Au15  1  0.167869  0.803382  0.764045  1
  Au  Au16  1  0.000000  0.000000  0.500000  1
  Au  Au17  1  0.000000  0.500000  0.000000  1
