# generated using pymatgen
data_Ba2DyEr3(Si3O10)2
_symmetry_space_group_name_H-M   'P 1'
_cell_length_a   5.44518423
_cell_length_b   12.31784566
_cell_length_c   6.89674778
_cell_angle_alpha   89.95468485
_cell_angle_beta   106.49379421
_cell_angle_gamma   90.05027013
_symmetry_Int_Tables_number   1
_chemical_formula_structural   Ba2DyEr3(Si3O10)2
_chemical_formula_sum   'Ba2 Dy1 Er3 Si6 O20'
_cell_volume   443.54974992
_cell_formula_units_Z   1
loop_
 _symmetry_equiv_pos_site_id
 _symmetry_equiv_pos_as_xyz
  1  'x, y, z'
loop_
 _atom_site_type_symbol
 _atom_site_label
 _atom_site_symmetry_multiplicity
 _atom_site_fract_x
 _atom_site_fract_y
 _atom_site_fract_z
 _atom_site_occupancy
  Ba  Ba0  1  0.762014  0.249567  0.016322  1
  Ba  Ba1  1  0.237980  0.750706  0.983751  1
  Dy  Dy2  1  0.844000  0.599074  0.316845  1
  Er  Er3  1  0.843061  0.901077  0.317084  1
  Er  Er4  1  0.157171  0.099571  0.683073  1
  Er  Er5  1  0.157138  0.399748  0.683657  1
  Si  Si6  1  0.304699  0.060328  0.213605  1
  Si  Si7  1  0.304600  0.438944  0.213649  1
  Si  Si8  1  0.580750  0.250018  0.488075  1
  Si  Si9  1  0.419909  0.750666  0.511919  1
  Si  Si10  1  0.694300  0.560077  0.785456  1
  Si  Si11  1  0.695603  0.940103  0.786813  1
  O  O12  1  0.162064  0.120222  0.000503  1
  O  O13  1  0.162564  0.378524  0.001138  1
  O  O14  1  0.435366  0.555088  0.192923  1
  O  O15  1  0.440038  0.945385  0.193623  1
  O  O16  1  0.546048  0.143400  0.337172  1
  O  O17  1  0.548143  0.357000  0.337624  1
  O  O18  1  0.103394  0.048678  0.352990  1
  O  O19  1  0.103785  0.449176  0.353396  1
  O  O20  1  0.124707  0.751599  0.365399  1
  O  O21  1  0.631861  0.751101  0.385403  1
  O  O22  1  0.368941  0.249939  0.615023  1
  O  O23  1  0.876211  0.249643  0.634594  1
  O  O24  1  0.897680  0.547106  0.648552  1
  O  O25  1  0.896671  0.951886  0.647298  1
  O  O26  1  0.452977  0.642732  0.659936  1
  O  O27  1  0.454343  0.856745  0.664062  1
  O  O28  1  0.559891  0.055069  0.806369  1
  O  O29  1  0.559336  0.445175  0.807335  1
  O  O30  1  0.836400  0.621442  0.996608  1
  O  O31  1  0.838356  0.880211  0.999813  1
