# generated using pymatgen
data_DyPaInPt2
_symmetry_space_group_name_H-M   'P 1'
_cell_length_a   7.89084800
_cell_length_b   7.78193500
_cell_length_c   3.65861000
_cell_angle_alpha   90.00000000
_cell_angle_beta   90.00000000
_cell_angle_gamma   90.00000000
_symmetry_Int_Tables_number   1
_chemical_formula_structural   DyPaInPt2
_chemical_formula_sum   'Dy2 Pa2 In2 Pt4'
_cell_volume   224.66084797
_cell_formula_units_Z   2
loop_
 _symmetry_equiv_pos_site_id
 _symmetry_equiv_pos_as_xyz
  1  'x, y, z'
loop_
 _atom_site_type_symbol
 _atom_site_label
 _atom_site_symmetry_multiplicity
 _atom_site_fract_x
 _atom_site_fract_y
 _atom_site_fract_z
 _atom_site_occupancy
  Dy  Dy0  1  0.172729  0.672540  0.500001  1
  Dy  Dy1  1  0.672730  0.827460  0.500001  1
  Pa  Pa2  1  0.330959  0.166325  0.500001  1
  Pa  Pa3  1  0.830959  0.333674  0.500001  1
  In  In4  1  0.995355  0.992072  0.000000  1
  In  In5  1  0.495356  0.507929  0.000000  1
  Pt  Pt6  1  0.631077  0.146142  0.000000  1
  Pt  Pt7  1  0.131076  0.353857  0.000000  1
  Pt  Pt8  1  0.869879  0.614766  0.000000  1
  Pt  Pt9  1  0.369879  0.885234  0.000000  1
