# generated using pymatgen
data_Ba6ErTm(Ir2O9)2
_symmetry_space_group_name_H-M   'P 1'
_cell_length_a   5.93120900
_cell_length_b   5.93120817
_cell_length_c   14.64338900
_cell_angle_alpha   90.00000000
_cell_angle_beta   90.00000000
_cell_angle_gamma   119.99999905
_symmetry_Int_Tables_number   1
_chemical_formula_structural   Ba6ErTm(Ir2O9)2
_chemical_formula_sum   'Ba6 Er1 Tm1 Ir4 O18'
_cell_volume   446.12712540
_cell_formula_units_Z   1
loop_
 _symmetry_equiv_pos_site_id
 _symmetry_equiv_pos_as_xyz
  1  'x, y, z'
loop_
 _atom_site_type_symbol
 _atom_site_label
 _atom_site_symmetry_multiplicity
 _atom_site_fract_x
 _atom_site_fract_y
 _atom_site_fract_z
 _atom_site_occupancy
  Ba  Ba0  1  0.666667  0.333333  0.409699  1
  Ba  Ba1  1  0.333333  0.666667  0.590301  1
  Ba  Ba2  1  0.333333  0.666667  0.909895  1
  Ba  Ba3  1  0.000000  0.000000  0.249758  1
  Ba  Ba4  1  0.666667  0.333333  0.090105  1
  Ba  Ba5  1  0.000000  0.000000  0.750242  1
  Er  Er6  1  0.000000  0.000000  0.500000  1
  Tm  Tm7  1  0.000000  0.000000  0.000000  1
  Ir  Ir8  1  0.333333  0.666667  0.163400  1
  Ir  Ir9  1  0.666667  0.333333  0.836600  1
  Ir  Ir10  1  0.333333  0.666667  0.336109  1
  Ir  Ir11  1  0.666667  0.333333  0.663891  1
  O  O12  1  0.824377  0.648756  0.585740  1
  O  O13  1  0.824904  0.175096  0.914600  1
  O  O14  1  0.648756  0.824377  0.414260  1
  O  O15  1  0.509101  0.490899  0.750212  1
  O  O16  1  0.175623  0.351244  0.414260  1
  O  O17  1  0.351244  0.175623  0.585740  1
  O  O18  1  0.509101  0.018203  0.750212  1
  O  O19  1  0.175096  0.350190  0.085400  1
  O  O20  1  0.490899  0.981797  0.249788  1
  O  O21  1  0.649810  0.824904  0.085400  1
  O  O22  1  0.175623  0.824377  0.414260  1
  O  O23  1  0.350190  0.175096  0.914600  1
  O  O24  1  0.018203  0.509101  0.249788  1
  O  O25  1  0.490899  0.509101  0.249788  1
  O  O26  1  0.981797  0.490899  0.750212  1
  O  O27  1  0.824904  0.649810  0.914600  1
  O  O28  1  0.824377  0.175623  0.585740  1
  O  O29  1  0.175096  0.824904  0.085400  1
