# generated using pymatgen
data_SrMgPd3O8
_symmetry_space_group_name_H-M   'P 1'
_cell_length_a   6.16564300
_cell_length_b   6.88632272
_cell_length_c   10.67907600
_cell_angle_alpha   104.97415744
_cell_angle_beta   90.00102400
_cell_angle_gamma   63.40299942
_symmetry_Int_Tables_number   1
_chemical_formula_structural   SrMgPd3O8
_chemical_formula_sum   'Sr2 Mg2 Pd6 O16'
_cell_volume   388.14226690
_cell_formula_units_Z   2
loop_
 _symmetry_equiv_pos_site_id
 _symmetry_equiv_pos_as_xyz
  1  'x, y, z'
loop_
 _atom_site_type_symbol
 _atom_site_label
 _atom_site_symmetry_multiplicity
 _atom_site_fract_x
 _atom_site_fract_y
 _atom_site_fract_z
 _atom_site_occupancy
  Sr  Sr0  1  0.750010  0.499979  0.750000  1
  Sr  Sr1  1  0.250001  0.499994  0.249998  1
  Mg  Mg2  1  0.500034  0.999941  0.499985  1
  Mg  Mg3  1  0.000035  0.999943  0.999989  1
  Pd  Pd4  1  0.249878  0.000016  0.749951  1
  Pd  Pd5  1  0.749916  0.000036  0.249998  1
  Pd  Pd6  1  0.999985  0.000028  0.500066  1
  Pd  Pd7  1  0.499984  0.000028  0.000066  1
  Pd  Pd8  1  0.750103  0.000019  0.749951  1
  Pd  Pd9  1  0.250050  0.000037  0.249998  1
  O  O10  1  0.084998  0.830029  0.638343  1
  O  O11  1  0.584998  0.830030  0.138334  1
  O  O12  1  0.414982  0.170007  0.861674  1
  O  O13  1  0.914982  0.170009  0.361664  1
  O  O14  1  0.831427  0.820785  0.884074  1
  O  O15  1  0.331425  0.820796  0.384065  1
  O  O16  1  0.910400  0.179173  0.857731  1
  O  O17  1  0.410394  0.179186  0.357731  1
  O  O18  1  0.668579  0.179187  0.615931  1
  O  O19  1  0.168577  0.179201  0.115926  1
  O  O20  1  0.152257  0.179163  0.615927  1
  O  O21  1  0.652248  0.179176  0.115919  1
  O  O22  1  0.589610  0.820802  0.642266  1
  O  O23  1  0.089606  0.820813  0.142267  1
  O  O24  1  0.347766  0.820805  0.884077  1
  O  O25  1  0.847758  0.820817  0.384069  1
