# generated using pymatgen
data_Cs2Te3RuO12
_symmetry_space_group_name_H-M   'P 1'
_cell_length_a   7.25600863
_cell_length_b   7.25603300
_cell_length_c   7.25622447
_cell_angle_alpha   61.17019201
_cell_angle_beta   61.17026338
_cell_angle_gamma   61.16478922
_symmetry_Int_Tables_number   1
_chemical_formula_structural   Cs2Te3RuO12
_chemical_formula_sum   'Cs2 Te3 Ru1 O12'
_cell_volume   277.24396430
_cell_formula_units_Z   1
loop_
 _symmetry_equiv_pos_site_id
 _symmetry_equiv_pos_as_xyz
  1  'x, y, z'
loop_
 _atom_site_type_symbol
 _atom_site_label
 _atom_site_symmetry_multiplicity
 _atom_site_fract_x
 _atom_site_fract_y
 _atom_site_fract_z
 _atom_site_occupancy
  Cs  Cs0  1  0.121852  0.131285  0.625849  1
  Cs  Cs1  1  0.868711  0.878146  0.374156  1
  Te  Te2  1  0.497504  0.002416  0.000032  1
  Te  Te3  1  0.997583  0.502496  0.999965  1
  Te  Te4  1  0.497467  0.502533  0.499999  1
  Ru  Ru5  1  0.497304  0.502695  0.999998  1
  O  O6  1  0.818807  0.823896  0.929347  1
  O  O7  1  0.425007  0.428858  0.324436  1
  O  O8  1  0.424626  0.827232  0.926398  1
  O  O9  1  0.818797  0.431634  0.321395  1
  O  O10  1  0.821887  0.429366  0.927242  1
  O  O11  1  0.427162  0.823725  0.321205  1
  O  O12  1  0.176103  0.181192  0.070656  1
  O  O13  1  0.571143  0.574993  0.675563  1
  O  O14  1  0.570634  0.178114  0.072758  1
  O  O15  1  0.176276  0.572838  0.678795  1
  O  O16  1  0.172769  0.575374  0.073601  1
  O  O17  1  0.568367  0.181206  0.678604  1
