# generated using pymatgen
data_Nd5Fe3P12(IrRu7)2
_symmetry_space_group_name_H-M   'P 1'
_cell_length_a   12.60842453
_cell_length_b   12.60653253
_cell_length_c   3.93701000
_cell_angle_alpha   90.00000000
_cell_angle_beta   90.00000000
_cell_angle_gamma   120.13815514
_symmetry_Int_Tables_number   1
_chemical_formula_structural   Nd5Fe3P12(IrRu7)2
_chemical_formula_sum   'Nd5 Fe3 P12 Ir2 Ru14'
_cell_volume   541.18697643
_cell_formula_units_Z   1
loop_
 _symmetry_equiv_pos_site_id
 _symmetry_equiv_pos_as_xyz
  1  'x, y, z'
loop_
 _atom_site_type_symbol
 _atom_site_label
 _atom_site_symmetry_multiplicity
 _atom_site_fract_x
 _atom_site_fract_y
 _atom_site_fract_z
 _atom_site_occupancy
  Nd  Nd0  1  0.000554  0.182877  0.500000  1
  Nd  Nd1  1  0.817816  0.817858  0.500000  1
  Nd  Nd2  1  0.182526  0.000289  0.500000  1
  Nd  Nd3  1  0.665853  0.332198  0.000000  1
  Nd  Nd4  1  0.333535  0.666837  0.000000  1
  Fe  Fe5  1  0.999310  0.714230  0.500000  1
  Fe  Fe6  1  0.285774  0.285932  0.500000  1
  Fe  Fe7  1  0.715459  0.000645  0.500000  1
  P  P8  1  0.999647  0.810034  0.000000  1
  P  P9  1  0.189434  0.189376  0.000000  1
  P  P10  1  0.810661  0.000806  0.000000  1
  P  P11  1  0.688597  0.159696  0.500000  1
  P  P12  1  0.838060  0.529706  0.500000  1
  P  P13  1  0.469781  0.306254  0.500000  1
  P  P14  1  0.162408  0.691046  0.500000  1
  P  P15  1  0.528329  0.837753  0.500000  1
  P  P16  1  0.309222  0.472034  0.500000  1
  P  P17  1  0.004841  0.375258  0.000000  1
  P  P18  1  0.624631  0.629261  0.000000  1
  P  P19  1  0.374648  0.999583  0.000000  1
  Ir  Ir20  1  0.872087  0.363980  0.500000  1
  Ir  Ir21  1  0.635482  0.508325  0.500000  1
  Ru  Ru22  1  0.999119  0.555538  0.000000  1
  Ru  Ru23  1  0.444570  0.443317  0.000000  1
  Ru  Ru24  1  0.557813  0.000859  0.000000  1
  Ru  Ru25  1  0.806259  0.183196  0.000000  1
  Ru  Ru26  1  0.817381  0.622583  0.000000  1
  Ru  Ru27  1  0.376358  0.195163  0.000000  1
  Ru  Ru28  1  0.180715  0.804024  0.000000  1
  Ru  Ru29  1  0.623570  0.820020  0.000000  1
  Ru  Ru30  1  0.196834  0.377027  0.000000  1
  Ru  Ru31  1  0.489003  0.124837  0.500000  1
  Ru  Ru32  1  0.364066  0.875273  0.500000  1
  Ru  Ru33  1  0.511623  0.636039  0.500000  1
  Ru  Ru34  1  0.124416  0.488698  0.500000  1
  Ru  Ru35  1  0.999617  0.999446  0.000000  1
