# generated using pymatgen
data_Hf2Mg3ScTa3(NbN4)3
_symmetry_space_group_name_H-M   'P 1'
_cell_length_a   5.29884300
_cell_length_b   5.29884355
_cell_length_c   10.58544200
_cell_angle_alpha   90.00000000
_cell_angle_beta   90.00000000
_cell_angle_gamma   120.00000278
_symmetry_Int_Tables_number   1
_chemical_formula_structural   Hf2Mg3ScTa3(NbN4)3
_chemical_formula_sum   'Hf2 Mg3 Sc1 Ta3 Nb3 N12'
_cell_volume   257.39598350
_cell_formula_units_Z   1
loop_
 _symmetry_equiv_pos_site_id
 _symmetry_equiv_pos_as_xyz
  1  'x, y, z'
loop_
 _atom_site_type_symbol
 _atom_site_label
 _atom_site_symmetry_multiplicity
 _atom_site_fract_x
 _atom_site_fract_y
 _atom_site_fract_z
 _atom_site_occupancy
  Hf  Hf0  1  0.000007  0.002032  0.500446  1
  Hf  Hf1  1  0.000002  0.001598  0.999838  1
  Mg  Mg2  1  0.333336  0.666222  0.500156  1
  Mg  Mg3  1  0.666666  0.332891  0.500182  1
  Mg  Mg4  1  0.666687  0.332949  0.999874  1
  Sc  Sc5  1  0.333308  0.666049  0.999870  1
  Ta  Ta6  1  0.662836  0.662333  0.250377  1
  Ta  Ta7  1  0.337248  0.999748  0.250385  1
  Ta  Ta8  1  0.999905  0.662992  0.749487  1
  Nb  Nb9  1  0.999997  0.337068  0.249917  1
  Nb  Nb10  1  0.663156  0.999618  0.749955  1
  Nb  Nb11  1  0.336825  0.336517  0.749965  1
  N  N12  1  0.671934  0.667523  0.623097  1
  N  N13  1  0.673069  0.666196  0.877176  1
  N  N14  1  0.338498  0.330897  0.123382  1
  N  N15  1  0.337398  0.332754  0.376295  1
  N  N16  1  0.329550  0.998580  0.877059  1
  N  N17  1  0.328004  0.995536  0.623121  1
  N  N18  1  0.999950  0.671803  0.375858  1
  N  N19  1  0.997133  0.670233  0.123719  1
  N  N20  1  0.664985  0.999127  0.123504  1
  N  N21  1  0.662735  0.995529  0.376262  1
  N  N22  1  0.996766  0.334850  0.877385  1
  N  N23  1  0.000008  0.336954  0.622691  1
