# generated using pymatgen
data_Dy7Zr(Si4W3)4
_symmetry_space_group_name_H-M   'P 1'
_cell_length_a   6.74949096
_cell_length_b   6.90604804
_cell_length_c   12.91382774
_cell_angle_alpha   90.12677047
_cell_angle_beta   89.97492484
_cell_angle_gamma   90.08646413
_symmetry_Int_Tables_number   1
_chemical_formula_structural   Dy7Zr(Si4W3)4
_chemical_formula_sum   'Dy7 Zr1 Si16 W12'
_cell_volume   601.94111113
_cell_formula_units_Z   1
loop_
 _symmetry_equiv_pos_site_id
 _symmetry_equiv_pos_as_xyz
  1  'x, y, z'
loop_
 _atom_site_type_symbol
 _atom_site_label
 _atom_site_symmetry_multiplicity
 _atom_site_fract_x
 _atom_site_fract_y
 _atom_site_fract_z
 _atom_site_occupancy
  Dy  Dy0  1  0.494811  0.667837  0.592848  1
  Dy  Dy1  1  0.995809  0.832739  0.906706  1
  Dy  Dy2  1  0.503950  0.332713  0.093620  1
  Dy  Dy3  1  0.003414  0.166623  0.407915  1
  Dy  Dy4  1  0.503655  0.332390  0.407812  1
  Dy  Dy5  1  0.004047  0.167595  0.093584  1
  Dy  Dy6  1  0.495630  0.667712  0.905412  1
  Zr  Zr7  1  0.993735  0.830113  0.596127  1
  Si  Si8  1  0.664553  0.957144  0.455783  1
  Si  Si9  1  0.161185  0.541933  0.046561  1
  Si  Si10  1  0.339145  0.043117  0.952939  1
  Si  Si11  1  0.840151  0.460148  0.546293  1
  Si  Si12  1  0.331547  0.039717  0.545774  1
  Si  Si13  1  0.838844  0.457295  0.952595  1
  Si  Si14  1  0.661379  0.957163  0.046266  1
  Si  Si15  1  0.160973  0.545182  0.455638  1
  Si  Si16  1  0.464079  0.370475  0.749790  1
  Si  Si17  1  0.964330  0.126875  0.748187  1
  Si  Si18  1  0.537154  0.629608  0.250352  1
  Si  Si19  1  0.036593  0.871313  0.249925  1
  Si  Si20  1  0.699684  0.865767  0.749054  1
  Si  Si21  1  0.194391  0.635344  0.748422  1
  Si  Si22  1  0.303058  0.134026  0.250550  1
  Si  Si23  1  0.803949  0.366924  0.250751  1
  W  W24  1  0.667320  0.161169  0.625358  1
  W  W25  1  0.166375  0.335426  0.873175  1
  W  W26  1  0.333213  0.837240  0.124914  1
  W  W27  1  0.834633  0.665488  0.376429  1
  W  W28  1  0.333143  0.836639  0.374652  1
  W  W29  1  0.833683  0.664592  0.125758  1
  W  W30  1  0.668038  0.161557  0.874143  1
  W  W31  1  0.167729  0.336544  0.624831  1
  W  W32  1  0.833516  0.501840  0.748380  1
  W  W33  1  0.334299  0.998959  0.747296  1
  W  W34  1  0.166585  0.501718  0.250414  1
  W  W35  1  0.665399  0.999071  0.251748  1
