# generated using pymatgen
data_Os3RuSe8
_symmetry_space_group_name_H-M   'P 1'
_cell_length_a   6.01634692
_cell_length_b   6.01634692
_cell_length_c   6.01634692
_cell_angle_alpha   89.95509668
_cell_angle_beta   90.04490332
_cell_angle_gamma   89.95509668
_symmetry_Int_Tables_number   1
_chemical_formula_structural   Os3RuSe8
_chemical_formula_sum   'Os3 Ru1 Se8'
_cell_volume   217.77008144
_cell_formula_units_Z   1
loop_
 _symmetry_equiv_pos_site_id
 _symmetry_equiv_pos_as_xyz
  1  'x, y, z'
loop_
 _atom_site_type_symbol
 _atom_site_label
 _atom_site_symmetry_multiplicity
 _atom_site_fract_x
 _atom_site_fract_y
 _atom_site_fract_z
 _atom_site_occupancy
  Os  Os0  1  0.500000  0.500000  0.000000  1
  Os  Os1  1  0.500000  0.000000  0.500000  1
  Os  Os2  1  0.000000  0.000000  0.000000  1
  Ru  Ru3  1  0.000000  0.500000  0.500000  1
  Se  Se4  1  0.377698  0.122302  0.877698  1
  Se  Se5  1  0.122289  0.878526  0.378126  1
  Se  Se6  1  0.878126  0.377711  0.121474  1
  Se  Se7  1  0.621474  0.621874  0.622289  1
  Se  Se8  1  0.378526  0.378126  0.377711  1
  Se  Se9  1  0.121874  0.622289  0.878526  1
  Se  Se10  1  0.877711  0.121474  0.621874  1
  Se  Se11  1  0.622302  0.877698  0.122302  1
