# generated using pymatgen
data_Sr6Ca5Y9Sn16
_symmetry_space_group_name_H-M   'P 1'
_cell_length_a   8.11423356
_cell_length_b   8.51989665
_cell_length_c   16.08596100
_cell_angle_alpha   89.95877612
_cell_angle_beta   89.61565900
_cell_angle_gamma   89.96638198
_symmetry_Int_Tables_number   1
_chemical_formula_structural   Sr6Ca5Y9Sn16
_chemical_formula_sum   'Sr6 Ca5 Y9 Sn16'
_cell_volume   1112.03609774
_cell_formula_units_Z   1
loop_
 _symmetry_equiv_pos_site_id
 _symmetry_equiv_pos_as_xyz
  1  'x, y, z'
loop_
 _atom_site_type_symbol
 _atom_site_label
 _atom_site_symmetry_multiplicity
 _atom_site_fract_x
 _atom_site_fract_y
 _atom_site_fract_z
 _atom_site_occupancy
  Sr  Sr0  1  0.506203  0.679632  0.408661  1
  Sr  Sr1  1  0.006723  0.819915  0.091922  1
  Sr  Sr2  1  0.506321  0.680577  0.090192  1
  Sr  Sr3  1  0.005867  0.819984  0.408880  1
  Sr  Sr4  1  0.496020  0.320655  0.593879  1
  Sr  Sr5  1  0.995040  0.178598  0.905368  1
  Ca  Ca6  1  0.327121  0.831247  0.875835  1
  Ca  Ca7  1  0.162970  0.494657  0.750480  1
  Ca  Ca8  1  0.661242  0.007415  0.750979  1
  Ca  Ca9  1  0.835468  0.506286  0.250190  1
  Ca  Ca10  1  0.335277  0.992608  0.249779  1
  Y  Y11  1  0.830770  0.670749  0.625429  1
  Y  Y12  1  0.671320  0.168826  0.378047  1
  Y  Y13  1  0.173569  0.331523  0.122233  1
  Y  Y14  1  0.669379  0.170140  0.121933  1
  Y  Y15  1  0.169484  0.328687  0.377847  1
  Y  Y16  1  0.330112  0.830372  0.623562  1
  Y  Y17  1  0.829474  0.669180  0.875923  1
  Y  Y18  1  0.488010  0.310975  0.902185  1
  Y  Y19  1  0.992982  0.186937  0.598108  1
  Sn  Sn20  1  0.338888  0.050141  0.036683  1
  Sn  Sn21  1  0.837592  0.451821  0.465577  1
  Sn  Sn22  1  0.674763  0.966694  0.544314  1
  Sn  Sn23  1  0.168831  0.529862  0.955890  1
  Sn  Sn24  1  0.662672  0.971835  0.956166  1
  Sn  Sn25  1  0.161352  0.529233  0.544462  1
  Sn  Sn26  1  0.331627  0.041794  0.463527  1
  Sn  Sn27  1  0.833610  0.458661  0.037183  1
  Sn  Sn28  1  0.532213  0.612890  0.751571  1
  Sn  Sn29  1  0.028734  0.886126  0.745836  1
  Sn  Sn30  1  0.469245  0.377004  0.250328  1
  Sn  Sn31  1  0.968435  0.122577  0.249194  1
  Sn  Sn32  1  0.285590  0.133002  0.746054  1
  Sn  Sn33  1  0.787886  0.370189  0.751630  1
  Sn  Sn34  1  0.712312  0.878323  0.250186  1
  Sn  Sn35  1  0.212895  0.620886  0.249968  1
