# generated using pymatgen
data_CeSc8Ru9
_symmetry_space_group_name_H-M   'P 1'
_cell_length_a   7.86344879
_cell_length_b   7.86344880
_cell_length_c   5.55703700
_cell_angle_alpha   90.02570622
_cell_angle_beta   90.02569893
_cell_angle_gamma   119.97347246
_symmetry_Int_Tables_number   1
_chemical_formula_structural   CeSc8Ru9
_chemical_formula_sum   'Ce1 Sc8 Ru9'
_cell_volume   297.65686314
_cell_formula_units_Z   1
loop_
 _symmetry_equiv_pos_site_id
 _symmetry_equiv_pos_as_xyz
  1  'x, y, z'
loop_
 _atom_site_type_symbol
 _atom_site_label
 _atom_site_symmetry_multiplicity
 _atom_site_fract_x
 _atom_site_fract_y
 _atom_site_fract_z
 _atom_site_occupancy
  Ce  Ce0  1  0.667134  0.667134  0.891785  1
  Sc  Sc1  1  0.666360  0.006810  0.230433  1
  Sc  Sc2  1  0.326629  0.326628  0.230198  1
  Sc  Sc3  1  0.006810  0.666361  0.230433  1
  Sc  Sc4  1  0.666679  0.326242  0.553694  1
  Sc  Sc5  1  0.326243  0.666680  0.553694  1
  Sc  Sc6  1  0.007140  0.007140  0.553918  1
  Sc  Sc7  1  0.333075  0.000058  0.892226  1
  Sc  Sc8  1  0.000058  0.333074  0.892226  1
  Ru  Ru9  1  0.666728  0.337498  0.056392  1
  Ru  Ru10  1  0.337499  0.666729  0.056392  1
  Ru  Ru11  1  0.995409  0.995409  0.057121  1
  Ru  Ru12  1  0.333137  0.000049  0.392212  1
  Ru  Ru13  1  0.000049  0.333136  0.392212  1
  Ru  Ru14  1  0.666741  0.666741  0.392207  1
  Ru  Ru15  1  0.666572  0.995805  0.727714  1
  Ru  Ru16  1  0.337933  0.337933  0.727273  1
  Ru  Ru17  1  0.995805  0.666572  0.727714  1
