# generated using pymatgen
data_LaYb2(ZnPd)4
_symmetry_space_group_name_H-M   'P 1'
_cell_length_a   8.14681465
_cell_length_b   8.14681492
_cell_length_c   8.14681466
_cell_angle_alpha   149.97034225
_cell_angle_beta   126.81581445
_cell_angle_gamma   62.28905810
_symmetry_Int_Tables_number   1
_chemical_formula_structural   LaYb2(ZnPd)4
_chemical_formula_sum   'La1 Yb2 Zn4 Pd4'
_cell_volume   214.66892237
_cell_formula_units_Z   1
loop_
 _symmetry_equiv_pos_site_id
 _symmetry_equiv_pos_as_xyz
  1  'x, y, z'
loop_
 _atom_site_type_symbol
 _atom_site_label
 _atom_site_symmetry_multiplicity
 _atom_site_fract_x
 _atom_site_fract_y
 _atom_site_fract_z
 _atom_site_occupancy
  La  La0  1  0.500000  0.000000  0.500000  1
  Yb  Yb1  1  0.871960  0.871960  0.000000  1
  Yb  Yb2  1  0.128040  0.128040  0.000000  1
  Zn  Zn3  1  0.479901  0.675552  0.804349  1
  Zn  Zn4  1  0.871203  0.675552  0.195651  1
  Zn  Zn5  1  0.128797  0.324448  0.804349  1
  Zn  Zn6  1  0.520099  0.324448  0.195651  1
  Pd  Pd7  1  0.280023  0.780023  0.500000  1
  Pd  Pd8  1  0.719977  0.219977  0.500000  1
  Pd  Pd9  1  0.814684  0.500000  0.314684  1
  Pd  Pd10  1  0.185316  0.500000  0.685316  1
