# generated using pymatgen
data_Tb12Th4Mg2CdInRh4
_symmetry_space_group_name_H-M   'P 1'
_cell_length_a   9.80875603
_cell_length_b   9.80875682
_cell_length_c   9.80875600
_cell_angle_alpha   59.95314811
_cell_angle_beta   59.95315217
_cell_angle_gamma   59.95314886
_symmetry_Int_Tables_number   1
_chemical_formula_structural   Tb12Th4Mg2CdInRh4
_chemical_formula_sum   'Tb12 Th4 Mg2 Cd1 In1 Rh4'
_cell_volume   666.59973897
_cell_formula_units_Z   1
loop_
 _symmetry_equiv_pos_site_id
 _symmetry_equiv_pos_as_xyz
  1  'x, y, z'
loop_
 _atom_site_type_symbol
 _atom_site_label
 _atom_site_symmetry_multiplicity
 _atom_site_fract_x
 _atom_site_fract_y
 _atom_site_fract_z
 _atom_site_occupancy
  Tb  Tb0  1  0.811064  0.189353  0.189779  1
  Tb  Tb1  1  0.186597  0.812924  0.812515  1
  Tb  Tb2  1  0.189353  0.811064  0.189779  1
  Tb  Tb3  1  0.812924  0.186597  0.812515  1
  Tb  Tb4  1  0.187691  0.187691  0.813020  1
  Tb  Tb5  1  0.811299  0.811299  0.188417  1
  Tb  Tb6  1  0.936175  0.566041  0.565321  1
  Tb  Tb7  1  0.564302  0.934857  0.935999  1
  Tb  Tb8  1  0.566041  0.936175  0.565321  1
  Tb  Tb9  1  0.934857  0.564302  0.935999  1
  Tb  Tb10  1  0.565254  0.565254  0.935347  1
  Tb  Tb11  1  0.934880  0.934880  0.565366  1
  Th  Th12  1  0.346320  0.346320  0.346712  1
  Th  Th13  1  0.348914  0.348914  0.953869  1
  Th  Th14  1  0.349813  0.952472  0.349696  1
  Th  Th15  1  0.952472  0.349813  0.349696  1
  Mg  Mg16  1  0.578793  0.263096  0.577402  1
  Mg  Mg17  1  0.263096  0.578793  0.577402  1
  Cd  Cd18  1  0.581877  0.581877  0.583066  1
  In  In19  1  0.580552  0.580552  0.254975  1
  Rh  Rh20  1  0.144849  0.144849  0.144296  1
  Rh  Rh21  1  0.143224  0.143224  0.566800  1
  Rh  Rh22  1  0.143481  0.566170  0.143353  1
  Rh  Rh23  1  0.566170  0.143481  0.143353  1
