# generated using pymatgen
data_Y8CuGePd23
_symmetry_space_group_name_H-M   'P 1'
_cell_length_a   8.31092300
_cell_length_b   8.37176900
_cell_length_c   8.41657800
_cell_angle_alpha   90.00000000
_cell_angle_beta   90.00000000
_cell_angle_gamma   90.00000000
_symmetry_Int_Tables_number   1
_chemical_formula_structural   Y8CuGePd23
_chemical_formula_sum   'Y8 Cu1 Ge1 Pd23'
_cell_volume   585.60132090
_cell_formula_units_Z   1
loop_
 _symmetry_equiv_pos_site_id
 _symmetry_equiv_pos_as_xyz
  1  'x, y, z'
loop_
 _atom_site_type_symbol
 _atom_site_label
 _atom_site_symmetry_multiplicity
 _atom_site_fract_x
 _atom_site_fract_y
 _atom_site_fract_z
 _atom_site_occupancy
  Y  Y0  1  0.252800  0.250538  0.256952  1
  Y  Y1  1  0.747020  0.746592  0.747642  1
  Y  Y2  1  0.747020  0.746592  0.252358  1
  Y  Y3  1  0.747020  0.253408  0.747642  1
  Y  Y4  1  0.252800  0.250538  0.743048  1
  Y  Y5  1  0.252800  0.749462  0.256952  1
  Y  Y6  1  0.252800  0.749462  0.743048  1
  Y  Y7  1  0.747020  0.253408  0.252358  1
  Cu  Cu8  1  0.264337  0.500000  0.000000  1
  Ge  Ge9  1  0.997771  0.000000  0.000000  1
  Pd  Pd10  1  0.742179  0.500000  0.000000  1
  Pd  Pd11  1  0.998899  0.258653  0.500000  1
  Pd  Pd12  1  0.493605  0.264480  0.000000  1
  Pd  Pd13  1  0.998899  0.741347  0.500000  1
  Pd  Pd14  1  0.493605  0.735520  0.000000  1
  Pd  Pd15  1  0.500228  0.000000  0.261293  1
  Pd  Pd16  1  0.258268  0.000000  0.500000  1
  Pd  Pd17  1  0.500228  0.000000  0.738707  1
  Pd  Pd18  1  0.740988  0.000000  0.500000  1
  Pd  Pd19  1  0.002513  0.500000  0.260990  1
  Pd  Pd20  1  0.002513  0.500000  0.739010  1
  Pd  Pd21  1  0.252843  0.500000  0.500000  1
  Pd  Pd22  1  0.746831  0.500000  0.500000  1
  Pd  Pd23  1  0.500813  0.253403  0.500000  1
  Pd  Pd24  1  0.500813  0.746597  0.500000  1
  Pd  Pd25  1  0.495793  0.500000  0.251675  1
  Pd  Pd26  1  0.495793  0.500000  0.748325  1
  Pd  Pd27  1  0.289456  0.000000  0.000000  1
  Pd  Pd28  1  0.705929  0.000000  0.000000  1
  Pd  Pd29  1  0.010252  0.293513  0.000000  1
  Pd  Pd30  1  0.010252  0.706487  0.000000  1
  Pd  Pd31  1  0.998956  0.000000  0.287729  1
  Pd  Pd32  1  0.998956  0.000000  0.712271  1
