# generated using pymatgen
data_PrNd7(HoIn5)4
_symmetry_space_group_name_H-M   'P 1'
_cell_length_a   6.67217156
_cell_length_b   10.55421648
_cell_length_c   12.44630400
_cell_angle_alpha   90.00602587
_cell_angle_beta   89.97661685
_cell_angle_gamma   89.98372176
_symmetry_Int_Tables_number   1
_chemical_formula_structural   PrNd7(HoIn5)4
_chemical_formula_sum   'Pr1 Nd7 Ho4 In20'
_cell_volume   876.46292674
_cell_formula_units_Z   1
loop_
 _symmetry_equiv_pos_site_id
 _symmetry_equiv_pos_as_xyz
  1  'x, y, z'
loop_
 _atom_site_type_symbol
 _atom_site_label
 _atom_site_symmetry_multiplicity
 _atom_site_fract_x
 _atom_site_fract_y
 _atom_site_fract_z
 _atom_site_occupancy
  Pr  Pr0  1  0.611320  0.489759  0.643681  1
  Nd  Nd1  1  0.888917  0.489809  0.143752  1
  Nd  Nd2  1  0.611204  0.010241  0.643712  1
  Nd  Nd3  1  0.111220  0.989785  0.856289  1
  Nd  Nd4  1  0.388660  0.510223  0.355997  1
  Nd  Nd5  1  0.111235  0.510174  0.856380  1
  Nd  Nd6  1  0.388750  0.989820  0.356234  1
  Nd  Nd7  1  0.888820  0.010243  0.143754  1
  Ho  Ho8  1  0.349391  0.750048  0.059633  1
  Ho  Ho9  1  0.150357  0.749974  0.559554  1
  Ho  Ho10  1  0.650577  0.250024  0.940442  1
  Ho  Ho11  1  0.849493  0.249833  0.440257  1
  In  In12  1  0.616414  0.750518  0.503368  1
  In  In13  1  0.883647  0.750044  0.003951  1
  In  In14  1  0.383122  0.249870  0.495988  1
  In  In15  1  0.116331  0.250012  0.996124  1
  In  In16  1  0.654256  0.750042  0.243409  1
  In  In17  1  0.846079  0.750493  0.743760  1
  In  In18  1  0.345510  0.249618  0.756703  1
  In  In19  1  0.154361  0.249960  0.256468  1
  In  In20  1  0.111405  0.750064  0.284026  1
  In  In21  1  0.388538  0.750136  0.784238  1
  In  In22  1  0.889326  0.249323  0.716180  1
  In  In23  1  0.611412  0.249990  0.215936  1
  In  In24  1  0.874120  0.544967  0.403956  1
  In  In25  1  0.626097  0.955178  0.904205  1
  In  In26  1  0.126109  0.044748  0.595740  1
  In  In27  1  0.373914  0.455091  0.095851  1
  In  In28  1  0.125400  0.454845  0.595587  1
  In  In29  1  0.373854  0.044853  0.095801  1
  In  In30  1  0.874017  0.955149  0.404151  1
  In  In31  1  0.626142  0.545168  0.904873  1
