# generated using pymatgen
data_Yb5Gd3(Si3Pt)4
_symmetry_space_group_name_H-M   'P 1'
_cell_length_a   8.19869500
_cell_length_b   8.19869620
_cell_length_c   8.18429400
_cell_angle_alpha   90.00000000
_cell_angle_beta   90.00000000
_cell_angle_gamma   120.08004877
_symmetry_Int_Tables_number   1
_chemical_formula_structural   Yb5Gd3(Si3Pt)4
_chemical_formula_sum   'Yb5 Gd3 Si12 Pt4'
_cell_volume   476.04773171
_cell_formula_units_Z   1
loop_
 _symmetry_equiv_pos_site_id
 _symmetry_equiv_pos_as_xyz
  1  'x, y, z'
loop_
 _atom_site_type_symbol
 _atom_site_label
 _atom_site_symmetry_multiplicity
 _atom_site_fract_x
 _atom_site_fract_y
 _atom_site_fract_z
 _atom_site_occupancy
  Yb  Yb0  1  0.001827  0.500900  0.250000  1
  Yb  Yb1  1  0.499069  0.500931  0.250000  1
  Yb  Yb2  1  0.500915  0.001753  0.750000  1
  Yb  Yb3  1  0.499100  0.998173  0.250000  1
  Yb  Yb4  1  0.998247  0.499085  0.750000  1
  Gd  Gd5  1  0.000007  0.999993  0.250000  1
  Gd  Gd6  1  0.999999  0.000001  0.750000  1
  Gd  Gd7  1  0.500831  0.499169  0.750000  1
  Si  Si8  1  0.164764  0.329349  0.998699  1
  Si  Si9  1  0.670651  0.835236  0.998699  1
  Si  Si10  1  0.164764  0.329349  0.501301  1
  Si  Si11  1  0.329341  0.164762  0.000400  1
  Si  Si12  1  0.165087  0.834913  0.998803  1
  Si  Si13  1  0.670651  0.835236  0.501301  1
  Si  Si14  1  0.835238  0.670659  0.000400  1
  Si  Si15  1  0.329341  0.164762  0.499600  1
  Si  Si16  1  0.165087  0.834913  0.501197  1
  Si  Si17  1  0.835238  0.670659  0.499600  1
  Si  Si18  1  0.834928  0.165072  0.000566  1
  Si  Si19  1  0.834928  0.165072  0.499434  1
  Pt  Pt20  1  0.333514  0.666486  0.997825  1
  Pt  Pt21  1  0.333514  0.666486  0.502175  1
  Pt  Pt22  1  0.666480  0.333520  0.000589  1
  Pt  Pt23  1  0.666480  0.333520  0.499411  1
