# generated using pymatgen
data_Dy16Lu3MgRh12
_symmetry_space_group_name_H-M   'P 1'
_cell_length_a   10.82473900
_cell_length_b   10.82473900
_cell_length_c   6.29290200
_cell_angle_alpha   90.00000000
_cell_angle_beta   90.00000000
_cell_angle_gamma   90.00000000
_symmetry_Int_Tables_number   1
_chemical_formula_structural   Dy16Lu3MgRh12
_chemical_formula_sum   'Dy16 Lu3 Mg1 Rh12'
_cell_volume   737.37063087
_cell_formula_units_Z   1
loop_
 _symmetry_equiv_pos_site_id
 _symmetry_equiv_pos_as_xyz
  1  'x, y, z'
loop_
 _atom_site_type_symbol
 _atom_site_label
 _atom_site_symmetry_multiplicity
 _atom_site_fract_x
 _atom_site_fract_y
 _atom_site_fract_z
 _atom_site_occupancy
  Dy  Dy0  1  0.283100  0.084960  0.379835  1
  Dy  Dy1  1  0.289499  0.911591  0.880314  1
  Dy  Dy2  1  0.710501  0.088409  0.880314  1
  Dy  Dy3  1  0.716900  0.915040  0.379835  1
  Dy  Dy4  1  0.589264  0.790738  0.881200  1
  Dy  Dy5  1  0.587594  0.209266  0.378836  1
  Dy  Dy6  1  0.412406  0.790734  0.378836  1
  Dy  Dy7  1  0.410736  0.209262  0.881200  1
  Dy  Dy8  1  0.209266  0.412406  0.621164  1
  Dy  Dy9  1  0.209262  0.589264  0.118800  1
  Dy  Dy10  1  0.790738  0.410736  0.118800  1
  Dy  Dy11  1  0.790734  0.587594  0.621164  1
  Dy  Dy12  1  0.911591  0.710501  0.119686  1
  Dy  Dy13  1  0.915040  0.283100  0.620165  1
  Dy  Dy14  1  0.084960  0.716900  0.620165  1
  Dy  Dy15  1  0.088409  0.289499  0.119686  1
  Lu  Lu16  1  0.000000  0.000000  0.000000  1
  Lu  Lu17  1  0.500000  0.500000  0.000000  1
  Lu  Lu18  1  0.500000  0.500000  0.500000  1
  Mg  Mg19  1  0.000000  0.000000  0.500000  1
  Rh  Rh20  1  0.847900  0.153067  0.246474  1
  Rh  Rh21  1  0.846933  0.847900  0.753526  1
  Rh  Rh22  1  0.153067  0.152100  0.753526  1
  Rh  Rh23  1  0.152100  0.846933  0.246474  1
  Rh  Rh24  1  0.652683  0.347826  0.748139  1
  Rh  Rh25  1  0.652174  0.652683  0.251861  1
  Rh  Rh26  1  0.347826  0.347317  0.251861  1
  Rh  Rh27  1  0.347317  0.652174  0.748139  1
  Rh  Rh28  1  0.500000  0.000000  0.125307  1
  Rh  Rh29  1  0.500000  0.000000  0.621625  1
  Rh  Rh30  1  0.000000  0.500000  0.874693  1
  Rh  Rh31  1  0.000000  0.500000  0.378375  1
