# generated using pymatgen
data_Lu4Al6IrRu
_symmetry_space_group_name_H-M   'P 1'
_cell_length_a   5.43388700
_cell_length_b   5.43388932
_cell_length_c   8.71023900
_cell_angle_alpha   90.00000000
_cell_angle_beta   90.00000000
_cell_angle_gamma   120.00000412
_symmetry_Int_Tables_number   1
_chemical_formula_structural   Lu4Al6IrRu
_chemical_formula_sum   'Lu4 Al6 Ir1 Ru1'
_cell_volume   222.73172306
_cell_formula_units_Z   1
loop_
 _symmetry_equiv_pos_site_id
 _symmetry_equiv_pos_as_xyz
  1  'x, y, z'
loop_
 _atom_site_type_symbol
 _atom_site_label
 _atom_site_symmetry_multiplicity
 _atom_site_fract_x
 _atom_site_fract_y
 _atom_site_fract_z
 _atom_site_occupancy
  Lu  Lu0  1  0.333333  0.666667  0.057227  1
  Lu  Lu1  1  0.666667  0.333333  0.554269  1
  Lu  Lu2  1  0.333333  0.666667  0.445731  1
  Lu  Lu3  1  0.666667  0.333333  0.942773  1
  Al  Al4  1  0.835812  0.671624  0.250255  1
  Al  Al5  1  0.164188  0.835812  0.749745  1
  Al  Al6  1  0.671624  0.835812  0.749745  1
  Al  Al7  1  0.328376  0.164188  0.250255  1
  Al  Al8  1  0.835812  0.164188  0.250255  1
  Al  Al9  1  0.164188  0.328376  0.749745  1
  Ir  Ir10  1  0.000000  0.000000  0.500000  1
  Ru  Ru11  1  0.000000  0.000000  0.000000  1
