# generated using pymatgen
data_Li4AcTh3Si8
_symmetry_space_group_name_H-M   'P 1'
_cell_length_a   3.90561800
_cell_length_b   7.83945457
_cell_length_c   10.59021809
_cell_angle_alpha   89.58146652
_cell_angle_beta   90.00000000
_cell_angle_gamma   90.00000000
_symmetry_Int_Tables_number   1
_chemical_formula_structural   Li4AcTh3Si8
_chemical_formula_sum   'Li4 Ac1 Th3 Si8'
_cell_volume   324.24174519
_cell_formula_units_Z   1
loop_
 _symmetry_equiv_pos_site_id
 _symmetry_equiv_pos_as_xyz
  1  'x, y, z'
loop_
 _atom_site_type_symbol
 _atom_site_label
 _atom_site_symmetry_multiplicity
 _atom_site_fract_x
 _atom_site_fract_y
 _atom_site_fract_z
 _atom_site_occupancy
  Li  Li0  1  0.250000  0.996461  0.394528  1
  Li  Li1  1  0.750000  0.010319  0.608240  1
  Li  Li2  1  0.250000  0.488467  0.105099  1
  Li  Li3  1  0.750000  0.508431  0.897174  1
  Ac  Ac4  1  0.750000  0.360709  0.362538  1
  Th  Th5  1  0.250000  0.131063  0.862750  1
  Th  Th6  1  0.750000  0.860304  0.132758  1
  Th  Th7  1  0.250000  0.638934  0.638489  1
  Si  Si8  1  0.750000  0.258540  0.062265  1
  Si  Si9  1  0.250000  0.730342  0.929653  1
  Si  Si10  1  0.750000  0.778197  0.431230  1
  Si  Si11  1  0.250000  0.234877  0.579390  1
  Si  Si12  1  0.750000  0.834229  0.816419  1
  Si  Si13  1  0.250000  0.155187  0.172536  1
  Si  Si14  1  0.750000  0.338614  0.689328  1
  Si  Si15  1  0.250000  0.675327  0.317604  1
