# generated using pymatgen
data_Li2Mg2Ta5(NbN4)3
_symmetry_space_group_name_H-M   'P 1'
_cell_length_a   5.25546520
_cell_length_b   5.25296100
_cell_length_c   10.40117700
_cell_angle_alpha   90.00000000
_cell_angle_beta   90.00000000
_cell_angle_gamma   120.04756972
_symmetry_Int_Tables_number   1
_chemical_formula_structural   Li2Mg2Ta5(NbN4)3
_chemical_formula_sum   'Li2 Mg2 Ta5 Nb3 N12'
_cell_volume   248.55361505
_cell_formula_units_Z   1
loop_
 _symmetry_equiv_pos_site_id
 _symmetry_equiv_pos_as_xyz
  1  'x, y, z'
loop_
 _atom_site_type_symbol
 _atom_site_label
 _atom_site_symmetry_multiplicity
 _atom_site_fract_x
 _atom_site_fract_y
 _atom_site_fract_z
 _atom_site_occupancy
  Li  Li0  1  0.333347  0.666542  0.999860  1
  Li  Li1  1  0.333347  0.666542  0.500140  1
  Mg  Mg2  1  0.666616  0.332737  0.500050  1
  Mg  Mg3  1  0.666616  0.332737  0.999950  1
  Ta  Ta4  1  0.000001  0.002227  0.500500  1
  Ta  Ta5  1  0.000001  0.002227  0.999500  1
  Ta  Ta6  1  0.652522  0.656419  0.250000  1
  Ta  Ta7  1  0.342655  0.994643  0.250000  1
  Ta  Ta8  1  0.004140  0.657057  0.750000  1
  Nb  Nb9  1  0.004413  0.346896  0.250000  1
  Nb  Nb10  1  0.653548  0.995363  0.750000  1
  Nb  Nb11  1  0.342702  0.345977  0.750000  1
  N  N12  1  0.680710  0.673682  0.622030  1
  N  N13  1  0.680710  0.673682  0.877970  1
  N  N14  1  0.330528  0.323273  0.122365  1
  N  N15  1  0.330528  0.323273  0.377635  1
  N  N16  1  0.322581  0.998849  0.878177  1
  N  N17  1  0.322581  0.998849  0.621823  1
  N  N18  1  0.996530  0.677689  0.377093  1
  N  N19  1  0.996530  0.677689  0.122907  1
  N  N20  1  0.672186  0.998839  0.122147  1
  N  N21  1  0.672186  0.998839  0.377853  1
  N  N22  1  0.997512  0.327983  0.878715  1
  N  N23  1  0.997512  0.327983  0.621285  1
