# generated using pymatgen
data_Hf5Zr5AlSiSn6
_symmetry_space_group_name_H-M   'P 1'
_cell_length_a   8.68137107
_cell_length_b   8.68137149
_cell_length_c   5.88375619
_cell_angle_alpha   89.98562193
_cell_angle_beta   89.98561979
_cell_angle_gamma   120.00227792
_symmetry_Int_Tables_number   1
_chemical_formula_structural   Hf5Zr5AlSiSn6
_chemical_formula_sum   'Hf5 Zr5 Al1 Si1 Sn6'
_cell_volume   384.01831385
_cell_formula_units_Z   1
loop_
 _symmetry_equiv_pos_site_id
 _symmetry_equiv_pos_as_xyz
  1  'x, y, z'
loop_
 _atom_site_type_symbol
 _atom_site_label
 _atom_site_symmetry_multiplicity
 _atom_site_fract_x
 _atom_site_fract_y
 _atom_site_fract_z
 _atom_site_occupancy
  Hf  Hf0  1  0.666706  0.333472  0.999846  1
  Hf  Hf1  1  0.333472  0.666706  0.999846  1
  Hf  Hf2  1  0.333639  0.666777  0.500211  1
  Hf  Hf3  1  0.666777  0.333639  0.500211  1
  Hf  Hf4  1  0.734973  0.734973  0.739889  1
  Zr  Zr5  1  0.264857  0.000180  0.740747  1
  Zr  Zr6  1  0.000180  0.264857  0.740747  1
  Zr  Zr7  1  0.264567  0.264567  0.259266  1
  Zr  Zr8  1  0.735483  0.999715  0.259396  1
  Zr  Zr9  1  0.999715  0.735483  0.259396  1
  Al  Al10  1  0.999840  0.999840  0.999718  1
  Si  Si11  1  0.999517  0.999517  0.500667  1
  Sn  Sn12  1  0.390564  0.390564  0.754065  1
  Sn  Sn13  1  0.610127  0.999634  0.754044  1
  Sn  Sn14  1  0.999634  0.610127  0.754044  1
  Sn  Sn15  1  0.609889  0.609889  0.246058  1
  Sn  Sn16  1  0.390058  0.000002  0.245925  1
  Sn  Sn17  1  0.000002  0.390058  0.245925  1
