# generated using pymatgen
data_PrDy7(PCl6)2
_symmetry_space_group_name_H-M   'P 1'
_cell_length_a   3.90056500
_cell_length_b   12.80315025
_cell_length_c   13.50353400
_cell_angle_alpha   90.02535162
_cell_angle_beta   90.00000000
_cell_angle_gamma   90.00000000
_symmetry_Int_Tables_number   1
_chemical_formula_structural   PrDy7(PCl6)2
_chemical_formula_sum   'Pr1 Dy7 P2 Cl12'
_cell_volume   674.35993711
_cell_formula_units_Z   1
loop_
 _symmetry_equiv_pos_site_id
 _symmetry_equiv_pos_as_xyz
  1  'x, y, z'
loop_
 _atom_site_type_symbol
 _atom_site_label
 _atom_site_symmetry_multiplicity
 _atom_site_fract_x
 _atom_site_fract_y
 _atom_site_fract_z
 _atom_site_occupancy
  Pr  Pr0  1  0.000000  0.377725  0.081664  1
  Dy  Dy1  1  0.500000  0.118119  0.340906  1
  Dy  Dy2  1  0.500000  0.880631  0.660341  1
  Dy  Dy3  1  0.500000  0.620620  0.160344  1
  Dy  Dy4  1  0.500000  0.381006  0.838664  1
  Dy  Dy5  1  0.000000  0.118640  0.579572  1
  Dy  Dy6  1  0.000000  0.880889  0.421294  1
  Dy  Dy7  1  0.000000  0.621704  0.918977  1
  P  P8  1  0.500000  0.999479  0.500876  1
  P  P9  1  0.500000  0.505392  0.996478  1
  Cl  Cl10  1  0.500000  0.233234  0.170393  1
  Cl  Cl11  1  0.500000  0.757063  0.833302  1
  Cl  Cl12  1  0.500000  0.746264  0.334547  1
  Cl  Cl13  1  0.500000  0.254856  0.664681  1
  Cl  Cl14  1  0.000000  0.248562  0.412252  1
  Cl  Cl15  1  0.000000  0.750856  0.588514  1
  Cl  Cl16  1  0.000000  0.750303  0.088436  1
  Cl  Cl17  1  0.000000  0.248077  0.903057  1
  Cl  Cl18  1  0.000000  0.002215  0.249645  1
  Cl  Cl19  1  0.000000  0.996293  0.751410  1
  Cl  Cl20  1  0.000000  0.511359  0.257214  1
  Cl  Cl21  1  0.000000  0.496714  0.747433  1
