# generated using pymatgen
data_CaYbLu2(Ga2Ag)4
_symmetry_space_group_name_H-M   'P 1'
_cell_length_a   4.32434500
_cell_length_b   6.94916439
_cell_length_c   10.38343057
_cell_angle_alpha   89.94958771
_cell_angle_beta   90.00000000
_cell_angle_gamma   90.00000000
_symmetry_Int_Tables_number   1
_chemical_formula_structural   CaYbLu2(Ga2Ag)4
_chemical_formula_sum   'Ca1 Yb1 Lu2 Ga8 Ag4'
_cell_volume   312.02803471
_cell_formula_units_Z   1
loop_
 _symmetry_equiv_pos_site_id
 _symmetry_equiv_pos_as_xyz
  1  'x, y, z'
loop_
 _atom_site_type_symbol
 _atom_site_label
 _atom_site_symmetry_multiplicity
 _atom_site_fract_x
 _atom_site_fract_y
 _atom_site_fract_z
 _atom_site_occupancy
  Ca  Ca0  1  0.250000  0.773619  0.825822  1
  Yb  Yb1  1  0.250000  0.273581  0.672762  1
  Lu  Lu2  1  0.750000  0.224262  0.172429  1
  Lu  Lu3  1  0.750000  0.724141  0.328460  1
  Ga  Ga4  1  0.250000  0.703054  0.531331  1
  Ga  Ga5  1  0.750000  0.298689  0.463092  1
  Ga  Ga6  1  0.750000  0.797029  0.038470  1
  Ga  Ga7  1  0.250000  0.201694  0.968415  1
  Ga  Ga8  1  0.250000  0.928704  0.158107  1
  Ga  Ga9  1  0.750000  0.073185  0.850167  1
  Ga  Ga10  1  0.750000  0.570220  0.648346  1
  Ga  Ga11  1  0.250000  0.429153  0.342871  1
  Ag  Ag12  1  0.250000  0.543117  0.099631  1
  Ag  Ag13  1  0.750000  0.455575  0.902358  1
  Ag  Ag14  1  0.750000  0.958688  0.596795  1
  Ag  Ag15  1  0.250000  0.045288  0.400946  1
