# generated using pymatgen
data_CsLuSe2O7
_symmetry_space_group_name_H-M   'P 1'
_cell_length_a   5.78830715
_cell_length_b   5.78830629
_cell_length_c   15.49304590
_cell_angle_alpha   79.23369970
_cell_angle_beta   100.76629840
_cell_angle_gamma   120.00000087
_symmetry_Int_Tables_number   1
_chemical_formula_structural   CsLuSe2O7
_chemical_formula_sum   'Cs2 Lu2 Se4 O14'
_cell_volume   438.95966451
_cell_formula_units_Z   2
loop_
 _symmetry_equiv_pos_site_id
 _symmetry_equiv_pos_as_xyz
  1  'x, y, z'
loop_
 _atom_site_type_symbol
 _atom_site_label
 _atom_site_symmetry_multiplicity
 _atom_site_fract_x
 _atom_site_fract_y
 _atom_site_fract_z
 _atom_site_occupancy
  Cs  Cs0  1  0.000000  0.000000  0.000000  1
  Cs  Cs1  1  0.499999  0.500000  0.500000  1
  Lu  Lu2  1  0.096697  0.903304  0.290091  1
  Lu  Lu3  1  0.903303  0.096697  0.709909  1
  Se  Se4  1  0.386786  0.613213  0.160359  1
  Se  Se5  1  0.772785  0.227215  0.318356  1
  Se  Se6  1  0.227215  0.772786  0.681645  1
  Se  Se7  1  0.613212  0.386787  0.839641  1
  O  O8  1  0.350620  0.649379  0.051864  1
  O  O9  1  0.713646  0.757240  0.199165  1
  O  O10  1  0.242760  0.286353  0.199165  1
  O  O11  1  0.242760  0.757240  0.199165  1
  O  O12  1  0.943855  0.056144  0.369656  1
  O  O13  1  0.943855  0.518056  0.369656  1
  O  O14  1  0.481942  0.056143  0.369656  1
  O  O15  1  0.518057  0.943857  0.630344  1
  O  O16  1  0.056143  0.481942  0.630344  1
  O  O17  1  0.056143  0.943856  0.630344  1
  O  O18  1  0.757241  0.242760  0.800835  1
  O  O19  1  0.757241  0.713646  0.800835  1
  O  O20  1  0.286354  0.242761  0.800835  1
  O  O21  1  0.649378  0.350621  0.948136  1
