# generated using pymatgen
data_Dy4Ga3As3Ir7
_symmetry_space_group_name_H-M   'P 1'
_cell_length_a   7.28544145
_cell_length_b   7.28544212
_cell_length_c   7.32388600
_cell_angle_alpha   109.57814610
_cell_angle_beta   109.57814798
_cell_angle_gamma   109.36408795
_symmetry_Int_Tables_number   1
_chemical_formula_structural   Dy4Ga3As3Ir7
_chemical_formula_sum   'Dy4 Ga3 As3 Ir7'
_cell_volume   298.85232481
_cell_formula_units_Z   1
loop_
 _symmetry_equiv_pos_site_id
 _symmetry_equiv_pos_as_xyz
  1  'x, y, z'
loop_
 _atom_site_type_symbol
 _atom_site_label
 _atom_site_symmetry_multiplicity
 _atom_site_fract_x
 _atom_site_fract_y
 _atom_site_fract_z
 _atom_site_occupancy
  Dy  Dy0  1  0.000000  0.000000  0.525949  1
  Dy  Dy1  1  0.000000  0.490337  0.003052  1
  Dy  Dy2  1  0.490337  0.000000  0.003052  1
  Dy  Dy3  1  0.509663  0.509663  0.512715  1
  Ga  Ga4  1  0.703595  0.703595  0.013995  1
  Ga  Ga5  1  0.296405  0.000000  0.310399  1
  Ga  Ga6  1  0.000000  0.296405  0.310399  1
  As  As7  1  0.335329  0.335329  0.008894  1
  As  As8  1  0.664671  0.000000  0.673565  1
  As  As9  1  0.000000  0.664671  0.673565  1
  Ir  Ir10  1  0.743170  0.243445  0.493783  1
  Ir  Ir11  1  0.756555  0.499725  0.250338  1
  Ir  Ir12  1  0.500275  0.256830  0.750613  1
  Ir  Ir13  1  0.256830  0.500275  0.750613  1
  Ir  Ir14  1  0.243445  0.743170  0.493783  1
  Ir  Ir15  1  0.499725  0.756555  0.250338  1
  Ir  Ir16  1  0.000000  0.000000  0.974949  1
