# generated using pymatgen
data_Nd7ErSc11Si16W
_symmetry_space_group_name_H-M   'P 1'
_cell_length_a   7.19282935
_cell_length_b   7.42938680
_cell_length_c   14.07110071
_cell_angle_alpha   90.12655649
_cell_angle_beta   89.72401022
_cell_angle_gamma   89.70456309
_symmetry_Int_Tables_number   1
_chemical_formula_structural   Nd7ErSc11Si16W
_chemical_formula_sum   'Nd7 Er1 Sc11 Si16 W1'
_cell_volume   751.91526705
_cell_formula_units_Z   1
loop_
 _symmetry_equiv_pos_site_id
 _symmetry_equiv_pos_as_xyz
  1  'x, y, z'
loop_
 _atom_site_type_symbol
 _atom_site_label
 _atom_site_symmetry_multiplicity
 _atom_site_fract_x
 _atom_site_fract_y
 _atom_site_fract_z
 _atom_site_occupancy
  Nd  Nd0  1  0.011564  0.171381  0.097178  1
  Nd  Nd1  1  0.989759  0.827817  0.897252  1
  Nd  Nd2  1  0.487260  0.673900  0.898539  1
  Nd  Nd3  1  0.992475  0.829879  0.595857  1
  Nd  Nd4  1  0.513129  0.326965  0.096728  1
  Nd  Nd5  1  0.011885  0.173358  0.404581  1
  Nd  Nd6  1  0.507291  0.326816  0.410118  1
  Er  Er7  1  0.488450  0.675792  0.598436  1
  Sc  Sc8  1  0.164174  0.491680  0.743944  1
  Sc  Sc9  1  0.838086  0.500278  0.252409  1
  Sc  Sc10  1  0.337629  0.000042  0.251808  1
  Sc  Sc11  1  0.657166  0.003840  0.746844  1
  Sc  Sc12  1  0.663549  0.825484  0.379221  1
  Sc  Sc13  1  0.169076  0.676202  0.378746  1
  Sc  Sc14  1  0.668898  0.824570  0.124897  1
  Sc  Sc15  1  0.832361  0.326030  0.623494  1
  Sc  Sc16  1  0.333447  0.176531  0.873894  1
  Sc  Sc17  1  0.829408  0.323692  0.870038  1
  Sc  Sc18  1  0.169988  0.676147  0.125921  1
  Si  Si19  1  0.045024  0.125770  0.743756  1
  Si  Si20  1  0.962864  0.877907  0.252348  1
  Si  Si21  1  0.465382  0.624541  0.251395  1
  Si  Si22  1  0.530059  0.370885  0.743731  1
  Si  Si23  1  0.291278  0.887216  0.744262  1
  Si  Si24  1  0.709595  0.119262  0.251258  1
  Si  Si25  1  0.213194  0.380313  0.251133  1
  Si  Si26  1  0.783171  0.618975  0.744745  1
  Si  Si27  1  0.178360  0.451729  0.544137  1
  Si  Si28  1  0.843284  0.535262  0.460388  1
  Si  Si29  1  0.338564  0.965224  0.473095  1
  Si  Si30  1  0.848907  0.537546  0.038610  1
  Si  Si31  1  0.639879  0.034171  0.547647  1
  Si  Si32  1  0.149714  0.464226  0.958443  1
  Si  Si33  1  0.656557  0.037872  0.957879  1
  Si  Si34  1  0.346291  0.961770  0.038635  1
  W  W35  1  0.332283  0.176929  0.628633  1
