# generated using pymatgen
data_ZnGa9Pd2
_symmetry_space_group_name_H-M   'P 1'
_cell_length_a   6.84620792
_cell_length_b   6.84620819
_cell_length_c   6.84620769
_cell_angle_alpha   123.78065840
_cell_angle_beta   123.78065787
_cell_angle_gamma   83.56764581
_symmetry_Int_Tables_number   1
_chemical_formula_structural   ZnGa9Pd2
_chemical_formula_sum   'Zn1 Ga9 Pd2'
_cell_volume   212.46713431
_cell_formula_units_Z   1
loop_
 _symmetry_equiv_pos_site_id
 _symmetry_equiv_pos_as_xyz
  1  'x, y, z'
loop_
 _atom_site_type_symbol
 _atom_site_label
 _atom_site_symmetry_multiplicity
 _atom_site_fract_x
 _atom_site_fract_y
 _atom_site_fract_z
 _atom_site_occupancy
  Zn  Zn0  1  0.000000  0.000000  0.000000  1
  Ga  Ga1  1  0.500000  0.500000  0.000000  1
  Ga  Ga2  1  0.786506  0.279563  0.793308  1
  Ga  Ga3  1  0.279563  0.486256  0.493057  1
  Ga  Ga4  1  0.993199  0.786506  0.506943  1
  Ga  Ga5  1  0.720437  0.513744  0.506943  1
  Ga  Ga6  1  0.006801  0.213494  0.493057  1
  Ga  Ga7  1  0.513744  0.006801  0.793308  1
  Ga  Ga8  1  0.213494  0.720437  0.206692  1
  Ga  Ga9  1  0.486256  0.993199  0.206692  1
  Pd  Pd10  1  0.251613  0.251613  0.000000  1
  Pd  Pd11  1  0.748387  0.748387  0.000000  1
