# generated using pymatgen
data_Ba2ScCoO5
_symmetry_space_group_name_H-M   'P 1'
_cell_length_a   5.97289900
_cell_length_b   6.07418300
_cell_length_c   15.68379400
_cell_angle_alpha   90.00000000
_cell_angle_beta   90.00000000
_cell_angle_gamma   90.00000000
_symmetry_Int_Tables_number   1
_chemical_formula_structural   Ba2ScCoO5
_chemical_formula_sum   'Ba8 Sc4 Co4 O20'
_cell_volume   569.01559911
_cell_formula_units_Z   4
loop_
 _symmetry_equiv_pos_site_id
 _symmetry_equiv_pos_as_xyz
  1  'x, y, z'
loop_
 _atom_site_type_symbol
 _atom_site_label
 _atom_site_symmetry_multiplicity
 _atom_site_fract_x
 _atom_site_fract_y
 _atom_site_fract_z
 _atom_site_occupancy
  Ba  Ba0  1  0.001767  0.501105  0.118989  1
  Ba  Ba1  1  0.001767  0.501105  0.381011  1
  Ba  Ba2  1  0.501767  0.998895  0.118989  1
  Ba  Ba3  1  0.501767  0.998895  0.381011  1
  Ba  Ba4  1  0.498233  0.001105  0.618989  1
  Ba  Ba5  1  0.498233  0.001105  0.881011  1
  Ba  Ba6  1  0.998233  0.498895  0.618989  1
  Ba  Ba7  1  0.998233  0.498895  0.881011  1
  Sc  Sc8  1  0.500000  0.500000  0.000000  1
  Sc  Sc9  1  0.500000  0.500000  0.500000  1
  Sc  Sc10  1  0.000000  0.000000  0.500000  1
  Sc  Sc11  1  0.000000  0.000000  0.000000  1
  Co  Co12  1  0.492709  0.556144  0.750000  1
  Co  Co13  1  0.992709  0.943856  0.750000  1
  Co  Co14  1  0.007291  0.056144  0.250000  1
  Co  Co15  1  0.507291  0.443856  0.250000  1
  O  O16  1  0.492361  0.556139  0.141978  1
  O  O17  1  0.492361  0.556139  0.358022  1
  O  O18  1  0.211423  0.708593  0.750000  1
  O  O19  1  0.251710  0.751840  0.509442  1
  O  O20  1  0.251710  0.751840  0.990558  1
  O  O21  1  0.751710  0.748160  0.509442  1
  O  O22  1  0.751710  0.748160  0.990558  1
  O  O23  1  0.711423  0.791407  0.750000  1
  O  O24  1  0.992361  0.943861  0.141978  1
  O  O25  1  0.992361  0.943861  0.358022  1
  O  O26  1  0.007639  0.056139  0.641978  1
  O  O27  1  0.007639  0.056139  0.858022  1
  O  O28  1  0.288577  0.208593  0.250000  1
  O  O29  1  0.248290  0.251840  0.009442  1
  O  O30  1  0.248290  0.251840  0.490558  1
  O  O31  1  0.748290  0.248160  0.009442  1
  O  O32  1  0.748290  0.248160  0.490558  1
  O  O33  1  0.788577  0.291407  0.250000  1
  O  O34  1  0.507639  0.443861  0.641978  1
  O  O35  1  0.507639  0.443861  0.858022  1
