# generated using pymatgen
data_Tb4Dy4Sc12Si15Bi
_symmetry_space_group_name_H-M   'P 1'
_cell_length_a   7.18135415
_cell_length_b   7.43170487
_cell_length_c   14.09866657
_cell_angle_alpha   90.09453008
_cell_angle_beta   88.87253713
_cell_angle_gamma   90.20225011
_symmetry_Int_Tables_number   1
_chemical_formula_structural   Tb4Dy4Sc12Si15Bi
_chemical_formula_sum   'Tb4 Dy4 Sc12 Si15 Bi1'
_cell_volume   752.29036712
_cell_formula_units_Z   1
loop_
 _symmetry_equiv_pos_site_id
 _symmetry_equiv_pos_as_xyz
  1  'x, y, z'
loop_
 _atom_site_type_symbol
 _atom_site_label
 _atom_site_symmetry_multiplicity
 _atom_site_fract_x
 _atom_site_fract_y
 _atom_site_fract_z
 _atom_site_occupancy
  Tb  Tb0  1  0.012587  0.176451  0.096725  1
  Tb  Tb1  1  0.987759  0.825108  0.904011  1
  Tb  Tb2  1  0.488469  0.675386  0.903951  1
  Tb  Tb3  1  0.991634  0.831406  0.598420  1
  Dy  Dy4  1  0.512215  0.324470  0.097522  1
  Dy  Dy5  1  0.001100  0.169783  0.398703  1
  Dy  Dy6  1  0.512278  0.318196  0.397549  1
  Dy  Dy7  1  0.510542  0.685808  0.601275  1
  Sc  Sc8  1  0.163328  0.500826  0.756253  1
  Sc  Sc9  1  0.835922  0.498910  0.251369  1
  Sc  Sc10  1  0.336269  0.001645  0.250000  1
  Sc  Sc11  1  0.665467  0.999066  0.751420  1
  Sc  Sc12  1  0.347436  0.156235  0.632038  1
  Sc  Sc13  1  0.660254  0.827053  0.372291  1
  Sc  Sc14  1  0.156317  0.683280  0.369218  1
  Sc  Sc15  1  0.667968  0.822963  0.123955  1
  Sc  Sc16  1  0.825019  0.326086  0.625766  1
  Sc  Sc17  1  0.330186  0.175295  0.875383  1
  Sc  Sc18  1  0.830824  0.323653  0.875700  1
  Sc  Sc19  1  0.169114  0.676403  0.124844  1
  Si  Si20  1  0.035210  0.120246  0.751010  1
  Si  Si21  1  0.962089  0.884385  0.246244  1
  Si  Si22  1  0.462144  0.616936  0.247508  1
  Si  Si23  1  0.534893  0.383574  0.752886  1
  Si  Si24  1  0.288500  0.867906  0.752839  1
  Si  Si25  1  0.711540  0.125931  0.246682  1
  Si  Si26  1  0.210814  0.374266  0.249062  1
  Si  Si27  1  0.792514  0.627414  0.751590  1
  Si  Si28  1  0.814143  0.541168  0.456327  1
  Si  Si29  1  0.333286  0.963749  0.459956  1
  Si  Si30  1  0.844106  0.534386  0.039841  1
  Si  Si31  1  0.667825  0.038754  0.538392  1
  Si  Si32  1  0.154823  0.465244  0.961341  1
  Si  Si33  1  0.654549  0.035015  0.960349  1
  Si  Si34  1  0.344088  0.966199  0.040114  1
  Bi  Bi35  1  0.184786  0.456804  0.539465  1
