# generated using pymatgen
data_Y2BeIrI2
_symmetry_space_group_name_H-M   'P 1'
_cell_length_a   4.01808500
_cell_length_b   4.01808416
_cell_length_c   12.08177800
_cell_angle_alpha   90.00000000
_cell_angle_beta   90.00000000
_cell_angle_gamma   119.99999871
_symmetry_Int_Tables_number   1
_chemical_formula_structural   Y2BeIrI2
_chemical_formula_sum   'Y2 Be1 Ir1 I2'
_cell_volume   168.92722081
_cell_formula_units_Z   1
loop_
 _symmetry_equiv_pos_site_id
 _symmetry_equiv_pos_as_xyz
  1  'x, y, z'
loop_
 _atom_site_type_symbol
 _atom_site_label
 _atom_site_symmetry_multiplicity
 _atom_site_fract_x
 _atom_site_fract_y
 _atom_site_fract_z
 _atom_site_occupancy
  Y  Y0  1  0.000000  0.000000  0.843033  1
  Y  Y1  1  0.000000  0.000000  0.157135  1
  Be  Be2  1  0.333333  0.666667  0.997982  1
  Ir  Ir3  1  0.666667  0.333333  0.001497  1
  I  I4  1  0.666667  0.333333  0.664694  1
  I  I5  1  0.333333  0.666667  0.335660  1
