# generated using pymatgen
data_V4TcAs4
_symmetry_space_group_name_H-M   'P 1'
_cell_length_a   6.87215546
_cell_length_b   6.87215587
_cell_length_c   6.82727149
_cell_angle_alpha   92.86278444
_cell_angle_beta   93.39555306
_cell_angle_gamma   153.06739596
_symmetry_Int_Tables_number   1
_chemical_formula_structural   V4TcAs4
_chemical_formula_sum   'V4 Tc1 As4'
_cell_volume   141.97080916
_cell_formula_units_Z   1
loop_
 _symmetry_equiv_pos_site_id
 _symmetry_equiv_pos_as_xyz
  1  'x, y, z'
loop_
 _atom_site_type_symbol
 _atom_site_label
 _atom_site_symmetry_multiplicity
 _atom_site_fract_x
 _atom_site_fract_y
 _atom_site_fract_z
 _atom_site_occupancy
  V  V0  1  0.999174  0.998955  0.998128  1
  V  V1  1  0.693450  0.621485  0.314938  1
  V  V2  1  0.308216  0.378070  0.686286  1
  V  V3  1  0.625472  0.301883  0.927356  1
  Tc  Tc4  1  0.378537  0.695672  0.074212  1
  As  As5  1  0.280070  0.942868  0.222942  1
  As  As6  1  0.064837  0.283973  0.348810  1
  As  As7  1  0.939493  0.719057  0.658553  1
  As  As8  1  0.710748  0.058032  0.768780  1
