# generated using pymatgen
data_DyErU2(CoB4)4
_symmetry_space_group_name_H-M   'P 1'
_cell_length_a   3.36838400
_cell_length_b   5.89802376
_cell_length_c   11.42078027
_cell_angle_alpha   90.09243191
_cell_angle_beta   90.00000000
_cell_angle_gamma   90.00000000
_symmetry_Int_Tables_number   1
_chemical_formula_structural   DyErU2(CoB4)4
_chemical_formula_sum   'Dy1 Er1 U2 Co4 B16'
_cell_volume   226.89416342
_cell_formula_units_Z   1
loop_
 _symmetry_equiv_pos_site_id
 _symmetry_equiv_pos_as_xyz
  1  'x, y, z'
loop_
 _atom_site_type_symbol
 _atom_site_label
 _atom_site_symmetry_multiplicity
 _atom_site_fract_x
 _atom_site_fract_y
 _atom_site_fract_z
 _atom_site_occupancy
  Dy  Dy0  1  0.000000  0.372216  0.648892  1
  Er  Er1  1  0.000000  0.627576  0.351017  1
  U  U2  1  0.000000  0.127198  0.150740  1
  U  U3  1  0.000000  0.872911  0.849451  1
  Co  Co4  1  0.000000  0.633508  0.089624  1
  Co  Co5  1  0.000000  0.366696  0.911068  1
  Co  Co6  1  0.000000  0.133644  0.409666  1
  Co  Co7  1  0.000000  0.866049  0.589609  1
  B  B8  1  0.500000  0.783614  0.185668  1
  B  B9  1  0.500000  0.216259  0.814895  1
  B  B10  1  0.500000  0.283129  0.314734  1
  B  B11  1  0.500000  0.717864  0.685216  1
  B  B12  1  0.500000  0.864089  0.034161  1
  B  B13  1  0.500000  0.136013  0.966183  1
  B  B14  1  0.500000  0.361671  0.466597  1
  B  B15  1  0.500000  0.638422  0.532419  1
  B  B16  1  0.500000  0.886901  0.453892  1
  B  B17  1  0.500000  0.111865  0.545244  1
  B  B18  1  0.500000  0.387079  0.046464  1
  B  B19  1  0.500000  0.613359  0.953942  1
  B  B20  1  0.500000  0.976422  0.309587  1
  B  B21  1  0.500000  0.022954  0.690295  1
  B  B22  1  0.500000  0.477580  0.191313  1
  B  B23  1  0.500000  0.522980  0.809325  1
