# generated using pymatgen
data_Cs13TaTi(In3As5)2
_symmetry_space_group_name_H-M   'P 1'
_cell_length_a   9.87819804
_cell_length_b   9.94341451
_cell_length_c   14.12996803
_cell_angle_alpha   83.81764374
_cell_angle_beta   79.64256289
_cell_angle_gamma   64.55875260
_symmetry_Int_Tables_number   1
_chemical_formula_structural   Cs13TaTi(In3As5)2
_chemical_formula_sum   'Cs13 Ta1 Ti1 In6 As10'
_cell_volume   1232.15231757
_cell_formula_units_Z   1
loop_
 _symmetry_equiv_pos_site_id
 _symmetry_equiv_pos_as_xyz
  1  'x, y, z'
loop_
 _atom_site_type_symbol
 _atom_site_label
 _atom_site_symmetry_multiplicity
 _atom_site_fract_x
 _atom_site_fract_y
 _atom_site_fract_z
 _atom_site_occupancy
  Cs  Cs0  1  0.501193  0.869078  0.359407  1
  Cs  Cs1  1  0.496636  0.130553  0.645324  1
  Cs  Cs2  1  0.852961  0.588906  0.878107  1
  Cs  Cs3  1  0.151021  0.412324  0.116839  1
  Cs  Cs4  1  0.087152  0.782806  0.432163  1
  Cs  Cs5  1  0.909724  0.217858  0.574935  1
  Cs  Cs6  1  0.746053  0.679311  0.598788  1
  Cs  Cs7  1  0.247225  0.323330  0.408418  1
  Cs  Cs8  1  0.501990  0.502999  0.995147  1
  Cs  Cs9  1  0.322505  0.921408  0.086463  1
  Cs  Cs10  1  0.676417  0.077040  0.906557  1
  Cs  Cs11  1  0.898990  0.856377  0.158415  1
  Cs  Cs12  1  0.108729  0.136008  0.835224  1
  Ta  Ta13  1  0.622066  0.263119  0.226811  1
  Ti  Ti14  1  0.377240  0.736394  0.773699  1
  In  In15  1  0.033875  0.808921  0.708195  1
  In  In16  1  0.967180  0.194747  0.293669  1
  In  In17  1  0.600639  0.449579  0.411338  1
  In  In18  1  0.398177  0.554410  0.592300  1
  In  In19  1  0.725861  0.556434  0.173767  1
  In  In20  1  0.274069  0.444786  0.826966  1
  As  As21  1  0.442588  0.537771  0.253039  1
  As  As22  1  0.557801  0.458582  0.744889  1
  As  As23  1  0.144459  0.746732  0.889748  1
  As  As24  1  0.854145  0.252899  0.112091  1
  As  As25  1  0.706501  0.140282  0.385819  1
  As  As26  1  0.293481  0.860229  0.613048  1
  As  As27  1  0.853501  0.507336  0.352497  1
  As  As28  1  0.147525  0.494442  0.645635  1
  As  As29  1  0.496450  0.862038  0.839425  1
  As  As30  1  0.503844  0.133299  0.161277  1
