# generated using pymatgen
data_Ho4TcB12Ir
_symmetry_space_group_name_H-M   'P 1'
_cell_length_a   3.66046500
_cell_length_b   9.13672645
_cell_length_c   11.51615966
_cell_angle_alpha   89.73170243
_cell_angle_beta   90.00000000
_cell_angle_gamma   90.00000000
_symmetry_Int_Tables_number   1
_chemical_formula_structural   Ho4TcB12Ir
_chemical_formula_sum   'Ho8 Tc2 B24 Ir2'
_cell_volume   385.14990648
_cell_formula_units_Z   2
loop_
 _symmetry_equiv_pos_site_id
 _symmetry_equiv_pos_as_xyz
  1  'x, y, z'
loop_
 _atom_site_type_symbol
 _atom_site_label
 _atom_site_symmetry_multiplicity
 _atom_site_fract_x
 _atom_site_fract_y
 _atom_site_fract_z
 _atom_site_occupancy
  Ho  Ho0  1  0.000000  0.326408  0.417590  1
  Ho  Ho1  1  0.000000  0.673592  0.582410  1
  Ho  Ho2  1  0.000000  0.817150  0.089690  1
  Ho  Ho3  1  0.000000  0.182850  0.910310  1
  Ho  Ho4  1  0.000000  0.940854  0.373970  1
  Ho  Ho5  1  0.000000  0.059146  0.626030  1
  Ho  Ho6  1  0.000000  0.446575  0.128323  1
  Ho  Ho7  1  0.000000  0.553425  0.871677  1
  Tc  Tc8  1  0.000000  0.638254  0.319956  1
  Tc  Tc9  1  0.000000  0.361746  0.680044  1
  B  B10  1  0.500000  0.553367  0.432961  1
  B  B11  1  0.500000  0.446633  0.567039  1
  B  B12  1  0.500000  0.054255  0.066062  1
  B  B13  1  0.500000  0.945745  0.933938  1
  B  B14  1  0.500000  0.747516  0.419373  1
  B  B15  1  0.500000  0.252484  0.580627  1
  B  B16  1  0.500000  0.249621  0.078988  1
  B  B17  1  0.500000  0.750379  0.921012  1
  B  B18  1  0.500000  0.791938  0.265492  1
  B  B19  1  0.500000  0.208062  0.734508  1
  B  B20  1  0.500000  0.290853  0.234354  1
  B  B21  1  0.500000  0.709147  0.765646  1
  B  B22  1  0.500000  0.631661  0.185116  1
  B  B23  1  0.500000  0.368339  0.814884  1
  B  B24  1  0.500000  0.131314  0.316134  1
  B  B25  1  0.500000  0.868686  0.683866  1
  B  B26  1  0.500000  0.982156  0.212662  1
  B  B27  1  0.500000  0.017844  0.787338  1
  B  B28  1  0.500000  0.482920  0.287252  1
  B  B29  1  0.500000  0.517080  0.712748  1
  B  B30  1  0.500000  0.607582  0.029098  1
  B  B31  1  0.500000  0.392418  0.970902  1
  B  B32  1  0.500000  0.107132  0.469956  1
  B  B33  1  0.500000  0.892868  0.530044  1
  Ir  Ir34  1  0.000000  0.136476  0.177694  1
  Ir  Ir35  1  0.000000  0.863524  0.822306  1
