# generated using pymatgen
data_Ca3Sm(B8Ru7)2
_symmetry_space_group_name_H-M   'P 1'
_cell_length_a   6.45612377
_cell_length_b   6.44422177
_cell_length_c   10.08200500
_cell_angle_alpha   90.00000000
_cell_angle_beta   90.00000000
_cell_angle_gamma   90.08482219
_symmetry_Int_Tables_number   1
_chemical_formula_structural   Ca3Sm(B8Ru7)2
_chemical_formula_sum   'Ca3 Sm1 B16 Ru14'
_cell_volume   419.45826633
_cell_formula_units_Z   1
loop_
 _symmetry_equiv_pos_site_id
 _symmetry_equiv_pos_as_xyz
  1  'x, y, z'
loop_
 _atom_site_type_symbol
 _atom_site_label
 _atom_site_symmetry_multiplicity
 _atom_site_fract_x
 _atom_site_fract_y
 _atom_site_fract_z
 _atom_site_occupancy
  Ca  Ca0  1  0.735064  0.882224  0.000000  1
  Ca  Ca1  1  0.116712  0.732881  0.500000  1
  Ca  Ca2  1  0.883622  0.268728  0.500000  1
  Sm  Sm3  1  0.265674  0.118509  0.000000  1
  B  B4  1  0.499602  0.999580  0.588540  1
  B  B5  1  0.499602  0.999580  0.411460  1
  B  B6  1  0.898962  0.272818  0.167330  1
  B  B7  1  0.101025  0.728117  0.833393  1
  B  B8  1  0.500815  0.499489  0.340658  1
  B  B9  1  0.500666  0.499505  0.841443  1
  B  B10  1  0.273684  0.101007  0.667347  1
  B  B11  1  0.101025  0.728117  0.166607  1
  B  B12  1  0.273684  0.101007  0.332653  1
  B  B13  1  0.898962  0.272818  0.832670  1
  B  B14  1  0.500815  0.499489  0.659342  1
  B  B15  1  0.500666  0.499505  0.158557  1
  B  B16  1  0.000220  0.500527  0.911349  1
  B  B17  1  0.724451  0.897988  0.668210  1
  B  B18  1  0.724451  0.897988  0.331790  1
  B  B19  1  0.000220  0.500527  0.088651  1
  Ru  Ru20  1  0.205724  0.394468  0.755905  1
  Ru  Ru21  1  0.405231  0.287483  0.500000  1
  Ru  Ru22  1  0.394579  0.795185  0.254322  1
  Ru  Ru23  1  0.205724  0.394468  0.244095  1
  Ru  Ru24  1  0.594337  0.711207  0.500000  1
  Ru  Ru25  1  0.604977  0.204383  0.745980  1
  Ru  Ru26  1  0.288291  0.598200  0.000000  1
  Ru  Ru27  1  0.712252  0.403503  0.000000  1
  Ru  Ru28  1  0.795183  0.605535  0.243990  1
  Ru  Ru29  1  0.795183  0.605535  0.756010  1
  Ru  Ru30  1  0.394579  0.795185  0.745678  1
  Ru  Ru31  1  0.999522  0.000032  0.250356  1
  Ru  Ru32  1  0.604977  0.204383  0.254020  1
  Ru  Ru33  1  0.999522  0.000032  0.749644  1
