# generated using pymatgen
data_CeEr7(TcB6)4
_symmetry_space_group_name_H-M   'P 1'
_cell_length_a   3.67593700
_cell_length_b   9.13207381
_cell_length_c   11.51104903
_cell_angle_alpha   90.04073214
_cell_angle_beta   90.00000000
_cell_angle_gamma   90.00000000
_symmetry_Int_Tables_number   1
_chemical_formula_structural   CeEr7(TcB6)4
_chemical_formula_sum   'Ce1 Er7 Tc4 B24'
_cell_volume   386.41347869
_cell_formula_units_Z   1
loop_
 _symmetry_equiv_pos_site_id
 _symmetry_equiv_pos_as_xyz
  1  'x, y, z'
loop_
 _atom_site_type_symbol
 _atom_site_label
 _atom_site_symmetry_multiplicity
 _atom_site_fract_x
 _atom_site_fract_y
 _atom_site_fract_z
 _atom_site_occupancy
  Ce  Ce0  1  0.000000  0.323300  0.414119  1
  Er  Er1  1  0.000000  0.677248  0.586757  1
  Er  Er2  1  0.000000  0.823456  0.085336  1
  Er  Er3  1  0.000000  0.175855  0.914041  1
  Er  Er4  1  0.000000  0.942317  0.369258  1
  Er  Er5  1  0.000000  0.056508  0.631211  1
  Er  Er6  1  0.000000  0.443129  0.129670  1
  Er  Er7  1  0.000000  0.557492  0.869801  1
  Tc  Tc8  1  0.000000  0.638828  0.320360  1
  Tc  Tc9  1  0.000000  0.361300  0.679406  1
  Tc  Tc10  1  0.000000  0.139190  0.179398  1
  Tc  Tc11  1  0.000000  0.861093  0.820824  1
  B  B12  1  0.500000  0.554292  0.432695  1
  B  B13  1  0.500000  0.446517  0.567900  1
  B  B14  1  0.500000  0.053211  0.066532  1
  B  B15  1  0.500000  0.946767  0.933204  1
  B  B16  1  0.500000  0.749942  0.418844  1
  B  B17  1  0.500000  0.250618  0.582604  1
  B  B18  1  0.500000  0.249167  0.080378  1
  B  B19  1  0.500000  0.750540  0.918894  1
  B  B20  1  0.500000  0.792468  0.265062  1
  B  B21  1  0.500000  0.207723  0.735561  1
  B  B22  1  0.500000  0.291550  0.233804  1
  B  B23  1  0.500000  0.707563  0.765106  1
  B  B24  1  0.500000  0.631624  0.184635  1
  B  B25  1  0.500000  0.369318  0.815061  1
  B  B26  1  0.500000  0.130521  0.313894  1
  B  B27  1  0.500000  0.868844  0.685555  1
  B  B28  1  0.500000  0.981914  0.211359  1
  B  B29  1  0.500000  0.017704  0.788412  1
  B  B30  1  0.500000  0.483745  0.287424  1
  B  B31  1  0.500000  0.518268  0.712607  1
  B  B32  1  0.500000  0.601022  0.027785  1
  B  B33  1  0.500000  0.399346  0.971635  1
  B  B34  1  0.500000  0.099063  0.472453  1
  B  B35  1  0.500000  0.898556  0.528412  1
