# generated using pymatgen
data_La2Er2TmRu2
_symmetry_space_group_name_H-M   'P 1'
_cell_length_a   6.47048046
_cell_length_b   7.24339165
_cell_length_c   8.71573799
_cell_angle_alpha   96.53184007
_cell_angle_beta   111.78934263
_cell_angle_gamma   90.00000230
_symmetry_Int_Tables_number   1
_chemical_formula_structural   La2Er2TmRu2
_chemical_formula_sum   'La4 Er4 Tm2 Ru4'
_cell_volume   376.44935119
_cell_formula_units_Z   2
loop_
 _symmetry_equiv_pos_site_id
 _symmetry_equiv_pos_as_xyz
  1  'x, y, z'
loop_
 _atom_site_type_symbol
 _atom_site_label
 _atom_site_symmetry_multiplicity
 _atom_site_fract_x
 _atom_site_fract_y
 _atom_site_fract_z
 _atom_site_occupancy
  La  La0  1  0.783866  0.089241  0.804685  1
  La  La1  1  0.979183  0.410759  0.195315  1
  La  La2  1  0.216134  0.910759  0.195315  1
  La  La3  1  0.020817  0.589241  0.804685  1
  Er  Er4  1  0.202449  0.186430  0.570567  1
  Er  Er5  1  0.631882  0.313570  0.429433  1
  Er  Er6  1  0.797551  0.813570  0.429433  1
  Er  Er7  1  0.368118  0.686430  0.570567  1
  Tm  Tm8  1  0.425536  0.250000  0.000000  1
  Tm  Tm9  1  0.574464  0.750000  0.000000  1
  Ru  Ru10  1  0.598125  0.418490  0.774395  1
  Ru  Ru11  1  0.823730  0.081510  0.225605  1
  Ru  Ru12  1  0.401875  0.581510  0.225605  1
  Ru  Ru13  1  0.176270  0.918490  0.774395  1
