# generated using pymatgen
data_Tb4Y3Au10
_symmetry_space_group_name_H-M   'P 1'
_cell_length_a   8.76103000
_cell_length_b   8.76103124
_cell_length_c   10.42711400
_cell_angle_alpha   90.00000000
_cell_angle_beta   90.00000000
_cell_angle_gamma   106.97696443
_symmetry_Int_Tables_number   1
_chemical_formula_structural   Tb4Y3Au10
_chemical_formula_sum   'Tb8 Y6 Au20'
_cell_volume   765.46295584
_cell_formula_units_Z   2
loop_
 _symmetry_equiv_pos_site_id
 _symmetry_equiv_pos_as_xyz
  1  'x, y, z'
loop_
 _atom_site_type_symbol
 _atom_site_label
 _atom_site_symmetry_multiplicity
 _atom_site_fract_x
 _atom_site_fract_y
 _atom_site_fract_z
 _atom_site_occupancy
  Tb  Tb0  1  0.694848  0.305152  0.000000  1
  Tb  Tb1  1  0.194848  0.805152  0.500000  1
  Tb  Tb2  1  0.813168  0.813168  0.311224  1
  Tb  Tb3  1  0.313168  0.313168  0.188776  1
  Tb  Tb4  1  0.805152  0.194848  0.500000  1
  Tb  Tb5  1  0.305152  0.694848  0.000000  1
  Tb  Tb6  1  0.686832  0.686832  0.811224  1
  Tb  Tb7  1  0.186832  0.186832  0.688776  1
  Y  Y8  1  0.503027  0.003027  0.250000  1
  Y  Y9  1  0.996973  0.496973  0.750000  1
  Y  Y10  1  0.000000  0.000000  0.000000  1
  Y  Y11  1  0.003027  0.503027  0.250000  1
  Y  Y12  1  0.496973  0.996973  0.750000  1
  Y  Y13  1  0.500000  0.500000  0.500000  1
  Au  Au14  1  0.144957  0.435902  0.497009  1
  Au  Au15  1  0.896035  0.896035  0.602444  1
  Au  Au16  1  0.564098  0.855043  0.502991  1
  Au  Au17  1  0.859695  0.149147  0.209458  1
  Au  Au18  1  0.359695  0.649147  0.290542  1
  Au  Au19  1  0.649147  0.359695  0.290542  1
  Au  Au20  1  0.396035  0.396035  0.897556  1
  Au  Au21  1  0.935902  0.644957  0.002991  1
  Au  Au22  1  0.350853  0.640305  0.709458  1
  Au  Au23  1  0.355043  0.064098  0.997009  1
  Au  Au24  1  0.603965  0.603965  0.102444  1
  Au  Au25  1  0.644957  0.935902  0.002991  1
  Au  Au26  1  0.103965  0.103965  0.397556  1
  Au  Au27  1  0.640305  0.350853  0.709458  1
  Au  Au28  1  0.140305  0.850853  0.790542  1
  Au  Au29  1  0.064098  0.355043  0.997009  1
  Au  Au30  1  0.855043  0.564098  0.502991  1
  Au  Au31  1  0.149147  0.859695  0.209458  1
  Au  Au32  1  0.435902  0.144957  0.497009  1
  Au  Au33  1  0.850853  0.140305  0.790542  1
