# generated using pymatgen
data_Pr2Lu18Si15Os
_symmetry_space_group_name_H-M   'P 1'
_cell_length_a   7.29248816
_cell_length_b   7.63986858
_cell_length_c   14.33584600
_cell_angle_alpha   89.62445601
_cell_angle_beta   89.98796335
_cell_angle_gamma   89.93795209
_symmetry_Int_Tables_number   1
_chemical_formula_structural   Pr2Lu18Si15Os
_chemical_formula_sum   'Pr2 Lu18 Si15 Os1'
_cell_volume   798.68468163
_cell_formula_units_Z   1
loop_
 _symmetry_equiv_pos_site_id
 _symmetry_equiv_pos_as_xyz
  1  'x, y, z'
loop_
 _atom_site_type_symbol
 _atom_site_label
 _atom_site_symmetry_multiplicity
 _atom_site_fract_x
 _atom_site_fract_y
 _atom_site_fract_z
 _atom_site_occupancy
  Pr  Pr0  1  0.517742  0.571396  0.340276  1
  Pr  Pr1  1  0.020908  0.425300  0.659776  1
  Lu  Lu2  1  0.805528  0.579055  0.878184  1
  Lu  Lu3  1  0.327410  0.432122  0.121204  1
  Lu  Lu4  1  0.181070  0.926156  0.373695  1
  Lu  Lu5  1  0.680152  0.070339  0.626081  1
  Lu  Lu6  1  0.181594  0.925566  0.628007  1
  Lu  Lu7  1  0.679726  0.071361  0.372310  1
  Lu  Lu8  1  0.809822  0.575463  0.123026  1
  Lu  Lu9  1  0.331764  0.438945  0.876726  1
  Lu  Lu10  1  0.647013  0.241173  0.999376  1
  Lu  Lu11  1  0.159418  0.761188  0.000600  1
  Lu  Lu12  1  0.347489  0.260572  0.499930  1
  Lu  Lu13  1  0.847313  0.737236  0.500000  1
  Lu  Lu14  1  0.481599  0.921214  0.849977  1
  Lu  Lu15  1  0.977808  0.067728  0.151497  1
  Lu  Lu16  1  0.478817  0.922863  0.149453  1
  Lu  Lu17  1  0.974923  0.068185  0.849741  1
  Lu  Lu18  1  0.526207  0.565537  0.651817  1
  Lu  Lu19  1  0.023962  0.432246  0.348027  1
  Si  Si20  1  0.019180  0.352037  0.999339  1
  Si  Si21  1  0.476564  0.861784  0.501147  1
  Si  Si22  1  0.978308  0.136915  0.499011  1
  Si  Si23  1  0.657141  0.275093  0.789999  1
  Si  Si24  1  0.150367  0.720987  0.209278  1
  Si  Si25  1  0.345698  0.212759  0.285070  1
  Si  Si26  1  0.845530  0.785888  0.713200  1
  Si  Si27  1  0.359856  0.216695  0.712509  1
  Si  Si28  1  0.857124  0.781976  0.288825  1
  Si  Si29  1  0.652543  0.266510  0.206508  1
  Si  Si30  1  0.143826  0.729229  0.793619  1
  Si  Si31  1  0.775552  0.886675  0.000848  1
  Si  Si32  1  0.263272  0.123790  0.999279  1
  Si  Si33  1  0.226453  0.622081  0.501855  1
  Si  Si34  1  0.727745  0.376406  0.499047  1
  Os  Os35  1  0.520574  0.657528  0.000757  1
