# generated using pymatgen
data_U2Al3Au
_symmetry_space_group_name_H-M   'P 1'
_cell_length_a   5.63821700
_cell_length_b   5.63821625
_cell_length_c   8.37431300
_cell_angle_alpha   90.00000000
_cell_angle_beta   90.00000000
_cell_angle_gamma   120.00001026
_symmetry_Int_Tables_number   1
_chemical_formula_structural   U2Al3Au
_chemical_formula_sum   'U4 Al6 Au2'
_cell_volume   230.54902589
_cell_formula_units_Z   2
loop_
 _symmetry_equiv_pos_site_id
 _symmetry_equiv_pos_as_xyz
  1  'x, y, z'
loop_
 _atom_site_type_symbol
 _atom_site_label
 _atom_site_symmetry_multiplicity
 _atom_site_fract_x
 _atom_site_fract_y
 _atom_site_fract_z
 _atom_site_occupancy
  U  U0  1  0.333333  0.666667  0.403768  1
  U  U1  1  0.666667  0.333333  0.903768  1
  U  U2  1  0.666667  0.333333  0.596232  1
  U  U3  1  0.333333  0.666667  0.096232  1
  Al  Al4  1  0.655396  0.827698  0.750000  1
  Al  Al5  1  0.344604  0.172302  0.250000  1
  Al  Al6  1  0.172302  0.344604  0.750000  1
  Al  Al7  1  0.827698  0.172302  0.250000  1
  Al  Al8  1  0.827698  0.655396  0.250000  1
  Al  Al9  1  0.172302  0.827698  0.750000  1
  Au  Au10  1  0.000000  0.000000  0.500000  1
  Au  Au11  1  0.000000  0.000000  0.000000  1
