# generated using pymatgen
data_Tm4Tc3B8Os
_symmetry_space_group_name_H-M   'P 1'
_cell_length_a   5.88110915
_cell_length_b   5.24693100
_cell_length_c   6.38745882
_cell_angle_alpha   90.00000000
_cell_angle_beta   90.30681033
_cell_angle_gamma   90.00000000
_symmetry_Int_Tables_number   1
_chemical_formula_structural   Tm4Tc3B8Os
_chemical_formula_sum   'Tm4 Tc3 B8 Os1'
_cell_volume   197.09993420
_cell_formula_units_Z   1
loop_
 _symmetry_equiv_pos_site_id
 _symmetry_equiv_pos_as_xyz
  1  'x, y, z'
loop_
 _atom_site_type_symbol
 _atom_site_label
 _atom_site_symmetry_multiplicity
 _atom_site_fract_x
 _atom_site_fract_y
 _atom_site_fract_z
 _atom_site_occupancy
  Tm  Tm0  1  0.014162  0.250000  0.337435  1
  Tm  Tm1  1  0.513843  0.250000  0.161986  1
  Tm  Tm2  1  0.985483  0.750000  0.664147  1
  Tm  Tm3  1  0.485255  0.750000  0.835885  1
  Tc  Tc4  1  0.181684  0.250000  0.814171  1
  Tc  Tc5  1  0.679783  0.250000  0.684120  1
  Tc  Tc6  1  0.819346  0.750000  0.186090  1
  B  B7  1  0.366941  0.077880  0.535138  1
  B  B8  1  0.868504  0.421728  0.965051  1
  B  B9  1  0.633002  0.579629  0.465127  1
  B  B10  1  0.133540  0.921291  0.035616  1
  B  B11  1  0.633002  0.920371  0.465127  1
  B  B12  1  0.133540  0.578709  0.035616  1
  B  B13  1  0.366941  0.422120  0.535138  1
  B  B14  1  0.868504  0.078272  0.965051  1
  Os  Os15  1  0.316468  0.750000  0.314304  1
