# generated using pymatgen
data_VSn(As2O7)2
_symmetry_space_group_name_H-M   'P 1'
_cell_length_a   5.10204480
_cell_length_b   8.36501901
_cell_length_c   7.42120142
_cell_angle_alpha   90.42277885
_cell_angle_beta   106.25414993
_cell_angle_gamma   90.25043849
_symmetry_Int_Tables_number   1
_chemical_formula_structural   VSn(As2O7)2
_chemical_formula_sum   'V1 Sn1 As4 O14'
_cell_volume   304.05241086
_cell_formula_units_Z   1
loop_
 _symmetry_equiv_pos_site_id
 _symmetry_equiv_pos_as_xyz
  1  'x, y, z'
loop_
 _atom_site_type_symbol
 _atom_site_label
 _atom_site_symmetry_multiplicity
 _atom_site_fract_x
 _atom_site_fract_y
 _atom_site_fract_z
 _atom_site_occupancy
  V  V0  1  0.783193  0.005231  0.270425  1
  Sn  Sn1  1  0.220218  0.506626  0.732694  1
  As  As2  1  0.394915  0.181484  0.503240  1
  As  As3  1  0.221456  0.780339  0.103535  1
  As  As4  1  0.771683  0.267426  0.902317  1
  As  As5  1  0.610005  0.689664  0.492717  1
  O  O6  1  0.053728  0.310805  0.830669  1
  O  O7  1  0.104493  0.675646  0.899753  1
  O  O8  1  0.145145  0.041016  0.446890  1
  O  O9  1  0.298544  0.375169  0.513578  1
  O  O10  1  0.418698  0.695708  0.647503  1
  O  O11  1  0.586316  0.433621  0.920868  1
  O  O12  1  0.575348  0.125723  0.737020  1
  O  O13  1  0.398948  0.633910  0.264143  1
  O  O14  1  0.422164  0.942727  0.097031  1
  O  O15  1  0.614935  0.179652  0.365948  1
  O  O16  1  0.721898  0.879479  0.476834  1
  O  O17  1  0.854562  0.547245  0.529968  1
  O  O18  1  0.877173  0.163390  0.104083  1
  O  O19  1  0.931878  0.828699  0.165387  1
