# generated using pymatgen
data_SmGd6FeCl12
_symmetry_space_group_name_H-M   'P 1'
_cell_length_a   8.87399019
_cell_length_b   8.87399076
_cell_length_c   8.87399100
_cell_angle_alpha   106.97041133
_cell_angle_beta   106.97040571
_cell_angle_gamma   106.97040685
_symmetry_Int_Tables_number   1
_chemical_formula_structural   SmGd6FeCl12
_chemical_formula_sum   'Sm1 Gd6 Fe1 Cl12'
_cell_volume   582.44184603
_cell_formula_units_Z   1
loop_
 _symmetry_equiv_pos_site_id
 _symmetry_equiv_pos_as_xyz
  1  'x, y, z'
loop_
 _atom_site_type_symbol
 _atom_site_label
 _atom_site_symmetry_multiplicity
 _atom_site_fract_x
 _atom_site_fract_y
 _atom_site_fract_z
 _atom_site_occupancy
  Sm  Sm0  1  0.000000  0.000000  0.000000  1
  Gd  Gd1  1  0.816896  0.524264  0.604884  1
  Gd  Gd2  1  0.395116  0.183104  0.475736  1
  Gd  Gd3  1  0.475736  0.395116  0.183104  1
  Gd  Gd4  1  0.604884  0.816896  0.524264  1
  Gd  Gd5  1  0.524264  0.604884  0.816896  1
  Gd  Gd6  1  0.183104  0.475736  0.395116  1
  Fe  Fe7  1  0.500000  0.500000  0.500000  1
  Cl  Cl8  1  0.663708  0.962516  0.883810  1
  Cl  Cl9  1  0.721518  0.181255  0.570660  1
  Cl  Cl10  1  0.883810  0.663708  0.962516  1
  Cl  Cl11  1  0.278482  0.818745  0.429340  1
  Cl  Cl12  1  0.181255  0.570660  0.721518  1
  Cl  Cl13  1  0.037484  0.116190  0.336292  1
  Cl  Cl14  1  0.570660  0.721518  0.181255  1
  Cl  Cl15  1  0.116190  0.336292  0.037484  1
  Cl  Cl16  1  0.818745  0.429340  0.278482  1
  Cl  Cl17  1  0.429340  0.278482  0.818745  1
  Cl  Cl18  1  0.962516  0.883810  0.663708  1
  Cl  Cl19  1  0.336292  0.037484  0.116190  1
