# generated using pymatgen
data_Tb11DyTc4
_symmetry_space_group_name_H-M   'P 1'
_cell_length_a   6.29688057
_cell_length_b   7.43823828
_cell_length_c   9.25825480
_cell_angle_alpha   90.01002296
_cell_angle_beta   90.01235146
_cell_angle_gamma   90.03077615
_symmetry_Int_Tables_number   1
_chemical_formula_structural   Tb11DyTc4
_chemical_formula_sum   'Tb11 Dy1 Tc4'
_cell_volume   433.63526377
_cell_formula_units_Z   1
loop_
 _symmetry_equiv_pos_site_id
 _symmetry_equiv_pos_as_xyz
  1  'x, y, z'
loop_
 _atom_site_type_symbol
 _atom_site_label
 _atom_site_symmetry_multiplicity
 _atom_site_fract_x
 _atom_site_fract_y
 _atom_site_fract_z
 _atom_site_occupancy
  Tb  Tb0  1  0.127831  0.457798  0.749729  1
  Tb  Tb1  1  0.661646  0.324594  0.937066  1
  Tb  Tb2  1  0.372032  0.957334  0.749975  1
  Tb  Tb3  1  0.872798  0.542821  0.250477  1
  Tb  Tb4  1  0.628036  0.042175  0.249936  1
  Tb  Tb5  1  0.161743  0.175975  0.436988  1
  Tb  Tb6  1  0.839027  0.824326  0.562887  1
  Tb  Tb7  1  0.161402  0.175882  0.062993  1
  Tb  Tb8  1  0.837974  0.824139  0.937255  1
  Tb  Tb9  1  0.661821  0.324572  0.562500  1
  Tb  Tb10  1  0.337877  0.675406  0.063310  1
  Dy  Dy11  1  0.338467  0.675008  0.437048  1
  Tc  Tc12  1  0.538662  0.612032  0.748969  1
  Tc  Tc13  1  0.960327  0.112352  0.750298  1
  Tc  Tc14  1  0.040365  0.887738  0.250423  1
  Tc  Tc15  1  0.459991  0.387849  0.250146  1
