# generated using pymatgen
data_Tb4Ho4Sc12Si15Hg
_symmetry_space_group_name_H-M   'P 1'
_cell_length_a   7.12708225
_cell_length_b   7.38877482
_cell_length_c   14.07861904
_cell_angle_alpha   89.94610157
_cell_angle_beta   89.57439010
_cell_angle_gamma   90.16433533
_symmetry_Int_Tables_number   1
_chemical_formula_structural   Tb4Ho4Sc12Si15Hg
_chemical_formula_sum   'Tb4 Ho4 Sc12 Si15 Hg1'
_cell_volume   741.36194518
_cell_formula_units_Z   1
loop_
 _symmetry_equiv_pos_site_id
 _symmetry_equiv_pos_as_xyz
  1  'x, y, z'
loop_
 _atom_site_type_symbol
 _atom_site_label
 _atom_site_symmetry_multiplicity
 _atom_site_fract_x
 _atom_site_fract_y
 _atom_site_fract_z
 _atom_site_occupancy
  Tb  Tb0  1  0.011966  0.175526  0.097211  1
  Tb  Tb1  1  0.987704  0.825601  0.904403  1
  Tb  Tb2  1  0.487602  0.676399  0.904150  1
  Tb  Tb3  1  0.989095  0.831404  0.598042  1
  Ho  Ho4  1  0.511898  0.323491  0.096658  1
  Ho  Ho5  1  0.007549  0.171277  0.397994  1
  Ho  Ho6  1  0.511572  0.321986  0.399035  1
  Ho  Ho7  1  0.496502  0.681804  0.600347  1
  Sc  Sc8  1  0.162692  0.501238  0.754179  1
  Sc  Sc9  1  0.836761  0.498280  0.250065  1
  Sc  Sc10  1  0.337365  0.001062  0.248849  1
  Sc  Sc11  1  0.664974  0.997022  0.751636  1
  Sc  Sc12  1  0.342594  0.168419  0.628848  1
  Sc  Sc13  1  0.663987  0.824396  0.372941  1
  Sc  Sc14  1  0.166541  0.677765  0.370620  1
  Sc  Sc15  1  0.669185  0.823642  0.124360  1
  Sc  Sc16  1  0.825609  0.325183  0.626180  1
  Sc  Sc17  1  0.329341  0.175266  0.876154  1
  Sc  Sc18  1  0.830106  0.322851  0.876212  1
  Sc  Sc19  1  0.168873  0.676565  0.125049  1
  Si  Si20  1  0.035820  0.120982  0.751447  1
  Si  Si21  1  0.963943  0.883643  0.248079  1
  Si  Si22  1  0.466002  0.615036  0.247911  1
  Si  Si23  1  0.533992  0.385825  0.752049  1
  Si  Si24  1  0.285322  0.872417  0.751587  1
  Si  Si25  1  0.712101  0.127854  0.247977  1
  Si  Si26  1  0.213515  0.371291  0.248312  1
  Si  Si27  1  0.788653  0.627771  0.752421  1
  Si  Si28  1  0.832244  0.537957  0.458908  1
  Si  Si29  1  0.338721  0.962500  0.459879  1
  Si  Si30  1  0.843198  0.535123  0.039066  1
  Si  Si31  1  0.659803  0.037657  0.537376  1
  Si  Si32  1  0.156030  0.464006  0.962213  1
  Si  Si33  1  0.655673  0.035592  0.960783  1
  Si  Si34  1  0.343324  0.965186  0.039935  1
  Hg  Hg35  1  0.169743  0.457981  0.539129  1
