# generated using pymatgen
data_LiEu2Ni4C3
_symmetry_space_group_name_H-M   'P 1'
_cell_length_a   8.21949900
_cell_length_b   8.21949900
_cell_length_c   4.12764200
_cell_angle_alpha   90.00000000
_cell_angle_beta   90.00000000
_cell_angle_gamma   90.00000000
_symmetry_Int_Tables_number   1
_chemical_formula_structural   LiEu2Ni4C3
_chemical_formula_sum   'Li2 Eu4 Ni8 C6'
_cell_volume   278.86416967
_cell_formula_units_Z   2
loop_
 _symmetry_equiv_pos_site_id
 _symmetry_equiv_pos_as_xyz
  1  'x, y, z'
loop_
 _atom_site_type_symbol
 _atom_site_label
 _atom_site_symmetry_multiplicity
 _atom_site_fract_x
 _atom_site_fract_y
 _atom_site_fract_z
 _atom_site_occupancy
  Li  Li0  1  0.500000  0.500000  0.000000  1
  Li  Li1  1  0.000000  0.000000  0.000000  1
  Eu  Eu2  1  0.347325  0.847325  0.000000  1
  Eu  Eu3  1  0.652675  0.152675  0.000000  1
  Eu  Eu4  1  0.152675  0.347325  0.000000  1
  Eu  Eu5  1  0.847325  0.652675  0.000000  1
  Ni  Ni6  1  0.578741  0.710961  0.500000  1
  Ni  Ni7  1  0.421259  0.289039  0.500000  1
  Ni  Ni8  1  0.921259  0.210961  0.500000  1
  Ni  Ni9  1  0.078741  0.789039  0.500000  1
  Ni  Ni10  1  0.710961  0.421259  0.500000  1
  Ni  Ni11  1  0.289039  0.578741  0.500000  1
  Ni  Ni12  1  0.210961  0.078741  0.500000  1
  Ni  Ni13  1  0.789039  0.921259  0.500000  1
  C  C14  1  0.500000  0.500000  0.500000  1
  C  C15  1  0.000000  0.000000  0.500000  1
  C  C16  1  0.058253  0.558253  0.500000  1
  C  C17  1  0.941747  0.441747  0.500000  1
  C  C18  1  0.441747  0.058253  0.500000  1
  C  C19  1  0.558253  0.941747  0.500000  1
