# generated using pymatgen
data_DyY13Au20
_symmetry_space_group_name_H-M   'P 1'
_cell_length_a   8.74995425
_cell_length_b   8.74995199
_cell_length_c   10.44407901
_cell_angle_alpha   90.00338214
_cell_angle_beta   90.00342122
_cell_angle_gamma   106.98107955
_symmetry_Int_Tables_number   1
_chemical_formula_structural   DyY13Au20
_chemical_formula_sum   'Dy1 Y13 Au20'
_cell_volume   764.75396095
_cell_formula_units_Z   1
loop_
 _symmetry_equiv_pos_site_id
 _symmetry_equiv_pos_as_xyz
  1  'x, y, z'
loop_
 _atom_site_type_symbol
 _atom_site_label
 _atom_site_symmetry_multiplicity
 _atom_site_fract_x
 _atom_site_fract_y
 _atom_site_fract_z
 _atom_site_occupancy
  Dy  Dy0  1  0.500000  0.500000  0.500000  1
  Y  Y1  1  0.693857  0.306142  0.000000  1
  Y  Y2  1  0.306143  0.693858  0.000000  1
  Y  Y3  1  0.806229  0.193770  0.500000  1
  Y  Y4  1  0.193771  0.806230  0.500000  1
  Y  Y5  1  0.000000  0.000000  0.000000  1
  Y  Y6  1  0.002808  0.502799  0.250060  1
  Y  Y7  1  0.997192  0.497201  0.749940  1
  Y  Y8  1  0.497201  0.997192  0.749939  1
  Y  Y9  1  0.502799  0.002808  0.250061  1
  Y  Y10  1  0.312530  0.312530  0.188408  1
  Y  Y11  1  0.687470  0.687470  0.811592  1
  Y  Y12  1  0.187508  0.187508  0.688259  1
  Y  Y13  1  0.812492  0.812492  0.311741  1
  Au  Au14  1  0.860163  0.149410  0.209305  1
  Au  Au15  1  0.139837  0.850590  0.790695  1
  Au  Au16  1  0.639421  0.350944  0.708959  1
  Au  Au17  1  0.649056  0.360579  0.291041  1
  Au  Au18  1  0.360579  0.649056  0.291041  1
  Au  Au19  1  0.350944  0.639421  0.708959  1
  Au  Au20  1  0.850590  0.139838  0.790695  1
  Au  Au21  1  0.149410  0.860162  0.209305  1
  Au  Au22  1  0.937190  0.645190  0.002482  1
  Au  Au23  1  0.062810  0.354810  0.997518  1
  Au  Au24  1  0.562899  0.854161  0.502552  1
  Au  Au25  1  0.145839  0.437101  0.497448  1
  Au  Au26  1  0.437101  0.145839  0.497448  1
  Au  Au27  1  0.854161  0.562899  0.502552  1
  Au  Au28  1  0.354811  0.062810  0.997518  1
  Au  Au29  1  0.645189  0.937190  0.002482  1
  Au  Au30  1  0.105030  0.105031  0.396933  1
  Au  Au31  1  0.894970  0.894969  0.603067  1
  Au  Au32  1  0.394747  0.394747  0.897044  1
  Au  Au33  1  0.605253  0.605253  0.102956  1
