# generated using pymatgen
data_ErAuCl6
_symmetry_space_group_name_H-M   'P 1'
_cell_length_a   7.75583121
_cell_length_b   9.88044236
_cell_length_c   14.00993995
_cell_angle_alpha   103.44823862
_cell_angle_beta   97.22491249
_cell_angle_gamma   112.56561226
_symmetry_Int_Tables_number   1
_chemical_formula_structural   ErAuCl6
_chemical_formula_sum   'Er4 Au4 Cl24'
_cell_volume   936.18018383
_cell_formula_units_Z   4
loop_
 _symmetry_equiv_pos_site_id
 _symmetry_equiv_pos_as_xyz
  1  'x, y, z'
loop_
 _atom_site_type_symbol
 _atom_site_label
 _atom_site_symmetry_multiplicity
 _atom_site_fract_x
 _atom_site_fract_y
 _atom_site_fract_z
 _atom_site_occupancy
  Er  Er0  1  0.579914  0.928162  0.622001  1
  Er  Er1  1  0.029389  0.685820  0.128163  1
  Er  Er2  1  0.420086  0.071838  0.377999  1
  Er  Er3  1  0.970611  0.314180  0.871837  1
  Au  Au4  1  0.292513  0.633376  0.764119  1
  Au  Au5  1  0.500000  0.500000  0.500000  1
  Au  Au6  1  0.707487  0.366624  0.235881  1
  Au  Au7  1  0.000000  0.000000  0.000000  1
  Cl  Cl8  1  0.782875  0.104096  0.970457  1
  Cl  Cl9  1  0.720093  0.149049  0.265266  1
  Cl  Cl10  1  0.279907  0.850951  0.734734  1
  Cl  Cl11  1  0.771386  0.790040  0.030248  1
  Cl  Cl12  1  0.619209  0.191713  0.744243  1
  Cl  Cl13  1  0.302099  0.411380  0.788997  1
  Cl  Cl14  1  0.697901  0.588620  0.211003  1
  Cl  Cl15  1  0.306692  0.631076  0.499923  1
  Cl  Cl16  1  0.228614  0.209960  0.969752  1
  Cl  Cl17  1  0.759072  0.735007  0.526952  1
  Cl  Cl18  1  0.217125  0.895904  0.029543  1
  Cl  Cl19  1  0.719800  0.047101  0.483966  1
  Cl  Cl20  1  0.607156  0.733310  0.746698  1
  Cl  Cl21  1  0.942133  0.060503  0.731169  1
  Cl  Cl22  1  0.240928  0.264993  0.473048  1
  Cl  Cl23  1  0.380791  0.808287  0.255757  1
  Cl  Cl24  1  0.975557  0.535672  0.778190  1
  Cl  Cl25  1  0.768844  0.437984  0.977448  1
  Cl  Cl26  1  0.231156  0.562016  0.022552  1
  Cl  Cl27  1  0.024443  0.464328  0.221810  1
  Cl  Cl28  1  0.392844  0.266690  0.253302  1
  Cl  Cl29  1  0.280200  0.952899  0.516034  1
  Cl  Cl30  1  0.693308  0.368924  0.500077  1
  Cl  Cl31  1  0.057867  0.939497  0.268831  1
