# generated using pymatgen
data_Li2CaCeSn2
_symmetry_space_group_name_H-M   'P 1'
_cell_length_a   4.82788800
_cell_length_b   4.82788917
_cell_length_c   7.54556200
_cell_angle_alpha   90.00000000
_cell_angle_beta   90.00000000
_cell_angle_gamma   119.99999202
_symmetry_Int_Tables_number   1
_chemical_formula_structural   Li2CaCeSn2
_chemical_formula_sum   'Li2 Ca1 Ce1 Sn2'
_cell_volume   152.31291733
_cell_formula_units_Z   1
loop_
 _symmetry_equiv_pos_site_id
 _symmetry_equiv_pos_as_xyz
  1  'x, y, z'
loop_
 _atom_site_type_symbol
 _atom_site_label
 _atom_site_symmetry_multiplicity
 _atom_site_fract_x
 _atom_site_fract_y
 _atom_site_fract_z
 _atom_site_occupancy
  Li  Li0  1  0.666667  0.333333  0.477736  1
  Li  Li1  1  0.333333  0.666667  0.007791  1
  Ca  Ca2  1  0.000000  0.000000  0.738899  1
  Ce  Ce3  1  0.000000  0.000000  0.238430  1
  Sn  Sn4  1  0.333333  0.666667  0.459827  1
  Sn  Sn5  1  0.666667  0.333333  0.013318  1
