# generated using pymatgen
data_TaNb2Cr6Si2W
_symmetry_space_group_name_H-M   'P 1'
_cell_length_a   4.83713000
_cell_length_b   4.83712960
_cell_length_c   8.10760800
_cell_angle_alpha   90.00000000
_cell_angle_beta   90.00000000
_cell_angle_gamma   120.00000273
_symmetry_Int_Tables_number   1
_chemical_formula_structural   TaNb2Cr6Si2W
_chemical_formula_sum   'Ta1 Nb2 Cr6 Si2 W1'
_cell_volume   164.28535298
_cell_formula_units_Z   1
loop_
 _symmetry_equiv_pos_site_id
 _symmetry_equiv_pos_as_xyz
  1  'x, y, z'
loop_
 _atom_site_type_symbol
 _atom_site_label
 _atom_site_symmetry_multiplicity
 _atom_site_fract_x
 _atom_site_fract_y
 _atom_site_fract_z
 _atom_site_occupancy
  Ta  Ta0  1  0.333333  0.666667  0.063643  1
  Nb  Nb1  1  0.333333  0.666667  0.434467  1
  Nb  Nb2  1  0.666667  0.333333  0.566174  1
  Cr  Cr3  1  0.827888  0.172112  0.247808  1
  Cr  Cr4  1  0.827888  0.655775  0.247808  1
  Cr  Cr5  1  0.344225  0.172112  0.247808  1
  Cr  Cr6  1  0.171981  0.828019  0.752291  1
  Cr  Cr7  1  0.171981  0.343961  0.752291  1
  Cr  Cr8  1  0.656039  0.828019  0.752291  1
  Si  Si9  1  0.000000  0.000000  0.500638  1
  Si  Si10  1  0.000000  0.000000  0.000295  1
  W  W11  1  0.666667  0.333333  0.934485  1
