# generated using pymatgen
data_K8ZrBi4
_symmetry_space_group_name_H-M   'P 1'
_cell_length_a   11.83862612
_cell_length_b   11.83862577
_cell_length_c   11.83862600
_cell_angle_alpha   59.99999936
_cell_angle_beta   60.00000033
_cell_angle_gamma   59.99999441
_symmetry_Int_Tables_number   1
_chemical_formula_structural   K8ZrBi4
_chemical_formula_sum   'K16 Zr2 Bi8'
_cell_volume   1173.24545642
_cell_formula_units_Z   2
loop_
 _symmetry_equiv_pos_site_id
 _symmetry_equiv_pos_as_xyz
  1  'x, y, z'
loop_
 _atom_site_type_symbol
 _atom_site_label
 _atom_site_symmetry_multiplicity
 _atom_site_fract_x
 _atom_site_fract_y
 _atom_site_fract_z
 _atom_site_occupancy
  K  K0  1  0.625000  0.625000  0.125000  1
  K  K1  1  0.625000  0.125000  0.625000  1
  K  K2  1  0.125000  0.625000  0.625000  1
  K  K3  1  0.625000  0.625000  0.625000  1
  K  K4  1  0.029110  0.470890  0.470890  1
  K  K5  1  0.779110  0.220890  0.220890  1
  K  K6  1  0.470890  0.029110  0.470890  1
  K  K7  1  0.470890  0.470890  0.029110  1
  K  K8  1  0.029110  0.029110  0.470890  1
  K  K9  1  0.029110  0.470890  0.029110  1
  K  K10  1  0.470890  0.029110  0.029110  1
  K  K11  1  0.779110  0.220890  0.779110  1
  K  K12  1  0.220890  0.779110  0.220890  1
  K  K13  1  0.220890  0.220890  0.779110  1
  K  K14  1  0.779110  0.779110  0.220890  1
  K  K15  1  0.220890  0.779110  0.779110  1
  Zr  Zr16  1  0.750000  0.750000  0.750000  1
  Zr  Zr17  1  0.500000  0.500000  0.500000  1
  Bi  Bi18  1  0.852169  0.852169  0.443494  1
  Bi  Bi19  1  0.852169  0.443494  0.852169  1
  Bi  Bi20  1  0.397831  0.397831  0.806506  1
  Bi  Bi21  1  0.397831  0.806506  0.397831  1
  Bi  Bi22  1  0.806506  0.397831  0.397831  1
  Bi  Bi23  1  0.852169  0.852169  0.852169  1
  Bi  Bi24  1  0.443494  0.852169  0.852169  1
  Bi  Bi25  1  0.397831  0.397831  0.397831  1
