# generated using pymatgen
data_Y2Er2Al3(Ga5Ir2)3
_symmetry_space_group_name_H-M   'P 1'
_cell_length_a   7.56863704
_cell_length_b   7.56598150
_cell_length_c   9.50504605
_cell_angle_alpha   89.99062585
_cell_angle_beta   89.99151612
_cell_angle_gamma   119.72978324
_symmetry_Int_Tables_number   1
_chemical_formula_structural   Y2Er2Al3(Ga5Ir2)3
_chemical_formula_sum   'Y2 Er2 Al3 Ga15 Ir6'
_cell_volume   472.65460651
_cell_formula_units_Z   1
loop_
 _symmetry_equiv_pos_site_id
 _symmetry_equiv_pos_as_xyz
  1  'x, y, z'
loop_
 _atom_site_type_symbol
 _atom_site_label
 _atom_site_symmetry_multiplicity
 _atom_site_fract_x
 _atom_site_fract_y
 _atom_site_fract_z
 _atom_site_occupancy
  Y  Y0  1  0.670251  0.000184  0.249901  1
  Y  Y1  1  0.330361  0.000476  0.749198  1
  Er  Er2  1  0.000389  0.670336  0.249932  1
  Er  Er3  1  0.000356  0.330335  0.749168  1
  Al  Al4  1  0.664829  0.664622  0.447862  1
  Al  Al5  1  0.668531  0.668302  0.052326  1
  Al  Al6  1  0.331928  0.332151  0.948314  1
  Ga  Ga7  1  0.127676  0.127441  0.249335  1
  Ga  Ga8  1  0.872368  0.872603  0.749412  1
  Ga  Ga9  1  0.000024  0.335682  0.078991  1
  Ga  Ga10  1  0.000140  0.664576  0.920788  1
  Ga  Ga11  1  0.999464  0.664389  0.579238  1
  Ga  Ga12  1  0.335386  0.001152  0.418688  1
  Ga  Ga13  1  0.001462  0.336069  0.418916  1
  Ga  Ga14  1  0.665077  0.999775  0.579469  1
  Ga  Ga15  1  0.665248  0.000462  0.920552  1
  Ga  Ga16  1  0.335011  0.999700  0.079233  1
  Ga  Ga17  1  0.328838  0.329151  0.564079  1
  Ga  Ga18  1  0.346679  0.549893  0.249861  1
  Ga  Ga19  1  0.657066  0.451541  0.750195  1
  Ga  Ga20  1  0.550259  0.347244  0.249863  1
  Ga  Ga21  1  0.451197  0.656508  0.750197  1
  Ir  Ir22  1  0.669120  0.330524  0.999647  1
  Ir  Ir23  1  0.330263  0.668859  0.999657  1
  Ir  Ir24  1  0.330094  0.671843  0.499172  1
  Ir  Ir25  1  0.672112  0.330372  0.499214  1
  Ir  Ir26  1  0.000188  0.000196  0.999199  1
  Ir  Ir27  1  0.995682  0.995611  0.497593  1
