# generated using pymatgen
data_TmLu6Co6Sn23
_symmetry_space_group_name_H-M   'P 1'
_cell_length_a   9.63905700
_cell_length_b   9.63905518
_cell_length_c   9.93695700
_cell_angle_alpha   90.00000000
_cell_angle_beta   90.00000000
_cell_angle_gamma   119.99999594
_symmetry_Int_Tables_number   1
_chemical_formula_structural   TmLu6Co6Sn23
_chemical_formula_sum   'Tm1 Lu6 Co6 Sn23'
_cell_volume   799.56371117
_cell_formula_units_Z   1
loop_
 _symmetry_equiv_pos_site_id
 _symmetry_equiv_pos_as_xyz
  1  'x, y, z'
loop_
 _atom_site_type_symbol
 _atom_site_label
 _atom_site_symmetry_multiplicity
 _atom_site_fract_x
 _atom_site_fract_y
 _atom_site_fract_z
 _atom_site_occupancy
  Tm  Tm0  1  0.000000  0.000000  0.000000  1
  Lu  Lu1  1  0.520639  0.479361  0.693381  1
  Lu  Lu2  1  0.520639  0.041278  0.693381  1
  Lu  Lu3  1  0.958722  0.479361  0.693381  1
  Lu  Lu4  1  0.041278  0.520639  0.306619  1
  Lu  Lu5  1  0.479361  0.958722  0.306619  1
  Lu  Lu6  1  0.479361  0.520639  0.306619  1
  Co  Co7  1  0.168233  0.831767  0.802670  1
  Co  Co8  1  0.168233  0.336465  0.802670  1
  Co  Co9  1  0.663535  0.831767  0.802670  1
  Co  Co10  1  0.336465  0.168233  0.197330  1
  Co  Co11  1  0.831767  0.663535  0.197330  1
  Co  Co12  1  0.831767  0.168233  0.197330  1
  Sn  Sn13  1  0.666667  0.333333  0.182707  1
  Sn  Sn14  1  0.666667  0.333333  0.877454  1
  Sn  Sn15  1  0.333333  0.666667  0.122546  1
  Sn  Sn16  1  0.346386  0.346386  0.000000  1
  Sn  Sn17  1  0.000000  0.653614  0.000000  1
  Sn  Sn18  1  0.653614  0.000000  0.000000  1
  Sn  Sn19  1  0.653614  0.653614  0.000000  1
  Sn  Sn20  1  0.333333  0.666667  0.817293  1
  Sn  Sn21  1  0.438094  0.219047  0.451828  1
  Sn  Sn22  1  0.219047  0.780953  0.548172  1
  Sn  Sn23  1  0.219047  0.438094  0.548172  1
  Sn  Sn24  1  0.561906  0.780953  0.548172  1
  Sn  Sn25  1  0.119012  0.880988  0.274256  1
  Sn  Sn26  1  0.780953  0.561906  0.451828  1
  Sn  Sn27  1  0.780953  0.219047  0.451828  1
  Sn  Sn28  1  0.346386  0.000000  0.000000  1
  Sn  Sn29  1  0.119012  0.238026  0.274256  1
  Sn  Sn30  1  0.761974  0.880988  0.274256  1
  Sn  Sn31  1  0.238026  0.119012  0.725744  1
  Sn  Sn32  1  0.880988  0.761974  0.725744  1
  Sn  Sn33  1  0.880988  0.119012  0.725744  1
  Sn  Sn34  1  0.000000  0.000000  0.500000  1
  Sn  Sn35  1  0.000000  0.346386  0.000000  1
