# generated using pymatgen
data_Tm3Hf(P3Rh4)2
_symmetry_space_group_name_H-M   'P 1'
_cell_length_a   3.92118600
_cell_length_b   11.16986700
_cell_length_c   12.90545600
_cell_angle_alpha   90.00000000
_cell_angle_beta   90.00000000
_cell_angle_gamma   90.00000000
_symmetry_Int_Tables_number   1
_chemical_formula_structural   Tm3Hf(P3Rh4)2
_chemical_formula_sum   'Tm6 Hf2 P12 Rh16'
_cell_volume   565.24769475
_cell_formula_units_Z   2
loop_
 _symmetry_equiv_pos_site_id
 _symmetry_equiv_pos_as_xyz
  1  'x, y, z'
loop_
 _atom_site_type_symbol
 _atom_site_label
 _atom_site_symmetry_multiplicity
 _atom_site_fract_x
 _atom_site_fract_y
 _atom_site_fract_z
 _atom_site_occupancy
  Tm  Tm0  1  0.000000  0.500000  0.524309  1
  Tm  Tm1  1  0.500000  0.000000  0.475691  1
  Tm  Tm2  1  0.500000  0.820598  0.201391  1
  Tm  Tm3  1  0.500000  0.179402  0.201391  1
  Tm  Tm4  1  0.000000  0.679402  0.798609  1
  Tm  Tm5  1  0.000000  0.320598  0.798609  1
  Hf  Hf6  1  0.500000  0.500000  0.159892  1
  Hf  Hf7  1  0.000000  0.000000  0.840108  1
  P  P8  1  0.500000  0.500000  0.877884  1
  P  P9  1  0.000000  0.000000  0.122116  1
  P  P10  1  0.500000  0.500000  0.361834  1
  P  P11  1  0.000000  0.000000  0.638166  1
  P  P12  1  0.500000  0.314686  0.617068  1
  P  P13  1  0.500000  0.685314  0.617068  1
  P  P14  1  0.000000  0.185314  0.382932  1
  P  P15  1  0.000000  0.814686  0.382932  1
  P  P16  1  0.500000  0.841406  0.886836  1
  P  P17  1  0.500000  0.158594  0.886836  1
  P  P18  1  0.000000  0.658594  0.113164  1
  P  P19  1  0.000000  0.341406  0.113164  1
  Rh  Rh20  1  0.500000  0.500000  0.700285  1
  Rh  Rh21  1  0.000000  0.000000  0.299715  1
  Rh  Rh22  1  0.000000  0.500000  0.985460  1
  Rh  Rh23  1  0.500000  0.000000  0.014540  1
  Rh  Rh24  1  0.500000  0.331493  0.989427  1
  Rh  Rh25  1  0.500000  0.668507  0.989427  1
  Rh  Rh26  1  0.000000  0.168507  0.010573  1
  Rh  Rh27  1  0.000000  0.831493  0.010573  1
  Rh  Rh28  1  0.500000  0.293490  0.432907  1
  Rh  Rh29  1  0.500000  0.706510  0.432907  1
  Rh  Rh30  1  0.000000  0.206510  0.567093  1
  Rh  Rh31  1  0.000000  0.793490  0.567093  1
  Rh  Rh32  1  0.500000  0.872470  0.706004  1
  Rh  Rh33  1  0.500000  0.127530  0.706004  1
  Rh  Rh34  1  0.000000  0.627530  0.293996  1
  Rh  Rh35  1  0.000000  0.372470  0.293996  1
