# generated using pymatgen
data_Ce3Th3ZnCo5Sb8
_symmetry_space_group_name_H-M   'P 1'
_cell_length_a   8.30115742
_cell_length_b   8.29803031
_cell_length_c   8.29959575
_cell_angle_alpha   109.10554379
_cell_angle_beta   109.20869634
_cell_angle_gamma   110.13048778
_symmetry_Int_Tables_number   1
_chemical_formula_structural   Ce3Th3ZnCo5Sb8
_chemical_formula_sum   'Ce3 Th3 Zn1 Co5 Sb8'
_cell_volume   439.89641149
_cell_formula_units_Z   1
loop_
 _symmetry_equiv_pos_site_id
 _symmetry_equiv_pos_as_xyz
  1  'x, y, z'
loop_
 _atom_site_type_symbol
 _atom_site_label
 _atom_site_symmetry_multiplicity
 _atom_site_fract_x
 _atom_site_fract_y
 _atom_site_fract_z
 _atom_site_occupancy
  Ce  Ce0  1  0.382811  0.261921  0.639640  1
  Ce  Ce1  1  0.737749  0.877279  0.119602  1
  Ce  Ce2  1  0.256643  0.617861  0.379533  1
  Th  Th3  1  0.625164  0.374600  0.250628  1
  Th  Th4  1  0.875713  0.125743  0.750120  1
  Th  Th5  1  0.123652  0.743744  0.862096  1
  Zn  Zn6  1  0.124741  0.876039  0.252119  1
  Co  Co7  1  0.619744  0.748037  0.371124  1
  Co  Co8  1  0.876771  0.248832  0.128497  1
  Co  Co9  1  0.252857  0.124610  0.872221  1
  Co  Co10  1  0.748511  0.377256  0.626963  1
  Co  Co11  1  0.375703  0.625373  0.749387  1
  Sb  Sb12  1  0.001209  0.335781  0.498003  1
  Sb  Sb13  1  0.833933  0.490211  0.994960  1
  Sb  Sb14  1  0.500152  0.999871  0.836034  1
  Sb  Sb15  1  0.660345  0.660722  0.661770  1
  Sb  Sb16  1  0.159361  0.166375  0.156900  1
  Sb  Sb17  1  0.340311  0.501462  0.000871  1
  Sb  Sb18  1  0.508950  0.002747  0.344667  1
  Sb  Sb19  1  0.995681  0.841535  0.504865  1
