# generated using pymatgen
data_Li4Ca3LaSi8
_symmetry_space_group_name_H-M   'P 1'
_cell_length_a   3.84185100
_cell_length_b   7.91333118
_cell_length_c   10.66568826
_cell_angle_alpha   89.89743437
_cell_angle_beta   90.00000000
_cell_angle_gamma   90.00000000
_symmetry_Int_Tables_number   1
_chemical_formula_structural   Li4Ca3LaSi8
_chemical_formula_sum   'Li4 Ca3 La1 Si8'
_cell_volume   324.25602100
_cell_formula_units_Z   1
loop_
 _symmetry_equiv_pos_site_id
 _symmetry_equiv_pos_as_xyz
  1  'x, y, z'
loop_
 _atom_site_type_symbol
 _atom_site_label
 _atom_site_symmetry_multiplicity
 _atom_site_fract_x
 _atom_site_fract_y
 _atom_site_fract_z
 _atom_site_occupancy
  Li  Li0  1  0.250000  0.998594  0.388189  1
  Li  Li1  1  0.750000  0.000235  0.609773  1
  Li  Li2  1  0.250000  0.498599  0.111878  1
  Li  Li3  1  0.750000  0.503994  0.888264  1
  Ca  Ca4  1  0.750000  0.866472  0.135366  1
  Ca  Ca5  1  0.250000  0.634429  0.635672  1
  Ca  Ca6  1  0.750000  0.366511  0.364884  1
  La  La7  1  0.250000  0.132430  0.865453  1
  Si  Si8  1  0.750000  0.269343  0.069436  1
  Si  Si9  1  0.250000  0.731349  0.932094  1
  Si  Si10  1  0.750000  0.767710  0.431906  1
  Si  Si11  1  0.250000  0.231094  0.567405  1
  Si  Si12  1  0.750000  0.832551  0.824700  1
  Si  Si13  1  0.250000  0.166292  0.175099  1
  Si  Si14  1  0.750000  0.333685  0.674342  1
  Si  Si15  1  0.250000  0.666710  0.325539  1
