# generated using pymatgen
data_Hf17ScRe6(NiW)2
_symmetry_space_group_name_H-M   'P 1'
_cell_length_a   8.64141155
_cell_length_b   8.64141171
_cell_length_c   8.43038200
_cell_angle_alpha   90.00000000
_cell_angle_beta   90.00000000
_cell_angle_gamma   119.79706846
_symmetry_Int_Tables_number   1
_chemical_formula_structural   Hf17ScRe6(NiW)2
_chemical_formula_sum   'Hf17 Sc1 Re6 Ni2 W2'
_cell_volume   546.30065557
_cell_formula_units_Z   1
loop_
 _symmetry_equiv_pos_site_id
 _symmetry_equiv_pos_as_xyz
  1  'x, y, z'
loop_
 _atom_site_type_symbol
 _atom_site_label
 _atom_site_symmetry_multiplicity
 _atom_site_fract_x
 _atom_site_fract_y
 _atom_site_fract_z
 _atom_site_occupancy
  Hf  Hf0  1  0.198597  0.801403  0.444497  1
  Hf  Hf1  1  0.199269  0.397649  0.442707  1
  Hf  Hf2  1  0.602351  0.800731  0.442707  1
  Hf  Hf3  1  0.801244  0.198756  0.556648  1
  Hf  Hf4  1  0.801318  0.602753  0.557339  1
  Hf  Hf5  1  0.397247  0.198682  0.557339  1
  Hf  Hf6  1  0.801244  0.198756  0.943352  1
  Hf  Hf7  1  0.801318  0.602753  0.942661  1
  Hf  Hf8  1  0.397247  0.198682  0.942661  1
  Hf  Hf9  1  0.198597  0.801403  0.055503  1
  Hf  Hf10  1  0.199269  0.397649  0.057293  1
  Hf  Hf11  1  0.602351  0.800731  0.057293  1
  Hf  Hf12  1  0.540625  0.082476  0.250000  1
  Hf  Hf13  1  0.917524  0.459375  0.250000  1
  Hf  Hf14  1  0.458444  0.541556  0.750000  1
  Hf  Hf15  1  0.459724  0.917037  0.750000  1
  Hf  Hf16  1  0.082963  0.540276  0.750000  1
  Sc  Sc17  1  0.541730  0.458270  0.250000  1
  Re  Re18  1  0.888179  0.111821  0.250000  1
  Re  Re19  1  0.889410  0.777343  0.250000  1
  Re  Re20  1  0.222657  0.110590  0.250000  1
  Re  Re21  1  0.111412  0.888588  0.750000  1
  Re  Re22  1  0.111019  0.222178  0.750000  1
  Re  Re23  1  0.777822  0.888981  0.750000  1
  Ni  Ni24  1  0.331135  0.668865  0.250000  1
  Ni  Ni25  1  0.667249  0.332751  0.750000  1
  W  W26  1  0.000029  0.999971  0.498398  1
  W  W27  1  0.000029  0.999971  0.001602  1
