# generated using pymatgen
data_Rb4Zr6CoCl18
_symmetry_space_group_name_H-M   'P 1'
_cell_length_a   10.51280816
_cell_length_b   10.51280855
_cell_length_c   10.20410648
_cell_angle_alpha   77.35238307
_cell_angle_beta   77.35238782
_cell_angle_gamma   117.50226376
_symmetry_Int_Tables_number   1
_chemical_formula_structural   Rb4Zr6CoCl18
_chemical_formula_sum   'Rb4 Zr6 Co1 Cl18'
_cell_volume   906.83739707
_cell_formula_units_Z   1
loop_
 _symmetry_equiv_pos_site_id
 _symmetry_equiv_pos_as_xyz
  1  'x, y, z'
loop_
 _atom_site_type_symbol
 _atom_site_label
 _atom_site_symmetry_multiplicity
 _atom_site_fract_x
 _atom_site_fract_y
 _atom_site_fract_z
 _atom_site_occupancy
  Rb  Rb0  1  0.768225  0.443350  0.683748  1
  Rb  Rb1  1  0.556650  0.231775  0.316252  1
  Rb  Rb2  1  0.231775  0.556650  0.316252  1
  Rb  Rb3  1  0.443350  0.768225  0.683748  1
  Zr  Zr4  1  0.130346  0.130346  0.147522  1
  Zr  Zr5  1  0.869654  0.869654  0.852478  1
  Zr  Zr6  1  0.945348  0.752123  0.156448  1
  Zr  Zr7  1  0.247877  0.054652  0.843552  1
  Zr  Zr8  1  0.054652  0.247877  0.843552  1
  Zr  Zr9  1  0.752123  0.945348  0.156448  1
  Co  Co10  1  0.000000  0.000000  0.000000  1
  Cl  Cl11  1  0.808511  0.600859  0.009673  1
  Cl  Cl12  1  0.399142  0.191489  0.990327  1
  Cl  Cl13  1  0.191489  0.399142  0.990327  1
  Cl  Cl14  1  0.600858  0.808511  0.009673  1
  Cl  Cl15  1  0.204415  0.795585  0.000000  1
  Cl  Cl16  1  0.795585  0.204415  0.000000  1
  Cl  Cl17  1  0.319068  0.319068  0.672501  1
  Cl  Cl18  1  0.680932  0.680932  0.327499  1
  Cl  Cl19  1  0.887271  0.490003  0.330870  1
  Cl  Cl20  1  0.509997  0.112729  0.669130  1
  Cl  Cl21  1  0.112729  0.509997  0.669130  1
  Cl  Cl22  1  0.490003  0.887271  0.330870  1
  Cl  Cl23  1  0.270888  0.270888  0.297692  1
  Cl  Cl24  1  0.729112  0.729112  0.702308  1
  Cl  Cl25  1  0.079340  0.875785  0.316992  1
  Cl  Cl26  1  0.124215  0.920660  0.683008  1
  Cl  Cl27  1  0.920660  0.124215  0.683008  1
  Cl  Cl28  1  0.875785  0.079340  0.316992  1
