# generated using pymatgen
data_Na5TcO6
_symmetry_space_group_name_H-M   'P 1'
_cell_length_a   5.70341714
_cell_length_b   5.70341773
_cell_length_c   5.66445335
_cell_angle_alpha   100.17297544
_cell_angle_beta   100.17298290
_cell_angle_gamma   119.68705006
_symmetry_Int_Tables_number   1
_chemical_formula_structural   Na5TcO6
_chemical_formula_sum   'Na5 Tc1 O6'
_cell_volume   149.85424908
_cell_formula_units_Z   1
loop_
 _symmetry_equiv_pos_site_id
 _symmetry_equiv_pos_as_xyz
  1  'x, y, z'
loop_
 _atom_site_type_symbol
 _atom_site_label
 _atom_site_symmetry_multiplicity
 _atom_site_fract_x
 _atom_site_fract_y
 _atom_site_fract_z
 _atom_site_occupancy
  Na  Na0  1  0.833386  0.166615  0.000000  1
  Na  Na1  1  0.498914  0.501086  0.000000  1
  Na  Na2  1  0.999286  0.000716  0.499998  1
  Na  Na3  1  0.666986  0.333013  0.500000  1
  Na  Na4  1  0.337013  0.662986  0.500000  1
  Tc  Tc5  1  0.166413  0.833588  0.000000  1
  O  O6  1  0.962037  0.629028  0.202618  1
  O  O7  1  0.512613  0.903701  0.214027  1
  O  O8  1  0.236622  0.180539  0.214057  1
  O  O9  1  0.819462  0.763379  0.785943  1
  O  O10  1  0.096303  0.487390  0.785975  1
  O  O11  1  0.370972  0.037964  0.797382  1
