# generated using pymatgen
data_LuSc3MnAl7
_symmetry_space_group_name_H-M   'P 1'
_cell_length_a   5.38811900
_cell_length_b   5.38811931
_cell_length_c   8.61151000
_cell_angle_alpha   90.00000000
_cell_angle_beta   90.00000000
_cell_angle_gamma   120.00000425
_symmetry_Int_Tables_number   1
_chemical_formula_structural   LuSc3MnAl7
_chemical_formula_sum   'Lu1 Sc3 Mn1 Al7'
_cell_volume   216.51316363
_cell_formula_units_Z   1
loop_
 _symmetry_equiv_pos_site_id
 _symmetry_equiv_pos_as_xyz
  1  'x, y, z'
loop_
 _atom_site_type_symbol
 _atom_site_label
 _atom_site_symmetry_multiplicity
 _atom_site_fract_x
 _atom_site_fract_y
 _atom_site_fract_z
 _atom_site_occupancy
  Lu  Lu0  1  0.333333  0.666667  0.059454  1
  Sc  Sc1  1  0.666667  0.333333  0.562015  1
  Sc  Sc2  1  0.666667  0.333333  0.940425  1
  Sc  Sc3  1  0.333333  0.666667  0.439799  1
  Mn  Mn4  1  0.000000  0.000000  0.500442  1
  Al  Al5  1  0.000000  0.000000  0.999222  1
  Al  Al6  1  0.831301  0.662604  0.260820  1
  Al  Al7  1  0.168310  0.831690  0.738727  1
  Al  Al8  1  0.663380  0.831690  0.738727  1
  Al  Al9  1  0.337396  0.168699  0.260820  1
  Al  Al10  1  0.831301  0.168699  0.260820  1
  Al  Al11  1  0.168310  0.336620  0.738727  1
