# generated using pymatgen
data_DyTm(Ni2P)4
_symmetry_space_group_name_H-M   'P 1'
_cell_length_a   7.06895712
_cell_length_b   7.06895712
_cell_length_c   3.60070800
_cell_angle_alpha   90.00000000
_cell_angle_beta   90.00000000
_cell_angle_gamma   90.02097643
_symmetry_Int_Tables_number   1
_chemical_formula_structural   DyTm(Ni2P)4
_chemical_formula_sum   'Dy1 Tm1 Ni8 P4'
_cell_volume   179.92792388
_cell_formula_units_Z   1
loop_
 _symmetry_equiv_pos_site_id
 _symmetry_equiv_pos_as_xyz
  1  'x, y, z'
loop_
 _atom_site_type_symbol
 _atom_site_label
 _atom_site_symmetry_multiplicity
 _atom_site_fract_x
 _atom_site_fract_y
 _atom_site_fract_z
 _atom_site_occupancy
  Dy  Dy0  1  0.500000  0.500000  0.500000  1
  Tm  Tm1  1  0.000000  0.000000  0.000000  1
  Ni  Ni2  1  0.585561  0.837043  0.000000  1
  Ni  Ni3  1  0.837043  0.585561  0.000000  1
  Ni  Ni4  1  0.162957  0.414439  0.000000  1
  Ni  Ni5  1  0.414439  0.162957  0.000000  1
  Ni  Ni6  1  0.664306  0.085025  0.500000  1
  Ni  Ni7  1  0.914975  0.335694  0.500000  1
  Ni  Ni8  1  0.085025  0.664306  0.500000  1
  Ni  Ni9  1  0.335694  0.914975  0.500000  1
  P  P10  1  0.721069  0.278931  0.000000  1
  P  P11  1  0.278931  0.721069  0.000000  1
  P  P12  1  0.780747  0.780747  0.500000  1
  P  P13  1  0.219253  0.219253  0.500000  1
