# generated using pymatgen
data_Zr4Co(AsRu)6
_symmetry_space_group_name_H-M   'P 1'
_cell_length_a   7.06576186
_cell_length_b   7.06576130
_cell_length_c   7.06576099
_cell_angle_alpha   109.22230821
_cell_angle_beta   109.97021369
_cell_angle_gamma   109.22229768
_symmetry_Int_Tables_number   1
_chemical_formula_structural   Zr4Co(AsRu)6
_chemical_formula_sum   'Zr4 Co1 As6 Ru6'
_cell_volume   271.53778212
_cell_formula_units_Z   1
loop_
 _symmetry_equiv_pos_site_id
 _symmetry_equiv_pos_as_xyz
  1  'x, y, z'
loop_
 _atom_site_type_symbol
 _atom_site_label
 _atom_site_symmetry_multiplicity
 _atom_site_fract_x
 _atom_site_fract_y
 _atom_site_fract_z
 _atom_site_occupancy
  Zr  Zr0  1  0.000120  0.000239  0.500120  1
  Zr  Zr1  1  0.499880  0.999761  0.999880  1
  Zr  Zr2  1  0.000120  0.500000  0.999880  1
  Zr  Zr3  1  0.499880  0.500000  0.500120  1
  Co  Co4  1  0.750000  0.500000  0.250000  1
  As  As5  1  0.313841  0.000000  0.313841  1
  As  As6  1  0.995092  0.316301  0.311393  1
  As  As7  1  0.995092  0.683699  0.678791  1
  As  As8  1  0.321209  0.316301  0.004908  1
  As  As9  1  0.688607  0.683699  0.004908  1
  As  As10  1  0.686159  0.000000  0.686159  1
  Ru  Ru11  1  0.502673  0.749018  0.251691  1
  Ru  Ru12  1  0.502673  0.250982  0.753655  1
  Ru  Ru13  1  0.748309  0.250982  0.497327  1
  Ru  Ru14  1  0.246345  0.749018  0.497327  1
  Ru  Ru15  1  0.250000  0.500000  0.750000  1
  Ru  Ru16  1  0.000000  0.000000  0.000000  1
