# generated using pymatgen
data_Dy4TmZrGa10
_symmetry_space_group_name_H-M   'P 1'
_cell_length_a   6.10172100
_cell_length_b   9.52699100
_cell_length_c   11.33173900
_cell_angle_alpha   90.00000000
_cell_angle_beta   90.00000000
_cell_angle_gamma   90.00000000
_symmetry_Int_Tables_number   1
_chemical_formula_structural   Dy4TmZrGa10
_chemical_formula_sum   'Dy8 Tm2 Zr2 Ga20'
_cell_volume   658.72578499
_cell_formula_units_Z   2
loop_
 _symmetry_equiv_pos_site_id
 _symmetry_equiv_pos_as_xyz
  1  'x, y, z'
loop_
 _atom_site_type_symbol
 _atom_site_label
 _atom_site_symmetry_multiplicity
 _atom_site_fract_x
 _atom_site_fract_y
 _atom_site_fract_z
 _atom_site_occupancy
  Dy  Dy0  1  0.886904  0.513442  0.352776  1
  Dy  Dy1  1  0.613096  0.986558  0.852776  1
  Dy  Dy2  1  0.110294  0.011553  0.648692  1
  Dy  Dy3  1  0.389706  0.488447  0.148692  1
  Dy  Dy4  1  0.110294  0.488447  0.648692  1
  Dy  Dy5  1  0.389706  0.011553  0.148692  1
  Dy  Dy6  1  0.886904  0.986558  0.352776  1
  Dy  Dy7  1  0.613096  0.513442  0.852776  1
  Tm  Tm8  1  0.152562  0.250000  0.923662  1
  Tm  Tm9  1  0.347438  0.250000  0.423662  1
  Zr  Zr10  1  0.859566  0.750000  0.076754  1
  Zr  Zr11  1  0.640434  0.750000  0.576754  1
  Ga  Ga12  1  0.874249  0.046995  0.089828  1
  Ga  Ga13  1  0.625751  0.453005  0.589828  1
  Ga  Ga14  1  0.124287  0.558610  0.911724  1
  Ga  Ga15  1  0.375713  0.941390  0.411724  1
  Ga  Ga16  1  0.124287  0.941390  0.911724  1
  Ga  Ga17  1  0.375713  0.558610  0.411724  1
  Ga  Ga18  1  0.874249  0.453005  0.089828  1
  Ga  Ga19  1  0.625751  0.046995  0.589828  1
  Ga  Ga20  1  0.168661  0.750000  0.250921  1
  Ga  Ga21  1  0.331339  0.750000  0.750921  1
  Ga  Ga22  1  0.826002  0.250000  0.748675  1
  Ga  Ga23  1  0.673998  0.250000  0.248675  1
  Ga  Ga24  1  0.387893  0.750000  0.006255  1
  Ga  Ga25  1  0.112107  0.750000  0.506255  1
  Ga  Ga26  1  0.629156  0.250000  0.995666  1
  Ga  Ga27  1  0.870844  0.250000  0.495666  1
  Ga  Ga28  1  0.602616  0.750000  0.291107  1
  Ga  Ga29  1  0.897384  0.750000  0.791107  1
  Ga  Ga30  1  0.403503  0.250000  0.700922  1
  Ga  Ga31  1  0.096497  0.250000  0.200922  1
