# generated using pymatgen
data_Yb2HgN
_symmetry_space_group_name_H-M   'P 1'
_cell_length_a   10.04119208
_cell_length_b   10.04119210
_cell_length_c   5.05329300
_cell_angle_alpha   90.00000000
_cell_angle_beta   90.00000000
_cell_angle_gamma   160.84098045
_symmetry_Int_Tables_number   1
_chemical_formula_structural   Yb2HgN
_chemical_formula_sum   'Yb4 Hg2 N2'
_cell_volume   167.21369150
_cell_formula_units_Z   2
loop_
 _symmetry_equiv_pos_site_id
 _symmetry_equiv_pos_as_xyz
  1  'x, y, z'
loop_
 _atom_site_type_symbol
 _atom_site_label
 _atom_site_symmetry_multiplicity
 _atom_site_fract_x
 _atom_site_fract_y
 _atom_site_fract_z
 _atom_site_occupancy
  Yb  Yb0  1  0.281903  0.718096  0.249999  1
  Yb  Yb1  1  0.118871  0.881128  0.249999  1
  Yb  Yb2  1  0.881128  0.118871  0.750000  1
  Yb  Yb3  1  0.718096  0.281903  0.750000  1
  Hg  Hg4  1  0.454055  0.545944  0.249999  1
  Hg  Hg5  1  0.545944  0.454055  0.750000  1
  N  N6  1  0.699365  0.300634  0.249999  1
  N  N7  1  0.300634  0.699365  0.750000  1
