# generated using pymatgen
data_Er8Sc2In8IrPt3
_symmetry_space_group_name_H-M   'P 1'
_cell_length_a   3.60340800
_cell_length_b   8.02075302
_cell_length_c   17.98263170
_cell_angle_alpha   89.84408776
_cell_angle_beta   90.00000000
_cell_angle_gamma   90.00000000
_symmetry_Int_Tables_number   1
_chemical_formula_structural   Er8Sc2In8IrPt3
_chemical_formula_sum   'Er8 Sc2 In8 Ir1 Pt3'
_cell_volume   519.73291694
_cell_formula_units_Z   1
loop_
 _symmetry_equiv_pos_site_id
 _symmetry_equiv_pos_as_xyz
  1  'x, y, z'
loop_
 _atom_site_type_symbol
 _atom_site_label
 _atom_site_symmetry_multiplicity
 _atom_site_fract_x
 _atom_site_fract_y
 _atom_site_fract_z
 _atom_site_occupancy
  Er  Er0  1  0.000000  0.383107  0.913873  1
  Er  Er1  1  0.000000  0.617746  0.087464  1
  Er  Er2  1  0.000000  0.238085  0.223938  1
  Er  Er3  1  0.000000  0.757586  0.776977  1
  Er  Er4  1  0.000000  0.257411  0.716001  1
  Er  Er5  1  0.000000  0.748355  0.284474  1
  Er  Er6  1  0.000000  0.000464  0.000386  1
  Er  Er7  1  0.000000  0.501246  0.499266  1
  Sc  Sc8  1  0.000000  0.112946  0.411484  1
  Sc  Sc9  1  0.000000  0.884367  0.585994  1
  In  In10  1  0.500000  0.412478  0.354691  1
  In  In11  1  0.500000  0.584891  0.645043  1
  In  In12  1  0.500000  0.075790  0.849181  1
  In  In13  1  0.500000  0.927274  0.151647  1
  In  In14  1  0.500000  0.291950  0.067544  1
  In  In15  1  0.500000  0.708991  0.932802  1
  In  In16  1  0.500000  0.194819  0.559108  1
  In  In17  1  0.500000  0.806250  0.439226  1
  Ir  Ir18  1  0.500000  0.025329  0.309545  1
  Pt  Pt19  1  0.500000  0.972641  0.690939  1
  Pt  Pt20  1  0.500000  0.473884  0.801514  1
  Pt  Pt21  1  0.500000  0.524392  0.198902  1
