# generated using pymatgen
data_Np2Fe6Co6P7
_symmetry_space_group_name_H-M   'P 1'
_cell_length_a   3.59800700
_cell_length_b   8.92931405
_cell_length_c   8.93153500
_cell_angle_alpha   119.99490237
_cell_angle_beta   90.00000000
_cell_angle_gamma   90.00000000
_symmetry_Int_Tables_number   1
_chemical_formula_structural   Np2Fe6Co6P7
_chemical_formula_sum   'Np2 Fe6 Co6 P7'
_cell_volume   248.51874056
_cell_formula_units_Z   1
loop_
 _symmetry_equiv_pos_site_id
 _symmetry_equiv_pos_as_xyz
  1  'x, y, z'
loop_
 _atom_site_type_symbol
 _atom_site_label
 _atom_site_symmetry_multiplicity
 _atom_site_fract_x
 _atom_site_fract_y
 _atom_site_fract_z
 _atom_site_occupancy
  Np  Np0  1  0.000000  0.666700  0.333452  1
  Np  Np1  1  0.500000  0.333314  0.666530  1
  Fe  Fe2  1  0.000000  0.881023  0.725823  1
  Fe  Fe3  1  0.000000  0.274545  0.155236  1
  Fe  Fe4  1  0.000000  0.844408  0.119098  1
  Fe  Fe5  1  0.500000  0.123873  0.899783  1
  Fe  Fe6  1  0.500000  0.099779  0.223266  1
  Fe  Fe7  1  0.500000  0.776140  0.876516  1
  Co  Co8  1  0.000000  0.374173  0.940882  1
  Co  Co9  1  0.000000  0.058951  0.433302  1
  Co  Co10  1  0.000000  0.566850  0.625804  1
  Co  Co11  1  0.500000  0.949311  0.565639  1
  Co  Co12  1  0.500000  0.434635  0.383959  1
  Co  Co13  1  0.500000  0.616115  0.050552  1
  P  P14  1  0.000000  0.112673  0.706570  1
  P  P15  1  0.000000  0.293386  0.405809  1
  P  P16  1  0.000000  0.593912  0.887242  1
  P  P17  1  0.500000  0.712195  0.600707  1
  P  P18  1  0.500000  0.399559  0.111653  1
  P  P19  1  0.500000  0.888380  0.287932  1
  P  P20  1  0.000000  0.000080  0.000248  1
