# generated using pymatgen
data_Ho16CdIn(HgPd2)2
_symmetry_space_group_name_H-M   'P 1'
_cell_length_a   9.64819013
_cell_length_b   9.65491230
_cell_length_c   9.65491427
_cell_angle_alpha   60.03191604
_cell_angle_beta   60.01621496
_cell_angle_gamma   60.01620847
_symmetry_Int_Tables_number   1
_chemical_formula_structural   Ho16CdIn(HgPd2)2
_chemical_formula_sum   'Ho16 Cd1 In1 Hg2 Pd4'
_cell_volume   636.26595034
_cell_formula_units_Z   1
loop_
 _symmetry_equiv_pos_site_id
 _symmetry_equiv_pos_as_xyz
  1  'x, y, z'
loop_
 _atom_site_type_symbol
 _atom_site_label
 _atom_site_symmetry_multiplicity
 _atom_site_fract_x
 _atom_site_fract_y
 _atom_site_fract_z
 _atom_site_occupancy
  Ho  Ho0  1  0.353437  0.353028  0.353028  1
  Ho  Ho1  1  0.356791  0.356059  0.934684  1
  Ho  Ho2  1  0.356791  0.934684  0.356059  1
  Ho  Ho3  1  0.932623  0.356911  0.356911  1
  Ho  Ho4  1  0.810329  0.189970  0.189970  1
  Ho  Ho5  1  0.189891  0.810102  0.810102  1
  Ho  Ho6  1  0.188855  0.811062  0.189929  1
  Ho  Ho7  1  0.809774  0.190713  0.809841  1
  Ho  Ho8  1  0.188855  0.189929  0.811062  1
  Ho  Ho9  1  0.809774  0.809841  0.190713  1
  Ho  Ho10  1  0.935470  0.566988  0.566988  1
  Ho  Ho11  1  0.563962  0.936211  0.936211  1
  Ho  Ho12  1  0.566275  0.937393  0.566676  1
  Ho  Ho13  1  0.934790  0.564671  0.936631  1
  Ho  Ho14  1  0.566275  0.566676  0.937393  1
  Ho  Ho15  1  0.934790  0.936631  0.564671  1
  Cd  Cd16  1  0.251843  0.581406  0.581406  1
  In  In17  1  0.582118  0.582420  0.582420  1
  Hg  Hg18  1  0.584463  0.586383  0.239678  1
  Hg  Hg19  1  0.584463  0.239678  0.586383  1
  Pd  Pd20  1  0.145665  0.146025  0.146025  1
  Pd  Pd21  1  0.143287  0.143758  0.565876  1
  Pd  Pd22  1  0.143287  0.565876  0.143758  1
  Pd  Pd23  1  0.566193  0.143583  0.143583  1
