# generated using pymatgen
data_Cs2NiWS4
_symmetry_space_group_name_H-M   'P 1'
_cell_length_a   14.48820112
_cell_length_b   12.89761854
_cell_length_c   7.63141738
_cell_angle_alpha   85.72357638
_cell_angle_beta   62.59022581
_cell_angle_gamma   31.68620545
_symmetry_Int_Tables_number   1
_chemical_formula_structural   Cs2NiWS4
_chemical_formula_sum   'Cs4 Ni2 W2 S8'
_cell_volume   487.45028768
_cell_formula_units_Z   2
loop_
 _symmetry_equiv_pos_site_id
 _symmetry_equiv_pos_as_xyz
  1  'x, y, z'
loop_
 _atom_site_type_symbol
 _atom_site_label
 _atom_site_symmetry_multiplicity
 _atom_site_fract_x
 _atom_site_fract_y
 _atom_site_fract_z
 _atom_site_occupancy
  Cs  Cs0  1  0.573275  0.573275  0.926725  1
  Cs  Cs1  1  0.926725  0.926725  0.573275  1
  Cs  Cs2  1  0.323275  0.323275  0.676725  1
  Cs  Cs3  1  0.676725  0.676725  0.323275  1
  Ni  Ni4  1  0.000000  0.000000  0.000000  1
  Ni  Ni5  1  0.250000  0.250000  0.250000  1
  W  W6  1  0.750000  0.750000  0.750000  1
  W  W7  1  0.500000  0.500000  0.500000  1
  S  S8  1  0.214046  0.887558  0.607689  1
  S  S9  1  0.290706  0.607689  0.887558  1
  S  S10  1  0.607689  0.290706  0.214046  1
  S  S11  1  0.887558  0.214046  0.290706  1
  S  S12  1  0.362442  0.035954  0.959294  1
  S  S13  1  0.959294  0.642311  0.362442  1
  S  S14  1  0.642311  0.959294  0.035954  1
  S  S15  1  0.035954  0.362442  0.642311  1
