# generated using pymatgen
data_BaAgAu(SeO4)4
_symmetry_space_group_name_H-M   'P 1'
_cell_length_a   7.12815655
_cell_length_b   7.12815658
_cell_length_c   9.52783551
_cell_angle_alpha   73.11256859
_cell_angle_beta   73.11257149
_cell_angle_gamma   86.90037259
_symmetry_Int_Tables_number   1
_chemical_formula_structural   BaAgAu(SeO4)4
_chemical_formula_sum   'Ba1 Ag1 Au1 Se4 O16'
_cell_volume   443.01976947
_cell_formula_units_Z   1
loop_
 _symmetry_equiv_pos_site_id
 _symmetry_equiv_pos_as_xyz
  1  'x, y, z'
loop_
 _atom_site_type_symbol
 _atom_site_label
 _atom_site_symmetry_multiplicity
 _atom_site_fract_x
 _atom_site_fract_y
 _atom_site_fract_z
 _atom_site_occupancy
  Ba  Ba0  1  0.000000  0.000000  0.000000  1
  Ag  Ag1  1  0.500000  0.500000  0.500000  1
  Au  Au2  1  0.000000  0.000000  0.500000  1
  Se  Se3  1  0.089105  0.592012  0.729432  1
  Se  Se4  1  0.592012  0.089105  0.729432  1
  Se  Se5  1  0.910895  0.407988  0.270568  1
  Se  Se6  1  0.407988  0.910895  0.270568  1
  O  O7  1  0.341093  0.629110  0.661358  1
  O  O8  1  0.629110  0.341093  0.661358  1
  O  O9  1  0.658907  0.370890  0.338642  1
  O  O10  1  0.370890  0.658907  0.338642  1
  O  O11  1  0.021393  0.703106  0.863535  1
  O  O12  1  0.703106  0.021393  0.863535  1
  O  O13  1  0.978607  0.296894  0.136465  1
  O  O14  1  0.296894  0.978607  0.136465  1
  O  O15  1  0.987438  0.702682  0.580329  1
  O  O16  1  0.702682  0.987438  0.580329  1
  O  O17  1  0.012562  0.297318  0.419671  1
  O  O18  1  0.297318  0.012562  0.419671  1
  O  O19  1  0.028984  0.359295  0.773792  1
  O  O20  1  0.359295  0.028984  0.773792  1
  O  O21  1  0.971016  0.640705  0.226208  1
  O  O22  1  0.640705  0.971016  0.226208  1
