# generated using pymatgen
data_TmLu15(ScSb3)4
_symmetry_space_group_name_H-M   'P 1'
_cell_length_a   7.85703800
_cell_length_b   9.09065800
_cell_length_c   11.54303200
_cell_angle_alpha   90.00000000
_cell_angle_beta   90.00230375
_cell_angle_gamma   90.00000000
_symmetry_Int_Tables_number   1
_chemical_formula_structural   TmLu15(ScSb3)4
_chemical_formula_sum   'Tm1 Lu15 Sc4 Sb12'
_cell_volume   824.46850957
_cell_formula_units_Z   1
loop_
 _symmetry_equiv_pos_site_id
 _symmetry_equiv_pos_as_xyz
  1  'x, y, z'
loop_
 _atom_site_type_symbol
 _atom_site_label
 _atom_site_symmetry_multiplicity
 _atom_site_fract_x
 _atom_site_fract_y
 _atom_site_fract_z
 _atom_site_occupancy
  Tm  Tm0  1  0.185310  0.750000  0.720570  1
  Lu  Lu1  1  0.197018  0.562705  0.439812  1
  Lu  Lu2  1  0.697009  0.937301  0.060183  1
  Lu  Lu3  1  0.803022  0.062708  0.560164  1
  Lu  Lu4  1  0.302995  0.437274  0.939856  1
  Lu  Lu5  1  0.803022  0.437292  0.560164  1
  Lu  Lu6  1  0.302995  0.062726  0.939856  1
  Lu  Lu7  1  0.197018  0.937295  0.439812  1
  Lu  Lu8  1  0.697009  0.562699  0.060183  1
  Lu  Lu9  1  0.685372  0.750000  0.779523  1
  Lu  Lu10  1  0.814617  0.250000  0.279540  1
  Lu  Lu11  1  0.314604  0.250000  0.220476  1
  Lu  Lu12  1  0.855310  0.750000  0.284612  1
  Lu  Lu13  1  0.355358  0.750000  0.215420  1
  Lu  Lu14  1  0.144689  0.250000  0.715405  1
  Lu  Lu15  1  0.644638  0.250000  0.784600  1
  Sc  Sc16  1  0.027838  0.750000  0.988900  1
  Sc  Sc17  1  0.527951  0.750000  0.511101  1
  Sc  Sc18  1  0.972092  0.250000  0.011140  1
  Sc  Sc19  1  0.472104  0.250000  0.488859  1
  Sb  Sb20  1  0.932867  0.496449  0.830437  1
  Sb  Sb21  1  0.433136  0.003631  0.669574  1
  Sb  Sb22  1  0.067042  0.996539  0.169601  1
  Sb  Sb23  1  0.567013  0.503470  0.330376  1
  Sb  Sb24  1  0.067042  0.503461  0.169601  1
  Sb  Sb25  1  0.567013  0.996530  0.330376  1
  Sb  Sb26  1  0.932867  0.003551  0.830437  1
  Sb  Sb27  1  0.433136  0.496369  0.669574  1
  Sb  Sb28  1  0.906728  0.750000  0.540993  1
  Sb  Sb29  1  0.407054  0.750000  0.958883  1
  Sb  Sb30  1  0.093082  0.250000  0.458810  1
  Sb  Sb31  1  0.593049  0.250000  0.041162  1
