# generated using pymatgen
data_Er2U(SnRu)3
_symmetry_space_group_name_H-M   'P 1'
_cell_length_a   7.82605600
_cell_length_b   7.42731135
_cell_length_c   3.80329700
_cell_angle_alpha   90.00000000
_cell_angle_beta   90.00000000
_cell_angle_gamma   121.79239623
_symmetry_Int_Tables_number   1
_chemical_formula_structural   Er2U(SnRu)3
_chemical_formula_sum   'Er2 U1 Sn3 Ru3'
_cell_volume   187.90340385
_cell_formula_units_Z   1
loop_
 _symmetry_equiv_pos_site_id
 _symmetry_equiv_pos_as_xyz
  1  'x, y, z'
loop_
 _atom_site_type_symbol
 _atom_site_label
 _atom_site_symmetry_multiplicity
 _atom_site_fract_x
 _atom_site_fract_y
 _atom_site_fract_z
 _atom_site_occupancy
  Er  Er0  1  0.003040  0.404386  0.500000  1
  Er  Er1  1  0.598654  0.595614  0.500000  1
  U  U2  1  0.415205  0.000000  0.500000  1
  Sn  Sn3  1  0.984730  0.723412  0.000000  1
  Sn  Sn4  1  0.261318  0.276588  0.000000  1
  Sn  Sn5  1  0.758340  0.000000  0.000000  1
  Ru  Ru6  1  0.340723  0.716752  0.000000  1
  Ru  Ru7  1  0.623972  0.283248  0.000000  1
  Ru  Ru8  1  0.014019  0.000000  0.500000  1
