# generated using pymatgen
data_Zr7ScH30
_symmetry_space_group_name_H-M   'P 1'
_cell_length_a   7.02381057
_cell_length_b   7.02380988
_cell_length_c   7.02380941
_cell_angle_alpha   109.52257480
_cell_angle_beta   109.52259040
_cell_angle_gamma   109.52257647
_symmetry_Int_Tables_number   1
_chemical_formula_structural   Zr7ScH30
_chemical_formula_sum   'Zr7 Sc1 H30'
_cell_volume   266.23661050
_cell_formula_units_Z   1
loop_
 _symmetry_equiv_pos_site_id
 _symmetry_equiv_pos_as_xyz
  1  'x, y, z'
loop_
 _atom_site_type_symbol
 _atom_site_label
 _atom_site_symmetry_multiplicity
 _atom_site_fract_x
 _atom_site_fract_y
 _atom_site_fract_z
 _atom_site_occupancy
  Zr  Zr0  1  0.499988  0.000694  0.096434  1
  Zr  Zr1  1  0.000694  0.096434  0.499988  1
  Zr  Zr2  1  0.096434  0.499988  0.000694  1
  Zr  Zr3  1  0.998212  0.598475  0.501564  1
  Zr  Zr4  1  0.598475  0.501564  0.998212  1
  Zr  Zr5  1  0.501564  0.998212  0.598475  1
  Zr  Zr6  1  0.404409  0.404409  0.404409  1
  Sc  Sc7  1  0.902341  0.902341  0.902341  1
  H  H8  1  0.654353  0.968754  0.383248  1
  H  H9  1  0.227805  0.312459  0.845339  1
  H  H10  1  0.186537  0.417739  0.531533  1
  H  H11  1  0.090900  0.275383  0.117793  1
  H  H12  1  0.275383  0.117793  0.090900  1
  H  H13  1  0.117793  0.090900  0.275383  1
  H  H14  1  0.468039  0.154900  0.883675  1
  H  H15  1  0.728786  0.345365  0.813087  1
  H  H16  1  0.626344  0.373769  0.250295  1
  H  H17  1  0.250295  0.626344  0.373769  1
  H  H18  1  0.749233  0.873199  0.126176  1
  H  H19  1  0.126176  0.749233  0.873199  1
  H  H20  1  0.373769  0.250295  0.626344  1
  H  H21  1  0.873199  0.126176  0.749233  1
  H  H22  1  0.769758  0.583823  0.612487  1
  H  H23  1  0.312459  0.845339  0.227805  1
  H  H24  1  0.383248  0.654353  0.968754  1
  H  H25  1  0.968754  0.383248  0.654353  1
  H  H26  1  0.531533  0.186537  0.417739  1
  H  H27  1  0.417739  0.531533  0.186537  1
  H  H28  1  0.845339  0.227805  0.312459  1
  H  H29  1  0.914179  0.683977  0.028949  1
  H  H30  1  0.813087  0.728786  0.345365  1
  H  H31  1  0.154900  0.883675  0.468039  1
  H  H32  1  0.683977  0.028949  0.914179  1
  H  H33  1  0.345365  0.813087  0.728786  1
  H  H34  1  0.883675  0.468039  0.154900  1
  H  H35  1  0.612487  0.769758  0.583823  1
  H  H36  1  0.583823  0.612487  0.769758  1
  H  H37  1  0.028949  0.914179  0.683977  1
