# generated using pymatgen
data_Tb2Ho2Al23ZnPt9
_symmetry_space_group_name_H-M   'P 1'
_cell_length_a   7.53511559
_cell_length_b   7.55449448
_cell_length_c   13.15845419
_cell_angle_alpha   84.57461920
_cell_angle_beta   79.04555784
_cell_angle_gamma   59.90767118
_symmetry_Int_Tables_number   1
_chemical_formula_structural   Tb2Ho2Al23ZnPt9
_chemical_formula_sum   'Tb2 Ho2 Al23 Zn1 Pt9'
_cell_volume   636.26703629
_cell_formula_units_Z   1
loop_
 _symmetry_equiv_pos_site_id
 _symmetry_equiv_pos_as_xyz
  1  'x, y, z'
loop_
 _atom_site_type_symbol
 _atom_site_label
 _atom_site_symmetry_multiplicity
 _atom_site_fract_x
 _atom_site_fract_y
 _atom_site_fract_z
 _atom_site_occupancy
  Tb  Tb0  1  0.393591  0.167508  0.809220  1
  Tb  Tb1  1  0.607732  0.831614  0.189617  1
  Ho  Ho2  1  0.733343  0.499037  0.808793  1
  Ho  Ho3  1  0.266649  0.502030  0.191039  1
  Al  Al4  1  0.320724  0.162055  0.054426  1
  Al  Al5  1  0.146931  0.831895  0.562024  1
  Al  Al6  1  0.853410  0.168034  0.438726  1
  Al  Al7  1  0.479908  0.166541  0.559330  1
  Al  Al8  1  0.520099  0.833543  0.441073  1
  Al  Al9  1  0.217950  0.165280  0.328678  1
  Al  Al10  1  0.782721  0.834461  0.670928  1
  Al  Al11  1  0.435945  0.506716  0.672199  1
  Al  Al12  1  0.563379  0.493802  0.328727  1
  Al  Al13  1  0.108749  0.159891  0.670224  1
  Al  Al14  1  0.890648  0.839992  0.330706  1
  Al  Al15  1  0.353542  0.499774  0.943991  1
  Al  Al16  1  0.648619  0.504323  0.054124  1
  Al  Al17  1  0.015800  0.167820  0.954419  1
  Al  Al18  1  0.981685  0.832139  0.042374  1
  Al  Al19  1  0.186727  0.499537  0.441212  1
  Al  Al20  1  0.813241  0.500476  0.559366  1
  Al  Al21  1  0.734385  0.165124  0.183439  1
  Al  Al22  1  0.264470  0.835649  0.817024  1
  Al  Al23  1  0.057143  0.632458  0.817355  1
  Al  Al24  1  0.940171  0.367957  0.184534  1
  Al  Al25  1  0.852741  0.041286  0.818258  1
  Al  Al26  1  0.144107  0.957776  0.183846  1
  Zn  Zn27  1  0.685048  0.833314  0.938509  1
  Pt  Pt28  1  0.119588  0.492026  0.638751  1
  Pt  Pt29  1  0.880337  0.508104  0.362039  1
  Pt  Pt30  1  0.656699  0.178738  0.001085  1
  Pt  Pt31  1  0.336641  0.827578  0.001575  1
  Pt  Pt32  1  0.537214  0.167736  0.361943  1
  Pt  Pt33  1  0.462510  0.832264  0.638523  1
  Pt  Pt34  1  0.778738  0.175248  0.637690  1
  Pt  Pt35  1  0.221189  0.824926  0.363251  1
  Pt  Pt36  1  0.007626  0.493349  0.000977  1
