# generated using pymatgen
data_Lu12InFe3Ni
_symmetry_space_group_name_H-M   'P 1'
_cell_length_a   8.04534348
_cell_length_b   8.04534229
_cell_length_c   8.04534312
_cell_angle_alpha   106.66405381
_cell_angle_beta   111.34466663
_cell_angle_gamma   110.44224386
_symmetry_Int_Tables_number   1
_chemical_formula_structural   Lu12InFe3Ni
_chemical_formula_sum   'Lu12 In1 Fe3 Ni1'
_cell_volume   400.13420262
_cell_formula_units_Z   1
loop_
 _symmetry_equiv_pos_site_id
 _symmetry_equiv_pos_as_xyz
  1  'x, y, z'
loop_
 _atom_site_type_symbol
 _atom_site_label
 _atom_site_symmetry_multiplicity
 _atom_site_fract_x
 _atom_site_fract_y
 _atom_site_fract_z
 _atom_site_occupancy
  Lu  Lu0  1  0.309954  0.308031  0.617985  1
  Lu  Lu1  1  0.690046  0.691969  0.382015  1
  Lu  Lu2  1  0.690046  0.308031  0.998077  1
  Lu  Lu3  1  0.309954  0.691969  0.001923  1
  Lu  Lu4  1  0.188019  0.407925  0.219905  1
  Lu  Lu5  1  0.811981  0.592075  0.780095  1
  Lu  Lu6  1  0.188019  0.968113  0.780095  1
  Lu  Lu7  1  0.918170  0.189751  0.728420  1
  Lu  Lu8  1  0.811981  0.031887  0.219905  1
  Lu  Lu9  1  0.081830  0.810249  0.271580  1
  Lu  Lu10  1  0.461331  0.189751  0.271580  1
  Lu  Lu11  1  0.538669  0.810249  0.728420  1
  In  In12  1  0.000000  0.500000  0.500000  1
  Fe  Fe13  1  0.380273  0.380273  0.000000  1
  Fe  Fe14  1  0.619727  0.619727  0.000000  1
  Fe  Fe15  1  0.000000  0.000000  0.000000  1
  Ni  Ni16  1  0.500000  0.000000  0.500000  1
