# generated using pymatgen
data_Tb8GePd23Au
_symmetry_space_group_name_H-M   'P 1'
_cell_length_a   8.36870800
_cell_length_b   8.36134000
_cell_length_c   8.36134000
_cell_angle_alpha   90.00000000
_cell_angle_beta   90.00000000
_cell_angle_gamma   90.00000000
_symmetry_Int_Tables_number   1
_chemical_formula_structural   Tb8GePd23Au
_chemical_formula_sum   'Tb8 Ge1 Pd23 Au1'
_cell_volume   585.07316889
_cell_formula_units_Z   1
loop_
 _symmetry_equiv_pos_site_id
 _symmetry_equiv_pos_as_xyz
  1  'x, y, z'
loop_
 _atom_site_type_symbol
 _atom_site_label
 _atom_site_symmetry_multiplicity
 _atom_site_fract_x
 _atom_site_fract_y
 _atom_site_fract_z
 _atom_site_occupancy
  Tb  Tb0  1  0.253706  0.249535  0.249535  1
  Tb  Tb1  1  0.746245  0.746806  0.746806  1
  Tb  Tb2  1  0.746245  0.746806  0.253194  1
  Tb  Tb3  1  0.746245  0.253194  0.746806  1
  Tb  Tb4  1  0.253706  0.249535  0.750465  1
  Tb  Tb5  1  0.253706  0.750465  0.249535  1
  Tb  Tb6  1  0.253706  0.750465  0.750465  1
  Tb  Tb7  1  0.746245  0.253194  0.253194  1
  Ge  Ge8  1  0.999564  0.000000  0.000000  1
  Pd  Pd9  1  0.259201  0.500000  0.000000  1
  Pd  Pd10  1  0.740726  0.500000  0.000000  1
  Pd  Pd11  1  0.000131  0.258450  0.500000  1
  Pd  Pd12  1  0.500065  0.259296  0.000000  1
  Pd  Pd13  1  0.000131  0.741550  0.500000  1
  Pd  Pd14  1  0.500065  0.740704  0.000000  1
  Pd  Pd15  1  0.500065  0.000000  0.259296  1
  Pd  Pd16  1  0.259201  0.000000  0.500000  1
  Pd  Pd17  1  0.500065  0.000000  0.740704  1
  Pd  Pd18  1  0.740726  0.000000  0.500000  1
  Pd  Pd19  1  0.000131  0.500000  0.258450  1
  Pd  Pd20  1  0.000131  0.500000  0.741550  1
  Pd  Pd21  1  0.747330  0.500000  0.500000  1
  Pd  Pd22  1  0.499811  0.251964  0.500000  1
  Pd  Pd23  1  0.499811  0.748036  0.500000  1
  Pd  Pd24  1  0.499811  0.500000  0.251964  1
  Pd  Pd25  1  0.499811  0.500000  0.748036  1
  Pd  Pd26  1  0.288908  0.000000  0.000000  1
  Pd  Pd27  1  0.711484  0.000000  0.000000  1
  Pd  Pd28  1  0.999994  0.288649  0.000000  1
  Pd  Pd29  1  0.999994  0.711351  0.000000  1
  Pd  Pd30  1  0.999994  0.000000  0.288649  1
  Pd  Pd31  1  0.999994  0.000000  0.711351  1
  Au  Au32  1  0.253059  0.500000  0.500000  1
