# generated using pymatgen
data_Tm12Tc3As
_symmetry_space_group_name_H-M   'P 1'
_cell_length_a   6.23714257
_cell_length_b   7.41885148
_cell_length_c   8.99597600
_cell_angle_alpha   90.00000000
_cell_angle_beta   90.00000000
_cell_angle_gamma   89.86040874
_symmetry_Int_Tables_number   1
_chemical_formula_structural   Tm12Tc3As
_chemical_formula_sum   'Tm12 Tc3 As1'
_cell_volume   416.26447425
_cell_formula_units_Z   1
loop_
 _symmetry_equiv_pos_site_id
 _symmetry_equiv_pos_as_xyz
  1  'x, y, z'
loop_
 _atom_site_type_symbol
 _atom_site_label
 _atom_site_symmetry_multiplicity
 _atom_site_fract_x
 _atom_site_fract_y
 _atom_site_fract_z
 _atom_site_occupancy
  Tm  Tm0  1  0.332700  0.677077  0.065096  1
  Tm  Tm1  1  0.162324  0.178909  0.434689  1
  Tm  Tm2  1  0.658139  0.310349  0.558892  1
  Tm  Tm3  1  0.849939  0.834052  0.941199  1
  Tm  Tm4  1  0.658139  0.310349  0.941108  1
  Tm  Tm5  1  0.849939  0.834052  0.558801  1
  Tm  Tm6  1  0.332700  0.677077  0.434904  1
  Tm  Tm7  1  0.162324  0.178909  0.065311  1
  Tm  Tm8  1  0.869640  0.540114  0.250000  1
  Tm  Tm9  1  0.618522  0.031949  0.250000  1
  Tm  Tm10  1  0.123204  0.454259  0.750000  1
  Tm  Tm11  1  0.368516  0.974733  0.750000  1
  Tc  Tc12  1  0.036118  0.879634  0.250000  1
  Tc  Tc13  1  0.466394  0.381572  0.250000  1
  Tc  Tc14  1  0.952064  0.118180  0.750000  1
  As  As15  1  0.559338  0.618784  0.750000  1
