# generated using pymatgen
data_LuTl2Bi(Rh2O7)2
_symmetry_space_group_name_H-M   'P 1'
_cell_length_a   7.23855851
_cell_length_b   7.37748701
_cell_length_c   7.23855780
_cell_angle_alpha   59.66835374
_cell_angle_beta   59.08337976
_cell_angle_gamma   59.66836116
_symmetry_Int_Tables_number   1
_chemical_formula_structural   LuTl2Bi(Rh2O7)2
_chemical_formula_sum   'Lu1 Tl2 Bi1 Rh4 O14'
_cell_volume   270.04317580
_cell_formula_units_Z   1
loop_
 _symmetry_equiv_pos_site_id
 _symmetry_equiv_pos_as_xyz
  1  'x, y, z'
loop_
 _atom_site_type_symbol
 _atom_site_label
 _atom_site_symmetry_multiplicity
 _atom_site_fract_x
 _atom_site_fract_y
 _atom_site_fract_z
 _atom_site_occupancy
  Lu  Lu0  1  0.125000  0.125000  0.125000  1
  Tl  Tl1  1  0.625000  0.125000  0.125000  1
  Tl  Tl2  1  0.125000  0.125000  0.625000  1
  Bi  Bi3  1  0.125000  0.625000  0.125000  1
  Rh  Rh4  1  0.625000  0.625000  0.625000  1
  Rh  Rh5  1  0.625000  0.625000  0.125000  1
  Rh  Rh6  1  0.125000  0.625000  0.625000  1
  Rh  Rh7  1  0.625000  0.125000  0.625000  1
  O  O8  1  0.243895  0.250031  0.243895  1
  O  O9  1  0.287348  0.717562  0.287348  1
  O  O10  1  0.959487  0.956165  0.534159  1
  O  O11  1  0.544432  0.955459  0.544432  1
  O  O12  1  0.709790  0.707741  0.289729  1
  O  O13  1  0.960271  0.542259  0.540210  1
  O  O14  1  0.705568  0.294541  0.705568  1
  O  O15  1  0.290513  0.293835  0.715841  1
  O  O16  1  0.715841  0.293835  0.290513  1
  O  O17  1  0.289729  0.707741  0.709790  1
  O  O18  1  0.962652  0.532438  0.962652  1
  O  O19  1  0.540210  0.542259  0.960271  1
  O  O20  1  0.006105  0.999969  0.006105  1
  O  O21  1  0.534159  0.956165  0.959487  1
