# generated using pymatgen
data_Na2HgAs2O7
_symmetry_space_group_name_H-M   'P 1'
_cell_length_a   6.29502100
_cell_length_b   8.19639539
_cell_length_c   8.92579652
_cell_angle_alpha   110.19669497
_cell_angle_beta   90.00000000
_cell_angle_gamma   112.58239359
_symmetry_Int_Tables_number   1
_chemical_formula_structural   Na2HgAs2O7
_chemical_formula_sum   'Na4 Hg2 As4 O14'
_cell_volume   394.38485773
_cell_formula_units_Z   2
loop_
 _symmetry_equiv_pos_site_id
 _symmetry_equiv_pos_as_xyz
  1  'x, y, z'
loop_
 _atom_site_type_symbol
 _atom_site_label
 _atom_site_symmetry_multiplicity
 _atom_site_fract_x
 _atom_site_fract_y
 _atom_site_fract_z
 _atom_site_occupancy
  Na  Na0  1  0.625786  0.544254  0.194845  1
  Na  Na1  1  0.081531  0.455746  0.305155  1
  Na  Na2  1  0.918468  0.544255  0.694845  1
  Na  Na3  1  0.374215  0.455746  0.805155  1
  Hg  Hg4  1  0.000000  0.000000  0.000000  1
  Hg  Hg5  1  0.000000  0.000000  0.500000  1
  As  As6  1  0.241410  0.775362  0.138992  1
  As  As7  1  0.466047  0.224638  0.361007  1
  As  As8  1  0.533953  0.775363  0.638993  1
  As  As9  1  0.758591  0.224637  0.861008  1
  O  O10  1  0.861697  0.203760  0.032944  1
  O  O11  1  0.358521  0.615323  0.080563  1
  O  O12  1  0.303994  0.268918  0.239881  1
  O  O13  1  0.480926  0.000000  0.249999  1
  O  O14  1  0.035075  0.731082  0.260119  1
  O  O15  1  0.743197  0.384677  0.419437  1
  O  O16  1  0.657938  0.796240  0.467056  1
  O  O17  1  0.342063  0.203760  0.532944  1
  O  O18  1  0.256802  0.615324  0.580563  1
  O  O19  1  0.964924  0.268917  0.739881  1
  O  O20  1  0.519074  0.000000  0.750000  1
  O  O21  1  0.696007  0.731082  0.760119  1
  O  O22  1  0.641480  0.384677  0.919437  1
  O  O23  1  0.138302  0.796239  0.967056  1
