# generated using pymatgen
data_Ho4Al3ZnPd4
_symmetry_space_group_name_H-M   'P 1'
_cell_length_a   4.43233400
_cell_length_b   6.83688458
_cell_length_c   7.80427620
_cell_angle_alpha   89.81142502
_cell_angle_beta   90.00000000
_cell_angle_gamma   90.00000000
_symmetry_Int_Tables_number   1
_chemical_formula_structural   Ho4Al3ZnPd4
_chemical_formula_sum   'Ho4 Al3 Zn1 Pd4'
_cell_volume   236.49447911
_cell_formula_units_Z   1
loop_
 _symmetry_equiv_pos_site_id
 _symmetry_equiv_pos_as_xyz
  1  'x, y, z'
loop_
 _atom_site_type_symbol
 _atom_site_label
 _atom_site_symmetry_multiplicity
 _atom_site_fract_x
 _atom_site_fract_y
 _atom_site_fract_z
 _atom_site_occupancy
  Ho  Ho0  1  0.250000  0.031238  0.685581  1
  Ho  Ho1  1  0.250000  0.530893  0.819383  1
  Ho  Ho2  1  0.750000  0.968898  0.316395  1
  Ho  Ho3  1  0.750000  0.464968  0.179562  1
  Al  Al4  1  0.250000  0.647895  0.438291  1
  Al  Al5  1  0.750000  0.853429  0.937395  1
  Al  Al6  1  0.750000  0.355755  0.560492  1
  Zn  Zn7  1  0.250000  0.150924  0.063729  1
  Pd  Pd8  1  0.250000  0.273785  0.390020  1
  Pd  Pd9  1  0.250000  0.764242  0.118375  1
  Pd  Pd10  1  0.750000  0.727852  0.616756  1
  Pd  Pd11  1  0.750000  0.230122  0.874021  1
