# generated using pymatgen
data_Dy6Co16ReP12W
_symmetry_space_group_name_H-M   'P 1'
_cell_length_a   3.72226500
_cell_length_b   10.52190900
_cell_length_c   12.23045100
_cell_angle_alpha   90.00000000
_cell_angle_beta   90.00000000
_cell_angle_gamma   90.00000000
_symmetry_Int_Tables_number   1
_chemical_formula_structural   Dy6Co16ReP12W
_chemical_formula_sum   'Dy6 Co16 Re1 P12 W1'
_cell_volume   479.00969354
_cell_formula_units_Z   1
loop_
 _symmetry_equiv_pos_site_id
 _symmetry_equiv_pos_as_xyz
  1  'x, y, z'
loop_
 _atom_site_type_symbol
 _atom_site_label
 _atom_site_symmetry_multiplicity
 _atom_site_fract_x
 _atom_site_fract_y
 _atom_site_fract_z
 _atom_site_occupancy
  Dy  Dy0  1  0.000000  0.500000  0.524251  1
  Dy  Dy1  1  0.500000  0.000000  0.475552  1
  Dy  Dy2  1  0.500000  0.818894  0.205437  1
  Dy  Dy3  1  0.500000  0.181106  0.205437  1
  Dy  Dy4  1  0.000000  0.681685  0.795033  1
  Dy  Dy5  1  0.000000  0.318315  0.795033  1
  Co  Co6  1  0.500000  0.500000  0.701456  1
  Co  Co7  1  0.000000  0.000000  0.298161  1
  Co  Co8  1  0.000000  0.500000  0.986981  1
  Co  Co9  1  0.500000  0.000000  0.011915  1
  Co  Co10  1  0.500000  0.331867  0.989596  1
  Co  Co11  1  0.500000  0.668133  0.989596  1
  Co  Co12  1  0.000000  0.166587  0.009949  1
  Co  Co13  1  0.000000  0.833413  0.009949  1
  Co  Co14  1  0.500000  0.295930  0.431573  1
  Co  Co15  1  0.500000  0.704070  0.431573  1
  Co  Co16  1  0.000000  0.203258  0.569194  1
  Co  Co17  1  0.000000  0.796742  0.569194  1
  Co  Co18  1  0.500000  0.879457  0.708165  1
  Co  Co19  1  0.500000  0.120543  0.708165  1
  Co  Co20  1  0.000000  0.621663  0.292172  1
  Co  Co21  1  0.000000  0.378337  0.292172  1
  Re  Re22  1  0.000000  0.000000  0.843906  1
  P  P23  1  0.500000  0.500000  0.880235  1
  P  P24  1  0.000000  0.000000  0.119725  1
  P  P25  1  0.500000  0.500000  0.350045  1
  P  P26  1  0.000000  0.000000  0.651275  1
  P  P27  1  0.500000  0.311330  0.616143  1
  P  P28  1  0.500000  0.688670  0.616143  1
  P  P29  1  0.000000  0.188585  0.384332  1
  P  P30  1  0.000000  0.811415  0.384332  1
  P  P31  1  0.500000  0.846056  0.892075  1
  P  P32  1  0.500000  0.153944  0.892075  1
  P  P33  1  0.000000  0.655672  0.106641  1
  P  P34  1  0.000000  0.344328  0.106641  1
  W  W35  1  0.500000  0.500000  0.155882  1
