# generated using pymatgen
data_Dy3Tm9CuNi4Sn
_symmetry_space_group_name_H-M   'P 1'
_cell_length_a   8.29569516
_cell_length_b   8.29569524
_cell_length_c   8.30084800
_cell_angle_alpha   112.21759832
_cell_angle_beta   109.53903578
_cell_angle_gamma   106.67743739
_symmetry_Int_Tables_number   1
_chemical_formula_structural   Dy3Tm9CuNi4Sn
_chemical_formula_sum   'Dy3 Tm9 Cu1 Ni4 Sn1'
_cell_volume   438.86906815
_cell_formula_units_Z   1
loop_
 _symmetry_equiv_pos_site_id
 _symmetry_equiv_pos_as_xyz
  1  'x, y, z'
loop_
 _atom_site_type_symbol
 _atom_site_label
 _atom_site_symmetry_multiplicity
 _atom_site_fract_x
 _atom_site_fract_y
 _atom_site_fract_z
 _atom_site_occupancy
  Dy  Dy0  1  0.820086  0.207381  0.027466  1
  Dy  Dy1  1  0.180918  0.793879  0.974799  1
  Dy  Dy2  1  0.818919  0.793425  0.612344  1
  Tm  Tm3  1  0.024987  0.720308  0.305822  1
  Tm  Tm4  1  0.975454  0.281558  0.693431  1
  Tm  Tm5  1  0.585514  0.280836  0.305822  1
  Tm  Tm6  1  0.411874  0.717976  0.693431  1
  Tm  Tm7  1  0.675612  0.866930  0.191236  1
  Tm  Tm8  1  0.324306  0.515621  0.191236  1
  Tm  Tm9  1  0.324065  0.133276  0.807953  1
  Tm  Tm10  1  0.674675  0.483889  0.807953  1
  Tm  Tm11  1  0.181290  0.207102  0.388392  1
  Cu  Cu12  1  0.999129  0.498084  0.497213  1
  Ni  Ni13  1  0.641091  0.500292  0.141382  1
  Ni  Ni14  1  0.358784  0.498610  0.857394  1
  Ni  Ni15  1  0.875176  0.874188  0.001824  1
  Ni  Ni16  1  0.127636  0.126648  0.001824  1
  Sn  Sn17  1  0.500483  0.999996  0.500479  1
