# generated using pymatgen
data_K3CaIrO6
_symmetry_space_group_name_H-M   'P 1'
_cell_length_a   7.18960872
_cell_length_b   7.19052197
_cell_length_c   7.18987811
_cell_angle_alpha   93.34929569
_cell_angle_beta   93.33342545
_cell_angle_gamma   93.33906253
_symmetry_Int_Tables_number   1
_chemical_formula_structural   K3CaIrO6
_chemical_formula_sum   'K6 Ca2 Ir2 O12'
_cell_volume   369.72346433
_cell_formula_units_Z   2
loop_
 _symmetry_equiv_pos_site_id
 _symmetry_equiv_pos_as_xyz
  1  'x, y, z'
loop_
 _atom_site_type_symbol
 _atom_site_label
 _atom_site_symmetry_multiplicity
 _atom_site_fract_x
 _atom_site_fract_y
 _atom_site_fract_z
 _atom_site_occupancy
  K  K0  1  0.750148  0.391702  0.108213  1
  K  K1  1  0.108149  0.750066  0.391683  1
  K  K2  1  0.391664  0.108202  0.750119  1
  K  K3  1  0.249852  0.608298  0.891787  1
  K  K4  1  0.891851  0.249934  0.608317  1
  K  K5  1  0.608336  0.891798  0.249881  1
  Ca  Ca6  1  0.249790  0.249824  0.249869  1
  Ca  Ca7  1  0.750210  0.750176  0.750131  1
  Ir  Ir8  1  0.000000  0.000000  0.000000  1
  Ir  Ir9  1  0.500000  0.500000  0.500000  1
  O  O10  1  0.460244  0.755285  0.583167  1
  O  O11  1  0.583147  0.460241  0.755240  1
  O  O12  1  0.755428  0.583234  0.460267  1
  O  O13  1  0.039735  0.916708  0.744465  1
  O  O14  1  0.744425  0.039721  0.916697  1
  O  O15  1  0.916685  0.744425  0.039707  1
  O  O16  1  0.539756  0.244715  0.416833  1
  O  O17  1  0.416853  0.539759  0.244760  1
  O  O18  1  0.244572  0.416766  0.539733  1
  O  O19  1  0.960265  0.083292  0.255535  1
  O  O20  1  0.083315  0.255575  0.960293  1
  O  O21  1  0.255575  0.960279  0.083303  1
