# generated using pymatgen
data_CsPaF6
_symmetry_space_group_name_H-M   'P 1'
_cell_length_a   5.60255847
_cell_length_b   5.60255801
_cell_length_c   5.60255784
_cell_angle_alpha   95.66778529
_cell_angle_beta   95.66778448
_cell_angle_gamma   95.66779247
_symmetry_Int_Tables_number   1
_chemical_formula_structural   CsPaF6
_chemical_formula_sum   'Cs1 Pa1 F6'
_cell_volume   173.09280447
_cell_formula_units_Z   1
loop_
 _symmetry_equiv_pos_site_id
 _symmetry_equiv_pos_as_xyz
  1  'x, y, z'
loop_
 _atom_site_type_symbol
 _atom_site_label
 _atom_site_symmetry_multiplicity
 _atom_site_fract_x
 _atom_site_fract_y
 _atom_site_fract_z
 _atom_site_occupancy
  Cs  Cs0  1  0.500000  0.500000  0.500000  1
  Pa  Pa1  1  0.000000  0.000000  0.000000  1
  F  F2  1  0.314754  0.918469  0.203313  1
  F  F3  1  0.203313  0.314754  0.918469  1
  F  F4  1  0.081531  0.796687  0.685246  1
  F  F5  1  0.796687  0.685246  0.081531  1
  F  F6  1  0.685246  0.081531  0.796687  1
  F  F7  1  0.918469  0.203313  0.314754  1
