# generated using pymatgen
data_YMn4P3W
_symmetry_space_group_name_H-M   'P 1'
_cell_length_a   3.66167400
_cell_length_b   10.79604500
_cell_length_c   12.30951500
_cell_angle_alpha   90.00000000
_cell_angle_beta   90.00000000
_cell_angle_gamma   90.00000000
_symmetry_Int_Tables_number   1
_chemical_formula_structural   YMn4P3W
_chemical_formula_sum   'Y4 Mn16 P12 W4'
_cell_volume   486.61478968
_cell_formula_units_Z   4
loop_
 _symmetry_equiv_pos_site_id
 _symmetry_equiv_pos_as_xyz
  1  'x, y, z'
loop_
 _atom_site_type_symbol
 _atom_site_label
 _atom_site_symmetry_multiplicity
 _atom_site_fract_x
 _atom_site_fract_y
 _atom_site_fract_z
 _atom_site_occupancy
  Y  Y0  1  0.250000  0.586874  0.706326  1
  Y  Y1  1  0.250000  0.913126  0.206326  1
  Y  Y2  1  0.750000  0.413126  0.293674  1
  Y  Y3  1  0.750000  0.086874  0.793674  1
  Mn  Mn4  1  0.250000  0.410377  0.493599  1
  Mn  Mn5  1  0.250000  0.089623  0.993599  1
  Mn  Mn6  1  0.750000  0.589623  0.506401  1
  Mn  Mn7  1  0.750000  0.910377  0.006401  1
  Mn  Mn8  1  0.250000  0.212285  0.181564  1
  Mn  Mn9  1  0.250000  0.287715  0.681564  1
  Mn  Mn10  1  0.750000  0.787715  0.818436  1
  Mn  Mn11  1  0.750000  0.712285  0.318436  1
  Mn  Mn12  1  0.250000  0.883948  0.693227  1
  Mn  Mn13  1  0.250000  0.616052  0.193227  1
  Mn  Mn14  1  0.750000  0.116052  0.306773  1
  Mn  Mn15  1  0.750000  0.383948  0.806773  1
  Mn  Mn16  1  0.250000  0.465554  0.934773  1
  Mn  Mn17  1  0.250000  0.034446  0.434773  1
  Mn  Mn18  1  0.750000  0.534446  0.065227  1
  Mn  Mn19  1  0.750000  0.965554  0.565227  1
  P  P20  1  0.250000  0.414392  0.117537  1
  P  P21  1  0.250000  0.085608  0.617537  1
  P  P22  1  0.750000  0.585608  0.882463  1
  P  P23  1  0.750000  0.914392  0.382463  1
  P  P24  1  0.250000  0.264693  0.871956  1
  P  P25  1  0.250000  0.235307  0.371956  1
  P  P26  1  0.750000  0.735307  0.128044  1
  P  P27  1  0.750000  0.764693  0.628044  1
  P  P28  1  0.250000  0.590388  0.383353  1
  P  P29  1  0.250000  0.909612  0.883353  1
  P  P30  1  0.750000  0.409612  0.616647  1
  P  P31  1  0.750000  0.090388  0.116647  1
  W  W32  1  0.250000  0.709846  0.982956  1
  W  W33  1  0.250000  0.790154  0.482956  1
  W  W34  1  0.750000  0.290154  0.017044  1
  W  W35  1  0.750000  0.209846  0.517044  1
