# generated using pymatgen
data_K2MnGaP2(O4F)2
_symmetry_space_group_name_H-M   'P 1'
_cell_length_a   6.38148400
_cell_length_b   10.59502500
_cell_length_c   12.91522400
_cell_angle_alpha   90.00000000
_cell_angle_beta   90.00000000
_cell_angle_gamma   90.00000000
_symmetry_Int_Tables_number   1
_chemical_formula_structural   K2MnGaP2(O4F)2
_chemical_formula_sum   'K8 Mn4 Ga4 P8 O32 F8'
_cell_volume   873.22389929
_cell_formula_units_Z   4
loop_
 _symmetry_equiv_pos_site_id
 _symmetry_equiv_pos_as_xyz
  1  'x, y, z'
loop_
 _atom_site_type_symbol
 _atom_site_label
 _atom_site_symmetry_multiplicity
 _atom_site_fract_x
 _atom_site_fract_y
 _atom_site_fract_z
 _atom_site_occupancy
  K  K0  1  0.223303  0.817525  0.612689  1
  K  K1  1  0.724725  0.317256  0.886416  1
  K  K2  1  0.273404  0.813660  0.117666  1
  K  K3  1  0.696759  0.068873  0.104873  1
  K  K4  1  0.195064  0.573373  0.393346  1
  K  K5  1  0.306162  0.569520  0.896723  1
  K  K6  1  0.805049  0.072661  0.604885  1
  K  K7  1  0.774810  0.317175  0.382443  1
  Mn  Mn8  1  0.508825  0.014061  0.384782  1
  Mn  Mn9  1  0.498211  0.514994  0.614567  1
  Mn  Mn10  1  0.000336  0.012398  0.885841  1
  Mn  Mn11  1  0.250912  0.264947  0.248609  1
  Ga  Ga12  1  0.750257  0.763122  0.750359  1
  Ga  Ga13  1  0.249540  0.263849  0.750127  1
  Ga  Ga14  1  0.751882  0.762564  0.251827  1
  Ga  Ga15  1  0.990814  0.514713  0.113231  1
  P  P16  1  0.007460  0.013179  0.317304  1
  P  P17  1  0.995774  0.513366  0.683262  1
  P  P18  1  0.495593  0.012229  0.817536  1
  P  P19  1  0.501160  0.514868  0.181902  1
  P  P20  1  0.826295  0.760862  0.997323  1
  P  P21  1  0.169002  0.266590  0.003058  1
  P  P22  1  0.671255  0.767916  0.497239  1
  P  P23  1  0.329323  0.268081  0.502764  1
  O  O24  1  0.550803  0.625426  0.257389  1
  O  O25  1  0.314455  0.247343  0.098333  1
  O  O26  1  0.815335  0.750077  0.402108  1
  O  O27  1  0.187228  0.249939  0.598496  1
  O  O28  1  0.689703  0.779061  0.095009  1
  O  O29  1  0.307965  0.279585  0.904848  1
  O  O30  1  0.807765  0.780357  0.596172  1
  O  O31  1  0.190962  0.282543  0.403877  1
  O  O32  1  0.952093  0.904257  0.241310  1
  O  O33  1  0.045888  0.401962  0.757982  1
  O  O34  1  0.542428  0.899269  0.744247  1
  O  O35  1  0.453144  0.401280  0.256362  1
  O  O36  1  0.046191  0.129976  0.244997  1
  O  O37  1  0.954637  0.628540  0.755398  1
  O  O38  1  0.453362  0.126956  0.745495  1
  O  O39  1  0.686836  0.741834  0.900907  1
  O  O40  1  0.198712  0.983121  0.385694  1
  O  O41  1  0.806493  0.484439  0.612136  1
  O  O42  1  0.306942  0.984968  0.890177  1
  O  O43  1  0.968680  0.880507  0.986322  1
  O  O44  1  0.819565  0.043750  0.389712  1
  O  O45  1  0.187647  0.544236  0.612983  1
  O  O46  1  0.690009  0.041390  0.887325  1
  O  O47  1  0.306473  0.547128  0.115753  1
  O  O48  1  0.490812  0.162179  0.491182  1
  O  O49  1  0.508148  0.662545  0.507576  1
  O  O50  1  0.010306  0.158382  0.992362  1
  O  O51  1  0.982206  0.649819  0.011963  1
  O  O52  1  0.461719  0.393328  0.509366  1
  O  O53  1  0.540696  0.893916  0.490977  1
  O  O54  1  0.037780  0.390057  0.011339  1
  O  O55  1  0.687151  0.485878  0.109210  1
  F  F56  1  0.497658  0.135580  0.275093  1
  F  F57  1  0.517323  0.641657  0.725145  1
  F  F58  1  0.017826  0.142874  0.774455  1
  F  F59  1  0.985207  0.648926  0.224700  1
  F  F60  1  0.010629  0.403554  0.232642  1
  F  F61  1  0.973162  0.887090  0.760675  1
  F  F62  1  0.474463  0.385336  0.738109  1
  F  F63  1  0.525683  0.881952  0.263403  1
