# generated using pymatgen
data_Tb3Dy2Si12Ir19
_symmetry_space_group_name_H-M   'P 1'
_cell_length_a   12.83780200
_cell_length_b   12.83784620
_cell_length_c   3.98916000
_cell_angle_alpha   90.00000000
_cell_angle_beta   90.00000000
_cell_angle_gamma   120.00011552
_symmetry_Int_Tables_number   1
_chemical_formula_structural   Tb3Dy2Si12Ir19
_chemical_formula_sum   'Tb3 Dy2 Si12 Ir19'
_cell_volume   569.36979419
_cell_formula_units_Z   1
loop_
 _symmetry_equiv_pos_site_id
 _symmetry_equiv_pos_as_xyz
  1  'x, y, z'
loop_
 _atom_site_type_symbol
 _atom_site_label
 _atom_site_symmetry_multiplicity
 _atom_site_fract_x
 _atom_site_fract_y
 _atom_site_fract_z
 _atom_site_occupancy
  Tb  Tb0  1  0.333326  0.666666  0.500000  1
  Tb  Tb1  1  0.666674  0.333340  0.500000  1
  Tb  Tb2  1  0.000000  0.815191  0.000000  1
  Dy  Dy3  1  0.184798  0.184805  0.000000  1
  Dy  Dy4  1  0.815202  0.000007  0.000000  1
  Si  Si5  1  0.000000  0.632283  0.500000  1
  Si  Si6  1  0.367607  0.367605  0.500000  1
  Si  Si7  1  0.632393  0.999997  0.500000  1
  Si  Si8  1  0.518924  0.687570  0.000000  1
  Si  Si9  1  0.312418  0.831355  0.000000  1
  Si  Si10  1  0.168635  0.481071  0.000000  1
  Si  Si11  1  0.481076  0.168646  0.000000  1
  Si  Si12  1  0.687582  0.518937  0.000000  1
  Si  Si13  1  0.831365  0.312436  0.000000  1
  Si  Si14  1  0.000000  0.181634  0.500000  1
  Si  Si15  1  0.818243  0.818349  0.500000  1
  Si  Si16  1  0.181757  0.000106  0.500000  1
  Ir  Ir17  1  0.512605  0.873753  0.000000  1
  Ir  Ir18  1  0.126251  0.638816  0.000000  1
  Ir  Ir19  1  0.361142  0.487386  0.000000  1
  Ir  Ir20  1  0.487395  0.361148  0.000000  1
  Ir  Ir21  1  0.873749  0.512565  0.000000  1
  Ir  Ir22  1  0.638858  0.126244  0.000000  1
  Ir  Ir23  1  0.000000  0.447564  0.500000  1
  Ir  Ir24  1  0.552425  0.552415  0.500000  1
  Ir  Ir25  1  0.447575  0.999990  0.500000  1
  Ir  Ir26  1  0.000000  0.283155  0.000000  1
  Ir  Ir27  1  0.716738  0.716810  0.000000  1
  Ir  Ir28  1  0.283262  0.000072  0.000000  1
  Ir  Ir29  1  0.623178  0.805572  0.500000  1
  Ir  Ir30  1  0.194580  0.817634  0.500000  1
  Ir  Ir31  1  0.182391  0.376817  0.500000  1
  Ir  Ir32  1  0.376822  0.182395  0.500000  1
  Ir  Ir33  1  0.805420  0.623056  0.500000  1
  Ir  Ir34  1  0.817609  0.194427  0.500000  1
  Ir  Ir35  1  0.000000  0.000184  0.500000  1
