# generated using pymatgen
data_LiYb6Co(P3Rh4)4
_symmetry_space_group_name_H-M   'P 1'
_cell_length_a   3.91050000
_cell_length_b   11.22931100
_cell_length_c   12.68450900
_cell_angle_alpha   90.00000000
_cell_angle_beta   90.00000000
_cell_angle_gamma   90.00000000
_symmetry_Int_Tables_number   1
_chemical_formula_structural   LiYb6Co(P3Rh4)4
_chemical_formula_sum   'Li1 Yb6 Co1 P12 Rh16'
_cell_volume   557.00495824
_cell_formula_units_Z   1
loop_
 _symmetry_equiv_pos_site_id
 _symmetry_equiv_pos_as_xyz
  1  'x, y, z'
loop_
 _atom_site_type_symbol
 _atom_site_label
 _atom_site_symmetry_multiplicity
 _atom_site_fract_x
 _atom_site_fract_y
 _atom_site_fract_z
 _atom_site_occupancy
  Li  Li0  1  0.500000  0.500000  0.151917  1
  Yb  Yb1  1  0.000000  0.500000  0.523489  1
  Yb  Yb2  1  0.500000  0.000000  0.474138  1
  Yb  Yb3  1  0.500000  0.824886  0.205732  1
  Yb  Yb4  1  0.500000  0.175114  0.205732  1
  Yb  Yb5  1  0.000000  0.681970  0.795833  1
  Yb  Yb6  1  0.000000  0.318030  0.795833  1
  Co  Co7  1  0.500000  0.000000  0.013826  1
  P  P8  1  0.500000  0.500000  0.879866  1
  P  P9  1  0.000000  0.000000  0.119909  1
  P  P10  1  0.500000  0.500000  0.340968  1
  P  P11  1  0.000000  0.000000  0.653620  1
  P  P12  1  0.500000  0.310155  0.619781  1
  P  P13  1  0.500000  0.689845  0.619781  1
  P  P14  1  0.000000  0.191637  0.380636  1
  P  P15  1  0.000000  0.808363  0.380636  1
  P  P16  1  0.500000  0.851570  0.895368  1
  P  P17  1  0.500000  0.148430  0.895368  1
  P  P18  1  0.000000  0.660182  0.107161  1
  P  P19  1  0.000000  0.339818  0.107161  1
  Rh  Rh20  1  0.000000  0.000000  0.837303  1
  Rh  Rh21  1  0.500000  0.500000  0.697779  1
  Rh  Rh22  1  0.000000  0.000000  0.302986  1
  Rh  Rh23  1  0.000000  0.500000  0.983757  1
  Rh  Rh24  1  0.500000  0.330012  0.995336  1
  Rh  Rh25  1  0.500000  0.669988  0.995336  1
  Rh  Rh26  1  0.000000  0.160872  0.007758  1
  Rh  Rh27  1  0.000000  0.839128  0.007758  1
  Rh  Rh28  1  0.500000  0.292998  0.431990  1
  Rh  Rh29  1  0.500000  0.707002  0.431990  1
  Rh  Rh30  1  0.000000  0.204587  0.570713  1
  Rh  Rh31  1  0.000000  0.795413  0.570713  1
  Rh  Rh32  1  0.500000  0.875894  0.711546  1
  Rh  Rh33  1  0.500000  0.124106  0.711546  1
  Rh  Rh34  1  0.000000  0.624686  0.288366  1
  Rh  Rh35  1  0.000000  0.375314  0.288366  1
