# generated using pymatgen
data_Nd2MnN3
_symmetry_space_group_name_H-M   'P 1'
_cell_length_a   6.12356602
_cell_length_b   6.12356581
_cell_length_c   11.89061200
_cell_angle_alpha   90.00000000
_cell_angle_beta   90.00000000
_cell_angle_gamma   127.86092232
_symmetry_Int_Tables_number   1
_chemical_formula_structural   Nd2MnN3
_chemical_formula_sum   'Nd8 Mn4 N12'
_cell_volume   352.01949224
_cell_formula_units_Z   4
loop_
 _symmetry_equiv_pos_site_id
 _symmetry_equiv_pos_as_xyz
  1  'x, y, z'
loop_
 _atom_site_type_symbol
 _atom_site_label
 _atom_site_symmetry_multiplicity
 _atom_site_fract_x
 _atom_site_fract_y
 _atom_site_fract_z
 _atom_site_occupancy
  Nd  Nd0  1  0.441839  0.558161  0.356546  1
  Nd  Nd1  1  0.558161  0.441839  0.643454  1
  Nd  Nd2  1  0.058161  0.941839  0.856546  1
  Nd  Nd3  1  0.941839  0.058161  0.143454  1
  Nd  Nd4  1  0.142371  0.857629  0.428546  1
  Nd  Nd5  1  0.857629  0.142371  0.571454  1
  Nd  Nd6  1  0.357629  0.642371  0.928546  1
  Nd  Nd7  1  0.642371  0.357629  0.071454  1
  Mn  Mn8  1  0.261128  0.738872  0.159906  1
  Mn  Mn9  1  0.738872  0.261128  0.840094  1
  Mn  Mn10  1  0.238872  0.761128  0.659906  1
  Mn  Mn11  1  0.761128  0.238872  0.340094  1
  N  N12  1  0.150447  0.849553  0.039704  1
  N  N13  1  0.849553  0.150447  0.960296  1
  N  N14  1  0.349553  0.650447  0.539704  1
  N  N15  1  0.650447  0.349553  0.460296  1
  N  N16  1  0.436301  0.563699  0.131851  1
  N  N17  1  0.563699  0.436301  0.868149  1
  N  N18  1  0.063699  0.936301  0.631851  1
  N  N19  1  0.936301  0.063699  0.368149  1
  N  N20  1  0.997407  0.502593  0.250000  1
  N  N21  1  0.502593  0.997407  0.750000  1
  N  N22  1  0.002593  0.497407  0.750000  1
  N  N23  1  0.497407  0.002593  0.250000  1
