# generated using pymatgen
data_Gd4Er4Tc3B24Ru
_symmetry_space_group_name_H-M   'P 1'
_cell_length_a   3.67888200
_cell_length_b   9.15143307
_cell_length_c   11.55286504
_cell_angle_alpha   89.92866663
_cell_angle_beta   90.00000000
_cell_angle_gamma   90.00000000
_symmetry_Int_Tables_number   1
_chemical_formula_structural   Gd4Er4Tc3B24Ru
_chemical_formula_sum   'Gd4 Er4 Tc3 B24 Ru1'
_cell_volume   388.95049568
_cell_formula_units_Z   1
loop_
 _symmetry_equiv_pos_site_id
 _symmetry_equiv_pos_as_xyz
  1  'x, y, z'
loop_
 _atom_site_type_symbol
 _atom_site_label
 _atom_site_symmetry_multiplicity
 _atom_site_fract_x
 _atom_site_fract_y
 _atom_site_fract_z
 _atom_site_occupancy
  Gd  Gd0  1  0.000000  0.323471  0.414056  1
  Gd  Gd1  1  0.000000  0.675122  0.584050  1
  Gd  Gd2  1  0.000000  0.823168  0.087391  1
  Gd  Gd3  1  0.000000  0.177931  0.914839  1
  Er  Er4  1  0.000000  0.942593  0.369948  1
  Er  Er5  1  0.000000  0.057726  0.630746  1
  Er  Er6  1  0.000000  0.443175  0.130460  1
  Er  Er7  1  0.000000  0.557686  0.868989  1
  Tc  Tc8  1  0.000000  0.639225  0.319984  1
  Tc  Tc9  1  0.000000  0.360889  0.680519  1
  Tc  Tc10  1  0.000000  0.138413  0.179092  1
  B  B11  1  0.500000  0.553607  0.432155  1
  B  B12  1  0.500000  0.446222  0.567502  1
  B  B13  1  0.500000  0.053578  0.067556  1
  B  B14  1  0.500000  0.945480  0.932102  1
  B  B15  1  0.500000  0.749182  0.418051  1
  B  B16  1  0.500000  0.250262  0.582099  1
  B  B17  1  0.500000  0.249861  0.082082  1
  B  B18  1  0.500000  0.750857  0.917595  1
  B  B19  1  0.500000  0.791890  0.265481  1
  B  B20  1  0.500000  0.208326  0.735125  1
  B  B21  1  0.500000  0.291726  0.234600  1
  B  B22  1  0.500000  0.709069  0.765172  1
  B  B23  1  0.500000  0.630722  0.185355  1
  B  B24  1  0.500000  0.369736  0.815034  1
  B  B25  1  0.500000  0.130075  0.314292  1
  B  B26  1  0.500000  0.869238  0.685482  1
  B  B27  1  0.500000  0.982217  0.212263  1
  B  B28  1  0.500000  0.016239  0.787952  1
  B  B29  1  0.500000  0.482803  0.287532  1
  B  B30  1  0.500000  0.517347  0.712008  1
  B  B31  1  0.500000  0.600259  0.027367  1
  B  B32  1  0.500000  0.401516  0.972327  1
  B  B33  1  0.500000  0.099358  0.472734  1
  B  B34  1  0.500000  0.900167  0.528062  1
  Ru  Ru35  1  0.000000  0.860861  0.819993  1
