# generated using pymatgen
data_La3Y13(InIr)4
_symmetry_space_group_name_H-M   'P 1'
_cell_length_a   9.77621497
_cell_length_b   9.80982634
_cell_length_c   9.80982700
_cell_angle_alpha   59.99999440
_cell_angle_beta   59.88619841
_cell_angle_gamma   59.88620417
_symmetry_Int_Tables_number   1
_chemical_formula_structural   La3Y13(InIr)4
_chemical_formula_sum   'La3 Y13 In4 Ir4'
_cell_volume   664.09350566
_cell_formula_units_Z   1
loop_
 _symmetry_equiv_pos_site_id
 _symmetry_equiv_pos_as_xyz
  1  'x, y, z'
loop_
 _atom_site_type_symbol
 _atom_site_label
 _atom_site_symmetry_multiplicity
 _atom_site_fract_x
 _atom_site_fract_y
 _atom_site_fract_z
 _atom_site_occupancy
  La  La0  1  0.350152  0.349674  0.349674  1
  La  La1  1  0.350152  0.349674  0.950502  1
  La  La2  1  0.350152  0.950502  0.349674  1
  Y  Y3  1  0.945532  0.351490  0.351490  1
  Y  Y4  1  0.812757  0.188413  0.188413  1
  Y  Y5  1  0.186134  0.813305  0.813305  1
  Y  Y6  1  0.186134  0.813305  0.187255  1
  Y  Y7  1  0.812757  0.188413  0.810417  1
  Y  Y8  1  0.186134  0.187255  0.813305  1
  Y  Y9  1  0.812757  0.810417  0.188413  1
  Y  Y10  1  0.938184  0.561407  0.561407  1
  Y  Y11  1  0.562703  0.936611  0.936611  1
  Y  Y12  1  0.562703  0.936611  0.564073  1
  Y  Y13  1  0.938184  0.561407  0.939000  1
  Y  Y14  1  0.562703  0.564073  0.936611  1
  Y  Y15  1  0.938184  0.939000  0.561407  1
  In  In16  1  0.586503  0.582553  0.582553  1
  In  In17  1  0.586503  0.582553  0.248391  1
  In  In18  1  0.586503  0.248391  0.582553  1
  In  In19  1  0.249300  0.583567  0.583567  1
  Ir  Ir20  1  0.139129  0.142501  0.142501  1
  Ir  Ir21  1  0.139129  0.142501  0.575869  1
  Ir  Ir22  1  0.139129  0.575869  0.142501  1
  Ir  Ir23  1  0.578481  0.140506  0.140506  1
