# generated using pymatgen
data_PrNd3Co16(TcP3)4
_symmetry_space_group_name_H-M   'P 1'
_cell_length_a   3.75416600
_cell_length_b   10.49798906
_cell_length_c   11.93545907
_cell_angle_alpha   90.01229487
_cell_angle_beta   90.00000000
_cell_angle_gamma   90.00000000
_symmetry_Int_Tables_number   1
_chemical_formula_structural   PrNd3Co16(TcP3)4
_chemical_formula_sum   'Pr1 Nd3 Co16 Tc4 P12'
_cell_volume   470.39067722
_cell_formula_units_Z   1
loop_
 _symmetry_equiv_pos_site_id
 _symmetry_equiv_pos_as_xyz
  1  'x, y, z'
loop_
 _atom_site_type_symbol
 _atom_site_label
 _atom_site_symmetry_multiplicity
 _atom_site_fract_x
 _atom_site_fract_y
 _atom_site_fract_z
 _atom_site_occupancy
  Pr  Pr0  1  0.250000  0.584099  0.703808  1
  Nd  Nd1  1  0.250000  0.915860  0.203776  1
  Nd  Nd2  1  0.750000  0.415892  0.296180  1
  Nd  Nd3  1  0.750000  0.084127  0.796211  1
  Co  Co4  1  0.250000  0.405340  0.490615  1
  Co  Co5  1  0.250000  0.094543  0.990728  1
  Co  Co6  1  0.750000  0.594534  0.508914  1
  Co  Co7  1  0.750000  0.905455  0.009282  1
  Co  Co8  1  0.250000  0.221962  0.175058  1
  Co  Co9  1  0.250000  0.277906  0.675039  1
  Co  Co10  1  0.750000  0.778291  0.825088  1
  Co  Co11  1  0.750000  0.721973  0.324907  1
  Co  Co12  1  0.250000  0.885158  0.701655  1
  Co  Co13  1  0.250000  0.615006  0.201659  1
  Co  Co14  1  0.750000  0.115027  0.298320  1
  Co  Co15  1  0.750000  0.384646  0.798505  1
  Co  Co16  1  0.250000  0.464682  0.932642  1
  Co  Co17  1  0.250000  0.035235  0.432420  1
  Co  Co18  1  0.750000  0.535211  0.067657  1
  Co  Co19  1  0.750000  0.964903  0.567543  1
  Tc  Tc20  1  0.250000  0.708877  0.989734  1
  Tc  Tc21  1  0.250000  0.791300  0.489560  1
  Tc  Tc22  1  0.750000  0.291132  0.010330  1
  Tc  Tc23  1  0.750000  0.208723  0.510274  1
  P  P24  1  0.250000  0.420524  0.110736  1
  P  P25  1  0.250000  0.079449  0.610714  1
  P  P26  1  0.750000  0.579475  0.889815  1
  P  P27  1  0.750000  0.920552  0.389277  1
  P  P28  1  0.250000  0.274656  0.865022  1
  P  P29  1  0.250000  0.225339  0.365001  1
  P  P30  1  0.750000  0.725337  0.134972  1
  P  P31  1  0.750000  0.775285  0.634807  1
  P  P32  1  0.250000  0.600123  0.393176  1
  P  P33  1  0.250000  0.899849  0.893168  1
  P  P34  1  0.750000  0.399392  0.606584  1
  P  P35  1  0.750000  0.100138  0.106823  1
