# generated using pymatgen
data_Dy2VFe2P6Rh7
_symmetry_space_group_name_H-M   'P 1'
_cell_length_a   3.83312100
_cell_length_b   10.69289400
_cell_length_c   12.46298600
_cell_angle_alpha   90.00000000
_cell_angle_beta   90.00000000
_cell_angle_gamma   90.00000000
_symmetry_Int_Tables_number   1
_chemical_formula_structural   Dy2VFe2P6Rh7
_chemical_formula_sum   'Dy4 V2 Fe4 P12 Rh14'
_cell_volume   510.82235816
_cell_formula_units_Z   2
loop_
 _symmetry_equiv_pos_site_id
 _symmetry_equiv_pos_as_xyz
  1  'x, y, z'
loop_
 _atom_site_type_symbol
 _atom_site_label
 _atom_site_symmetry_multiplicity
 _atom_site_fract_x
 _atom_site_fract_y
 _atom_site_fract_z
 _atom_site_occupancy
  Dy  Dy0  1  0.250000  0.585238  0.709505  1
  Dy  Dy1  1  0.250000  0.914762  0.209505  1
  Dy  Dy2  1  0.750000  0.423089  0.292554  1
  Dy  Dy3  1  0.750000  0.076911  0.792554  1
  V  V4  1  0.250000  0.701538  0.986333  1
  V  V5  1  0.250000  0.798462  0.486333  1
  Fe  Fe6  1  0.250000  0.460020  0.936011  1
  Fe  Fe7  1  0.250000  0.039980  0.436011  1
  Fe  Fe8  1  0.750000  0.534201  0.063393  1
  Fe  Fe9  1  0.750000  0.965799  0.563393  1
  P  P10  1  0.250000  0.429290  0.107899  1
  P  P11  1  0.250000  0.070710  0.607899  1
  P  P12  1  0.750000  0.573096  0.893836  1
  P  P13  1  0.750000  0.926904  0.393836  1
  P  P14  1  0.250000  0.267159  0.868793  1
  P  P15  1  0.250000  0.232841  0.368793  1
  P  P16  1  0.750000  0.726472  0.128973  1
  P  P17  1  0.750000  0.773528  0.628973  1
  P  P18  1  0.250000  0.603841  0.390660  1
  P  P19  1  0.250000  0.896159  0.890660  1
  P  P20  1  0.750000  0.402148  0.610490  1
  P  P21  1  0.750000  0.097852  0.110490  1
  Rh  Rh22  1  0.750000  0.286750  0.010892  1
  Rh  Rh23  1  0.750000  0.213250  0.510892  1
  Rh  Rh24  1  0.250000  0.407725  0.484410  1
  Rh  Rh25  1  0.250000  0.092275  0.984410  1
  Rh  Rh26  1  0.750000  0.597277  0.517939  1
  Rh  Rh27  1  0.750000  0.902723  0.017939  1
  Rh  Rh28  1  0.250000  0.232051  0.177187  1
  Rh  Rh29  1  0.250000  0.267949  0.677187  1
  Rh  Rh30  1  0.750000  0.770181  0.824197  1
  Rh  Rh31  1  0.750000  0.729819  0.324197  1
  Rh  Rh32  1  0.250000  0.881846  0.697920  1
  Rh  Rh33  1  0.250000  0.618154  0.197920  1
  Rh  Rh34  1  0.750000  0.114692  0.299008  1
  Rh  Rh35  1  0.750000  0.385308  0.799008  1
