# generated using pymatgen
data_Sr6Zn6Te3IrO24
_symmetry_space_group_name_H-M   'P 1'
_cell_length_a   11.27519774
_cell_length_b   11.27519613
_cell_length_c   11.23784900
_cell_angle_alpha   109.40413274
_cell_angle_beta   109.40412985
_cell_angle_gamma   109.53822583
_symmetry_Int_Tables_number   1
_chemical_formula_structural   Sr6Zn6Te3IrO24
_chemical_formula_sum   'Sr12 Zn12 Te6 Ir2 O48'
_cell_volume   1100.69879653
_cell_formula_units_Z   2
loop_
 _symmetry_equiv_pos_site_id
 _symmetry_equiv_pos_as_xyz
  1  'x, y, z'
loop_
 _atom_site_type_symbol
 _atom_site_label
 _atom_site_symmetry_multiplicity
 _atom_site_fract_x
 _atom_site_fract_y
 _atom_site_fract_z
 _atom_site_occupancy
  Sr  Sr0  1  0.376418  0.752837  0.126418  1
  Sr  Sr1  1  0.250027  0.375014  0.125014  1
  Sr  Sr2  1  0.875014  0.624986  0.249999  1
  Sr  Sr3  1  0.376419  0.123581  0.250000  1
  Sr  Sr4  1  0.124987  0.249973  0.374986  1
  Sr  Sr5  1  0.747163  0.123580  0.373580  1
  Sr  Sr6  1  0.875015  0.750027  0.625015  1
  Sr  Sr7  1  0.252836  0.876419  0.626419  1
  Sr  Sr8  1  0.124985  0.375013  0.750000  1
  Sr  Sr9  1  0.623582  0.876420  0.750000  1
  Sr  Sr10  1  0.623581  0.247162  0.873581  1
  Sr  Sr11  1  0.749973  0.624987  0.874987  1
  Zn  Zn12  1  0.749577  0.874907  0.125159  1
  Zn  Zn13  1  0.874670  0.249577  0.124419  1
  Zn  Zn14  1  0.625094  0.374671  0.250252  1
  Zn  Zn15  1  0.125330  0.874908  0.249748  1
  Zn  Zn16  1  0.625093  0.750422  0.374841  1
  Zn  Zn17  1  0.250423  0.625330  0.375583  1
  Zn  Zn18  1  0.374908  0.249577  0.625159  1
  Zn  Zn19  1  0.749577  0.374669  0.624418  1
  Zn  Zn20  1  0.874670  0.125093  0.750251  1
  Zn  Zn21  1  0.374907  0.625330  0.749747  1
  Zn  Zn22  1  0.125330  0.750422  0.875582  1
  Zn  Zn23  1  0.250423  0.125094  0.874841  1
  Te  Te24  1  0.000000  0.000000  0.000000  1
  Te  Te25  1  0.000000  0.500000  0.000000  1
  Te  Te26  1  0.500000  0.500000  0.000000  1
  Te  Te27  1  0.000000  0.000000  0.500000  1
  Te  Te28  1  0.500000  0.500000  0.500000  1
  Te  Te29  1  0.000000  0.500000  0.500000  1
  Ir  Ir30  1  0.500000  0.000000  0.000000  1
  Ir  Ir31  1  0.500000  0.000000  0.500000  1
  O  O32  1  0.329439  0.907027  0.017356  1
  O  O33  1  0.188374  0.111136  0.018377  1
  O  O34  1  0.687962  0.669697  0.076909  1
  O  O35  1  0.888595  0.407049  0.076964  1
  O  O36  1  0.981734  0.669697  0.092788  1
  O  O37  1  0.611136  0.422762  0.092759  1
  O  O38  1  0.592973  0.922411  0.110331  1
  O  O39  1  0.018265  0.187963  0.111054  1
  O  O40  1  0.188374  0.577238  0.169998  1
  O  O41  1  0.481547  0.592951  0.169915  1
  O  O42  1  0.577588  0.170562  0.187920  1
  O  O43  1  0.111406  0.018453  0.188369  1
  O  O44  1  0.329438  0.922412  0.312080  1
  O  O45  1  0.481547  0.388595  0.311631  1
  O  O46  1  0.907048  0.018453  0.330085  1
  O  O47  1  0.922762  0.311626  0.330002  1
  O  O48  1  0.577588  0.907026  0.389668  1
  O  O49  1  0.312037  0.481735  0.388947  1
  O  O50  1  0.830303  0.518265  0.407211  1
  O  O51  1  0.077238  0.888865  0.407242  1
  O  O52  1  0.830302  0.812037  0.423090  1
  O  O53  1  0.092952  0.611406  0.423037  1
  O  O54  1  0.592974  0.170562  0.482642  1
  O  O55  1  0.388865  0.311626  0.481623  1
  O  O56  1  0.611135  0.688373  0.518377  1
  O  O57  1  0.407026  0.829438  0.517358  1
  O  O58  1  0.169698  0.187962  0.576909  1
  O  O59  1  0.907048  0.388594  0.576963  1
  O  O60  1  0.922762  0.111135  0.592758  1
  O  O61  1  0.169697  0.481735  0.592789  1
  O  O62  1  0.687962  0.518265  0.611053  1
  O  O63  1  0.422412  0.092974  0.610332  1
  O  O64  1  0.092951  0.981546  0.669914  1
  O  O65  1  0.077238  0.688373  0.669997  1
  O  O66  1  0.518453  0.611405  0.688369  1
  O  O67  1  0.670561  0.077588  0.687919  1
  O  O68  1  0.888594  0.981547  0.811631  1
  O  O69  1  0.422411  0.829439  0.812080  1
  O  O70  1  0.518453  0.407049  0.830085  1
  O  O71  1  0.811626  0.422762  0.830002  1
  O  O72  1  0.981735  0.812037  0.888946  1
  O  O73  1  0.407027  0.077589  0.889669  1
  O  O74  1  0.018265  0.330302  0.907212  1
  O  O75  1  0.388864  0.577238  0.907241  1
  O  O76  1  0.111405  0.592951  0.923036  1
  O  O77  1  0.312037  0.330302  0.923091  1
  O  O78  1  0.670561  0.092973  0.982642  1
  O  O79  1  0.811626  0.888864  0.981623  1
