# generated using pymatgen
data_SrCa3(Si3Pd5)4
_symmetry_space_group_name_H-M   'P 1'
_cell_length_a   4.04550200
_cell_length_b   19.83338940
_cell_length_c   7.34181040
_cell_angle_alpha   90.03053717
_cell_angle_beta   90.00000000
_cell_angle_gamma   90.00000000
_symmetry_Int_Tables_number   1
_chemical_formula_structural   SrCa3(Si3Pd5)4
_chemical_formula_sum   'Sr1 Ca3 Si12 Pd20'
_cell_volume   589.07753698
_cell_formula_units_Z   1
loop_
 _symmetry_equiv_pos_site_id
 _symmetry_equiv_pos_as_xyz
  1  'x, y, z'
loop_
 _atom_site_type_symbol
 _atom_site_label
 _atom_site_symmetry_multiplicity
 _atom_site_fract_x
 _atom_site_fract_y
 _atom_site_fract_z
 _atom_site_occupancy
  Sr  Sr0  1  0.750000  0.642396  0.123309  1
  Ca  Ca1  1  0.250000  0.356085  0.879247  1
  Ca  Ca2  1  0.250000  0.857741  0.621731  1
  Ca  Ca3  1  0.750000  0.143072  0.377951  1
  Si  Si4  1  0.750000  0.739901  0.628237  1
  Si  Si5  1  0.250000  0.260188  0.370652  1
  Si  Si6  1  0.250000  0.763686  0.127773  1
  Si  Si7  1  0.750000  0.238944  0.871258  1
  Si  Si8  1  0.750000  0.924925  0.348531  1
  Si  Si9  1  0.250000  0.076556  0.652038  1
  Si  Si10  1  0.250000  0.574849  0.842821  1
  Si  Si11  1  0.750000  0.423423  0.152017  1
  Si  Si12  1  0.750000  0.917407  0.907383  1
  Si  Si13  1  0.250000  0.083953  0.091971  1
  Si  Si14  1  0.250000  0.582886  0.418240  1
  Si  Si15  1  0.750000  0.414068  0.591824  1
  Pd  Pd16  1  0.750000  0.801597  0.328202  1
  Pd  Pd17  1  0.250000  0.199858  0.672397  1
  Pd  Pd18  1  0.250000  0.701937  0.822890  1
  Pd  Pd19  1  0.750000  0.299528  0.171838  1
  Pd  Pd20  1  0.750000  0.993571  0.626144  1
  Pd  Pd21  1  0.250000  0.007701  0.374306  1
  Pd  Pd22  1  0.250000  0.504745  0.126593  1
  Pd  Pd23  1  0.750000  0.492138  0.872744  1
  Pd  Pd24  1  0.750000  0.510827  0.380989  1
  Pd  Pd25  1  0.250000  0.484144  0.623343  1
  Pd  Pd26  1  0.250000  0.987974  0.877119  1
  Pd  Pd27  1  0.750000  0.013174  0.122449  1
  Pd  Pd28  1  0.750000  0.798188  0.931382  1
  Pd  Pd29  1  0.250000  0.203370  0.067173  1
  Pd  Pd30  1  0.250000  0.704923  0.433547  1
  Pd  Pd31  1  0.750000  0.295223  0.566617  1
  Pd  Pd32  1  0.750000  0.617043  0.641167  1
  Pd  Pd33  1  0.250000  0.382081  0.355568  1
  Pd  Pd34  1  0.250000  0.885137  0.144337  1
  Pd  Pd35  1  0.750000  0.116759  0.856215  1
