# generated using pymatgen
data_La4Al18Rh5Au
_symmetry_space_group_name_H-M   'P 1'
_cell_length_a   7.72168666
_cell_length_b   7.72168766
_cell_length_c   9.66501179
_cell_angle_alpha   90.03512468
_cell_angle_beta   90.03512294
_cell_angle_gamma   119.45686006
_symmetry_Int_Tables_number   1
_chemical_formula_structural   La4Al18Rh5Au
_chemical_formula_sum   'La4 Al18 Rh5 Au1'
_cell_volume   501.77392616
_cell_formula_units_Z   1
loop_
 _symmetry_equiv_pos_site_id
 _symmetry_equiv_pos_as_xyz
  1  'x, y, z'
loop_
 _atom_site_type_symbol
 _atom_site_label
 _atom_site_symmetry_multiplicity
 _atom_site_fract_x
 _atom_site_fract_y
 _atom_site_fract_z
 _atom_site_occupancy
  La  La0  1  0.994212  0.668243  0.249945  1
  La  La1  1  0.003133  0.329487  0.750593  1
  La  La2  1  0.670513  0.996867  0.249407  1
  La  La3  1  0.331757  0.005788  0.750055  1
  Al  Al4  1  0.131322  0.129296  0.251249  1
  Al  Al5  1  0.870704  0.868678  0.748751  1
  Al  Al6  1  0.013894  0.335243  0.077474  1
  Al  Al7  1  0.005288  0.675314  0.923824  1
  Al  Al8  1  0.998074  0.665355  0.572173  1
  Al  Al9  1  0.334645  0.001926  0.427827  1
  Al  Al10  1  0.003957  0.335082  0.426943  1
  Al  Al11  1  0.664918  0.996043  0.573057  1
  Al  Al12  1  0.664757  0.986106  0.922526  1
  Al  Al13  1  0.324686  0.994712  0.076176  1
  Al  Al14  1  0.333138  0.334110  0.544192  1
  Al  Al15  1  0.665890  0.666862  0.455808  1
  Al  Al16  1  0.663714  0.671034  0.049758  1
  Al  Al17  1  0.328966  0.336286  0.950242  1
  Al  Al18  1  0.342089  0.547705  0.251119  1
  Al  Al19  1  0.658852  0.459732  0.740533  1
  Al  Al20  1  0.540268  0.341148  0.259467  1
  Al  Al21  1  0.452295  0.657911  0.748881  1
  Rh  Rh22  1  0.329592  0.670408  0.000000  1
  Rh  Rh23  1  0.329262  0.670738  0.500000  1
  Rh  Rh24  1  0.671379  0.328621  0.500000  1
  Rh  Rh25  1  0.999823  0.000177  0.000000  1
  Rh  Rh26  1  0.000073  0.999927  0.500000  1
  Au  Au27  1  0.672798  0.327202  0.000000  1
