# generated using pymatgen
data_Th2InBiTe2
_symmetry_space_group_name_H-M   'P 1'
_cell_length_a   4.40708800
_cell_length_b   4.40708800
_cell_length_c   9.46542200
_cell_angle_alpha   90.00000000
_cell_angle_beta   90.00000000
_cell_angle_gamma   90.00000000
_symmetry_Int_Tables_number   1
_chemical_formula_structural   Th2InBiTe2
_chemical_formula_sum   'Th2 In1 Bi1 Te2'
_cell_volume   183.84144548
_cell_formula_units_Z   1
loop_
 _symmetry_equiv_pos_site_id
 _symmetry_equiv_pos_as_xyz
  1  'x, y, z'
loop_
 _atom_site_type_symbol
 _atom_site_label
 _atom_site_symmetry_multiplicity
 _atom_site_fract_x
 _atom_site_fract_y
 _atom_site_fract_z
 _atom_site_occupancy
  Th  Th0  1  0.000000  0.500000  0.726328  1
  Th  Th1  1  0.500000  0.000000  0.273672  1
  In  In2  1  0.000000  0.000000  0.000000  1
  Bi  Bi3  1  0.500000  0.500000  0.000000  1
  Te  Te4  1  0.000000  0.500000  0.370623  1
  Te  Te5  1  0.500000  0.000000  0.629377  1
