# generated using pymatgen
data_Li6In9Pd7
_symmetry_space_group_name_H-M   'P 1'
_cell_length_a   7.19510038
_cell_length_b   7.19510110
_cell_length_c   9.57736108
_cell_angle_alpha   62.23639204
_cell_angle_beta   62.23638984
_cell_angle_gamma   75.18133040
_symmetry_Int_Tables_number   1
_chemical_formula_structural   Li6In9Pd7
_chemical_formula_sum   'Li6 In9 Pd7'
_cell_volume   387.75059984
_cell_formula_units_Z   1
loop_
 _symmetry_equiv_pos_site_id
 _symmetry_equiv_pos_as_xyz
  1  'x, y, z'
loop_
 _atom_site_type_symbol
 _atom_site_label
 _atom_site_symmetry_multiplicity
 _atom_site_fract_x
 _atom_site_fract_y
 _atom_site_fract_z
 _atom_site_occupancy
  Li  Li0  1  0.539568  0.057958  0.154623  1
  Li  Li1  1  0.538089  0.538089  0.676371  1
  Li  Li2  1  0.057958  0.539568  0.154623  1
  Li  Li3  1  0.461911  0.461911  0.323629  1
  Li  Li4  1  0.942042  0.460432  0.845377  1
  Li  Li5  1  0.460432  0.942042  0.845377  1
  In  In6  1  0.233049  0.832626  0.198662  1
  In  In7  1  0.170741  0.170741  0.391491  1
  In  In8  1  0.277672  0.277672  0.670670  1
  In  In9  1  0.832626  0.233049  0.198662  1
  In  In10  1  0.722328  0.722328  0.329330  1
  In  In11  1  0.500000  0.500000  0.000000  1
  In  In12  1  0.766951  0.167374  0.801338  1
  In  In13  1  0.167374  0.766951  0.801338  1
  In  In14  1  0.829259  0.829259  0.608509  1
  Pd  Pd15  1  0.500000  0.000000  0.500000  1
  Pd  Pd16  1  0.271158  0.728842  0.500000  1
  Pd  Pd17  1  0.268071  0.268071  0.983445  1
  Pd  Pd18  1  0.731929  0.731929  0.016555  1
  Pd  Pd19  1  0.728842  0.271158  0.500000  1
  Pd  Pd20  1  0.000000  0.000000  0.000000  1
  Pd  Pd21  1  0.000000  0.500000  0.500000  1
