# generated using pymatgen
data_Cs2WF7
_symmetry_space_group_name_H-M   'P 1'
_cell_length_a   6.34141000
_cell_length_b   6.31777000
_cell_length_c   11.14247500
_cell_angle_alpha   90.00000000
_cell_angle_beta   90.00000000
_cell_angle_gamma   90.00000000
_symmetry_Int_Tables_number   1
_chemical_formula_structural   Cs2WF7
_chemical_formula_sum   'Cs4 W2 F14'
_cell_volume   446.40732553
_cell_formula_units_Z   2
loop_
 _symmetry_equiv_pos_site_id
 _symmetry_equiv_pos_as_xyz
  1  'x, y, z'
loop_
 _atom_site_type_symbol
 _atom_site_label
 _atom_site_symmetry_multiplicity
 _atom_site_fract_x
 _atom_site_fract_y
 _atom_site_fract_z
 _atom_site_occupancy
  Cs  Cs0  1  0.000000  0.500000  0.358929  1
  Cs  Cs1  1  0.500000  0.000000  0.641071  1
  Cs  Cs2  1  0.500000  0.500000  0.996687  1
  Cs  Cs3  1  0.000000  0.000000  0.003313  1
  W  W4  1  0.000000  0.500000  0.757981  1
  W  W5  1  0.500000  0.000000  0.242019  1
  F  F6  1  0.206045  0.268546  0.796638  1
  F  F7  1  0.293955  0.231454  0.203362  1
  F  F8  1  0.706045  0.768546  0.203362  1
  F  F9  1  0.793955  0.731454  0.796638  1
  F  F10  1  0.206045  0.731454  0.796638  1
  F  F11  1  0.706045  0.231454  0.203362  1
  F  F12  1  0.293955  0.768546  0.203362  1
  F  F13  1  0.793955  0.268546  0.796638  1
  F  F14  1  0.000000  0.500000  0.938484  1
  F  F15  1  0.500000  0.000000  0.061516  1
  F  F16  1  0.184496  0.500000  0.613621  1
  F  F17  1  0.815504  0.500000  0.613621  1
  F  F18  1  0.315504  0.000000  0.386379  1
  F  F19  1  0.684496  0.000000  0.386379  1
