# generated using pymatgen
data_ThSi(GeRh2)3
_symmetry_space_group_name_H-M   'P 1'
_cell_length_a   7.19086700
_cell_length_b   7.19086819
_cell_length_c   3.88768500
_cell_angle_alpha   90.00000000
_cell_angle_beta   90.00000000
_cell_angle_gamma   120.00000835
_symmetry_Int_Tables_number   1
_chemical_formula_structural   ThSi(GeRh2)3
_chemical_formula_sum   'Th1 Si1 Ge3 Rh6'
_cell_volume   174.09417815
_cell_formula_units_Z   1
loop_
 _symmetry_equiv_pos_site_id
 _symmetry_equiv_pos_as_xyz
  1  'x, y, z'
loop_
 _atom_site_type_symbol
 _atom_site_label
 _atom_site_symmetry_multiplicity
 _atom_site_fract_x
 _atom_site_fract_y
 _atom_site_fract_z
 _atom_site_occupancy
  Th  Th0  1  0.000000  0.000000  0.000000  1
  Si  Si1  1  0.666667  0.333333  0.000000  1
  Ge  Ge2  1  0.199626  0.800374  0.500000  1
  Ge  Ge3  1  0.199626  0.399252  0.500000  1
  Ge  Ge4  1  0.600748  0.800374  0.500000  1
  Rh  Rh5  1  0.470575  0.529425  0.000000  1
  Rh  Rh6  1  0.470575  0.941149  0.000000  1
  Rh  Rh7  1  0.058851  0.529425  0.000000  1
  Rh  Rh8  1  0.798111  0.201889  0.500000  1
  Rh  Rh9  1  0.798111  0.596222  0.500000  1
  Rh  Rh10  1  0.403778  0.201889  0.500000  1
