# generated using pymatgen
data_Ti7Pd20Rh
_symmetry_space_group_name_H-M   'P 1'
_cell_length_a   5.54012400
_cell_length_b   5.56277565
_cell_length_c   15.86789695
_cell_angle_alpha   90.37469657
_cell_angle_beta   90.00000000
_cell_angle_gamma   119.86537848
_symmetry_Int_Tables_number   1
_chemical_formula_structural   Ti7Pd20Rh
_chemical_formula_sum   'Ti7 Pd20 Rh1'
_cell_volume   424.06870372
_cell_formula_units_Z   1
loop_
 _symmetry_equiv_pos_site_id
 _symmetry_equiv_pos_as_xyz
  1  'x, y, z'
loop_
 _atom_site_type_symbol
 _atom_site_label
 _atom_site_symmetry_multiplicity
 _atom_site_fract_x
 _atom_site_fract_y
 _atom_site_fract_z
 _atom_site_occupancy
  Ti  Ti0  1  0.996454  0.992909  0.715084  1
  Ti  Ti1  1  0.666469  0.332937  0.855326  1
  Ti  Ti2  1  0.334050  0.668101  0.145027  1
  Ti  Ti3  1  0.999892  0.999784  0.282032  1
  Ti  Ti4  1  0.672734  0.345467  0.436367  1
  Ti  Ti5  1  0.000367  0.000734  0.999328  1
  Ti  Ti6  1  0.332862  0.665724  0.569382  1
  Pd  Pd7  1  0.331627  0.164554  0.571775  1
  Pd  Pd8  1  0.165726  0.331451  0.856792  1
  Pd  Pd9  1  0.167164  0.334327  0.427929  1
  Pd  Pd10  1  0.167352  0.835686  0.428137  1
  Pd  Pd11  1  0.499828  0.999653  0.714840  1
  Pd  Pd12  1  0.668334  0.835686  0.428137  1
  Pd  Pd13  1  0.165869  0.832541  0.857276  1
  Pd  Pd14  1  0.666671  0.832541  0.857276  1
  Pd  Pd15  1  0.833944  0.167052  0.142561  1
  Pd  Pd16  1  0.832927  0.164554  0.571775  1
  Pd  Pd17  1  0.500924  0.498597  0.714264  1
  Pd  Pd18  1  0.333108  0.167052  0.142561  1
  Pd  Pd19  1  0.833794  0.667589  0.142993  1
  Pd  Pd20  1  0.499567  0.500483  0.285651  1
  Pd  Pd21  1  0.499692  0.999385  0.285527  1
  Pd  Pd22  1  0.500080  0.000161  0.999880  1
  Pd  Pd23  1  0.000914  0.500483  0.285651  1
  Pd  Pd24  1  0.997675  0.498597  0.714264  1
  Pd  Pd25  1  0.500003  0.500268  0.999927  1
  Pd  Pd26  1  0.000264  0.500268  0.999927  1
  Rh  Rh27  1  0.831708  0.663416  0.570308  1
