# generated using pymatgen
data_Nb12Al7ZnCuAu3C4
_symmetry_space_group_name_H-M   'P 1'
_cell_length_a   8.43646005
_cell_length_b   8.43653714
_cell_length_c   8.43651600
_cell_angle_alpha   59.92579907
_cell_angle_beta   59.92684572
_cell_angle_gamma   59.92666195
_symmetry_Int_Tables_number   1
_chemical_formula_structural   Nb12Al7ZnCuAu3C4
_chemical_formula_sum   'Nb12 Al7 Zn1 Cu1 Au3 C4'
_cell_volume   423.88428750
_cell_formula_units_Z   1
loop_
 _symmetry_equiv_pos_site_id
 _symmetry_equiv_pos_as_xyz
  1  'x, y, z'
loop_
 _atom_site_type_symbol
 _atom_site_label
 _atom_site_symmetry_multiplicity
 _atom_site_fract_x
 _atom_site_fract_y
 _atom_site_fract_z
 _atom_site_occupancy
  Nb  Nb0  1  0.570699  0.930971  0.570686  1
  Nb  Nb1  1  0.319628  0.680082  0.680086  1
  Nb  Nb2  1  0.683540  0.316747  0.316742  1
  Nb  Nb3  1  0.316852  0.683401  0.316798  1
  Nb  Nb4  1  0.680023  0.680051  0.319639  1
  Nb  Nb5  1  0.316824  0.316886  0.683328  1
  Nb  Nb6  1  0.570663  0.570681  0.930966  1
  Nb  Nb7  1  0.931042  0.570650  0.570632  1
  Nb  Nb8  1  0.566767  0.932886  0.932849  1
  Nb  Nb9  1  0.932870  0.932899  0.566712  1
  Nb  Nb10  1  0.680013  0.319690  0.680047  1
  Nb  Nb11  1  0.932888  0.566842  0.932786  1
  Al  Al12  1  0.994416  0.329946  0.329980  1
  Al  Al13  1  0.329880  0.994402  0.329998  1
  Al  Al14  1  0.329933  0.329938  0.994437  1
  Al  Al15  1  0.918908  0.253519  0.919010  1
  Al  Al16  1  0.918963  0.918946  0.253547  1
  Al  Al17  1  0.253537  0.918954  0.918996  1
  Al  Al18  1  0.336593  0.336534  0.336572  1
  Zn  Zn19  1  0.913422  0.913507  0.913496  1
  Cu  Cu20  1  0.124545  0.124546  0.124531  1
  Au  Au21  1  0.621350  0.127104  0.127342  1
  Au  Au22  1  0.127232  0.621428  0.127231  1
  Au  Au23  1  0.127272  0.127202  0.621470  1
  C  C24  1  0.625247  0.625265  0.625236  1
  C  C25  1  0.125424  0.625743  0.625737  1
  C  C26  1  0.625735  0.125435  0.625729  1
  C  C27  1  0.625734  0.625746  0.125421  1
