# generated using pymatgen
data_VGe(SeO3)4
_symmetry_space_group_name_H-M   'P 1'
_cell_length_a   6.98219110
_cell_length_b   5.19718051
_cell_length_c   9.09837376
_cell_angle_alpha   56.03371961
_cell_angle_beta   89.74097663
_cell_angle_gamma   89.87984609
_symmetry_Int_Tables_number   1
_chemical_formula_structural   VGe(SeO3)4
_chemical_formula_sum   'V1 Ge1 Se4 O12'
_cell_volume   273.82009148
_cell_formula_units_Z   1
loop_
 _symmetry_equiv_pos_site_id
 _symmetry_equiv_pos_as_xyz
  1  'x, y, z'
loop_
 _atom_site_type_symbol
 _atom_site_label
 _atom_site_symmetry_multiplicity
 _atom_site_fract_x
 _atom_site_fract_y
 _atom_site_fract_z
 _atom_site_occupancy
  V  V0  1  0.000000  0.000000  0.000000  1
  Ge  Ge1  1  0.500000  0.000000  0.500000  1
  Se  Se2  1  0.823336  0.305661  0.205153  1
  Se  Se3  1  0.671871  0.318631  0.694634  1
  Se  Se4  1  0.176664  0.694339  0.794847  1
  Se  Se5  1  0.328129  0.681369  0.305366  1
  O  O6  1  0.834516  0.280482  0.022253  1
  O  O7  1  0.662643  0.284638  0.512269  1
  O  O8  1  0.165484  0.719518  0.977747  1
  O  O9  1  0.337357  0.715362  0.487731  1
  O  O10  1  0.583648  0.195856  0.258298  1
  O  O11  1  0.906252  0.198476  0.754785  1
  O  O12  1  0.416352  0.804144  0.741702  1
  O  O13  1  0.093748  0.801524  0.245215  1
  O  O14  1  0.790850  0.705475  0.088714  1
  O  O15  1  0.714840  0.716761  0.578836  1
  O  O16  1  0.209150  0.294525  0.911286  1
  O  O17  1  0.285160  0.283239  0.421164  1
