# generated using pymatgen
data_NdDy3Zr2(AlPt2)2
_symmetry_space_group_name_H-M   'P 1'
_cell_length_a   4.49645400
_cell_length_b   7.22470117
_cell_length_c   8.02378658
_cell_angle_alpha   90.28375699
_cell_angle_beta   90.00000000
_cell_angle_gamma   90.00000000
_symmetry_Int_Tables_number   1
_chemical_formula_structural   NdDy3Zr2(AlPt2)2
_chemical_formula_sum   'Nd1 Dy3 Zr2 Al2 Pt4'
_cell_volume   260.65381496
_cell_formula_units_Z   1
loop_
 _symmetry_equiv_pos_site_id
 _symmetry_equiv_pos_as_xyz
  1  'x, y, z'
loop_
 _atom_site_type_symbol
 _atom_site_label
 _atom_site_symmetry_multiplicity
 _atom_site_fract_x
 _atom_site_fract_y
 _atom_site_fract_z
 _atom_site_occupancy
  Nd  Nd0  1  0.250000  0.511755  0.827265  1
  Dy  Dy1  1  0.750000  0.450231  0.180240  1
  Dy  Dy2  1  0.250000  0.047112  0.676506  1
  Dy  Dy3  1  0.750000  0.987617  0.326624  1
  Zr  Zr4  1  0.750000  0.868877  0.934922  1
  Zr  Zr5  1  0.250000  0.632683  0.433422  1
  Al  Al6  1  0.750000  0.357590  0.563985  1
  Al  Al7  1  0.250000  0.139725  0.067733  1
  Pt  Pt8  1  0.750000  0.731756  0.609578  1
  Pt  Pt9  1  0.750000  0.231843  0.881588  1
  Pt  Pt10  1  0.250000  0.263012  0.380076  1
  Pt  Pt11  1  0.250000  0.777798  0.118063  1
