# generated using pymatgen
data_La2Be(SiRh2)3
_symmetry_space_group_name_H-M   'P 1'
_cell_length_a   5.62100885
_cell_length_b   6.68068190
_cell_length_c   6.68068179
_cell_angle_alpha   64.75539312
_cell_angle_beta   65.22376374
_cell_angle_gamma   65.22376384
_symmetry_Int_Tables_number   1
_chemical_formula_structural   La2Be(SiRh2)3
_chemical_formula_sum   'La2 Be1 Si3 Rh6'
_cell_volume   197.00645719
_cell_formula_units_Z   1
loop_
 _symmetry_equiv_pos_site_id
 _symmetry_equiv_pos_as_xyz
  1  'x, y, z'
loop_
 _atom_site_type_symbol
 _atom_site_label
 _atom_site_symmetry_multiplicity
 _atom_site_fract_x
 _atom_site_fract_y
 _atom_site_fract_z
 _atom_site_occupancy
  La  La0  1  0.539690  0.746254  0.746254  1
  La  La1  1  0.454227  0.254682  0.254682  1
  Be  Be2  1  0.227452  0.574300  0.574300  1
  Si  Si3  1  0.774506  0.423216  0.423216  1
  Si  Si4  1  0.123728  0.078221  0.078221  1
  Si  Si5  1  0.876348  0.921851  0.921851  1
  Rh  Rh6  1  0.500088  0.220430  0.779644  1
  Rh  Rh7  1  0.001308  0.720148  0.282843  1
  Rh  Rh8  1  0.500088  0.779644  0.220430  1
  Rh  Rh9  1  0.001308  0.282843  0.720148  1
  Rh  Rh10  1  0.000629  0.502449  0.995963  1
  Rh  Rh11  1  0.000629  0.995963  0.502449  1
