# generated using pymatgen
data_Pm4ZnGe3
_symmetry_space_group_name_H-M   'P 1'
_cell_length_a   8.15985489
_cell_length_b   5.97300126
_cell_length_c   4.12292000
_cell_angle_alpha   90.00000000
_cell_angle_beta   90.00000000
_cell_angle_gamma   89.47809878
_symmetry_Int_Tables_number   1
_chemical_formula_structural   Pm4ZnGe3
_chemical_formula_sum   'Pm4 Zn1 Ge3'
_cell_volume   200.93793390
_cell_formula_units_Z   1
loop_
 _symmetry_equiv_pos_site_id
 _symmetry_equiv_pos_as_xyz
  1  'x, y, z'
loop_
 _atom_site_type_symbol
 _atom_site_label
 _atom_site_symmetry_multiplicity
 _atom_site_fract_x
 _atom_site_fract_y
 _atom_site_fract_z
 _atom_site_occupancy
  Pm  Pm0  1  0.095137  0.487759  0.000000  1
  Pm  Pm1  1  0.596854  0.752383  0.000000  1
  Pm  Pm2  1  0.235776  0.997763  0.499999  1
  Pm  Pm3  1  0.736710  0.256930  0.499999  1
  Zn  Zn4  1  0.885745  0.748730  0.499999  1
  Ge  Ge5  1  0.453650  0.238593  0.000000  1
  Ge  Ge6  1  0.953217  0.001648  0.000000  1
  Ge  Ge7  1  0.376242  0.516196  0.499999  1
