# generated using pymatgen
data_Ac3Mg3PtPb2
_symmetry_space_group_name_H-M   'P 1'
_cell_length_a   7.91522200
_cell_length_b   7.91522222
_cell_length_c   4.78234500
_cell_angle_alpha   90.00000000
_cell_angle_beta   90.00000000
_cell_angle_gamma   120.00000746
_symmetry_Int_Tables_number   1
_chemical_formula_structural   Ac3Mg3PtPb2
_chemical_formula_sum   'Ac3 Mg3 Pt1 Pb2'
_cell_volume   259.47631058
_cell_formula_units_Z   1
loop_
 _symmetry_equiv_pos_site_id
 _symmetry_equiv_pos_as_xyz
  1  'x, y, z'
loop_
 _atom_site_type_symbol
 _atom_site_label
 _atom_site_symmetry_multiplicity
 _atom_site_fract_x
 _atom_site_fract_y
 _atom_site_fract_z
 _atom_site_occupancy
  Ac  Ac0  1  0.394754  0.394754  0.000000  1
  Ac  Ac1  1  0.605246  0.000000  0.000000  1
  Ac  Ac2  1  0.000000  0.605246  0.000000  1
  Mg  Mg3  1  0.000000  0.223749  0.500000  1
  Mg  Mg4  1  0.776251  0.776251  0.500000  1
  Mg  Mg5  1  0.223749  0.000000  0.500000  1
  Pt  Pt6  1  0.000000  0.000000  0.000000  1
  Pb  Pb7  1  0.666667  0.333333  0.500000  1
  Pb  Pb8  1  0.333333  0.666667  0.500000  1
