# generated using pymatgen
data_RbGa9Au5
_symmetry_space_group_name_H-M   'P 1'
_cell_length_a   7.84174500
_cell_length_b   7.84174529
_cell_length_c   12.24606300
_cell_angle_alpha   90.00000000
_cell_angle_beta   90.00000000
_cell_angle_gamma   119.99999457
_symmetry_Int_Tables_number   1
_chemical_formula_structural   RbGa9Au5
_chemical_formula_sum   'Rb2 Ga18 Au10'
_cell_volume   652.15764852
_cell_formula_units_Z   2
loop_
 _symmetry_equiv_pos_site_id
 _symmetry_equiv_pos_as_xyz
  1  'x, y, z'
loop_
 _atom_site_type_symbol
 _atom_site_label
 _atom_site_symmetry_multiplicity
 _atom_site_fract_x
 _atom_site_fract_y
 _atom_site_fract_z
 _atom_site_occupancy
  Rb  Rb0  1  0.000000  0.000000  0.500000  1
  Rb  Rb1  1  0.000000  0.000000  0.000000  1
  Ga  Ga2  1  0.459598  0.919197  0.401857  1
  Ga  Ga3  1  0.080803  0.540402  0.401857  1
  Ga  Ga4  1  0.459598  0.540402  0.401857  1
  Ga  Ga5  1  0.540402  0.080803  0.598143  1
  Ga  Ga6  1  0.919197  0.459598  0.598143  1
  Ga  Ga7  1  0.540402  0.459598  0.598143  1
  Ga  Ga8  1  0.540402  0.080803  0.901857  1
  Ga  Ga9  1  0.919197  0.459598  0.901857  1
  Ga  Ga10  1  0.540402  0.459598  0.901857  1
  Ga  Ga11  1  0.459598  0.919197  0.098143  1
  Ga  Ga12  1  0.080803  0.540402  0.098143  1
  Ga  Ga13  1  0.459598  0.540402  0.098143  1
  Ga  Ga14  1  0.805018  0.610035  0.250000  1
  Ga  Ga15  1  0.389965  0.194982  0.250000  1
  Ga  Ga16  1  0.805018  0.194982  0.250000  1
  Ga  Ga17  1  0.194982  0.389965  0.750000  1
  Ga  Ga18  1  0.610035  0.805018  0.750000  1
  Ga  Ga19  1  0.194982  0.805018  0.750000  1
  Au  Au20  1  0.666667  0.333333  0.414683  1
  Au  Au21  1  0.333333  0.666667  0.585317  1
  Au  Au22  1  0.333333  0.666667  0.914683  1
  Au  Au23  1  0.666667  0.333333  0.085317  1
  Au  Au24  1  0.185499  0.814501  0.250000  1
  Au  Au25  1  0.185499  0.370998  0.250000  1
  Au  Au26  1  0.629002  0.814501  0.250000  1
  Au  Au27  1  0.814501  0.185499  0.750000  1
  Au  Au28  1  0.814501  0.629002  0.750000  1
  Au  Au29  1  0.370998  0.185499  0.750000  1
