# generated using pymatgen
data_ErSi(AsRu2)3
_symmetry_space_group_name_H-M   'P 1'
_cell_length_a   7.15099000
_cell_length_b   7.15099050
_cell_length_c   3.81066700
_cell_angle_alpha   90.00000000
_cell_angle_beta   90.00000000
_cell_angle_gamma   120.00000695
_symmetry_Int_Tables_number   1
_chemical_formula_structural   ErSi(AsRu2)3
_chemical_formula_sum   'Er1 Si1 As3 Ru6'
_cell_volume   168.75784544
_cell_formula_units_Z   1
loop_
 _symmetry_equiv_pos_site_id
 _symmetry_equiv_pos_as_xyz
  1  'x, y, z'
loop_
 _atom_site_type_symbol
 _atom_site_label
 _atom_site_symmetry_multiplicity
 _atom_site_fract_x
 _atom_site_fract_y
 _atom_site_fract_z
 _atom_site_occupancy
  Er  Er0  1  0.000000  0.000000  0.000000  1
  Si  Si1  1  0.333333  0.666667  0.000000  1
  As  As2  1  0.379843  0.189921  0.500001  1
  As  As3  1  0.810079  0.189921  0.500001  1
  As  As4  1  0.810079  0.620157  0.500001  1
  Ru  Ru5  1  0.534985  0.069969  0.000000  1
  Ru  Ru6  1  0.930031  0.465014  0.000000  1
  Ru  Ru7  1  0.534985  0.465014  0.000000  1
  Ru  Ru8  1  0.202527  0.405054  0.500001  1
  Ru  Ru9  1  0.202527  0.797473  0.500001  1
  Ru  Ru10  1  0.594945  0.797473  0.500001  1
