# generated using pymatgen
data_Ba3CeErSe6
_symmetry_space_group_name_H-M   'P 1'
_cell_length_a   8.85812046
_cell_length_b   8.85811894
_cell_length_c   8.85812000
_cell_angle_alpha   92.28095420
_cell_angle_beta   92.28095381
_cell_angle_gamma   92.28094099
_symmetry_Int_Tables_number   1
_chemical_formula_structural   Ba3CeErSe6
_chemical_formula_sum   'Ba6 Ce2 Er2 Se12'
_cell_volume   693.36639706
_cell_formula_units_Z   2
loop_
 _symmetry_equiv_pos_site_id
 _symmetry_equiv_pos_as_xyz
  1  'x, y, z'
loop_
 _atom_site_type_symbol
 _atom_site_label
 _atom_site_symmetry_multiplicity
 _atom_site_fract_x
 _atom_site_fract_y
 _atom_site_fract_z
 _atom_site_occupancy
  Ba  Ba0  1  0.371522  0.750000  0.128478  1
  Ba  Ba1  1  0.128478  0.371522  0.750000  1
  Ba  Ba2  1  0.750000  0.128478  0.371522  1
  Ba  Ba3  1  0.628478  0.250000  0.871522  1
  Ba  Ba4  1  0.871522  0.628478  0.250000  1
  Ba  Ba5  1  0.250000  0.871522  0.628478  1
  Ce  Ce6  1  0.250000  0.250000  0.250000  1
  Ce  Ce7  1  0.750000  0.750000  0.750000  1
  Er  Er8  1  0.500000  0.500000  0.500000  1
  Er  Er9  1  0.000000  0.000000  0.000000  1
  Se  Se10  1  0.545618  0.410156  0.197155  1
  Se  Se11  1  0.197155  0.545618  0.410156  1
  Se  Se12  1  0.410156  0.197155  0.545618  1
  Se  Se13  1  0.954382  0.302845  0.089844  1
  Se  Se14  1  0.089844  0.954382  0.302845  1
  Se  Se15  1  0.302845  0.089844  0.954382  1
  Se  Se16  1  0.454382  0.589844  0.802845  1
  Se  Se17  1  0.802845  0.454382  0.589844  1
  Se  Se18  1  0.589844  0.802845  0.454382  1
  Se  Se19  1  0.045618  0.697155  0.910156  1
  Se  Se20  1  0.697155  0.910156  0.045618  1
  Se  Se21  1  0.910156  0.045618  0.697155  1
