# generated using pymatgen
data_LaY5CoRh
_symmetry_space_group_name_H-M   'P 1'
_cell_length_a   6.47091947
_cell_length_b   7.08784371
_cell_length_c   9.52262400
_cell_angle_alpha   90.00000000
_cell_angle_beta   90.00000000
_cell_angle_gamma   89.06638114
_symmetry_Int_Tables_number   1
_chemical_formula_structural   LaY5CoRh
_chemical_formula_sum   'La2 Y10 Co2 Rh2'
_cell_volume   436.69589050
_cell_formula_units_Z   2
loop_
 _symmetry_equiv_pos_site_id
 _symmetry_equiv_pos_as_xyz
  1  'x, y, z'
loop_
 _atom_site_type_symbol
 _atom_site_label
 _atom_site_symmetry_multiplicity
 _atom_site_fract_x
 _atom_site_fract_y
 _atom_site_fract_z
 _atom_site_occupancy
  La  La0  1  0.627142  0.062782  0.250000  1
  La  La1  1  0.372858  0.937218  0.750000  1
  Y  Y2  1  0.140054  0.465610  0.750000  1
  Y  Y3  1  0.859946  0.534390  0.250000  1
  Y  Y4  1  0.172526  0.180447  0.063365  1
  Y  Y5  1  0.827474  0.819553  0.936635  1
  Y  Y6  1  0.673916  0.332878  0.930392  1
  Y  Y7  1  0.827474  0.819553  0.563365  1
  Y  Y8  1  0.326084  0.667122  0.069608  1
  Y  Y9  1  0.172526  0.180447  0.436635  1
  Y  Y10  1  0.326084  0.667122  0.430392  1
  Y  Y11  1  0.673916  0.332878  0.569608  1
  Co  Co12  1  0.452296  0.376647  0.250000  1
  Co  Co13  1  0.547704  0.623353  0.750000  1
  Rh  Rh14  1  0.956328  0.112859  0.750000  1
  Rh  Rh15  1  0.043672  0.887141  0.250000  1
