# generated using pymatgen
data_Er3ThCoHg
_symmetry_space_group_name_H-M   'P 1'
_cell_length_a   9.49781469
_cell_length_b   9.49781517
_cell_length_c   9.49781600
_cell_angle_alpha   60.00000408
_cell_angle_beta   60.00000240
_cell_angle_gamma   60.00000329
_symmetry_Int_Tables_number   1
_chemical_formula_structural   Er3ThCoHg
_chemical_formula_sum   'Er12 Th4 Co4 Hg4'
_cell_volume   605.83755602
_cell_formula_units_Z   4
loop_
 _symmetry_equiv_pos_site_id
 _symmetry_equiv_pos_as_xyz
  1  'x, y, z'
loop_
 _atom_site_type_symbol
 _atom_site_label
 _atom_site_symmetry_multiplicity
 _atom_site_fract_x
 _atom_site_fract_y
 _atom_site_fract_z
 _atom_site_occupancy
  Er  Er0  1  0.063177  0.436823  0.436823  1
  Er  Er1  1  0.436823  0.063177  0.063177  1
  Er  Er2  1  0.436823  0.063177  0.436823  1
  Er  Er3  1  0.063177  0.436823  0.063177  1
  Er  Er4  1  0.436823  0.436823  0.063177  1
  Er  Er5  1  0.063177  0.063177  0.436823  1
  Er  Er6  1  0.186421  0.813579  0.813579  1
  Er  Er7  1  0.813579  0.186421  0.186421  1
  Er  Er8  1  0.813579  0.186421  0.813579  1
  Er  Er9  1  0.186421  0.813579  0.186421  1
  Er  Er10  1  0.813579  0.813579  0.186421  1
  Er  Er11  1  0.186421  0.186421  0.813579  1
  Th  Th12  1  0.597232  0.597232  0.597232  1
  Th  Th13  1  0.597232  0.597232  0.208306  1
  Th  Th14  1  0.597232  0.208306  0.597232  1
  Th  Th15  1  0.208306  0.597232  0.597232  1
  Co  Co16  1  0.394306  0.394306  0.394306  1
  Co  Co17  1  0.394306  0.394306  0.817081  1
  Co  Co18  1  0.394306  0.817081  0.394306  1
  Co  Co19  1  0.817081  0.394306  0.394306  1
  Hg  Hg20  1  0.836203  0.836203  0.836203  1
  Hg  Hg21  1  0.836203  0.836203  0.491393  1
  Hg  Hg22  1  0.836203  0.491393  0.836203  1
  Hg  Hg23  1  0.491393  0.836203  0.836203  1
