# generated using pymatgen
data_Sr9Yb3(TmSn2)8
_symmetry_space_group_name_H-M   'P 1'
_cell_length_a   8.04963336
_cell_length_b   8.54711504
_cell_length_c   16.30323306
_cell_angle_alpha   90.02977633
_cell_angle_beta   90.02352364
_cell_angle_gamma   90.25767155
_symmetry_Int_Tables_number   1
_chemical_formula_structural   Sr9Yb3(TmSn2)8
_chemical_formula_sum   'Sr9 Yb3 Tm8 Sn16'
_cell_volume   1121.66946786
_cell_formula_units_Z   1
loop_
 _symmetry_equiv_pos_site_id
 _symmetry_equiv_pos_as_xyz
  1  'x, y, z'
loop_
 _atom_site_type_symbol
 _atom_site_label
 _atom_site_symmetry_multiplicity
 _atom_site_fract_x
 _atom_site_fract_y
 _atom_site_fract_z
 _atom_site_occupancy
  Sr  Sr0  1  0.178315  0.330297  0.619470  1
  Sr  Sr1  1  0.502526  0.682608  0.594242  1
  Sr  Sr2  1  0.002746  0.820550  0.909315  1
  Sr  Sr3  1  0.494270  0.317913  0.093187  1
  Sr  Sr4  1  0.995721  0.183704  0.404997  1
  Sr  Sr5  1  0.495466  0.317759  0.405853  1
  Sr  Sr6  1  0.995217  0.182647  0.093328  1
  Sr  Sr7  1  0.502988  0.682875  0.907983  1
  Sr  Sr8  1  0.004680  0.818707  0.592052  1
  Yb  Yb9  1  0.335337  0.992928  0.750789  1
  Yb  Yb10  1  0.163376  0.492491  0.248781  1
  Yb  Yb11  1  0.665272  0.006712  0.250183  1
  Tm  Tm12  1  0.673231  0.163950  0.623112  1
  Tm  Tm13  1  0.172858  0.332643  0.879055  1
  Tm  Tm14  1  0.326555  0.832651  0.122418  1
  Tm  Tm15  1  0.827141  0.666520  0.375902  1
  Tm  Tm16  1  0.327966  0.833533  0.375419  1
  Tm  Tm17  1  0.827301  0.666950  0.122182  1
  Tm  Tm18  1  0.671611  0.164087  0.879726  1
  Tm  Tm19  1  0.839482  0.506381  0.749981  1
  Sn  Sn20  1  0.670144  0.957297  0.458145  1
  Sn  Sn21  1  0.162926  0.540223  0.040842  1
  Sn  Sn22  1  0.335753  0.040665  0.959482  1
  Sn  Sn23  1  0.825084  0.464741  0.541665  1
  Sn  Sn24  1  0.347892  0.031647  0.538339  1
  Sn  Sn25  1  0.835196  0.461855  0.955622  1
  Sn  Sn26  1  0.663603  0.959498  0.041846  1
  Sn  Sn27  1  0.158566  0.546441  0.452839  1
  Sn  Sn28  1  0.481159  0.378494  0.756804  1
  Sn  Sn29  1  0.964000  0.129705  0.753978  1
  Sn  Sn30  1  0.529469  0.632867  0.249119  1
  Sn  Sn31  1  0.029417  0.867356  0.248018  1
  Sn  Sn32  1  0.717884  0.872281  0.751446  1
  Sn  Sn33  1  0.210864  0.620945  0.755719  1
  Sn  Sn34  1  0.284178  0.116525  0.249176  1
  Sn  Sn35  1  0.781811  0.383556  0.248989  1
