# generated using pymatgen
data_Tb15YHo4(CoBi2)4
_symmetry_space_group_name_H-M   'P 1'
_cell_length_a   8.04644096
_cell_length_b   8.90059309
_cell_length_c   12.47979202
_cell_angle_alpha   89.95992823
_cell_angle_beta   90.02418842
_cell_angle_gamma   90.00098894
_symmetry_Int_Tables_number   1
_chemical_formula_structural   Tb15YHo4(CoBi2)4
_chemical_formula_sum   'Tb15 Y1 Ho4 Co4 Bi8'
_cell_volume   893.77865482
_cell_formula_units_Z   1
loop_
 _symmetry_equiv_pos_site_id
 _symmetry_equiv_pos_as_xyz
  1  'x, y, z'
loop_
 _atom_site_type_symbol
 _atom_site_label
 _atom_site_symmetry_multiplicity
 _atom_site_fract_x
 _atom_site_fract_y
 _atom_site_fract_z
 _atom_site_occupancy
  Tb  Tb0  1  0.151559  0.249860  0.198760  1
  Tb  Tb1  1  0.348830  0.249882  0.698370  1
  Tb  Tb2  1  0.651259  0.750164  0.301621  1
  Tb  Tb3  1  0.380999  0.750206  0.689358  1
  Tb  Tb4  1  0.618003  0.249607  0.311001  1
  Tb  Tb5  1  0.881982  0.249817  0.810035  1
  Tb  Tb6  1  0.119323  0.750505  0.190213  1
  Tb  Tb7  1  0.953012  0.750575  0.502462  1
  Tb  Tb8  1  0.049000  0.249766  0.497521  1
  Tb  Tb9  1  0.451058  0.249463  0.997651  1
  Tb  Tb10  1  0.545946  0.750382  0.002319  1
  Tb  Tb11  1  0.822750  0.034797  0.062810  1
  Tb  Tb12  1  0.677381  0.465129  0.562941  1
  Tb  Tb13  1  0.822656  0.465398  0.062646  1
  Tb  Tb14  1  0.177476  0.535598  0.936759  1
  Y  Y15  1  0.848239  0.750231  0.801020  1
  Ho  Ho16  1  0.675024  0.035234  0.562902  1
  Ho  Ho17  1  0.324601  0.964338  0.436836  1
  Ho  Ho18  1  0.175391  0.963903  0.936692  1
  Ho  Ho19  1  0.324591  0.535382  0.437048  1
  Co  Co20  1  0.560455  0.750369  0.507917  1
  Co  Co21  1  0.437409  0.249290  0.491811  1
  Co  Co22  1  0.063372  0.249179  0.991256  1
  Co  Co23  1  0.939542  0.750472  0.008927  1
  Bi  Bi24  1  0.572282  0.491880  0.825835  1
  Bi  Bi25  1  0.428112  0.508127  0.174521  1
  Bi  Bi26  1  0.071580  0.508600  0.674117  1
  Bi  Bi27  1  0.428158  0.991847  0.174560  1
  Bi  Bi28  1  0.929030  0.491950  0.326125  1
  Bi  Bi29  1  0.571374  0.008005  0.825617  1
  Bi  Bi30  1  0.928958  0.008309  0.326131  1
  Bi  Bi31  1  0.070647  0.991738  0.674217  1
