# generated using pymatgen
data_Dy3Lu(GaAu)4
_symmetry_space_group_name_H-M   'P 1'
_cell_length_a   7.11219963
_cell_length_b   4.52112800
_cell_length_c   7.76159500
_cell_angle_alpha   90.00000000
_cell_angle_beta   89.97592066
_cell_angle_gamma   90.00000000
_symmetry_Int_Tables_number   1
_chemical_formula_structural   Dy3Lu(GaAu)4
_chemical_formula_sum   'Dy3 Lu1 Ga4 Au4'
_cell_volume   249.57534492
_cell_formula_units_Z   1
loop_
 _symmetry_equiv_pos_site_id
 _symmetry_equiv_pos_as_xyz
  1  'x, y, z'
loop_
 _atom_site_type_symbol
 _atom_site_label
 _atom_site_symmetry_multiplicity
 _atom_site_fract_x
 _atom_site_fract_y
 _atom_site_fract_z
 _atom_site_occupancy
  Dy  Dy0  1  0.002567  0.750000  0.213961  1
  Dy  Dy1  1  0.502479  0.750000  0.284962  1
  Dy  Dy2  1  0.497527  0.249999  0.715390  1
  Lu  Lu3  1  0.997336  0.249999  0.784549  1
  Ga  Ga4  1  0.302691  0.249999  0.085066  1
  Ga  Ga5  1  0.803173  0.249999  0.415314  1
  Ga  Ga6  1  0.196025  0.750000  0.586065  1
  Ga  Ga7  1  0.697471  0.750000  0.914476  1
  Au  Au8  1  0.716266  0.249999  0.081992  1
  Au  Au9  1  0.212982  0.249999  0.417352  1
  Au  Au10  1  0.788492  0.750000  0.585313  1
  Au  Au11  1  0.282992  0.750000  0.915559  1
