# generated using pymatgen
data_Rb6TbErF12
_symmetry_space_group_name_H-M   'P 1'
_cell_length_a   6.87824550
_cell_length_b   6.63918731
_cell_length_c   11.53691455
_cell_angle_alpha   55.24290427
_cell_angle_beta   90.03491697
_cell_angle_gamma   90.00870231
_symmetry_Int_Tables_number   1
_chemical_formula_structural   Rb6TbErF12
_chemical_formula_sum   'Rb6 Tb1 Er1 F12'
_cell_volume   432.84270441
_cell_formula_units_Z   1
loop_
 _symmetry_equiv_pos_site_id
 _symmetry_equiv_pos_as_xyz
  1  'x, y, z'
loop_
 _atom_site_type_symbol
 _atom_site_label
 _atom_site_symmetry_multiplicity
 _atom_site_fract_x
 _atom_site_fract_y
 _atom_site_fract_z
 _atom_site_occupancy
  Rb  Rb0  1  0.500000  0.500000  0.000000  1
  Rb  Rb1  1  0.000000  0.500000  0.500000  1
  Rb  Rb2  1  0.050064  0.733064  0.753663  1
  Rb  Rb3  1  0.949936  0.266936  0.246337  1
  Rb  Rb4  1  0.550273  0.266109  0.747566  1
  Rb  Rb5  1  0.449727  0.733891  0.252434  1
  Tb  Tb6  1  0.000000  0.000000  0.000000  1
  Er  Er7  1  0.500000  0.000000  0.500000  1
  F  F8  1  0.762142  0.774860  0.564451  1
  F  F9  1  0.237858  0.225140  0.435549  1
  F  F10  1  0.265709  0.228445  0.935551  1
  F  F11  1  0.734291  0.771555  0.064449  1
  F  F12  1  0.449372  0.888950  0.715363  1
  F  F13  1  0.550628  0.111050  0.284637  1
  F  F14  1  0.949154  0.112952  0.781505  1
  F  F15  1  0.050846  0.887048  0.218495  1
  F  F16  1  0.331230  0.684513  0.547104  1
  F  F17  1  0.668770  0.315487  0.452896  1
  F  F18  1  0.827828  0.319155  0.952874  1
  F  F19  1  0.172172  0.680845  0.047126  1
