# generated using pymatgen
data_Tb3Yb3(MnC3)4
_symmetry_space_group_name_H-M   'P 1'
_cell_length_a   8.07259053
_cell_length_b   8.07925752
_cell_length_c   4.98806700
_cell_angle_alpha   90.00000000
_cell_angle_beta   90.00000000
_cell_angle_gamma   120.13915755
_symmetry_Int_Tables_number   1
_chemical_formula_structural   Tb3Yb3(MnC3)4
_chemical_formula_sum   'Tb3 Yb3 Mn4 C12'
_cell_volume   281.34330766
_cell_formula_units_Z   1
loop_
 _symmetry_equiv_pos_site_id
 _symmetry_equiv_pos_as_xyz
  1  'x, y, z'
loop_
 _atom_site_type_symbol
 _atom_site_label
 _atom_site_symmetry_multiplicity
 _atom_site_fract_x
 _atom_site_fract_y
 _atom_site_fract_z
 _atom_site_occupancy
  Tb  Tb0  1  0.313033  0.931779  0.750000  1
  Tb  Tb1  1  0.068851  0.385314  0.750000  1
  Tb  Tb2  1  0.384455  0.316016  0.250000  1
  Yb  Yb3  1  0.613550  0.686189  0.750000  1
  Yb  Yb4  1  0.926300  0.614451  0.250000  1
  Yb  Yb5  1  0.683105  0.071925  0.250000  1
  Mn  Mn6  1  0.996420  0.997556  0.502115  1
  Mn  Mn7  1  0.996420  0.997556  0.997885  1
  Mn  Mn8  1  0.667638  0.330980  0.750000  1
  Mn  Mn9  1  0.331910  0.663249  0.250000  1
  C  C10  1  0.957601  0.772176  0.750000  1
  C  C11  1  0.194635  0.963599  0.250000  1
  C  C12  1  0.774237  0.819366  0.250000  1
  C  C13  1  0.228822  0.192527  0.750000  1
  C  C14  1  0.821164  0.043863  0.750000  1
  C  C15  1  0.039913  0.222665  0.250000  1
  C  C16  1  0.858538  0.578348  0.750000  1
  C  C17  1  0.279074  0.854662  0.250000  1
  C  C18  1  0.581373  0.721628  0.250000  1
  C  C19  1  0.424192  0.281868  0.750000  1
  C  C20  1  0.137979  0.416824  0.250000  1
  C  C21  1  0.720789  0.137458  0.750000  1
