# generated using pymatgen
data_Nb3Ga2PdC
_symmetry_space_group_name_H-M   'P 1'
_cell_length_a   8.38245769
_cell_length_b   8.38304679
_cell_length_c   8.38177602
_cell_angle_alpha   59.99893393
_cell_angle_beta   59.99615487
_cell_angle_gamma   59.98858399
_symmetry_Int_Tables_number   1
_chemical_formula_structural   Nb3Ga2PdC
_chemical_formula_sum   'Nb12 Ga8 Pd4 C4'
_cell_volume   416.42875661
_cell_formula_units_Z   4
loop_
 _symmetry_equiv_pos_site_id
 _symmetry_equiv_pos_as_xyz
  1  'x, y, z'
loop_
 _atom_site_type_symbol
 _atom_site_label
 _atom_site_symmetry_multiplicity
 _atom_site_fract_x
 _atom_site_fract_y
 _atom_site_fract_z
 _atom_site_occupancy
  Nb  Nb0  1  0.566858  0.933109  0.566853  1
  Nb  Nb1  1  0.316825  0.683234  0.683226  1
  Nb  Nb2  1  0.683238  0.316723  0.316753  1
  Nb  Nb3  1  0.316784  0.683205  0.316773  1
  Nb  Nb4  1  0.683230  0.683247  0.316810  1
  Nb  Nb5  1  0.316772  0.316726  0.683232  1
  Nb  Nb6  1  0.566770  0.566753  0.933190  1
  Nb  Nb7  1  0.933175  0.566766  0.566774  1
  Nb  Nb8  1  0.566762  0.933277  0.933247  1
  Nb  Nb9  1  0.933228  0.933274  0.566768  1
  Nb  Nb10  1  0.683142  0.316891  0.683147  1
  Nb  Nb11  1  0.933216  0.566795  0.933227  1
  Ga  Ga12  1  0.914103  0.914090  0.914088  1
  Ga  Ga13  1  0.992301  0.335900  0.335909  1
  Ga  Ga14  1  0.335900  0.992282  0.335916  1
  Ga  Ga15  1  0.335903  0.335911  0.992286  1
  Ga  Ga16  1  0.914100  0.257718  0.914084  1
  Ga  Ga17  1  0.914097  0.914089  0.257714  1
  Ga  Ga18  1  0.257699  0.914100  0.914091  1
  Ga  Ga19  1  0.335897  0.335910  0.335912  1
  Pd  Pd20  1  0.125000  0.125000  0.125000  1
  Pd  Pd21  1  0.625000  0.125000  0.125000  1
  Pd  Pd22  1  0.125000  0.625000  0.125000  1
  Pd  Pd23  1  0.125000  0.125000  0.625000  1
  C  C24  1  0.625000  0.625000  0.625000  1
  C  C25  1  0.125000  0.625000  0.625000  1
  C  C26  1  0.625000  0.125000  0.625000  1
  C  C27  1  0.625000  0.625000  0.125000  1
