# generated using pymatgen
data_CaTm(Si2Ni9)2
_symmetry_space_group_name_H-M   'P 1'
_cell_length_a   7.55788392
_cell_length_b   7.55788486
_cell_length_c   7.55788412
_cell_angle_alpha   99.56433774
_cell_angle_beta   99.56433783
_cell_angle_gamma   131.88902573
_symmetry_Int_Tables_number   1
_chemical_formula_structural   CaTm(Si2Ni9)2
_chemical_formula_sum   'Ca1 Tm1 Si4 Ni18'
_cell_volume   293.47611334
_cell_formula_units_Z   1
loop_
 _symmetry_equiv_pos_site_id
 _symmetry_equiv_pos_as_xyz
  1  'x, y, z'
loop_
 _atom_site_type_symbol
 _atom_site_label
 _atom_site_symmetry_multiplicity
 _atom_site_fract_x
 _atom_site_fract_y
 _atom_site_fract_z
 _atom_site_occupancy
  Ca  Ca0  1  0.500000  0.500000  0.000000  1
  Tm  Tm1  1  0.750000  0.250000  0.500000  1
  Si  Si2  1  0.624160  0.874203  0.749957  1
  Si  Si3  1  0.125797  0.375840  0.250043  1
  Si  Si4  1  0.125797  0.875755  0.749957  1
  Si  Si5  1  0.124245  0.874203  0.250043  1
  Ni  Ni6  1  0.250000  0.750000  0.500000  1
  Ni  Ni7  1  0.000000  0.000000  0.000000  1
  Ni  Ni8  1  0.686320  0.013730  0.079903  1
  Ni  Ni9  1  0.686320  0.606418  0.672589  1
  Ni  Ni10  1  0.260614  0.435340  0.578001  1
  Ni  Ni11  1  0.260614  0.682613  0.825274  1
  Ni  Ni12  1  0.933827  0.013730  0.327411  1
  Ni  Ni13  1  0.933827  0.606418  0.920097  1
  Ni  Ni14  1  0.857341  0.435340  0.174726  1
  Ni  Ni15  1  0.857341  0.682613  0.421999  1
  Ni  Ni16  1  0.564660  0.739386  0.421999  1
  Ni  Ni17  1  0.564660  0.142659  0.825274  1
  Ni  Ni18  1  0.986270  0.313680  0.920097  1
  Ni  Ni19  1  0.986270  0.066173  0.672589  1
  Ni  Ni20  1  0.317387  0.739386  0.174726  1
  Ni  Ni21  1  0.317387  0.142659  0.578001  1
  Ni  Ni22  1  0.393582  0.313680  0.327411  1
  Ni  Ni23  1  0.393582  0.066173  0.079903  1
