# generated using pymatgen
data_Zr9Ta3PtO3
_symmetry_space_group_name_H-M   'P 1'
_cell_length_a   8.70314591
_cell_length_b   8.70314181
_cell_length_c   8.70069600
_cell_angle_alpha   90.00000000
_cell_angle_beta   90.00000000
_cell_angle_gamma   119.44159647
_symmetry_Int_Tables_number   1
_chemical_formula_structural   Zr9Ta3PtO3
_chemical_formula_sum   'Zr18 Ta6 Pt2 O6'
_cell_volume   573.92251211
_cell_formula_units_Z   2
loop_
 _symmetry_equiv_pos_site_id
 _symmetry_equiv_pos_as_xyz
  1  'x, y, z'
loop_
 _atom_site_type_symbol
 _atom_site_label
 _atom_site_symmetry_multiplicity
 _atom_site_fract_x
 _atom_site_fract_y
 _atom_site_fract_z
 _atom_site_occupancy
  Zr  Zr0  1  0.453482  0.904626  0.250000  1
  Zr  Zr1  1  0.546518  0.095374  0.750000  1
  Zr  Zr2  1  0.095374  0.546518  0.250000  1
  Zr  Zr3  1  0.904626  0.453482  0.750000  1
  Zr  Zr4  1  0.454544  0.545456  0.250000  1
  Zr  Zr5  1  0.545456  0.454544  0.750000  1
  Zr  Zr6  1  0.204892  0.411357  0.559164  1
  Zr  Zr7  1  0.795108  0.588643  0.440836  1
  Zr  Zr8  1  0.588643  0.795109  0.559164  1
  Zr  Zr9  1  0.795108  0.588643  0.059164  1
  Zr  Zr10  1  0.411357  0.204891  0.440836  1
  Zr  Zr11  1  0.204892  0.411357  0.940836  1
  Zr  Zr12  1  0.207590  0.792410  0.569580  1
  Zr  Zr13  1  0.411357  0.204891  0.059164  1
  Zr  Zr14  1  0.792410  0.207590  0.430420  1
  Zr  Zr15  1  0.588643  0.795109  0.940836  1
  Zr  Zr16  1  0.792410  0.207590  0.069580  1
  Zr  Zr17  1  0.207590  0.792410  0.930420  1
  Ta  Ta18  1  0.110487  0.220738  0.250000  1
  Ta  Ta19  1  0.889513  0.779262  0.750000  1
  Ta  Ta20  1  0.779262  0.889514  0.250000  1
  Ta  Ta21  1  0.220738  0.110486  0.750000  1
  Ta  Ta22  1  0.000000  0.000000  0.000000  1
  Ta  Ta23  1  0.000000  0.000000  0.500000  1
  Pt  Pt24  1  0.114291  0.885710  0.250000  1
  Pt  Pt25  1  0.885709  0.114290  0.750000  1
  O  O26  1  0.500000  0.000000  0.000000  1
  O  O27  1  0.000000  0.500000  0.000000  1
  O  O28  1  0.500000  0.000000  0.500000  1
  O  O29  1  0.500000  0.500000  0.000000  1
  O  O30  1  0.000000  0.500000  0.500000  1
  O  O31  1  0.500000  0.500000  0.500000  1
