# generated using pymatgen
data_Er4Mn11Nb4Fe5P12
_symmetry_space_group_name_H-M   'P 1'
_cell_length_a   3.64250300
_cell_length_b   10.73749548
_cell_length_c   12.42074897
_cell_angle_alpha   89.86350652
_cell_angle_beta   90.00000000
_cell_angle_gamma   90.00000000
_symmetry_Int_Tables_number   1
_chemical_formula_structural   Er4Mn11Nb4Fe5P12
_chemical_formula_sum   'Er4 Mn11 Nb4 Fe5 P12'
_cell_volume   485.79099978
_cell_formula_units_Z   1
loop_
 _symmetry_equiv_pos_site_id
 _symmetry_equiv_pos_as_xyz
  1  'x, y, z'
loop_
 _atom_site_type_symbol
 _atom_site_label
 _atom_site_symmetry_multiplicity
 _atom_site_fract_x
 _atom_site_fract_y
 _atom_site_fract_z
 _atom_site_occupancy
  Er  Er0  1  0.250000  0.582703  0.712617  1
  Er  Er1  1  0.250000  0.915447  0.210872  1
  Er  Er2  1  0.750000  0.415281  0.289010  1
  Er  Er3  1  0.750000  0.086294  0.788991  1
  Mn  Mn4  1  0.250000  0.409780  0.493485  1
  Mn  Mn5  1  0.250000  0.091404  0.991812  1
  Mn  Mn6  1  0.750000  0.589578  0.508146  1
  Mn  Mn7  1  0.750000  0.909976  0.007591  1
  Mn  Mn8  1  0.250000  0.215451  0.175657  1
  Mn  Mn9  1  0.250000  0.284723  0.675286  1
  Mn  Mn10  1  0.750000  0.782684  0.824544  1
  Mn  Mn11  1  0.750000  0.715813  0.324599  1
  Mn  Mn12  1  0.250000  0.878799  0.700633  1
  Mn  Mn13  1  0.250000  0.620968  0.200672  1
  Mn  Mn14  1  0.750000  0.121169  0.299260  1
  Nb  Nb15  1  0.250000  0.705325  0.986727  1
  Nb  Nb16  1  0.250000  0.794509  0.487480  1
  Nb  Nb17  1  0.750000  0.295611  0.011234  1
  Nb  Nb18  1  0.750000  0.205635  0.512539  1
  Fe  Fe19  1  0.750000  0.377590  0.798743  1
  Fe  Fe20  1  0.250000  0.463320  0.933331  1
  Fe  Fe21  1  0.250000  0.037026  0.431963  1
  Fe  Fe22  1  0.750000  0.537481  0.068306  1
  Fe  Fe23  1  0.750000  0.962389  0.567736  1
  P  P24  1  0.250000  0.427096  0.112947  1
  P  P25  1  0.250000  0.072293  0.612594  1
  P  P26  1  0.750000  0.568513  0.886871  1
  P  P27  1  0.750000  0.927770  0.387040  1
  P  P28  1  0.250000  0.270621  0.862065  1
  P  P29  1  0.250000  0.234740  0.364087  1
  P  P30  1  0.750000  0.735051  0.135318  1
  P  P31  1  0.750000  0.764433  0.636057  1
  P  P32  1  0.250000  0.586004  0.384432  1
  P  P33  1  0.250000  0.914324  0.883844  1
  P  P34  1  0.750000  0.413263  0.617932  1
  P  P35  1  0.750000  0.086937  0.115581  1
