# generated using pymatgen
data_La10TlSi5
_symmetry_space_group_name_H-M   'P 1'
_cell_length_a   8.05971300
_cell_length_b   9.16019283
_cell_length_c   8.05971300
_cell_angle_alpha   116.09950807
_cell_angle_beta   90.00000000
_cell_angle_gamma   116.09950807
_symmetry_Int_Tables_number   1
_chemical_formula_structural   La10TlSi5
_chemical_formula_sum   'La10 Tl1 Si5'
_cell_volume   465.84977169
_cell_formula_units_Z   1
loop_
 _symmetry_equiv_pos_site_id
 _symmetry_equiv_pos_as_xyz
  1  'x, y, z'
loop_
 _atom_site_type_symbol
 _atom_site_label
 _atom_site_symmetry_multiplicity
 _atom_site_fract_x
 _atom_site_fract_y
 _atom_site_fract_z
 _atom_site_occupancy
  La  La0  1  0.998843  0.997688  0.998843  1
  La  La1  1  0.501157  0.002312  0.501157  1
  La  La2  1  0.529406  0.714232  0.672676  1
  La  La3  1  0.184827  0.714232  0.041558  1
  La  La4  1  0.672676  0.714232  0.184827  1
  La  La5  1  0.041558  0.714232  0.529406  1
  La  La6  1  0.458442  0.285768  0.315173  1
  La  La7  1  0.827324  0.285768  0.970594  1
  La  La8  1  0.315173  0.285768  0.827324  1
  La  La9  1  0.970594  0.285768  0.458442  1
  Tl  Tl10  1  0.750000  0.500000  0.750000  1
  Si  Si11  1  0.887709  0.000000  0.612291  1
  Si  Si12  1  0.112291  0.000000  0.387709  1
  Si  Si13  1  0.612291  0.000000  0.112291  1
  Si  Si14  1  0.387709  0.000000  0.887709  1
  Si  Si15  1  0.250000  0.500000  0.250000  1
