# generated using pymatgen
data_DyYSi4RuPt3
_symmetry_space_group_name_H-M   'P 1'
_cell_length_a   4.14770100
_cell_length_b   4.14774800
_cell_length_c   9.93196300
_cell_angle_alpha   90.00000000
_cell_angle_beta   90.00000000
_cell_angle_gamma   90.00000000
_symmetry_Int_Tables_number   1
_chemical_formula_structural   DyYSi4RuPt3
_chemical_formula_sum   'Dy1 Y1 Si4 Ru1 Pt3'
_cell_volume   170.86570268
_cell_formula_units_Z   1
loop_
 _symmetry_equiv_pos_site_id
 _symmetry_equiv_pos_as_xyz
  1  'x, y, z'
loop_
 _atom_site_type_symbol
 _atom_site_label
 _atom_site_symmetry_multiplicity
 _atom_site_fract_x
 _atom_site_fract_y
 _atom_site_fract_z
 _atom_site_occupancy
  Dy  Dy0  1  0.500000  0.000000  0.745338  1
  Y  Y1  1  0.000000  0.500000  0.254662  1
  Si  Si2  1  0.000000  0.000000  0.500012  1
  Si  Si3  1  0.500000  0.500000  0.500011  1
  Si  Si4  1  0.000000  0.500000  0.869961  1
  Si  Si5  1  0.500000  0.000000  0.130033  1
  Ru  Ru6  1  0.000000  0.000000  0.999955  1
  Pt  Pt7  1  0.500000  0.500000  0.999964  1
  Pt  Pt8  1  0.000000  0.500000  0.627597  1
  Pt  Pt9  1  0.500000  0.000000  0.372468  1
