# generated using pymatgen
data_NdHg4S2Cl5
_symmetry_space_group_name_H-M   'P 1'
_cell_length_a   8.38917653
_cell_length_b   10.79047600
_cell_length_c   9.15910327
_cell_angle_alpha   90.00000000
_cell_angle_beta   113.70456078
_cell_angle_gamma   90.00000000
_symmetry_Int_Tables_number   1
_chemical_formula_structural   NdHg4S2Cl5
_chemical_formula_sum   'Nd2 Hg8 S4 Cl10'
_cell_volume   759.15977424
_cell_formula_units_Z   2
loop_
 _symmetry_equiv_pos_site_id
 _symmetry_equiv_pos_as_xyz
  1  'x, y, z'
loop_
 _atom_site_type_symbol
 _atom_site_label
 _atom_site_symmetry_multiplicity
 _atom_site_fract_x
 _atom_site_fract_y
 _atom_site_fract_z
 _atom_site_occupancy
  Nd  Nd0  1  0.502197  0.431886  0.506982  1
  Nd  Nd1  1  0.497803  0.931886  0.493018  1
  Hg  Hg2  1  0.924640  0.186091  0.329466  1
  Hg  Hg3  1  0.075360  0.686091  0.670534  1
  Hg  Hg4  1  0.946710  0.663241  0.358349  1
  Hg  Hg5  1  0.053290  0.163241  0.641651  1
  Hg  Hg6  1  0.497349  0.181965  0.989222  1
  Hg  Hg7  1  0.502651  0.681965  0.010778  1
  Hg  Hg8  1  0.800088  0.431909  0.020262  1
  Hg  Hg9  1  0.199912  0.931909  0.979738  1
  S  S10  1  0.797984  0.205359  0.030605  1
  S  S11  1  0.202016  0.705359  0.969395  1
  S  S12  1  0.195645  0.156396  0.940367  1
  S  S13  1  0.804355  0.656396  0.059633  1
  Cl  Cl14  1  0.846234  0.926015  0.683032  1
  Cl  Cl15  1  0.153766  0.426015  0.316968  1
  Cl  Cl16  1  0.846708  0.440075  0.714842  1
  Cl  Cl17  1  0.153292  0.940075  0.285158  1
  Cl  Cl18  1  0.411641  0.460145  0.764286  1
  Cl  Cl19  1  0.588359  0.960145  0.235714  1
  Cl  Cl20  1  0.593265  0.390279  0.257971  1
  Cl  Cl21  1  0.406735  0.890279  0.742029  1
  Cl  Cl22  1  0.494382  0.180240  0.560684  1
  Cl  Cl23  1  0.505618  0.680240  0.439316  1
