# generated using pymatgen
data_CsRb2ScIrBr9
_symmetry_space_group_name_H-M   'P 1'
_cell_length_a   7.72621000
_cell_length_b   7.72620988
_cell_length_c   19.27984300
_cell_angle_alpha   90.00000000
_cell_angle_beta   90.00000000
_cell_angle_gamma   120.00000050
_symmetry_Int_Tables_number   1
_chemical_formula_structural   CsRb2ScIrBr9
_chemical_formula_sum   'Cs2 Rb4 Sc2 Ir2 Br18'
_cell_volume   996.70613697
_cell_formula_units_Z   2
loop_
 _symmetry_equiv_pos_site_id
 _symmetry_equiv_pos_as_xyz
  1  'x, y, z'
loop_
 _atom_site_type_symbol
 _atom_site_label
 _atom_site_symmetry_multiplicity
 _atom_site_fract_x
 _atom_site_fract_y
 _atom_site_fract_z
 _atom_site_occupancy
  Cs  Cs0  1  0.333333  0.666667  0.067837  1
  Cs  Cs1  1  0.666667  0.333333  0.932163  1
  Rb  Rb2  1  0.666667  0.333333  0.566565  1
  Rb  Rb3  1  0.333333  0.666667  0.433435  1
  Rb  Rb4  1  0.000000  0.000000  0.254339  1
  Rb  Rb5  1  0.000000  0.000000  0.745661  1
  Sc  Sc6  1  0.666667  0.333333  0.162431  1
  Sc  Sc7  1  0.333333  0.666667  0.837569  1
  Ir  Ir8  1  0.333333  0.666667  0.667729  1
  Ir  Ir9  1  0.666667  0.333333  0.332271  1
  Br  Br10  1  0.180440  0.360879  0.593412  1
  Br  Br11  1  0.819560  0.639121  0.406588  1
  Br  Br12  1  0.639121  0.819560  0.593412  1
  Br  Br13  1  0.830050  0.660100  0.091636  1
  Br  Br14  1  0.360879  0.180440  0.406588  1
  Br  Br15  1  0.169950  0.339900  0.908364  1
  Br  Br16  1  0.180440  0.819560  0.593412  1
  Br  Br17  1  0.339900  0.169950  0.091636  1
  Br  Br18  1  0.819560  0.180440  0.406588  1
  Br  Br19  1  0.660100  0.830050  0.908364  1
  Br  Br20  1  0.830050  0.169950  0.091636  1
  Br  Br21  1  0.169950  0.830050  0.908364  1
  Br  Br22  1  0.510581  0.021163  0.256350  1
  Br  Br23  1  0.489419  0.978837  0.743650  1
  Br  Br24  1  0.978837  0.489419  0.256350  1
  Br  Br25  1  0.021163  0.510581  0.743650  1
  Br  Br26  1  0.510581  0.489419  0.256350  1
  Br  Br27  1  0.489419  0.510581  0.743650  1
