# generated using pymatgen
data_HoTmB6Ir8Rh
_symmetry_space_group_name_H-M   'P 1'
_cell_length_a   5.62535900
_cell_length_b   5.62535874
_cell_length_c   8.64548600
_cell_angle_alpha   90.00000000
_cell_angle_beta   90.00000000
_cell_angle_gamma   119.89586281
_symmetry_Int_Tables_number   1
_chemical_formula_structural   HoTmB6Ir8Rh
_chemical_formula_sum   'Ho1 Tm1 B6 Ir8 Rh1'
_cell_volume   237.17848157
_cell_formula_units_Z   1
loop_
 _symmetry_equiv_pos_site_id
 _symmetry_equiv_pos_as_xyz
  1  'x, y, z'
loop_
 _atom_site_type_symbol
 _atom_site_label
 _atom_site_symmetry_multiplicity
 _atom_site_fract_x
 _atom_site_fract_y
 _atom_site_fract_z
 _atom_site_occupancy
  Ho  Ho0  1  0.000000  0.000000  0.299648  1
  Tm  Tm1  1  0.000000  0.000000  0.701510  1
  B  B2  1  0.666938  0.333062  0.999706  1
  B  B3  1  0.333062  0.666938  0.999706  1
  B  B4  1  0.666729  0.333271  0.667760  1
  B  B5  1  0.333271  0.666729  0.667760  1
  B  B6  1  0.333137  0.666863  0.332069  1
  B  B7  1  0.666863  0.333137  0.332069  1
  Ir  Ir8  1  0.500000  0.500000  0.836104  1
  Ir  Ir9  1  0.500000  0.000000  0.835936  1
  Ir  Ir10  1  0.000000  0.500000  0.835936  1
  Ir  Ir11  1  0.500000  0.000000  0.164190  1
  Ir  Ir12  1  0.000000  0.500000  0.164190  1
  Ir  Ir13  1  0.500000  0.500000  0.499174  1
  Ir  Ir14  1  0.500000  0.000000  0.499926  1
  Ir  Ir15  1  0.000000  0.500000  0.499926  1
  Rh  Rh16  1  0.500000  0.500000  0.164388  1
