# generated using pymatgen
data_Ho2Lu3Co(P2Ru3)6
_symmetry_space_group_name_H-M   'P 1'
_cell_length_a   12.44441292
_cell_length_b   12.44441194
_cell_length_c   3.95656600
_cell_angle_alpha   90.00000000
_cell_angle_beta   90.00000000
_cell_angle_gamma   119.94673456
_symmetry_Int_Tables_number   1
_chemical_formula_structural   Ho2Lu3Co(P2Ru3)6
_chemical_formula_sum   'Ho2 Lu3 Co1 P12 Ru18'
_cell_volume   530.92196203
_cell_formula_units_Z   1
loop_
 _symmetry_equiv_pos_site_id
 _symmetry_equiv_pos_as_xyz
  1  'x, y, z'
loop_
 _atom_site_type_symbol
 _atom_site_label
 _atom_site_symmetry_multiplicity
 _atom_site_fract_x
 _atom_site_fract_y
 _atom_site_fract_z
 _atom_site_occupancy
  Ho  Ho0  1  0.183159  0.000222  0.500000  1
  Ho  Ho1  1  0.000222  0.183159  0.500000  1
  Lu  Lu2  1  0.666937  0.333480  0.000000  1
  Lu  Lu3  1  0.333480  0.666937  0.000000  1
  Lu  Lu4  1  0.816955  0.816955  0.500000  1
  Co  Co5  1  0.999803  0.999803  0.000000  1
  P  P6  1  0.694359  0.170143  0.500000  1
  P  P7  1  0.829639  0.523730  0.500000  1
  P  P8  1  0.476891  0.305990  0.500000  1
  P  P9  1  0.170143  0.694359  0.500000  1
  P  P10  1  0.523730  0.829639  0.500000  1
  P  P11  1  0.305990  0.476891  0.500000  1
  P  P12  1  0.176916  0.176916  0.000000  1
  P  P13  1  0.823448  0.999068  0.000000  1
  P  P14  1  0.999068  0.823448  0.000000  1
  P  P15  1  0.626764  0.626764  0.000000  1
  P  P16  1  0.373223  0.999677  0.000000  1
  P  P17  1  0.999677  0.373223  0.000000  1
  Ru  Ru18  1  0.873045  0.365881  0.500000  1
  Ru  Ru19  1  0.634136  0.507089  0.500000  1
  Ru  Ru20  1  0.493448  0.126740  0.500000  1
  Ru  Ru21  1  0.365881  0.873045  0.500000  1
  Ru  Ru22  1  0.507089  0.634136  0.500000  1
  Ru  Ru23  1  0.126740  0.493448  0.500000  1
  Ru  Ru24  1  0.443634  0.443634  0.000000  1
  Ru  Ru25  1  0.556428  0.999057  0.000000  1
  Ru  Ru26  1  0.999057  0.556428  0.000000  1
  Ru  Ru27  1  0.809160  0.184257  0.000000  1
  Ru  Ru28  1  0.814799  0.625835  0.000000  1
  Ru  Ru29  1  0.375686  0.190670  0.000000  1
  Ru  Ru30  1  0.184257  0.809160  0.000000  1
  Ru  Ru31  1  0.625835  0.814799  0.000000  1
  Ru  Ru32  1  0.190670  0.375686  0.000000  1
  Ru  Ru33  1  0.278913  0.278913  0.500000  1
  Ru  Ru34  1  0.721711  0.999107  0.500000  1
  Ru  Ru35  1  0.999107  0.721711  0.500000  1
