# generated using pymatgen
data_DyY5Co16(TcP6)2
_symmetry_space_group_name_H-M   'P 1'
_cell_length_a   3.71691800
_cell_length_b   10.52996902
_cell_length_c   12.23660402
_cell_angle_alpha   89.99364772
_cell_angle_beta   90.00000000
_cell_angle_gamma   90.00000000
_symmetry_Int_Tables_number   1
_chemical_formula_structural   DyY5Co16(TcP6)2
_chemical_formula_sum   'Dy1 Y5 Co16 Tc2 P12'
_cell_volume   478.92882568
_cell_formula_units_Z   1
loop_
 _symmetry_equiv_pos_site_id
 _symmetry_equiv_pos_as_xyz
  1  'x, y, z'
loop_
 _atom_site_type_symbol
 _atom_site_label
 _atom_site_symmetry_multiplicity
 _atom_site_fract_x
 _atom_site_fract_y
 _atom_site_fract_z
 _atom_site_occupancy
  Dy  Dy0  1  0.500000  0.817727  0.206139  1
  Y  Y1  1  0.000000  0.499980  0.523534  1
  Y  Y2  1  0.500000  0.000018  0.476454  1
  Y  Y3  1  0.500000  0.182310  0.206130  1
  Y  Y4  1  0.000000  0.682299  0.793887  1
  Y  Y5  1  0.000000  0.317695  0.793856  1
  Co  Co6  1  0.500000  0.499999  0.702663  1
  Co  Co7  1  0.000000  0.999807  0.297253  1
  Co  Co8  1  0.000000  0.500006  0.987326  1
  Co  Co9  1  0.500000  0.999959  0.012738  1
  Co  Co10  1  0.500000  0.332203  0.990062  1
  Co  Co11  1  0.500000  0.667821  0.990117  1
  Co  Co12  1  0.000000  0.167771  0.009953  1
  Co  Co13  1  0.000000  0.832222  0.010001  1
  Co  Co14  1  0.500000  0.296560  0.430992  1
  Co  Co15  1  0.500000  0.703496  0.430923  1
  Co  Co16  1  0.000000  0.203438  0.568995  1
  Co  Co17  1  0.000000  0.796568  0.568999  1
  Co  Co18  1  0.500000  0.879229  0.707936  1
  Co  Co19  1  0.500000  0.120787  0.707914  1
  Co  Co20  1  0.000000  0.620878  0.291999  1
  Co  Co21  1  0.000000  0.379215  0.292072  1
  Tc  Tc22  1  0.500000  0.500040  0.156246  1
  Tc  Tc23  1  0.000000  0.000000  0.843812  1
  P  P24  1  0.500000  0.500010  0.881272  1
  P  P25  1  0.000000  0.999826  0.118756  1
  P  P26  1  0.500000  0.500029  0.348192  1
  P  P27  1  0.000000  0.999987  0.651814  1
  P  P28  1  0.500000  0.311431  0.615906  1
  P  P29  1  0.500000  0.688561  0.615894  1
  P  P30  1  0.000000  0.188574  0.384111  1
  P  P31  1  0.000000  0.811371  0.383975  1
  P  P32  1  0.500000  0.846224  0.892870  1
  P  P33  1  0.500000  0.153774  0.892850  1
  P  P34  1  0.000000  0.653930  0.107221  1
  P  P35  1  0.000000  0.346254  0.107140  1
