# generated using pymatgen
data_Sr5AcSn10
_symmetry_space_group_name_H-M   'P 1'
_cell_length_a   6.87420012
_cell_length_b   6.87419944
_cell_length_c   10.97197023
_cell_angle_alpha   90.06421880
_cell_angle_beta   90.06422087
_cell_angle_gamma   101.07724764
_symmetry_Int_Tables_number   1
_chemical_formula_structural   Sr5AcSn10
_chemical_formula_sum   'Sr5 Ac1 Sn10'
_cell_volume   508.81580878
_cell_formula_units_Z   1
loop_
 _symmetry_equiv_pos_site_id
 _symmetry_equiv_pos_as_xyz
  1  'x, y, z'
loop_
 _atom_site_type_symbol
 _atom_site_label
 _atom_site_symmetry_multiplicity
 _atom_site_fract_x
 _atom_site_fract_y
 _atom_site_fract_z
 _atom_site_occupancy
  Sr  Sr0  1  0.796148  0.203852  0.000000  1
  Sr  Sr1  1  0.203354  0.796646  0.000000  1
  Sr  Sr2  1  0.204735  0.795265  0.500000  1
  Sr  Sr3  1  0.636111  0.635876  0.249756  1
  Sr  Sr4  1  0.364124  0.363889  0.750244  1
  Ac  Ac5  1  0.795433  0.204567  0.500000  1
  Sn  Sn6  1  0.081470  0.487643  0.250728  1
  Sn  Sn7  1  0.918340  0.512415  0.750420  1
  Sn  Sn8  1  0.487585  0.081660  0.249580  1
  Sn  Sn9  1  0.512357  0.918531  0.749272  1
  Sn  Sn10  1  0.033277  0.032566  0.250087  1
  Sn  Sn11  1  0.967434  0.966723  0.749913  1
  Sn  Sn12  1  0.310822  0.309802  0.052365  1
  Sn  Sn13  1  0.690198  0.689178  0.947635  1
  Sn  Sn14  1  0.690921  0.692309  0.551741  1
  Sn  Sn15  1  0.307691  0.309079  0.448259  1
