# generated using pymatgen
data_Tm5In4GaRh
_symmetry_space_group_name_H-M   'P 1'
_cell_length_a   3.57222900
_cell_length_b   8.11609121
_cell_length_c   18.12257001
_cell_angle_alpha   88.92886571
_cell_angle_beta   90.00000000
_cell_angle_gamma   90.00000000
_symmetry_Int_Tables_number   1
_chemical_formula_structural   Tm5In4GaRh
_chemical_formula_sum   'Tm10 In8 Ga2 Rh2'
_cell_volume   525.32745692
_cell_formula_units_Z   2
loop_
 _symmetry_equiv_pos_site_id
 _symmetry_equiv_pos_as_xyz
  1  'x, y, z'
loop_
 _atom_site_type_symbol
 _atom_site_label
 _atom_site_symmetry_multiplicity
 _atom_site_fract_x
 _atom_site_fract_y
 _atom_site_fract_z
 _atom_site_occupancy
  Tm  Tm0  1  0.000000  0.000000  0.000000  1
  Tm  Tm1  1  0.000000  0.500000  0.500000  1
  Tm  Tm2  1  0.000000  0.737607  0.783215  1
  Tm  Tm3  1  0.000000  0.262393  0.216785  1
  Tm  Tm4  1  0.000000  0.277850  0.723359  1
  Tm  Tm5  1  0.000000  0.722150  0.276641  1
  Tm  Tm6  1  0.000000  0.875683  0.578893  1
  Tm  Tm7  1  0.000000  0.124317  0.421107  1
  Tm  Tm8  1  0.000000  0.380859  0.915715  1
  Tm  Tm9  1  0.000000  0.619141  0.084285  1
  In  In10  1  0.500000  0.793446  0.429717  1
  In  In11  1  0.500000  0.206554  0.570283  1
  In  In12  1  0.500000  0.296182  0.066264  1
  In  In13  1  0.500000  0.703818  0.933736  1
  In  In14  1  0.500000  0.922259  0.148812  1
  In  In15  1  0.500000  0.077741  0.851188  1
  In  In16  1  0.500000  0.426787  0.352233  1
  In  In17  1  0.500000  0.573213  0.647767  1
  Ga  Ga18  1  0.500000  0.974529  0.697380  1
  Ga  Ga19  1  0.500000  0.025471  0.302620  1
  Rh  Rh20  1  0.500000  0.472270  0.805078  1
  Rh  Rh21  1  0.500000  0.527730  0.194922  1
