# generated using pymatgen
data_DyHoEr6(OsBr4)2
_symmetry_space_group_name_H-M   'P 1'
_cell_length_a   8.94996708
_cell_length_b   8.91787130
_cell_length_c   6.51548028
_cell_angle_alpha   89.59487267
_cell_angle_beta   89.33821552
_cell_angle_gamma   89.27442313
_symmetry_Int_Tables_number   1
_chemical_formula_structural   DyHoEr6(OsBr4)2
_chemical_formula_sum   'Dy1 Ho1 Er6 Os2 Br8'
_cell_volume   519.94195472
_cell_formula_units_Z   1
loop_
 _symmetry_equiv_pos_site_id
 _symmetry_equiv_pos_as_xyz
  1  'x, y, z'
loop_
 _atom_site_type_symbol
 _atom_site_label
 _atom_site_symmetry_multiplicity
 _atom_site_fract_x
 _atom_site_fract_y
 _atom_site_fract_z
 _atom_site_occupancy
  Dy  Dy0  1  0.749606  0.099501  0.991295  1
  Ho  Ho1  1  0.249373  0.900863  0.009004  1
  Er  Er2  1  0.098285  0.752218  0.488975  1
  Er  Er3  1  0.901920  0.247719  0.511032  1
  Er  Er4  1  0.754056  0.902946  0.508901  1
  Er  Er5  1  0.246081  0.096942  0.491152  1
  Er  Er6  1  0.096243  0.247008  0.991691  1
  Er  Er7  1  0.904171  0.752844  0.008343  1
  Os  Os8  1  0.995457  0.004801  0.250039  1
  Os  Os9  1  0.004903  0.995017  0.750109  1
  Br  Br10  1  0.418421  0.817363  0.411252  1
  Br  Br11  1  0.581592  0.182672  0.588258  1
  Br  Br12  1  0.182090  0.580266  0.091695  1
  Br  Br13  1  0.818094  0.419979  0.908292  1
  Br  Br14  1  0.411810  0.191776  0.092233  1
  Br  Br15  1  0.587885  0.808075  0.907705  1
  Br  Br16  1  0.811195  0.586080  0.406860  1
  Br  Br17  1  0.188819  0.413931  0.593164  1
