# generated using pymatgen
data_YbEr(Be12Cu)2
_symmetry_space_group_name_H-M   'P 1'
_cell_length_a   7.27117239
_cell_length_b   7.32877482
_cell_length_c   7.24638417
_cell_angle_alpha   59.84793420
_cell_angle_beta   59.85470210
_cell_angle_gamma   59.51335097
_symmetry_Int_Tables_number   1
_chemical_formula_structural   YbEr(Be12Cu)2
_chemical_formula_sum   'Yb1 Er1 Be24 Cu2'
_cell_volume   271.42315514
_cell_formula_units_Z   1
loop_
 _symmetry_equiv_pos_site_id
 _symmetry_equiv_pos_as_xyz
  1  'x, y, z'
loop_
 _atom_site_type_symbol
 _atom_site_label
 _atom_site_symmetry_multiplicity
 _atom_site_fract_x
 _atom_site_fract_y
 _atom_site_fract_z
 _atom_site_occupancy
  Yb  Yb0  1  0.249335  0.250665  0.249335  1
  Er  Er1  1  0.746722  0.753278  0.746722  1
  Be  Be2  1  0.500117  0.499883  0.500117  1
  Be  Be3  1  0.000052  0.999948  0.000052  1
  Be  Be4  1  0.567237  0.790544  0.435466  1
  Be  Be5  1  0.435466  0.206753  0.567237  1
  Be  Be6  1  0.291066  0.933753  0.711677  1
  Be  Be7  1  0.711677  0.063504  0.291066  1
  Be  Be8  1  0.928699  0.278618  0.069000  1
  Be  Be9  1  0.069000  0.723684  0.928699  1
  Be  Be10  1  0.208214  0.797549  0.559847  1
  Be  Be11  1  0.790100  0.199990  0.441786  1
  Be  Be12  1  0.441786  0.568123  0.790100  1
  Be  Be13  1  0.559847  0.434391  0.208214  1
  Be  Be14  1  0.713068  0.285954  0.934166  1
  Be  Be15  1  0.289184  0.716774  0.063231  1
  Be  Be16  1  0.063231  0.930810  0.289184  1
  Be  Be17  1  0.934166  0.066813  0.713068  1
  Be  Be18  1  0.568408  0.206792  0.789013  1
  Be  Be19  1  0.433649  0.790429  0.209236  1
  Be  Be20  1  0.789013  0.435787  0.568408  1
  Be  Be21  1  0.209236  0.566686  0.433649  1
  Be  Be22  1  0.934142  0.714646  0.291471  1
  Be  Be23  1  0.062965  0.287848  0.711543  1
  Be  Be24  1  0.291471  0.059741  0.934142  1
  Be  Be25  1  0.711543  0.937643  0.062965  1
  Cu  Cu26  1  0.804473  0.557606  0.196134  1
  Cu  Cu27  1  0.196134  0.441786  0.804473  1
