# generated using pymatgen
data_Pr17Ho3Si15Ag
_symmetry_space_group_name_H-M   'P 1'
_cell_length_a   7.92451676
_cell_length_b   7.90539364
_cell_length_c   15.27216100
_cell_angle_alpha   90.16903793
_cell_angle_beta   89.66834200
_cell_angle_gamma   89.79877112
_symmetry_Int_Tables_number   1
_chemical_formula_structural   Pr17Ho3Si15Ag
_chemical_formula_sum   'Pr17 Ho3 Si15 Ag1'
_cell_volume   956.72012867
_cell_formula_units_Z   1
loop_
 _symmetry_equiv_pos_site_id
 _symmetry_equiv_pos_as_xyz
  1  'x, y, z'
loop_
 _atom_site_type_symbol
 _atom_site_label
 _atom_site_symmetry_multiplicity
 _atom_site_fract_x
 _atom_site_fract_y
 _atom_site_fract_z
 _atom_site_occupancy
  Pr  Pr0  1  0.693971  0.691555  0.498219  1
  Pr  Pr1  1  0.374173  0.014489  0.448064  1
  Pr  Pr2  1  0.491776  0.872633  0.698376  1
  Pr  Pr3  1  0.510087  0.122463  0.196294  1
  Pr  Pr4  1  0.879195  0.487911  0.300832  1
  Pr  Pr5  1  0.119328  0.514062  0.804784  1
  Pr  Pr6  1  0.624811  0.986597  0.949433  1
  Pr  Pr7  1  0.002973  0.381565  0.548373  1
  Pr  Pr8  1  0.988472  0.623291  0.053883  1
  Pr  Pr9  1  0.133268  0.981664  0.878680  1
  Pr  Pr10  1  0.520544  0.628040  0.127355  1
  Pr  Pr11  1  0.479428  0.376123  0.629024  1
  Pr  Pr12  1  0.627372  0.521814  0.875618  1
  Pr  Pr13  1  0.374897  0.480143  0.370061  1
  Pr  Pr14  1  0.872118  0.022949  0.376017  1
  Pr  Pr15  1  0.979847  0.126578  0.123108  1
  Pr  Pr16  1  0.015460  0.865699  0.621510  1
  Ho  Ho17  1  0.310140  0.309090  0.999660  1
  Ho  Ho18  1  0.190022  0.811516  0.249705  1
  Ho  Ho19  1  0.801352  0.186968  0.752651  1
  Si  Si20  1  0.328053  0.689031  0.956537  1
  Si  Si21  1  0.664290  0.305586  0.454204  1
  Si  Si22  1  0.692399  0.329216  0.045697  1
  Si  Si23  1  0.307991  0.671368  0.542809  1
  Si  Si24  1  0.810205  0.829830  0.204930  1
  Si  Si25  1  0.170925  0.190858  0.295103  1
  Si  Si26  1  0.832694  0.809964  0.796702  1
  Si  Si27  1  0.285713  0.921996  0.063686  1
  Si  Si28  1  0.575192  0.789103  0.309170  1
  Si  Si29  1  0.434148  0.210924  0.817659  1
  Si  Si30  1  0.788855  0.574318  0.691861  1
  Si  Si31  1  0.213729  0.421805  0.186677  1
  Si  Si32  1  0.711047  0.082705  0.563295  1
  Si  Si33  1  0.923530  0.286329  0.938113  1
  Si  Si34  1  0.082394  0.715254  0.434687  1
  Ag  Ag35  1  0.189602  0.166567  0.697233  1
