# generated using pymatgen
data_Tm6Al24Ir5Ru3
_symmetry_space_group_name_H-M   'P 1'
_cell_length_a   8.77801391
_cell_length_b   8.78477634
_cell_length_c   9.50215711
_cell_angle_alpha   90.00000097
_cell_angle_beta   89.87794529
_cell_angle_gamma   120.02549553
_symmetry_Int_Tables_number   1
_chemical_formula_structural   Tm6Al24Ir5Ru3
_chemical_formula_sum   'Tm6 Al24 Ir5 Ru3'
_cell_volume   634.40539200
_cell_formula_units_Z   1
loop_
 _symmetry_equiv_pos_site_id
 _symmetry_equiv_pos_as_xyz
  1  'x, y, z'
loop_
 _atom_site_type_symbol
 _atom_site_label
 _atom_site_symmetry_multiplicity
 _atom_site_fract_x
 _atom_site_fract_y
 _atom_site_fract_z
 _atom_site_occupancy
  Tm  Tm0  1  0.806049  0.195174  0.751279  1
  Tm  Tm1  1  0.193951  0.804826  0.248721  1
  Tm  Tm2  1  0.387971  0.193986  0.751227  1
  Tm  Tm3  1  0.612029  0.806014  0.248773  1
  Tm  Tm4  1  0.806049  0.610875  0.751279  1
  Tm  Tm5  1  0.193951  0.389125  0.248721  1
  Al  Al6  1  0.666698  0.333349  0.971375  1
  Al  Al7  1  0.333302  0.666651  0.028625  1
  Al  Al8  1  0.331703  0.665852  0.472731  1
  Al  Al9  1  0.668297  0.334148  0.527269  1
  Al  Al10  1  0.839232  0.164450  0.420881  1
  Al  Al11  1  0.160768  0.835550  0.579119  1
  Al  Al12  1  0.325899  0.162949  0.422005  1
  Al  Al13  1  0.163584  0.837167  0.921989  1
  Al  Al14  1  0.674101  0.837051  0.577995  1
  Al  Al15  1  0.836416  0.162833  0.078011  1
  Al  Al16  1  0.839232  0.674782  0.420881  1
  Al  Al17  1  0.674135  0.837068  0.921200  1
  Al  Al18  1  0.160768  0.325218  0.579119  1
  Al  Al19  1  0.325865  0.162932  0.078800  1
  Al  Al20  1  0.163584  0.326416  0.921989  1
  Al  Al21  1  0.836416  0.673584  0.078011  1
  Al  Al22  1  0.437465  0.562484  0.750961  1
  Al  Al23  1  0.562535  0.437516  0.249039  1
  Al  Al24  1  0.124053  0.562027  0.749626  1
  Al  Al25  1  0.875947  0.437973  0.250374  1
  Al  Al26  1  0.437465  0.874982  0.750961  1
  Al  Al27  1  0.562535  0.125018  0.249039  1
  Al  Al28  1  0.000530  0.000265  0.750176  1
  Al  Al29  1  0.999470  0.999735  0.249824  1
  Ir  Ir30  1  0.500000  0.500000  0.000000  1
  Ir  Ir31  1  0.000000  0.500000  0.000000  1
  Ir  Ir32  1  0.500000  0.500000  0.500000  1
  Ir  Ir33  1  0.500000  0.000000  0.000000  1
  Ir  Ir34  1  0.500000  0.000000  0.500000  1
  Ru  Ru35  1  0.000000  0.500000  0.500000  1
  Ru  Ru36  1  0.000000  0.000000  0.000000  1
  Ru  Ru37  1  0.000000  0.000000  0.500000  1
