# generated using pymatgen
data_Ca9AcTaNbN10
_symmetry_space_group_name_H-M   'P 1'
_cell_length_a   7.01521652
_cell_length_b   7.02087218
_cell_length_c   8.98445989
_cell_angle_alpha   81.06228159
_cell_angle_beta   80.52590038
_cell_angle_gamma   59.96571770
_symmetry_Int_Tables_number   1
_chemical_formula_structural   Ca9AcTaNbN10
_chemical_formula_sum   'Ca9 Ac1 Ta1 Nb1 N10'
_cell_volume   376.48565992
_cell_formula_units_Z   1
loop_
 _symmetry_equiv_pos_site_id
 _symmetry_equiv_pos_as_xyz
  1  'x, y, z'
loop_
 _atom_site_type_symbol
 _atom_site_label
 _atom_site_symmetry_multiplicity
 _atom_site_fract_x
 _atom_site_fract_y
 _atom_site_fract_z
 _atom_site_occupancy
  Ca  Ca0  1  0.872181  0.872997  0.825304  1
  Ca  Ca1  1  0.740064  0.745129  0.518554  1
  Ca  Ca2  1  0.753862  0.249369  0.500560  1
  Ca  Ca3  1  0.624519  0.127351  0.157453  1
  Ca  Ca4  1  0.360677  0.875500  0.836342  1
  Ca  Ca5  1  0.250300  0.754529  0.507750  1
  Ca  Ca6  1  0.243963  0.241562  0.489706  1
  Ca  Ca7  1  0.150009  0.129408  0.170125  1
  Ca  Ca8  1  0.140386  0.621473  0.153819  1
  Ac  Ac9  1  0.875588  0.353685  0.845344  1
  Ta  Ta10  1  0.630166  0.632061  0.223557  1
  Nb  Nb11  1  0.372086  0.369274  0.770544  1
  N  N12  1  0.914235  0.465966  0.318678  1
  N  N13  1  0.997562  0.993759  0.021357  1
  N  N14  1  0.668132  0.701341  0.005102  1
  N  N15  1  0.533923  0.539446  0.691286  1
  N  N16  1  0.466405  0.911200  0.327459  1
  N  N17  1  0.539002  0.087263  0.673407  1
  N  N18  1  0.468050  0.465457  0.296432  1
  N  N19  1  0.317132  0.317079  0.990120  1
  N  N20  1  0.054963  0.069686  0.648553  1
  N  N21  1  0.089081  0.538750  0.674350  1
