# generated using pymatgen
data_HfTa3(MnRu3)2
_symmetry_space_group_name_H-M   'P 1'
_cell_length_a   4.43185000
_cell_length_b   6.30354900
_cell_length_c   13.32986401
_cell_angle_alpha   90.00000000
_cell_angle_beta   89.99564016
_cell_angle_gamma   90.00000000
_symmetry_Int_Tables_number   1
_chemical_formula_structural   HfTa3(MnRu3)2
_chemical_formula_sum   'Hf2 Ta6 Mn4 Ru12'
_cell_volume   372.38819398
_cell_formula_units_Z   2
loop_
 _symmetry_equiv_pos_site_id
 _symmetry_equiv_pos_as_xyz
  1  'x, y, z'
loop_
 _atom_site_type_symbol
 _atom_site_label
 _atom_site_symmetry_multiplicity
 _atom_site_fract_x
 _atom_site_fract_y
 _atom_site_fract_z
 _atom_site_occupancy
  Hf  Hf0  1  0.999814  0.000000  0.998258  1
  Hf  Hf1  1  0.499845  0.500000  0.168500  1
  Ta  Ta2  1  0.999864  0.500000  0.990284  1
  Ta  Ta3  1  0.499853  0.000000  0.176400  1
  Ta  Ta4  1  0.999904  0.500000  0.343908  1
  Ta  Ta5  1  0.500324  0.000000  0.501657  1
  Ta  Ta6  1  0.000081  0.500000  0.664939  1
  Ta  Ta7  1  0.499881  0.000000  0.822796  1
  Mn  Mn8  1  0.000015  0.000000  0.336105  1
  Mn  Mn9  1  0.500152  0.500000  0.501566  1
  Mn  Mn10  1  0.000452  0.000000  0.665189  1
  Mn  Mn11  1  0.499949  0.500000  0.830340  1
  Ru  Ru12  1  0.499831  0.250435  0.999087  1
  Ru  Ru13  1  0.499831  0.749565  0.999087  1
  Ru  Ru14  1  0.999857  0.249699  0.167594  1
  Ru  Ru15  1  0.999857  0.750302  0.167594  1
  Ru  Ru16  1  0.500000  0.251249  0.335221  1
  Ru  Ru17  1  0.500000  0.748751  0.335221  1
  Ru  Ru18  1  0.000237  0.249392  0.501272  1
  Ru  Ru19  1  0.000237  0.750608  0.501272  1
  Ru  Ru20  1  0.500101  0.250546  0.665369  1
  Ru  Ru21  1  0.500101  0.749454  0.665369  1
  Ru  Ru22  1  0.999907  0.248782  0.831488  1
  Ru  Ru23  1  0.999907  0.751219  0.831488  1
