# generated using pymatgen
data_Ho16Cd4Co3Ni
_symmetry_space_group_name_H-M   'P 1'
_cell_length_a   9.46227361
_cell_length_b   9.44609542
_cell_length_c   9.44609600
_cell_angle_alpha   60.00000497
_cell_angle_beta   60.05654719
_cell_angle_gamma   60.05654613
_symmetry_Int_Tables_number   1
_chemical_formula_structural   Ho16Cd4Co3Ni
_chemical_formula_sum   'Ho16 Cd4 Co3 Ni1'
_cell_volume   597.52470764
_cell_formula_units_Z   1
loop_
 _symmetry_equiv_pos_site_id
 _symmetry_equiv_pos_as_xyz
  1  'x, y, z'
loop_
 _atom_site_type_symbol
 _atom_site_label
 _atom_site_symmetry_multiplicity
 _atom_site_fract_x
 _atom_site_fract_y
 _atom_site_fract_z
 _atom_site_occupancy
  Ho  Ho0  1  0.936920  0.937592  0.562744  1
  Ho  Ho1  1  0.815079  0.187964  0.187964  1
  Ho  Ho2  1  0.936920  0.562744  0.562744  1
  Ho  Ho3  1  0.936920  0.562744  0.937592  1
  Ho  Ho4  1  0.815079  0.808993  0.187964  1
  Ho  Ho5  1  0.344845  0.347911  0.347911  1
  Ho  Ho6  1  0.561894  0.936977  0.936977  1
  Ho  Ho7  1  0.561894  0.936977  0.564153  1
  Ho  Ho8  1  0.187423  0.812508  0.812508  1
  Ho  Ho9  1  0.187423  0.187561  0.812508  1
  Ho  Ho10  1  0.344845  0.347911  0.959335  1
  Ho  Ho11  1  0.344845  0.959335  0.347911  1
  Ho  Ho12  1  0.815079  0.187964  0.808993  1
  Ho  Ho13  1  0.561894  0.564153  0.936977  1
  Ho  Ho14  1  0.187423  0.812508  0.187561  1
  Ho  Ho15  1  0.961323  0.346226  0.346226  1
  Cd  Cd16  1  0.580613  0.580525  0.258338  1
  Cd  Cd17  1  0.257746  0.580752  0.580752  1
  Cd  Cd18  1  0.580613  0.580525  0.580525  1
  Cd  Cd19  1  0.580613  0.258338  0.580525  1
  Co  Co20  1  0.141211  0.141144  0.141144  1
  Co  Co21  1  0.141211  0.576503  0.141144  1
  Co  Co22  1  0.141211  0.141144  0.576503  1
  Ni  Ni23  1  0.576981  0.141007  0.141007  1
