# generated using pymatgen
data_Ho4TmSn4
_symmetry_space_group_name_H-M   'P 1'
_cell_length_a   8.01961700
_cell_length_b   8.11901600
_cell_length_c   15.40235500
_cell_angle_alpha   90.00000000
_cell_angle_beta   90.00000000
_cell_angle_gamma   90.00000000
_symmetry_Int_Tables_number   1
_chemical_formula_structural   Ho4TmSn4
_chemical_formula_sum   'Ho16 Tm4 Sn16'
_cell_volume   1002.86887789
_cell_formula_units_Z   4
loop_
 _symmetry_equiv_pos_site_id
 _symmetry_equiv_pos_as_xyz
  1  'x, y, z'
loop_
 _atom_site_type_symbol
 _atom_site_label
 _atom_site_symmetry_multiplicity
 _atom_site_fract_x
 _atom_site_fract_y
 _atom_site_fract_z
 _atom_site_occupancy
  Ho  Ho0  1  0.970457  0.821330  0.901040  1
  Ho  Ho1  1  0.470457  0.678670  0.598960  1
  Ho  Ho2  1  0.529543  0.321330  0.098960  1
  Ho  Ho3  1  0.029543  0.178670  0.401040  1
  Ho  Ho4  1  0.970457  0.821330  0.598960  1
  Ho  Ho5  1  0.470457  0.678670  0.901040  1
  Ho  Ho6  1  0.529543  0.321330  0.401040  1
  Ho  Ho7  1  0.029543  0.178670  0.098960  1
  Ho  Ho8  1  0.876886  0.661662  0.378943  1
  Ho  Ho9  1  0.376886  0.838338  0.121057  1
  Ho  Ho10  1  0.623114  0.161662  0.621057  1
  Ho  Ho11  1  0.123114  0.338338  0.878943  1
  Ho  Ho12  1  0.123114  0.338338  0.621057  1
  Ho  Ho13  1  0.623114  0.161662  0.878943  1
  Ho  Ho14  1  0.376886  0.838338  0.378943  1
  Ho  Ho15  1  0.876886  0.661662  0.121057  1
  Tm  Tm16  1  0.291717  0.004196  0.750000  1
  Tm  Tm17  1  0.791717  0.495804  0.750000  1
  Tm  Tm18  1  0.208283  0.504196  0.250000  1
  Tm  Tm19  1  0.708283  0.995804  0.250000  1
  Sn  Sn20  1  0.784477  0.466439  0.542816  1
  Sn  Sn21  1  0.284477  0.033561  0.957184  1
  Sn  Sn22  1  0.715523  0.966439  0.457184  1
  Sn  Sn23  1  0.215523  0.533561  0.042816  1
  Sn  Sn24  1  0.215523  0.533561  0.457184  1
  Sn  Sn25  1  0.715523  0.966439  0.042816  1
  Sn  Sn26  1  0.284477  0.033561  0.542816  1
  Sn  Sn27  1  0.784477  0.466439  0.957184  1
  Sn  Sn28  1  0.160674  0.647820  0.750000  1
  Sn  Sn29  1  0.660674  0.852180  0.750000  1
  Sn  Sn30  1  0.339326  0.147820  0.250000  1
  Sn  Sn31  1  0.839326  0.352180  0.250000  1
  Sn  Sn32  1  0.925299  0.121044  0.750000  1
  Sn  Sn33  1  0.425299  0.378956  0.750000  1
  Sn  Sn34  1  0.574701  0.621044  0.250000  1
  Sn  Sn35  1  0.074701  0.878956  0.250000  1
