# generated using pymatgen
data_CoIrBr6
_symmetry_space_group_name_H-M   'P 1'
_cell_length_a   6.33196192
_cell_length_b   6.33196118
_cell_length_c   6.87140375
_cell_angle_alpha   81.49464338
_cell_angle_beta   81.49464739
_cell_angle_gamma   119.98891629
_symmetry_Int_Tables_number   1
_chemical_formula_structural   CoIrBr6
_chemical_formula_sum   'Co1 Ir1 Br6'
_cell_volume   227.94212153
_cell_formula_units_Z   1
loop_
 _symmetry_equiv_pos_site_id
 _symmetry_equiv_pos_as_xyz
  1  'x, y, z'
loop_
 _atom_site_type_symbol
 _atom_site_label
 _atom_site_symmetry_multiplicity
 _atom_site_fract_x
 _atom_site_fract_y
 _atom_site_fract_z
 _atom_site_occupancy
  Co  Co0  1  0.166664  0.833336  0.000000  1
  Ir  Ir1  1  0.833309  0.166691  0.000000  1
  Br  Br2  1  0.927609  0.577025  0.790522  1
  Br  Br3  1  0.422975  0.072391  0.209478  1
  Br  Br4  1  0.792837  0.783067  0.209730  1
  Br  Br5  1  0.216933  0.207163  0.790270  1
  Br  Br6  1  0.557467  0.917795  0.790374  1
  Br  Br7  1  0.082205  0.442533  0.209626  1
