# generated using pymatgen
data_ZrAl4(GaCu3)2
_symmetry_space_group_name_H-M   'P 1'
_cell_length_a   6.53452034
_cell_length_b   6.53451923
_cell_length_c   6.53453363
_cell_angle_alpha   133.90694431
_cell_angle_beta   99.67935901
_cell_angle_gamma   97.95380785
_symmetry_Int_Tables_number   1
_chemical_formula_structural   ZrAl4(GaCu3)2
_chemical_formula_sum   'Zr1 Al4 Ga2 Cu6'
_cell_volume   184.95484530
_cell_formula_units_Z   1
loop_
 _symmetry_equiv_pos_site_id
 _symmetry_equiv_pos_as_xyz
  1  'x, y, z'
loop_
 _atom_site_type_symbol
 _atom_site_label
 _atom_site_symmetry_multiplicity
 _atom_site_fract_x
 _atom_site_fract_y
 _atom_site_fract_z
 _atom_site_occupancy
  Zr  Zr0  1  0.000000  0.000000  0.000000  1
  Al  Al1  1  0.657703  0.657703  0.000000  1
  Al  Al2  1  0.342297  0.342297  0.000000  1
  Al  Al3  1  0.183175  0.683175  0.500000  1
  Al  Al4  1  0.816825  0.316825  0.500000  1
  Ga  Ga5  1  0.345899  0.000001  0.345900  1
  Ga  Ga6  1  0.654101  0.999999  0.654100  1
  Cu  Cu7  1  0.762233  0.500008  0.262241  1
  Cu  Cu8  1  0.237767  0.499992  0.737759  1
  Cu  Cu9  1  0.000000  0.000000  0.500000  1
  Cu  Cu10  1  0.000000  0.500000  0.000000  1
  Cu  Cu11  1  0.500000  0.000000  0.000000  1
  Cu  Cu12  1  0.500000  0.500000  0.500000  1
