# generated using pymatgen
data_Dy5Zr2P12Ir5Rh12
_symmetry_space_group_name_H-M   'P 1'
_cell_length_a   12.72316000
_cell_length_b   12.91657291
_cell_length_c   3.93929600
_cell_angle_alpha   90.00000000
_cell_angle_beta   90.00000000
_cell_angle_gamma   119.56977033
_symmetry_Int_Tables_number   1
_chemical_formula_structural   Dy5Zr2P12Ir5Rh12
_chemical_formula_sum   'Dy5 Zr2 P12 Ir5 Rh12'
_cell_volume   563.06436809
_cell_formula_units_Z   1
loop_
 _symmetry_equiv_pos_site_id
 _symmetry_equiv_pos_as_xyz
  1  'x, y, z'
loop_
 _atom_site_type_symbol
 _atom_site_label
 _atom_site_symmetry_multiplicity
 _atom_site_fract_x
 _atom_site_fract_y
 _atom_site_fract_z
 _atom_site_occupancy
  Dy  Dy0  1  0.330090  0.661304  0.500000  1
  Dy  Dy1  1  0.668791  0.338768  0.500000  1
  Dy  Dy2  1  0.000168  0.812823  0.000000  1
  Dy  Dy3  1  0.186019  0.185924  0.000000  1
  Dy  Dy4  1  0.809629  0.000624  0.000000  1
  Zr  Zr5  1  0.998960  0.445768  0.500000  1
  Zr  Zr6  1  0.553120  0.555105  0.500000  1
  P  P7  1  0.005002  0.649190  0.500000  1
  P  P8  1  0.355689  0.350619  0.500000  1
  P  P9  1  0.638538  0.999932  0.500000  1
  P  P10  1  0.515041  0.686100  0.000000  1
  P  P11  1  0.313195  0.828906  0.000000  1
  P  P12  1  0.165745  0.481053  0.000000  1
  P  P13  1  0.483889  0.171172  0.000000  1
  P  P14  1  0.684872  0.519468  0.000000  1
  P  P15  1  0.828663  0.313883  0.000000  1
  P  P16  1  0.998177  0.173677  0.500000  1
  P  P17  1  0.825502  0.826061  0.500000  1
  P  P18  1  0.182510  0.998765  0.500000  1
  Ir  Ir19  1  0.997443  0.274932  0.000000  1
  Ir  Ir20  1  0.722957  0.726161  0.000000  1
  Ir  Ir21  1  0.286278  0.999929  0.000000  1
  Ir  Ir22  1  0.815757  0.191877  0.500000  1
  Ir  Ir23  1  0.004913  0.000571  0.500000  1
  Rh  Rh24  1  0.507312  0.865457  0.000000  1
  Rh  Rh25  1  0.127471  0.645623  0.000000  1
  Rh  Rh26  1  0.354402  0.489462  0.000000  1
  Rh  Rh27  1  0.481036  0.354019  0.000000  1
  Rh  Rh28  1  0.864632  0.510052  0.000000  1
  Rh  Rh29  1  0.641095  0.134271  0.000000  1
  Rh  Rh30  1  0.458780  0.001384  0.500000  1
  Rh  Rh31  1  0.624463  0.808334  0.500000  1
  Rh  Rh32  1  0.203975  0.823958  0.500000  1
  Rh  Rh33  1  0.177784  0.368649  0.500000  1
  Rh  Rh34  1  0.379737  0.175337  0.500000  1
  Rh  Rh35  1  0.808369  0.630843  0.500000  1
