# generated using pymatgen
data_Cs4Si12As5P7
_symmetry_space_group_name_H-M   'P 1'
_cell_length_a   3.66308300
_cell_length_b   9.95557408
_cell_length_c   21.12047268
_cell_angle_alpha   90.29167721
_cell_angle_beta   90.00000000
_cell_angle_gamma   90.00000000
_symmetry_Int_Tables_number   1
_chemical_formula_structural   Cs4Si12As5P7
_chemical_formula_sum   'Cs4 Si12 As5 P7'
_cell_volume   770.21340625
_cell_formula_units_Z   1
loop_
 _symmetry_equiv_pos_site_id
 _symmetry_equiv_pos_as_xyz
  1  'x, y, z'
loop_
 _atom_site_type_symbol
 _atom_site_label
 _atom_site_symmetry_multiplicity
 _atom_site_fract_x
 _atom_site_fract_y
 _atom_site_fract_z
 _atom_site_occupancy
  Cs  Cs0  1  0.000000  0.281123  0.315507  1
  Cs  Cs1  1  0.000000  0.717367  0.685047  1
  Cs  Cs2  1  0.000000  0.217841  0.814565  1
  Cs  Cs3  1  0.000000  0.780930  0.185650  1
  Si  Si4  1  0.500000  0.407393  0.031200  1
  Si  Si5  1  0.500000  0.595515  0.964579  1
  Si  Si6  1  0.500000  0.095841  0.532944  1
  Si  Si7  1  0.500000  0.903803  0.467060  1
  Si  Si8  1  0.000000  0.113789  0.016118  1
  Si  Si9  1  0.000000  0.885869  0.984073  1
  Si  Si10  1  0.000000  0.386148  0.515701  1
  Si  Si11  1  0.000000  0.613535  0.484423  1
  Si  Si12  1  0.000000  0.179475  0.123738  1
  Si  Si13  1  0.000000  0.817673  0.876962  1
  Si  Si14  1  0.000000  0.317198  0.622427  1
  Si  Si15  1  0.000000  0.682209  0.377660  1
  As  As16  1  0.500000  0.109187  0.184007  1
  As  As17  1  0.500000  0.888274  0.816798  1
  As  As18  1  0.500000  0.387648  0.683058  1
  As  As19  1  0.500000  0.611463  0.317091  1
  As  As20  1  0.000000  0.420634  0.103736  1
  P  P21  1  0.500000  0.283506  0.469169  1
  P  P22  1  0.500000  0.716255  0.530924  1
  P  P23  1  0.500000  0.215610  0.969606  1
  P  P24  1  0.500000  0.782431  0.029698  1
  P  P25  1  0.000000  0.589785  0.898279  1
  P  P26  1  0.000000  0.089501  0.599288  1
  P  P27  1  0.000000  0.909996  0.400693  1
