# generated using pymatgen
data_NbNiB2Mo
_symmetry_space_group_name_H-M   'P 1'
_cell_length_a   4.59917720
_cell_length_b   4.59917806
_cell_length_c   4.59917747
_cell_angle_alpha   138.83257415
_cell_angle_beta   119.47835101
_cell_angle_gamma   75.82502635
_symmetry_Int_Tables_number   1
_chemical_formula_structural   NbNiB2Mo
_chemical_formula_sum   'Nb1 Ni1 B2 Mo1'
_cell_volume   54.39324983
_cell_formula_units_Z   1
loop_
 _symmetry_equiv_pos_site_id
 _symmetry_equiv_pos_as_xyz
  1  'x, y, z'
loop_
 _atom_site_type_symbol
 _atom_site_label
 _atom_site_symmetry_multiplicity
 _atom_site_fract_x
 _atom_site_fract_y
 _atom_site_fract_z
 _atom_site_occupancy
  Nb  Nb0  1  0.704354  0.204354  0.500000  1
  Ni  Ni1  1  0.000792  0.000792  0.000000  1
  B  B2  1  0.696441  0.497519  0.198923  1
  B  B3  1  0.298595  0.497519  0.801077  1
  Mo  Mo4  1  0.299818  0.799818  0.500000  1
