# generated using pymatgen
data_Hf11V(Ga2Sn)4
_symmetry_space_group_name_H-M   'P 1'
_cell_length_a   5.66575297
_cell_length_b   8.73780858
_cell_length_c   9.31174800
_cell_angle_alpha   90.00000000
_cell_angle_beta   90.00000000
_cell_angle_gamma   90.11733511
_symmetry_Int_Tables_number   1
_chemical_formula_structural   Hf11V(Ga2Sn)4
_chemical_formula_sum   'Hf11 V1 Ga8 Sn4'
_cell_volume   460.98889668
_cell_formula_units_Z   1
loop_
 _symmetry_equiv_pos_site_id
 _symmetry_equiv_pos_as_xyz
  1  'x, y, z'
loop_
 _atom_site_type_symbol
 _atom_site_label
 _atom_site_symmetry_multiplicity
 _atom_site_fract_x
 _atom_site_fract_y
 _atom_site_fract_z
 _atom_site_occupancy
  Hf  Hf0  1  0.500000  0.250000  0.882202  1
  Hf  Hf1  1  0.000000  0.250000  0.877789  1
  Hf  Hf2  1  0.500000  0.750000  0.122801  1
  Hf  Hf3  1  0.751756  0.471597  0.609893  1
  Hf  Hf4  1  0.254557  0.530836  0.389324  1
  Hf  Hf5  1  0.745443  0.969164  0.389324  1
  Hf  Hf6  1  0.248244  0.028403  0.609893  1
  Hf  Hf7  1  0.746396  0.372898  0.198432  1
  Hf  Hf8  1  0.254178  0.626100  0.802379  1
  Hf  Hf9  1  0.745822  0.873900  0.802379  1
  Hf  Hf10  1  0.253604  0.127102  0.198432  1
  V  V11  1  0.000000  0.750000  0.119630  1
  Ga  Ga12  1  0.000000  0.750000  0.572902  1
  Ga  Ga13  1  0.500000  0.250000  0.430638  1
  Ga  Ga14  1  0.000000  0.250000  0.428847  1
  Ga  Ga15  1  0.500000  0.750000  0.568005  1
  Ga  Ga16  1  0.748048  0.137103  0.645566  1
  Ga  Ga17  1  0.234436  0.860421  0.348390  1
  Ga  Ga18  1  0.765564  0.639579  0.348390  1
  Ga  Ga19  1  0.251952  0.362897  0.645566  1
  Sn  Sn20  1  0.757843  0.045188  0.085299  1
  Sn  Sn21  1  0.242067  0.944833  0.919309  1
  Sn  Sn22  1  0.757933  0.555167  0.919309  1
  Sn  Sn23  1  0.242157  0.454812  0.085299  1
