# generated using pymatgen
data_SrTbAg(H6Ir)2
_symmetry_space_group_name_H-M   'P 1'
_cell_length_a   4.93310500
_cell_length_b   4.93310503
_cell_length_c   8.23992900
_cell_angle_alpha   90.00000000
_cell_angle_beta   90.00000000
_cell_angle_gamma   120.00000648
_symmetry_Int_Tables_number   1
_chemical_formula_structural   SrTbAg(H6Ir)2
_chemical_formula_sum   'Sr1 Tb1 Ag1 H12 Ir2'
_cell_volume   173.65799990
_cell_formula_units_Z   1
loop_
 _symmetry_equiv_pos_site_id
 _symmetry_equiv_pos_as_xyz
  1  'x, y, z'
loop_
 _atom_site_type_symbol
 _atom_site_label
 _atom_site_symmetry_multiplicity
 _atom_site_fract_x
 _atom_site_fract_y
 _atom_site_fract_z
 _atom_site_occupancy
  Sr  Sr0  1  0.000000  0.000000  0.044517  1
  Tb  Tb1  1  0.333333  0.666667  0.616272  1
  Ag  Ag2  1  0.666667  0.333333  0.357599  1
  H  H3  1  0.169370  0.830630  0.372769  1
  H  H4  1  0.661260  0.830630  0.372769  1
  H  H5  1  0.169370  0.338740  0.372769  1
  H  H6  1  0.833580  0.166420  0.628430  1
  H  H7  1  0.332840  0.166420  0.628430  1
  H  H8  1  0.833580  0.667160  0.628430  1
  H  H9  1  0.508080  0.016160  0.856606  1
  H  H10  1  0.508080  0.491920  0.856606  1
  H  H11  1  0.983840  0.491920  0.856606  1
  H  H12  1  0.488857  0.977713  0.136859  1
  H  H13  1  0.488857  0.511143  0.136859  1
  H  H14  1  0.022287  0.511143  0.136859  1
  Ir  Ir15  1  0.666667  0.333333  0.736956  1
  Ir  Ir16  1  0.333333  0.666667  0.260668  1
