# generated using pymatgen
data_TbNd5(CBr5)2
_symmetry_space_group_name_H-M   'P 1'
_cell_length_a   7.59517664
_cell_length_b   9.18115030
_cell_length_c   9.25769130
_cell_angle_alpha   107.35491176
_cell_angle_beta   96.21452542
_cell_angle_gamma   104.72565451
_symmetry_Int_Tables_number   1
_chemical_formula_structural   TbNd5(CBr5)2
_chemical_formula_sum   'Tb1 Nd5 C2 Br10'
_cell_volume   583.96601309
_cell_formula_units_Z   1
loop_
 _symmetry_equiv_pos_site_id
 _symmetry_equiv_pos_as_xyz
  1  'x, y, z'
loop_
 _atom_site_type_symbol
 _atom_site_label
 _atom_site_symmetry_multiplicity
 _atom_site_fract_x
 _atom_site_fract_y
 _atom_site_fract_z
 _atom_site_occupancy
  Tb  Tb0  1  0.378681  0.141040  0.189328  1
  Nd  Nd1  1  0.887269  0.956464  0.231537  1
  Nd  Nd2  1  0.115431  0.045233  0.769299  1
  Nd  Nd3  1  0.031888  0.723137  0.918664  1
  Nd  Nd4  1  0.970021  0.277371  0.082594  1
  Nd  Nd5  1  0.615868  0.855681  0.806454  1
  C  C6  1  0.910420  0.969077  0.956499  1
  C  C7  1  0.093434  0.031909  0.044193  1
  Br  Br8  1  0.756110  0.919066  0.540501  1
  Br  Br9  1  0.253011  0.084526  0.454323  1
  Br  Br10  1  0.456922  0.823169  0.091459  1
  Br  Br11  1  0.539517  0.184676  0.919698  1
  Br  Br12  1  0.793773  0.259007  0.348538  1
  Br  Br13  1  0.191600  0.737180  0.645219  1
  Br  Br14  1  0.910302  0.629180  0.176930  1
  Br  Br15  1  0.090514  0.371690  0.824227  1
  Br  Br16  1  0.661648  0.542546  0.726851  1
  Br  Br17  1  0.343590  0.449046  0.273687  1
