# generated using pymatgen
data_Hf20(ZnSb3)3
_symmetry_space_group_name_H-M   'P 1'
_cell_length_a   5.54524200
_cell_length_b   8.27584927
_cell_length_c   15.55125100
_cell_angle_alpha   90.00000000
_cell_angle_beta   90.00000000
_cell_angle_gamma   109.57409199
_symmetry_Int_Tables_number   1
_chemical_formula_structural   Hf20(ZnSb3)3
_chemical_formula_sum   'Hf20 Zn3 Sb9'
_cell_volume   672.42782175
_cell_formula_units_Z   1
loop_
 _symmetry_equiv_pos_site_id
 _symmetry_equiv_pos_as_xyz
  1  'x, y, z'
loop_
 _atom_site_type_symbol
 _atom_site_label
 _atom_site_symmetry_multiplicity
 _atom_site_fract_x
 _atom_site_fract_y
 _atom_site_fract_z
 _atom_site_occupancy
  Hf  Hf0  1  0.430092  0.859074  0.356166  1
  Hf  Hf1  1  0.921530  0.858511  0.851149  1
  Hf  Hf2  1  0.063019  0.141489  0.148851  1
  Hf  Hf3  1  0.571019  0.140926  0.643834  1
  Hf  Hf4  1  0.654889  0.295755  0.071795  1
  Hf  Hf5  1  0.144943  0.289229  0.568341  1
  Hf  Hf6  1  0.855715  0.710771  0.431659  1
  Hf  Hf7  1  0.359135  0.704245  0.928205  1
  Hf  Hf8  1  0.845111  0.704245  0.071795  1
  Hf  Hf9  1  0.355057  0.710771  0.568341  1
  Hf  Hf10  1  0.644285  0.289229  0.431659  1
  Hf  Hf11  1  0.140865  0.295755  0.928205  1
  Hf  Hf12  1  0.069908  0.140926  0.356166  1
  Hf  Hf13  1  0.578470  0.141489  0.851149  1
  Hf  Hf14  1  0.436981  0.858511  0.148851  1
  Hf  Hf15  1  0.928981  0.859074  0.643834  1
  Hf  Hf16  1  0.500721  0.500688  0.250368  1
  Hf  Hf17  1  0.000033  0.499312  0.749632  1
  Hf  Hf18  1  0.999279  0.499312  0.250368  1
  Hf  Hf19  1  0.499967  0.500688  0.749632  1
  Zn  Zn20  1  0.750000  0.000000  0.500000  1
  Zn  Zn21  1  0.750000  0.000000  0.000000  1
  Zn  Zn22  1  0.250000  0.000000  0.500000  1
  Sb  Sb23  1  0.916856  0.828275  0.252272  1
  Sb  Sb24  1  0.411419  0.828275  0.747728  1
  Sb  Sb25  1  0.583144  0.171725  0.252272  1
  Sb  Sb26  1  0.088581  0.171725  0.747728  1
  Sb  Sb27  1  0.250000  0.500000  0.085833  1
  Sb  Sb28  1  0.750000  0.500000  0.585781  1
  Sb  Sb29  1  0.250000  0.500000  0.414219  1
  Sb  Sb30  1  0.750000  0.500000  0.914167  1
  Sb  Sb31  1  0.250000  0.000000  0.000000  1
