# generated using pymatgen
data_Li2AcScSn2
_symmetry_space_group_name_H-M   'P 1'
_cell_length_a   4.70932300
_cell_length_b   7.75034542
_cell_length_c   8.16802571
_cell_angle_alpha   89.77577033
_cell_angle_beta   90.00000000
_cell_angle_gamma   90.00000000
_symmetry_Int_Tables_number   1
_chemical_formula_structural   Li2AcScSn2
_chemical_formula_sum   'Li4 Ac2 Sc2 Sn4'
_cell_volume   298.12150682
_cell_formula_units_Z   2
loop_
 _symmetry_equiv_pos_site_id
 _symmetry_equiv_pos_as_xyz
  1  'x, y, z'
loop_
 _atom_site_type_symbol
 _atom_site_label
 _atom_site_symmetry_multiplicity
 _atom_site_fract_x
 _atom_site_fract_y
 _atom_site_fract_z
 _atom_site_occupancy
  Li  Li0  1  0.750000  0.173955  0.416464  1
  Li  Li1  1  0.250000  0.168223  0.917167  1
  Li  Li2  1  0.750000  0.831777  0.082833  1
  Li  Li3  1  0.250000  0.826045  0.583536  1
  Ac  Ac4  1  0.250000  0.500183  0.249245  1
  Ac  Ac5  1  0.750000  0.499817  0.750755  1
  Sc  Sc6  1  0.250000  0.000100  0.251424  1
  Sc  Sc7  1  0.750000  0.999900  0.748576  1
  Sn  Sn8  1  0.250000  0.214906  0.583648  1
  Sn  Sn9  1  0.750000  0.214649  0.083225  1
  Sn  Sn10  1  0.250000  0.785351  0.916775  1
  Sn  Sn11  1  0.750000  0.785094  0.416352  1
