# generated using pymatgen
data_Zr2H6RuPt
_symmetry_space_group_name_H-M   'P 1'
_cell_length_a   5.78863600
_cell_length_b   5.78863564
_cell_length_c   4.51905300
_cell_angle_alpha   90.00000000
_cell_angle_beta   90.00000000
_cell_angle_gamma   142.23293290
_symmetry_Int_Tables_number   1
_chemical_formula_structural   Zr2H6RuPt
_chemical_formula_sum   'Zr2 H6 Ru1 Pt1'
_cell_volume   92.74115530
_cell_formula_units_Z   1
loop_
 _symmetry_equiv_pos_site_id
 _symmetry_equiv_pos_as_xyz
  1  'x, y, z'
loop_
 _atom_site_type_symbol
 _atom_site_label
 _atom_site_symmetry_multiplicity
 _atom_site_fract_x
 _atom_site_fract_y
 _atom_site_fract_z
 _atom_site_occupancy
  Zr  Zr0  1  0.136420  0.863582  0.249999  1
  Zr  Zr1  1  0.868605  0.131397  0.750000  1
  H  H2  1  0.691897  0.308105  0.025344  1
  H  H3  1  0.921610  0.078392  0.249999  1
  H  H4  1  0.691897  0.308105  0.474654  1
  H  H5  1  0.307413  0.692589  0.516056  1
  H  H6  1  0.080681  0.919321  0.750000  1
  H  H7  1  0.307413  0.692589  0.983944  1
  Ru  Ru8  1  0.420270  0.579732  0.249999  1
  Pt  Pt9  1  0.573803  0.426199  0.750000  1
