# generated using pymatgen
data_La4ErSn3
_symmetry_space_group_name_H-M   'P 1'
_cell_length_a   9.46870929
_cell_length_b   9.46870938
_cell_length_c   9.46870987
_cell_angle_alpha   96.25723529
_cell_angle_beta   96.25723507
_cell_angle_gamma   141.44544526
_symmetry_Int_Tables_number   1
_chemical_formula_structural   La4ErSn3
_chemical_formula_sum   'La8 Er2 Sn6'
_cell_volume   499.43850474
_cell_formula_units_Z   2
loop_
 _symmetry_equiv_pos_site_id
 _symmetry_equiv_pos_as_xyz
  1  'x, y, z'
loop_
 _atom_site_type_symbol
 _atom_site_label
 _atom_site_symmetry_multiplicity
 _atom_site_fract_x
 _atom_site_fract_y
 _atom_site_fract_z
 _atom_site_occupancy
  La  La0  1  0.910511  0.223198  0.133709  1
  La  La1  1  0.223198  0.089489  0.312687  1
  La  La2  1  0.776802  0.910511  0.687313  1
  La  La3  1  0.089489  0.776802  0.866291  1
  La  La4  1  0.723198  0.410511  0.133709  1
  La  La5  1  0.276802  0.589489  0.866291  1
  La  La6  1  0.589489  0.723198  0.312687  1
  La  La7  1  0.410511  0.276802  0.687313  1
  Er  Er8  1  0.750000  0.250000  0.500000  1
  Er  Er9  1  0.250000  0.750000  0.500000  1
  Sn  Sn10  1  0.750000  0.750000  0.000000  1
  Sn  Sn11  1  0.250000  0.250000  0.000000  1
  Sn  Sn12  1  0.846515  0.653485  0.500000  1
  Sn  Sn13  1  0.653485  0.153485  0.806970  1
  Sn  Sn14  1  0.346515  0.846515  0.193030  1
  Sn  Sn15  1  0.153485  0.346515  0.500000  1
