# generated using pymatgen
data_Nd2Al20IrOs3
_symmetry_space_group_name_H-M   'P 1'
_cell_length_a   6.89575025
_cell_length_b   6.88785475
_cell_length_c   9.20659342
_cell_angle_alpha   90.12619713
_cell_angle_beta   90.08902072
_cell_angle_gamma   96.72714788
_symmetry_Int_Tables_number   1
_chemical_formula_structural   Nd2Al20IrOs3
_chemical_formula_sum   'Nd2 Al20 Ir1 Os3'
_cell_volume   434.27251743
_cell_formula_units_Z   1
loop_
 _symmetry_equiv_pos_site_id
 _symmetry_equiv_pos_as_xyz
  1  'x, y, z'
loop_
 _atom_site_type_symbol
 _atom_site_label
 _atom_site_symmetry_multiplicity
 _atom_site_fract_x
 _atom_site_fract_y
 _atom_site_fract_z
 _atom_site_occupancy
  Nd  Nd0  1  0.872516  0.125623  0.750203  1
  Nd  Nd1  1  0.127484  0.874377  0.249797  1
  Al  Al2  1  0.620783  0.376747  0.550615  1
  Al  Al3  1  0.379217  0.623253  0.449385  1
  Al  Al4  1  0.377263  0.622786  0.049840  1
  Al  Al5  1  0.622737  0.377214  0.950160  1
  Al  Al6  1  0.226754  0.224896  0.499449  1
  Al  Al7  1  0.773246  0.775104  0.500551  1
  Al  Al8  1  0.774500  0.774737  0.999950  1
  Al  Al9  1  0.225500  0.225263  0.000050  1
  Al  Al10  1  0.840603  0.159962  0.102188  1
  Al  Al11  1  0.159397  0.840038  0.897812  1
  Al  Al12  1  0.160518  0.841323  0.603244  1
  Al  Al13  1  0.839482  0.158677  0.396756  1
  Al  Al14  1  0.855753  0.587651  0.750747  1
  Al  Al15  1  0.144247  0.412349  0.249253  1
  Al  Al16  1  0.412690  0.143280  0.750168  1
  Al  Al17  1  0.587310  0.856720  0.249832  1
  Al  Al18  1  0.220506  0.483559  0.751423  1
  Al  Al19  1  0.779494  0.516441  0.248577  1
  Al  Al20  1  0.516626  0.780423  0.749560  1
  Al  Al21  1  0.483374  0.219577  0.250440  1
  Ir  Ir22  1  0.000000  0.500000  0.500000  1
  Os  Os23  1  0.000000  0.500000  0.000000  1
  Os  Os24  1  0.500000  0.000000  0.000000  1
  Os  Os25  1  0.500000  0.000000  0.500000  1
