# generated using pymatgen
data_MgNb5Co2(BRu2)4
_symmetry_space_group_name_H-M   'P 1'
_cell_length_a   9.29631782
_cell_length_b   9.29631782
_cell_length_c   3.04547700
_cell_angle_alpha   90.00000000
_cell_angle_beta   90.00000000
_cell_angle_gamma   90.19028509
_symmetry_Int_Tables_number   1
_chemical_formula_structural   MgNb5Co2(BRu2)4
_chemical_formula_sum   'Mg1 Nb5 Co2 B4 Ru8'
_cell_volume   263.19331507
_cell_formula_units_Z   1
loop_
 _symmetry_equiv_pos_site_id
 _symmetry_equiv_pos_as_xyz
  1  'x, y, z'
loop_
 _atom_site_type_symbol
 _atom_site_label
 _atom_site_symmetry_multiplicity
 _atom_site_fract_x
 _atom_site_fract_y
 _atom_site_fract_z
 _atom_site_occupancy
  Mg  Mg0  1  0.823217  0.676783  0.000000  1
  Nb  Nb1  1  0.173817  0.326183  0.000000  1
  Nb  Nb2  1  0.323497  0.824609  0.000000  1
  Nb  Nb3  1  0.675391  0.176503  0.000000  1
  Nb  Nb4  1  0.506653  0.503262  0.000000  1
  Nb  Nb5  1  0.996738  0.993347  0.000000  1
  Co  Co6  1  0.496726  0.003274  0.500000  1
  Co  Co7  1  0.005527  0.494473  0.500000  1
  B  B8  1  0.610650  0.889350  0.000000  1
  B  B9  1  0.387900  0.112100  0.000000  1
  B  B10  1  0.112104  0.608704  0.000000  1
  B  B11  1  0.891296  0.387896  0.000000  1
  Ru  Ru12  1  0.556834  0.729842  0.500000  1
  Ru  Ru13  1  0.432905  0.277375  0.500000  1
  Ru  Ru14  1  0.072928  0.774756  0.500000  1
  Ru  Ru15  1  0.938194  0.222406  0.500000  1
  Ru  Ru16  1  0.277594  0.561806  0.500000  1
  Ru  Ru17  1  0.725244  0.427072  0.500000  1
  Ru  Ru18  1  0.222625  0.067095  0.500000  1
  Ru  Ru19  1  0.770158  0.943166  0.500000  1
