# generated using pymatgen
data_LiYb8Sc11Ge16
_symmetry_space_group_name_H-M   'P 1'
_cell_length_a   7.12757384
_cell_length_b   7.56697200
_cell_length_c   14.37750200
_cell_angle_alpha   90.00000000
_cell_angle_beta   90.00000000
_cell_angle_gamma   89.89780108
_symmetry_Int_Tables_number   1
_chemical_formula_structural   LiYb8Sc11Ge16
_chemical_formula_sum   'Li1 Yb8 Sc11 Ge16'
_cell_volume   775.43714039
_cell_formula_units_Z   1
loop_
 _symmetry_equiv_pos_site_id
 _symmetry_equiv_pos_as_xyz
  1  'x, y, z'
loop_
 _atom_site_type_symbol
 _atom_site_label
 _atom_site_symmetry_multiplicity
 _atom_site_fract_x
 _atom_site_fract_y
 _atom_site_fract_z
 _atom_site_occupancy
  Li  Li0  1  0.346768  0.004978  0.750000  1
  Yb  Yb1  1  0.990150  0.821503  0.406172  1
  Yb  Yb2  1  0.489355  0.677026  0.093987  1
  Yb  Yb3  1  0.510349  0.314241  0.595892  1
  Yb  Yb4  1  0.015671  0.178472  0.904895  1
  Yb  Yb5  1  0.015671  0.178472  0.595105  1
  Yb  Yb6  1  0.510349  0.314241  0.904108  1
  Yb  Yb7  1  0.489355  0.677026  0.406013  1
  Yb  Yb8  1  0.990150  0.821503  0.093828  1
  Sc  Sc9  1  0.319356  0.168563  0.123493  1
  Sc  Sc10  1  0.819194  0.332831  0.376995  1
  Sc  Sc11  1  0.181289  0.675555  0.876528  1
  Sc  Sc12  1  0.675049  0.835904  0.623927  1
  Sc  Sc13  1  0.319356  0.168563  0.376507  1
  Sc  Sc14  1  0.819194  0.332831  0.123005  1
  Sc  Sc15  1  0.181289  0.675555  0.623472  1
  Sc  Sc16  1  0.675049  0.835904  0.876073  1
  Sc  Sc17  1  0.847632  0.492367  0.750000  1
  Sc  Sc18  1  0.150879  0.509987  0.250000  1
  Sc  Sc19  1  0.654778  0.989934  0.250000  1
  Ge  Ge20  1  0.841296  0.537098  0.543668  1
  Ge  Ge21  1  0.342907  0.959564  0.961076  1
  Ge  Ge22  1  0.657305  0.037010  0.456658  1
  Ge  Ge23  1  0.156560  0.462730  0.042073  1
  Ge  Ge24  1  0.156560  0.462730  0.457927  1
  Ge  Ge25  1  0.657305  0.037010  0.043342  1
  Ge  Ge26  1  0.342907  0.959564  0.538924  1
  Ge  Ge27  1  0.841296  0.537098  0.956332  1
  Ge  Ge28  1  0.978109  0.875017  0.750000  1
  Ge  Ge29  1  0.481617  0.617356  0.750000  1
  Ge  Ge30  1  0.518277  0.370681  0.250000  1
  Ge  Ge31  1  0.018992  0.127761  0.250000  1
  Ge  Ge32  1  0.220237  0.383584  0.750000  1
  Ge  Ge33  1  0.726824  0.123838  0.750000  1
  Ge  Ge34  1  0.279575  0.873176  0.250000  1
  Ge  Ge35  1  0.779350  0.630323  0.250000  1
