# generated using pymatgen
data_Nd3Th5Zn8Ru5Rh3
_symmetry_space_group_name_H-M   'P 1'
_cell_length_a   3.91094600
_cell_length_b   7.53163599
_cell_length_c   16.54917702
_cell_angle_alpha   90.39552840
_cell_angle_beta   90.00000000
_cell_angle_gamma   90.00000000
_symmetry_Int_Tables_number   1
_chemical_formula_structural   Nd3Th5Zn8Ru5Rh3
_chemical_formula_sum   'Nd3 Th5 Zn8 Ru5 Rh3'
_cell_volume   487.45799130
_cell_formula_units_Z   1
loop_
 _symmetry_equiv_pos_site_id
 _symmetry_equiv_pos_as_xyz
  1  'x, y, z'
loop_
 _atom_site_type_symbol
 _atom_site_label
 _atom_site_symmetry_multiplicity
 _atom_site_fract_x
 _atom_site_fract_y
 _atom_site_fract_z
 _atom_site_occupancy
  Nd  Nd0  1  0.750000  0.449194  0.215977  1
  Nd  Nd1  1  0.250000  0.052989  0.712356  1
  Nd  Nd2  1  0.250000  0.554356  0.786052  1
  Th  Th3  1  0.250000  0.169780  0.939089  1
  Th  Th4  1  0.250000  0.670076  0.558280  1
  Th  Th5  1  0.750000  0.322325  0.438099  1
  Th  Th6  1  0.750000  0.948414  0.284899  1
  Th  Th7  1  0.750000  0.825547  0.062281  1
  Zn  Zn8  1  0.750000  0.005881  0.558131  1
  Zn  Zn9  1  0.250000  0.615406  0.346325  1
  Zn  Zn10  1  0.750000  0.380322  0.653056  1
  Zn  Zn11  1  0.250000  0.497166  0.059991  1
  Zn  Zn12  1  0.750000  0.508568  0.939700  1
  Zn  Zn13  1  0.250000  0.994227  0.443474  1
  Zn  Zn14  1  0.250000  0.125149  0.152182  1
  Zn  Zn15  1  0.750000  0.879472  0.845835  1
  Ru  Ru16  1  0.750000  0.741755  0.438711  1
  Ru  Ru17  1  0.250000  0.228183  0.316562  1
  Ru  Ru18  1  0.250000  0.258867  0.560828  1
  Ru  Ru19  1  0.250000  0.760547  0.185556  1
  Ru  Ru20  1  0.250000  0.760957  0.942162  1
  Rh  Rh21  1  0.750000  0.252990  0.819901  1
  Rh  Rh22  1  0.750000  0.751062  0.681776  1
  Rh  Rh23  1  0.750000  0.246768  0.058778  1
