# generated using pymatgen
data_Tb2Tm(MgHg)3
_symmetry_space_group_name_H-M   'P 1'
_cell_length_a   7.73435384
_cell_length_b   7.73435314
_cell_length_c   4.26428900
_cell_angle_alpha   90.00000000
_cell_angle_beta   90.00000000
_cell_angle_gamma   119.76086663
_symmetry_Int_Tables_number   1
_chemical_formula_structural   Tb2Tm(MgHg)3
_chemical_formula_sum   'Tb2 Tm1 Mg3 Hg3'
_cell_volume   221.44545203
_cell_formula_units_Z   1
loop_
 _symmetry_equiv_pos_site_id
 _symmetry_equiv_pos_as_xyz
  1  'x, y, z'
loop_
 _atom_site_type_symbol
 _atom_site_label
 _atom_site_symmetry_multiplicity
 _atom_site_fract_x
 _atom_site_fract_y
 _atom_site_fract_z
 _atom_site_occupancy
  Tb  Tb0  1  0.412773  0.000160  0.000000  1
  Tb  Tb1  1  0.000160  0.412772  0.000000  1
  Tm  Tm2  1  0.588190  0.588191  0.000000  1
  Mg  Mg3  1  0.749593  0.999304  0.499999  1
  Mg  Mg4  1  0.250551  0.250551  0.499999  1
  Mg  Mg5  1  0.999304  0.749593  0.499999  1
  Hg  Hg6  1  0.998824  0.998824  0.000000  1
  Hg  Hg7  1  0.666008  0.334597  0.499999  1
  Hg  Hg8  1  0.334596  0.666008  0.499999  1
