# generated using pymatgen
data_Hf4Al7Ag
_symmetry_space_group_name_H-M   'P 1'
_cell_length_a   5.30554700
_cell_length_b   5.27335607
_cell_length_c   8.71006000
_cell_angle_alpha   90.00000000
_cell_angle_beta   90.00000000
_cell_angle_gamma   120.20213350
_symmetry_Int_Tables_number   1
_chemical_formula_structural   Hf4Al7Ag
_chemical_formula_sum   'Hf4 Al7 Ag1'
_cell_volume   210.61090239
_cell_formula_units_Z   1
loop_
 _symmetry_equiv_pos_site_id
 _symmetry_equiv_pos_as_xyz
  1  'x, y, z'
loop_
 _atom_site_type_symbol
 _atom_site_label
 _atom_site_symmetry_multiplicity
 _atom_site_fract_x
 _atom_site_fract_y
 _atom_site_fract_z
 _atom_site_occupancy
  Hf  Hf0  1  0.336061  0.672122  0.430357  1
  Hf  Hf1  1  0.666178  0.332354  0.937354  1
  Hf  Hf2  1  0.666178  0.332354  0.562646  1
  Hf  Hf3  1  0.336061  0.672122  0.069643  1
  Al  Al4  1  0.829739  0.171540  0.250000  1
  Al  Al5  1  0.341802  0.171540  0.250000  1
  Al  Al6  1  0.652669  0.823087  0.750000  1
  Al  Al7  1  0.001588  0.003175  0.997019  1
  Al  Al8  1  0.001588  0.003175  0.502981  1
  Al  Al9  1  0.829372  0.658742  0.250000  1
  Al  Al10  1  0.170417  0.823087  0.750000  1
  Ag  Ag11  1  0.168350  0.336701  0.750000  1
