# generated using pymatgen
data_Yb4Dy3Ho3Ru4
_symmetry_space_group_name_H-M   'P 1'
_cell_length_a   6.41320976
_cell_length_b   7.24426943
_cell_length_c   8.51418592
_cell_angle_alpha   97.04274554
_cell_angle_beta   112.17668847
_cell_angle_gamma   90.03897443
_symmetry_Int_Tables_number   1
_chemical_formula_structural   Yb4Dy3Ho3Ru4
_chemical_formula_sum   'Yb4 Dy3 Ho3 Ru4'
_cell_volume   363.06017418
_cell_formula_units_Z   1
loop_
 _symmetry_equiv_pos_site_id
 _symmetry_equiv_pos_as_xyz
  1  'x, y, z'
loop_
 _atom_site_type_symbol
 _atom_site_label
 _atom_site_symmetry_multiplicity
 _atom_site_fract_x
 _atom_site_fract_y
 _atom_site_fract_z
 _atom_site_occupancy
  Yb  Yb0  1  0.978225  0.919219  0.182696  1
  Yb  Yb1  1  0.795623  0.580784  0.817276  1
  Yb  Yb2  1  0.021703  0.080945  0.817304  1
  Yb  Yb3  1  0.204550  0.419051  0.182749  1
  Dy  Dy4  1  0.636071  0.817137  0.433635  1
  Dy  Dy5  1  0.201880  0.682543  0.566099  1
  Dy  Dy6  1  0.364213  0.182912  0.566242  1
  Ho  Ho7  1  0.797719  0.317395  0.433623  1
  Ho  Ho8  1  0.430876  0.750340  0.999974  1
  Ho  Ho9  1  0.569329  0.249787  0.000388  1
  Ru  Ru10  1  0.815837  0.573607  0.229793  1
  Ru  Ru11  1  0.586179  0.926131  0.770363  1
  Ru  Ru12  1  0.183513  0.425999  0.769925  1
  Ru  Ru13  1  0.414282  0.074151  0.229932  1
