# generated using pymatgen
data_Y4Hf4IrPt3
_symmetry_space_group_name_H-M   'P 1'
_cell_length_a   4.66592900
_cell_length_b   7.07681078
_cell_length_c   8.22580538
_cell_angle_alpha   90.17766516
_cell_angle_beta   90.00000000
_cell_angle_gamma   90.00000000
_symmetry_Int_Tables_number   1
_chemical_formula_structural   Y4Hf4IrPt3
_chemical_formula_sum   'Y4 Hf4 Ir1 Pt3'
_cell_volume   271.61393755
_cell_formula_units_Z   1
loop_
 _symmetry_equiv_pos_site_id
 _symmetry_equiv_pos_as_xyz
  1  'x, y, z'
loop_
 _atom_site_type_symbol
 _atom_site_label
 _atom_site_symmetry_multiplicity
 _atom_site_fract_x
 _atom_site_fract_y
 _atom_site_fract_z
 _atom_site_occupancy
  Y  Y0  1  0.250000  0.986989  0.323688  1
  Y  Y1  1  0.250000  0.481711  0.179794  1
  Y  Y2  1  0.750000  0.017767  0.676151  1
  Y  Y3  1  0.750000  0.515068  0.819423  1
  Hf  Hf4  1  0.250000  0.354461  0.573334  1
  Hf  Hf5  1  0.250000  0.854537  0.923798  1
  Hf  Hf6  1  0.750000  0.640942  0.422175  1
  Hf  Hf7  1  0.750000  0.145454  0.077569  1
  Ir  Ir8  1  0.750000  0.274255  0.407062  1
  Pt  Pt9  1  0.250000  0.226587  0.904687  1
  Pt  Pt10  1  0.250000  0.728744  0.596899  1
  Pt  Pt11  1  0.750000  0.773485  0.095418  1
