# generated using pymatgen
data_Pr8Er11ScGa5Si11
_symmetry_space_group_name_H-M   'P 1'
_cell_length_a   7.50649421
_cell_length_b   7.81928203
_cell_length_c   14.93584908
_cell_angle_alpha   89.98618568
_cell_angle_beta   90.10382680
_cell_angle_gamma   90.05781853
_symmetry_Int_Tables_number   1
_chemical_formula_structural   Pr8Er11ScGa5Si11
_chemical_formula_sum   'Pr8 Er11 Sc1 Ga5 Si11'
_cell_volume   876.66365406
_cell_formula_units_Z   1
loop_
 _symmetry_equiv_pos_site_id
 _symmetry_equiv_pos_as_xyz
  1  'x, y, z'
loop_
 _atom_site_type_symbol
 _atom_site_label
 _atom_site_symmetry_multiplicity
 _atom_site_fract_x
 _atom_site_fract_y
 _atom_site_fract_z
 _atom_site_occupancy
  Pr  Pr0  1  0.018747  0.176544  0.400832  1
  Pr  Pr1  1  0.518614  0.323624  0.400985  1
  Pr  Pr2  1  0.482273  0.677111  0.897769  1
  Pr  Pr3  1  0.480680  0.679550  0.601048  1
  Pr  Pr4  1  0.983551  0.818299  0.600723  1
  Pr  Pr5  1  0.983256  0.824136  0.898353  1
  Pr  Pr6  1  0.517441  0.321011  0.100585  1
  Pr  Pr7  1  0.016792  0.178061  0.100884  1
  Er  Er8  1  0.324629  0.174115  0.624804  1
  Er  Er9  1  0.674987  0.821837  0.376298  1
  Er  Er10  1  0.661222  0.993413  0.751438  1
  Er  Er11  1  0.174040  0.678182  0.376434  1
  Er  Er12  1  0.824666  0.325448  0.874946  1
  Er  Er13  1  0.825934  0.327612  0.624712  1
  Er  Er14  1  0.839295  0.493392  0.250627  1
  Er  Er15  1  0.340361  0.005628  0.251663  1
  Er  Er16  1  0.326720  0.176946  0.873338  1
  Er  Er17  1  0.173016  0.673402  0.125066  1
  Er  Er18  1  0.673070  0.826509  0.124329  1
  Sc  Sc19  1  0.159562  0.502473  0.750525  1
  Ga  Ga20  1  0.154392  0.463739  0.539496  1
  Ga  Ga21  1  0.844472  0.537008  0.038535  1
  Ga  Ga22  1  0.344656  0.962446  0.036898  1
  Ga  Ga23  1  0.154325  0.465127  0.958185  1
  Ga  Ga24  1  0.654759  0.037578  0.538217  1
  Si  Si25  1  0.278051  0.873923  0.749484  1
  Si  Si26  1  0.467617  0.613993  0.251413  1
  Si  Si27  1  0.030628  0.115507  0.749202  1
  Si  Si28  1  0.526124  0.390595  0.749202  1
  Si  Si29  1  0.968217  0.887317  0.250783  1
  Si  Si30  1  0.721461  0.120347  0.251265  1
  Si  Si31  1  0.350957  0.965884  0.460661  1
  Si  Si32  1  0.850537  0.533969  0.460483  1
  Si  Si33  1  0.783961  0.620939  0.749363  1
  Si  Si34  1  0.221441  0.379385  0.251329  1
  Si  Si35  1  0.649546  0.034953  0.960133  1
