# generated using pymatgen
data_Ho4AlSe3
_symmetry_space_group_name_H-M   'P 1'
_cell_length_a   7.11575106
_cell_length_b   7.11575037
_cell_length_c   7.11575067
_cell_angle_alpha   131.83275444
_cell_angle_beta   131.83274586
_cell_angle_gamma   70.49330695
_symmetry_Int_Tables_number   1
_chemical_formula_structural   Ho4AlSe3
_chemical_formula_sum   'Ho4 Al1 Se3'
_cell_volume   195.99272786
_cell_formula_units_Z   1
loop_
 _symmetry_equiv_pos_site_id
 _symmetry_equiv_pos_as_xyz
  1  'x, y, z'
loop_
 _atom_site_type_symbol
 _atom_site_label
 _atom_site_symmetry_multiplicity
 _atom_site_fract_x
 _atom_site_fract_y
 _atom_site_fract_z
 _atom_site_occupancy
  Ho  Ho0  1  0.249988  0.249988  0.000000  1
  Ho  Ho1  1  0.750012  0.750012  0.000000  1
  Ho  Ho2  1  0.500000  0.000000  0.500000  1
  Ho  Ho3  1  0.000000  0.500000  0.500000  1
  Al  Al4  1  0.000000  0.000000  0.000000  1
  Se  Se5  1  0.500000  0.500000  0.000000  1
  Se  Se6  1  0.750000  0.250000  0.500000  1
  Se  Se7  1  0.250000  0.750000  0.500000  1
