# generated using pymatgen
data_Th2Zn13Ag4
_symmetry_space_group_name_H-M   'P 1'
_cell_length_a   6.95071807
_cell_length_b   6.95071842
_cell_length_c   6.95236896
_cell_angle_alpha   83.19105909
_cell_angle_beta   83.19105365
_cell_angle_gamma   82.99536679
_symmetry_Int_Tables_number   1
_chemical_formula_structural   Th2Zn13Ag4
_chemical_formula_sum   'Th2 Zn13 Ag4'
_cell_volume   329.17605535
_cell_formula_units_Z   1
loop_
 _symmetry_equiv_pos_site_id
 _symmetry_equiv_pos_as_xyz
  1  'x, y, z'
loop_
 _atom_site_type_symbol
 _atom_site_label
 _atom_site_symmetry_multiplicity
 _atom_site_fract_x
 _atom_site_fract_y
 _atom_site_fract_z
 _atom_site_occupancy
  Th  Th0  1  0.338973  0.338973  0.343158  1
  Th  Th1  1  0.661027  0.661027  0.656842  1
  Zn  Zn2  1  0.000000  0.000000  0.500000  1
  Zn  Zn3  1  0.000000  0.500000  0.000000  1
  Zn  Zn4  1  0.500000  0.000000  0.000000  1
  Zn  Zn5  1  0.708646  0.291354  0.000000  1
  Zn  Zn6  1  0.294346  0.997668  0.706401  1
  Zn  Zn7  1  0.002332  0.705654  0.293599  1
  Zn  Zn8  1  0.291354  0.708646  0.000000  1
  Zn  Zn9  1  0.705654  0.002332  0.293599  1
  Zn  Zn10  1  0.997668  0.294346  0.706401  1
  Zn  Zn11  1  0.156963  0.652993  0.647803  1
  Zn  Zn12  1  0.652993  0.156963  0.647803  1
  Zn  Zn13  1  0.347007  0.843037  0.352197  1
  Zn  Zn14  1  0.843037  0.347007  0.352197  1
  Ag  Ag15  1  0.646236  0.646236  0.161015  1
  Ag  Ag16  1  0.353764  0.353764  0.838985  1
  Ag  Ag17  1  0.102542  0.102542  0.110559  1
  Ag  Ag18  1  0.897458  0.897458  0.889441  1
