# generated using pymatgen
data_Nd4Sc4Re3B24Os
_symmetry_space_group_name_H-M   'P 1'
_cell_length_a   3.63852000
_cell_length_b   9.08402647
_cell_length_c   11.54326222
_cell_angle_alpha   90.03895845
_cell_angle_beta   90.00000000
_cell_angle_gamma   90.00000000
_symmetry_Int_Tables_number   1
_chemical_formula_structural   Nd4Sc4Re3B24Os
_chemical_formula_sum   'Nd4 Sc4 Re3 B24 Os1'
_cell_volume   381.53257057
_cell_formula_units_Z   1
loop_
 _symmetry_equiv_pos_site_id
 _symmetry_equiv_pos_as_xyz
  1  'x, y, z'
loop_
 _atom_site_type_symbol
 _atom_site_label
 _atom_site_symmetry_multiplicity
 _atom_site_fract_x
 _atom_site_fract_y
 _atom_site_fract_z
 _atom_site_occupancy
  Nd  Nd0  1  0.000000  0.320427  0.415107  1
  Nd  Nd1  1  0.000000  0.678988  0.586262  1
  Nd  Nd2  1  0.000000  0.821758  0.084485  1
  Nd  Nd3  1  0.000000  0.179036  0.914177  1
  Sc  Sc4  1  0.000000  0.944113  0.370076  1
  Sc  Sc5  1  0.000000  0.055816  0.629644  1
  Sc  Sc6  1  0.000000  0.442878  0.129472  1
  Sc  Sc7  1  0.000000  0.556395  0.870397  1
  Re  Re8  1  0.000000  0.359603  0.681887  1
  Re  Re9  1  0.000000  0.140972  0.183167  1
  Re  Re10  1  0.000000  0.859163  0.817417  1
  B  B11  1  0.500000  0.556276  0.429749  1
  B  B12  1  0.500000  0.444356  0.569922  1
  B  B13  1  0.500000  0.055668  0.069835  1
  B  B14  1  0.500000  0.944473  0.930028  1
  B  B15  1  0.500000  0.753893  0.415300  1
  B  B16  1  0.500000  0.245027  0.584316  1
  B  B17  1  0.500000  0.254696  0.084334  1
  B  B18  1  0.500000  0.745731  0.915840  1
  B  B19  1  0.500000  0.793297  0.265466  1
  B  B20  1  0.500000  0.205878  0.734362  1
  B  B21  1  0.500000  0.294230  0.234743  1
  B  B22  1  0.500000  0.705754  0.765826  1
  B  B23  1  0.500000  0.628084  0.183990  1
  B  B24  1  0.500000  0.372411  0.816093  1
  B  B25  1  0.500000  0.127985  0.316757  1
  B  B26  1  0.500000  0.872058  0.683574  1
  B  B27  1  0.500000  0.982413  0.215155  1
  B  B28  1  0.500000  0.017607  0.784581  1
  B  B29  1  0.500000  0.483421  0.285203  1
  B  B30  1  0.500000  0.517938  0.715137  1
  B  B31  1  0.500000  0.594248  0.025883  1
  B  B32  1  0.500000  0.405803  0.974860  1
  B  B33  1  0.500000  0.093590  0.474473  1
  B  B34  1  0.500000  0.905061  0.525217  1
  Os  Os35  1  0.000000  0.640953  0.317268  1
