# generated using pymatgen
data_DyFe2PC
_symmetry_space_group_name_H-M   'P 1'
_cell_length_a   5.49037540
_cell_length_b   5.49037506
_cell_length_c   6.67097400
_cell_angle_alpha   90.00000000
_cell_angle_beta   90.00000000
_cell_angle_gamma   38.98319675
_symmetry_Int_Tables_number   1
_chemical_formula_structural   DyFe2PC
_chemical_formula_sum   'Dy2 Fe4 P2 C2'
_cell_volume   126.50502398
_cell_formula_units_Z   2
loop_
 _symmetry_equiv_pos_site_id
 _symmetry_equiv_pos_as_xyz
  1  'x, y, z'
loop_
 _atom_site_type_symbol
 _atom_site_label
 _atom_site_symmetry_multiplicity
 _atom_site_fract_x
 _atom_site_fract_y
 _atom_site_fract_z
 _atom_site_occupancy
  Dy  Dy0  1  0.048743  0.048743  0.250000  1
  Dy  Dy1  1  0.951257  0.951257  0.749999  1
  Fe  Fe2  1  0.667447  0.667447  0.557157  1
  Fe  Fe3  1  0.332553  0.332553  0.057157  1
  Fe  Fe4  1  0.332553  0.332553  0.442844  1
  Fe  Fe5  1  0.667447  0.667447  0.942843  1
  P  P6  1  0.770195  0.770195  0.250000  1
  P  P7  1  0.229805  0.229805  0.749999  1
  C  C8  1  0.500000  0.500000  0.000000  1
  C  C9  1  0.500000  0.500000  0.499999  1
