# generated using pymatgen
data_Gd6Al24GaOs7
_symmetry_space_group_name_H-M   'P 1'
_cell_length_a   8.85909682
_cell_length_b   8.85909647
_cell_length_c   9.54906700
_cell_angle_alpha   90.07109672
_cell_angle_beta   89.92890329
_cell_angle_gamma   119.81144837
_symmetry_Int_Tables_number   1
_chemical_formula_structural   Gd6Al24GaOs7
_chemical_formula_sum   'Gd6 Al24 Ga1 Os7'
_cell_volume   650.26745663
_cell_formula_units_Z   1
loop_
 _symmetry_equiv_pos_site_id
 _symmetry_equiv_pos_as_xyz
  1  'x, y, z'
loop_
 _atom_site_type_symbol
 _atom_site_label
 _atom_site_symmetry_multiplicity
 _atom_site_fract_x
 _atom_site_fract_y
 _atom_site_fract_z
 _atom_site_occupancy
  Gd  Gd0  1  0.191816  0.383296  0.245788  1
  Gd  Gd1  1  0.808184  0.616704  0.754212  1
  Gd  Gd2  1  0.616704  0.808184  0.245788  1
  Gd  Gd3  1  0.383296  0.191816  0.754212  1
  Gd  Gd4  1  0.192773  0.807227  0.256021  1
  Gd  Gd5  1  0.807227  0.192773  0.743979  1
  Al  Al6  1  0.326913  0.673087  0.019578  1
  Al  Al7  1  0.673087  0.326913  0.980422  1
  Al  Al8  1  0.666349  0.333651  0.516177  1
  Al  Al9  1  0.333651  0.666349  0.483823  1
  Al  Al10  1  0.162538  0.325428  0.572291  1
  Al  Al11  1  0.837462  0.674572  0.427709  1
  Al  Al12  1  0.674572  0.837462  0.572291  1
  Al  Al13  1  0.852618  0.678792  0.081804  1
  Al  Al14  1  0.325428  0.162538  0.427709  1
  Al  Al15  1  0.147382  0.321208  0.918196  1
  Al  Al16  1  0.162810  0.837190  0.577629  1
  Al  Al17  1  0.321208  0.147382  0.081804  1
  Al  Al18  1  0.837190  0.162810  0.422371  1
  Al  Al19  1  0.678792  0.852618  0.918196  1
  Al  Al20  1  0.837171  0.162829  0.077199  1
  Al  Al21  1  0.162829  0.837171  0.922801  1
  Al  Al22  1  0.562082  0.121613  0.249245  1
  Al  Al23  1  0.437918  0.878387  0.750755  1
  Al  Al24  1  0.878387  0.437918  0.249245  1
  Al  Al25  1  0.121613  0.562082  0.750755  1
  Al  Al26  1  0.566043  0.433957  0.257921  1
  Al  Al27  1  0.433957  0.566043  0.742079  1
  Al  Al28  1  0.998331  0.001669  0.250879  1
  Al  Al29  1  0.001669  0.998331  0.749121  1
  Ga  Ga30  1  0.500000  0.500000  0.000000  1
  Os  Os31  1  0.500000  0.000000  0.000000  1
  Os  Os32  1  0.000000  0.500000  0.000000  1
  Os  Os33  1  0.500000  0.000000  0.500000  1
  Os  Os34  1  0.000000  0.500000  0.500000  1
  Os  Os35  1  0.500000  0.500000  0.500000  1
  Os  Os36  1  0.000000  0.000000  0.000000  1
  Os  Os37  1  0.000000  0.000000  0.500000  1
