# generated using pymatgen
data_Sc3Pa(Al3Ir)6
_symmetry_space_group_name_H-M   'P 1'
_cell_length_a   7.52603866
_cell_length_b   7.52472982
_cell_length_c   9.30743000
_cell_angle_alpha   90.00000000
_cell_angle_beta   90.00000000
_cell_angle_gamma   119.74843838
_symmetry_Int_Tables_number   1
_chemical_formula_structural   Sc3Pa(Al3Ir)6
_chemical_formula_sum   'Sc3 Pa1 Al18 Ir6'
_cell_volume   457.62852621
_cell_formula_units_Z   1
loop_
 _symmetry_equiv_pos_site_id
 _symmetry_equiv_pos_as_xyz
  1  'x, y, z'
loop_
 _atom_site_type_symbol
 _atom_site_label
 _atom_site_symmetry_multiplicity
 _atom_site_fract_x
 _atom_site_fract_y
 _atom_site_fract_z
 _atom_site_occupancy
  Sc  Sc0  1  0.004028  0.328606  0.750000  1
  Sc  Sc1  1  0.671790  0.995142  0.250000  1
  Sc  Sc2  1  0.329858  0.004470  0.750000  1
  Pa  Pa3  1  0.995175  0.670988  0.250000  1
  Al  Al4  1  0.129797  0.130617  0.250000  1
  Al  Al5  1  0.877689  0.880316  0.750000  1
  Al  Al6  1  0.998672  0.329068  0.072997  1
  Al  Al7  1  0.002541  0.664945  0.914870  1
  Al  Al8  1  0.002541  0.664945  0.585130  1
  Al  Al9  1  0.341340  0.004174  0.426889  1
  Al  Al10  1  0.998672  0.329068  0.427003  1
  Al  Al11  1  0.665444  0.003323  0.578808  1
  Al  Al12  1  0.665444  0.003323  0.921192  1
  Al  Al13  1  0.341340  0.004174  0.073111  1
  Al  Al14  1  0.329591  0.329699  0.564355  1
  Al  Al15  1  0.662313  0.667699  0.447038  1
  Al  Al16  1  0.662313  0.667699  0.052962  1
  Al  Al17  1  0.329591  0.329699  0.935645  1
  Al  Al18  1  0.341027  0.549232  0.250000  1
  Al  Al19  1  0.659057  0.444822  0.750000  1
  Al  Al20  1  0.545581  0.338333  0.250000  1
  Al  Al21  1  0.446194  0.661661  0.750000  1
  Ir  Ir22  1  0.674671  0.330564  0.001834  1
  Ir  Ir23  1  0.325458  0.671890  0.001493  1
  Ir  Ir24  1  0.325458  0.671890  0.498507  1
  Ir  Ir25  1  0.674671  0.330564  0.498166  1
  Ir  Ir26  1  0.999871  0.996545  0.002529  1
  Ir  Ir27  1  0.999871  0.996545  0.497471  1
