# generated using pymatgen
data_ErTmCo9P6Ru
_symmetry_space_group_name_H-M   'P 1'
_cell_length_a   3.65798500
_cell_length_b   10.30105100
_cell_length_c   11.72205800
_cell_angle_alpha   90.00000000
_cell_angle_beta   90.00000000
_cell_angle_gamma   90.00000000
_symmetry_Int_Tables_number   1
_chemical_formula_structural   ErTmCo9P6Ru
_chemical_formula_sum   'Er2 Tm2 Co18 P12 Ru2'
_cell_volume   441.69992298
_cell_formula_units_Z   2
loop_
 _symmetry_equiv_pos_site_id
 _symmetry_equiv_pos_as_xyz
  1  'x, y, z'
loop_
 _atom_site_type_symbol
 _atom_site_label
 _atom_site_symmetry_multiplicity
 _atom_site_fract_x
 _atom_site_fract_y
 _atom_site_fract_z
 _atom_site_occupancy
  Er  Er0  1  0.250000  0.582236  0.702267  1
  Er  Er1  1  0.250000  0.917764  0.202267  1
  Tm  Tm2  1  0.750000  0.414063  0.295446  1
  Tm  Tm3  1  0.750000  0.085937  0.795446  1
  Co  Co4  1  0.750000  0.283022  0.008118  1
  Co  Co5  1  0.750000  0.216978  0.508118  1
  Co  Co6  1  0.250000  0.406158  0.487011  1
  Co  Co7  1  0.250000  0.093842  0.987011  1
  Co  Co8  1  0.750000  0.590278  0.510677  1
  Co  Co9  1  0.750000  0.909722  0.010677  1
  Co  Co10  1  0.250000  0.220924  0.176809  1
  Co  Co11  1  0.250000  0.279076  0.676809  1
  Co  Co12  1  0.750000  0.778512  0.822821  1
  Co  Co13  1  0.750000  0.721488  0.322821  1
  Co  Co14  1  0.250000  0.887120  0.702193  1
  Co  Co15  1  0.250000  0.612880  0.202193  1
  Co  Co16  1  0.750000  0.116503  0.300687  1
  Co  Co17  1  0.750000  0.383497  0.800687  1
  Co  Co18  1  0.250000  0.464406  0.932292  1
  Co  Co19  1  0.250000  0.035594  0.432292  1
  Co  Co20  1  0.750000  0.532595  0.069497  1
  Co  Co21  1  0.750000  0.967405  0.569497  1
  P  P22  1  0.250000  0.417034  0.112794  1
  P  P23  1  0.250000  0.082966  0.612794  1
  P  P24  1  0.750000  0.578723  0.886727  1
  P  P25  1  0.750000  0.921277  0.386727  1
  P  P26  1  0.250000  0.269301  0.869039  1
  P  P27  1  0.250000  0.230699  0.369039  1
  P  P28  1  0.750000  0.729654  0.132830  1
  P  P29  1  0.750000  0.770346  0.632830  1
  P  P30  1  0.250000  0.593851  0.389911  1
  P  P31  1  0.250000  0.906149  0.889911  1
  P  P32  1  0.750000  0.397557  0.608866  1
  P  P33  1  0.750000  0.102443  0.108866  1
  Ru  Ru34  1  0.250000  0.715819  0.992014  1
  Ru  Ru35  1  0.250000  0.784181  0.492014  1
