# generated using pymatgen
data_Pa4ReB16Os3
_symmetry_space_group_name_H-M   'P 1'
_cell_length_a   5.99767700
_cell_length_b   11.64138439
_cell_length_c   3.61678200
_cell_angle_alpha   90.00000000
_cell_angle_beta   90.00000000
_cell_angle_gamma   90.02986778
_symmetry_Int_Tables_number   1
_chemical_formula_structural   Pa4ReB16Os3
_chemical_formula_sum   'Pa4 Re1 B16 Os3'
_cell_volume   252.52825455
_cell_formula_units_Z   1
loop_
 _symmetry_equiv_pos_site_id
 _symmetry_equiv_pos_as_xyz
  1  'x, y, z'
loop_
 _atom_site_type_symbol
 _atom_site_label
 _atom_site_symmetry_multiplicity
 _atom_site_fract_x
 _atom_site_fract_y
 _atom_site_fract_z
 _atom_site_occupancy
  Pa  Pa0  1  0.628474  0.349573  0.000000  1
  Pa  Pa1  1  0.371711  0.649604  0.000000  1
  Pa  Pa2  1  0.128217  0.149136  0.000000  1
  Pa  Pa3  1  0.871110  0.851307  0.000000  1
  Re  Re4  1  0.639208  0.093600  0.000000  1
  B  B5  1  0.788686  0.188583  0.500000  1
  B  B6  1  0.210064  0.811043  0.500000  1
  B  B7  1  0.288799  0.311671  0.500000  1
  B  B8  1  0.710819  0.688574  0.500000  1
  B  B9  1  0.865970  0.032671  0.500000  1
  B  B10  1  0.135298  0.968233  0.500000  1
  B  B11  1  0.365303  0.468020  0.500000  1
  B  B12  1  0.634766  0.532334  0.500000  1
  B  B13  1  0.886513  0.454361  0.500000  1
  B  B14  1  0.113214  0.545680  0.500000  1
  B  B15  1  0.387704  0.046450  0.500000  1
  B  B16  1  0.614825  0.955362  0.500000  1
  B  B17  1  0.972016  0.309160  0.500000  1
  B  B18  1  0.028373  0.691170  0.500000  1
  B  B19  1  0.471586  0.191495  0.500000  1
  B  B20  1  0.530918  0.809290  0.500000  1
  Os  Os21  1  0.355923  0.902598  0.000000  1
  Os  Os22  1  0.142165  0.403975  0.000000  1
  Os  Os23  1  0.858339  0.596110  0.000000  1
