# generated using pymatgen
data_K9Rb3Al3FeSe12
_symmetry_space_group_name_H-M   'P 1'
_cell_length_a   13.43424774
_cell_length_b   8.22835846
_cell_length_c   10.57053654
_cell_angle_alpha   52.52074565
_cell_angle_beta   89.68690730
_cell_angle_gamma   89.69455295
_symmetry_Int_Tables_number   1
_chemical_formula_structural   K9Rb3Al3FeSe12
_chemical_formula_sum   'K9 Rb3 Al3 Fe1 Se12'
_cell_volume   927.26311967
_cell_formula_units_Z   1
loop_
 _symmetry_equiv_pos_site_id
 _symmetry_equiv_pos_as_xyz
  1  'x, y, z'
loop_
 _atom_site_type_symbol
 _atom_site_label
 _atom_site_symmetry_multiplicity
 _atom_site_fract_x
 _atom_site_fract_y
 _atom_site_fract_z
 _atom_site_occupancy
  K  K0  1  0.898628  0.322808  0.399260  1
  K  K1  1  0.618308  0.376416  0.471168  1
  K  K2  1  0.118354  0.626537  0.029459  1
  K  K3  1  0.381584  0.621935  0.529602  1
  K  K4  1  0.882467  0.374889  0.971559  1
  K  K5  1  0.602368  0.320853  0.899104  1
  K  K6  1  0.102378  0.679010  0.599875  1
  K  K7  1  0.397935  0.678141  0.101449  1
  K  K8  1  0.188583  0.151964  0.574910  1
  Rb  Rb9  1  0.310999  0.152687  0.071710  1
  Rb  Rb10  1  0.687484  0.846690  0.928550  1
  Rb  Rb11  1  0.812812  0.846542  0.427799  1
  Al  Al12  1  0.561436  0.055767  0.342702  1
  Al  Al13  1  0.437202  0.945245  0.657093  1
  Al  Al14  1  0.938916  0.056361  0.842692  1
  Fe  Fe15  1  0.062146  0.942560  0.156895  1
  Se  Se16  1  0.400165  0.174646  0.368967  1
  Se  Se17  1  0.900109  0.826573  0.130225  1
  Se  Se18  1  0.598141  0.825599  0.631323  1
  Se  Se19  1  0.099557  0.173999  0.865751  1
  Se  Se20  1  0.684103  0.320789  0.200868  1
  Se  Se21  1  0.183930  0.674809  0.301901  1
  Se  Se22  1  0.313753  0.682544  0.797803  1
  Se  Se23  1  0.815745  0.321737  0.701357  1
  Se  Se24  1  0.547212  0.868981  0.238851  1
  Se  Se25  1  0.048451  0.130706  0.259673  1
  Se  Se26  1  0.452419  0.131040  0.761620  1
  Se  Se27  1  0.954814  0.870172  0.737831  1
