# generated using pymatgen
data_Zr8Nb12Ga15Si
_symmetry_space_group_name_H-M   'P 1'
_cell_length_a   7.07484583
_cell_length_b   7.09640065
_cell_length_c   12.98156351
_cell_angle_alpha   90.05523691
_cell_angle_beta   90.00088599
_cell_angle_gamma   90.05554395
_symmetry_Int_Tables_number   1
_chemical_formula_structural   Zr8Nb12Ga15Si
_chemical_formula_sum   'Zr8 Nb12 Ga15 Si1'
_cell_volume   651.75099737
_cell_formula_units_Z   1
loop_
 _symmetry_equiv_pos_site_id
 _symmetry_equiv_pos_as_xyz
  1  'x, y, z'
loop_
 _atom_site_type_symbol
 _atom_site_label
 _atom_site_symmetry_multiplicity
 _atom_site_fract_x
 _atom_site_fract_y
 _atom_site_fract_z
 _atom_site_occupancy
  Zr  Zr0  1  0.002137  0.664148  0.032205  1
  Zr  Zr1  1  0.001399  0.333353  0.534644  1
  Zr  Zr2  1  0.664724  0.001989  0.967376  1
  Zr  Zr3  1  0.163676  0.491975  0.780503  1
  Zr  Zr4  1  0.835198  0.503610  0.282826  1
  Zr  Zr5  1  0.497235  0.164098  0.217306  1
  Zr  Zr6  1  0.499146  0.839466  0.716631  1
  Zr  Zr7  1  0.333274  0.999643  0.471347  1
  Nb  Nb8  1  0.352347  0.509553  0.376651  1
  Nb  Nb9  1  0.853007  0.989804  0.374248  1
  Nb  Nb10  1  0.009822  0.147127  0.126234  1
  Nb  Nb11  1  0.995553  0.856421  0.627567  1
  Nb  Nb12  1  0.648504  0.491910  0.876237  1
  Nb  Nb13  1  0.503953  0.348099  0.623178  1
  Nb  Nb14  1  0.490046  0.647949  0.123145  1
  Nb  Nb15  1  0.148514  0.010890  0.870932  1
  Nb  Nb16  1  0.667996  0.668936  0.499744  1
  Nb  Nb17  1  0.835526  0.169784  0.748865  1
  Nb  Nb18  1  0.168185  0.830980  0.249951  1
  Nb  Nb19  1  0.331523  0.331323  0.999685  1
  Ga  Ga20  1  0.040288  0.694204  0.436114  1
  Ga  Ga21  1  0.958678  0.304431  0.935696  1
  Ga  Ga22  1  0.697152  0.040474  0.564418  1
  Ga  Ga23  1  0.194541  0.458982  0.185398  1
  Ga  Ga24  1  0.801189  0.542584  0.684110  1
  Ga  Ga25  1  0.461491  0.196431  0.814762  1
  Ga  Ga26  1  0.539241  0.806878  0.315516  1
  Ga  Ga27  1  0.304659  0.958795  0.063630  1
  Ga  Ga28  1  0.864792  0.789713  0.825158  1
  Ga  Ga29  1  0.136104  0.208893  0.326031  1
  Ga  Ga30  1  0.790240  0.864336  0.174453  1
  Ga  Ga31  1  0.290801  0.635002  0.575368  1
  Ga  Ga32  1  0.709816  0.364574  0.075925  1
  Ga  Ga33  1  0.636288  0.290195  0.424449  1
  Ga  Ga34  1  0.362605  0.708789  0.922824  1
  Si  Si35  1  0.210350  0.134661  0.676874  1
