# generated using pymatgen
data_Lu3Zn3NiHg2
_symmetry_space_group_name_H-M   'P 1'
_cell_length_a   7.53316900
_cell_length_b   7.53316812
_cell_length_c   3.67843500
_cell_angle_alpha   90.00000000
_cell_angle_beta   90.00000000
_cell_angle_gamma   119.99999946
_symmetry_Int_Tables_number   1
_chemical_formula_structural   Lu3Zn3NiHg2
_chemical_formula_sum   'Lu3 Zn3 Ni1 Hg2'
_cell_volume   180.77946249
_cell_formula_units_Z   1
loop_
 _symmetry_equiv_pos_site_id
 _symmetry_equiv_pos_as_xyz
  1  'x, y, z'
loop_
 _atom_site_type_symbol
 _atom_site_label
 _atom_site_symmetry_multiplicity
 _atom_site_fract_x
 _atom_site_fract_y
 _atom_site_fract_z
 _atom_site_occupancy
  Lu  Lu0  1  0.573921  0.607587  0.000000  1
  Lu  Lu1  1  0.392413  0.966333  0.000000  1
  Lu  Lu2  1  0.033667  0.426079  0.000000  1
  Zn  Zn3  1  0.272868  0.285853  0.500000  1
  Zn  Zn4  1  0.714147  0.987015  0.500000  1
  Zn  Zn5  1  0.012985  0.727132  0.500000  1
  Ni  Ni6  1  0.333333  0.666667  0.500000  1
  Hg  Hg7  1  0.000000  0.000000  0.000000  1
  Hg  Hg8  1  0.666667  0.333333  0.500000  1
