# generated using pymatgen
data_Nd12GaSi7Ni4
_symmetry_space_group_name_H-M   'P 1'
_cell_length_a   4.22457400
_cell_length_b   11.75447644
_cell_length_c   11.78402705
_cell_angle_alpha   89.84702444
_cell_angle_beta   90.00000000
_cell_angle_gamma   90.00000000
_symmetry_Int_Tables_number   1
_chemical_formula_structural   Nd12GaSi7Ni4
_chemical_formula_sum   'Nd12 Ga1 Si7 Ni4'
_cell_volume   585.16507032
_cell_formula_units_Z   1
loop_
 _symmetry_equiv_pos_site_id
 _symmetry_equiv_pos_as_xyz
  1  'x, y, z'
loop_
 _atom_site_type_symbol
 _atom_site_label
 _atom_site_symmetry_multiplicity
 _atom_site_fract_x
 _atom_site_fract_y
 _atom_site_fract_z
 _atom_site_occupancy
  Nd  Nd0  1  0.250000  0.375089  0.063401  1
  Nd  Nd1  1  0.750000  0.629113  0.948118  1
  Nd  Nd2  1  0.750000  0.877018  0.439969  1
  Nd  Nd3  1  0.250000  0.122155  0.559316  1
  Nd  Nd4  1  0.250000  0.698199  0.213375  1
  Nd  Nd5  1  0.750000  0.299284  0.784836  1
  Nd  Nd6  1  0.750000  0.196267  0.288031  1
  Nd  Nd7  1  0.250000  0.801298  0.712362  1
  Nd  Nd8  1  0.250000  0.442246  0.383473  1
  Nd  Nd9  1  0.750000  0.555235  0.610308  1
  Nd  Nd10  1  0.750000  0.943138  0.115911  1
  Nd  Nd11  1  0.250000  0.058462  0.883675  1
  Ga  Ga12  1  0.250000  0.494759  0.803557  1
  Si  Si13  1  0.250000  0.688669  0.470169  1
  Si  Si14  1  0.750000  0.310152  0.526774  1
  Si  Si15  1  0.750000  0.185624  0.029617  1
  Si  Si16  1  0.250000  0.815709  0.970072  1
  Si  Si17  1  0.250000  0.009014  0.299925  1
  Si  Si18  1  0.750000  0.989641  0.699507  1
  Si  Si19  1  0.750000  0.510552  0.201067  1
  Ni  Ni20  1  0.250000  0.134071  0.129995  1
  Ni  Ni21  1  0.750000  0.867457  0.870261  1
  Ni  Ni22  1  0.750000  0.635668  0.371043  1
  Ni  Ni23  1  0.250000  0.361178  0.625238  1
