# generated using pymatgen
data_Sm3Lu(Si5Os3)2
_symmetry_space_group_name_H-M   'P 1'
_cell_length_a   8.16154113
_cell_length_b   8.17874582
_cell_length_c   5.83183786
_cell_angle_alpha   70.45996872
_cell_angle_beta   70.46157427
_cell_angle_gamma   93.83301244
_symmetry_Int_Tables_number   1
_chemical_formula_structural   Sm3Lu(Si5Os3)2
_chemical_formula_sum   'Sm3 Lu1 Si10 Os6'
_cell_volume   338.66629107
_cell_formula_units_Z   1
loop_
 _symmetry_equiv_pos_site_id
 _symmetry_equiv_pos_as_xyz
  1  'x, y, z'
loop_
 _atom_site_type_symbol
 _atom_site_label
 _atom_site_symmetry_multiplicity
 _atom_site_fract_x
 _atom_site_fract_y
 _atom_site_fract_z
 _atom_site_occupancy
  Sm  Sm0  1  0.399131  0.131583  0.745426  1
  Sm  Sm1  1  0.131667  0.397878  0.246288  1
  Sm  Sm2  1  0.601302  0.868144  0.254725  1
  Lu  Lu3  1  0.867923  0.602504  0.753963  1
  Si  Si4  1  0.064496  0.259870  0.836428  1
  Si  Si5  1  0.738802  0.931402  0.666498  1
  Si  Si6  1  0.934334  0.739338  0.165277  1
  Si  Si7  1  0.263072  0.066232  0.334468  1
  Si  Si8  1  0.205619  0.791572  0.748350  1
  Si  Si9  1  0.791600  0.205633  0.255475  1
  Si  Si10  1  0.514837  0.489851  0.746093  1
  Si  Si11  1  0.488132  0.512521  0.250591  1
  Si  Si12  1  0.774440  0.228155  0.747473  1
  Si  Si13  1  0.224236  0.774162  0.252914  1
  Os  Os14  1  0.252909  0.542345  0.632057  1
  Os  Os15  1  0.455143  0.742300  0.870558  1
  Os  Os16  1  0.745490  0.459395  0.364318  1
  Os  Os17  1  0.546530  0.259364  0.127859  1
  Os  Os18  1  0.002253  0.996471  0.750311  1
  Os  Os19  1  0.998085  0.001276  0.250926  1
