# generated using pymatgen
data_Ho16In4Ir2PdRh
_symmetry_space_group_name_H-M   'P 1'
_cell_length_a   9.66023842
_cell_length_b   9.65412425
_cell_length_c   9.64792399
_cell_angle_alpha   59.91753854
_cell_angle_beta   59.95776782
_cell_angle_gamma   59.97905246
_symmetry_Int_Tables_number   1
_chemical_formula_structural   Ho16In4Ir2PdRh
_chemical_formula_sum   'Ho16 In4 Ir2 Pd1 Rh1'
_cell_volume   635.53711212
_cell_formula_units_Z   1
loop_
 _symmetry_equiv_pos_site_id
 _symmetry_equiv_pos_as_xyz
  1  'x, y, z'
loop_
 _atom_site_type_symbol
 _atom_site_label
 _atom_site_symmetry_multiplicity
 _atom_site_fract_x
 _atom_site_fract_y
 _atom_site_fract_z
 _atom_site_occupancy
  Ho  Ho0  1  0.188869  0.187864  0.810928  1
  Ho  Ho1  1  0.602616  0.597339  0.197431  1
  Ho  Ho2  1  0.440137  0.064310  0.439613  1
  Ho  Ho3  1  0.439951  0.439169  0.060508  1
  Ho  Ho4  1  0.812339  0.187864  0.810928  1
  Ho  Ho5  1  0.188667  0.809131  0.188492  1
  Ho  Ho6  1  0.439802  0.064811  0.055585  1
  Ho  Ho7  1  0.187442  0.810973  0.814144  1
  Ho  Ho8  1  0.060371  0.439169  0.060508  1
  Ho  Ho9  1  0.813709  0.809131  0.188492  1
  Ho  Ho10  1  0.199081  0.596618  0.602463  1
  Ho  Ho11  1  0.060347  0.439395  0.439910  1
  Ho  Ho12  1  0.055940  0.064310  0.439613  1
  Ho  Ho13  1  0.810454  0.189087  0.190005  1
  Ho  Ho14  1  0.599047  0.202130  0.599777  1
  Ho  Ho15  1  0.601839  0.596618  0.602463  1
  In  In16  1  0.833224  0.833418  0.833134  1
  In  In17  1  0.833103  0.833386  0.500409  1
  In  In18  1  0.500224  0.833418  0.833134  1
  In  In19  1  0.833160  0.500580  0.833099  1
  Ir  Ir20  1  0.391840  0.393325  0.391668  1
  Ir  Ir21  1  0.823167  0.393325  0.391668  1
  Pd  Pd22  1  0.392823  0.821768  0.392584  1
  Rh  Rh23  1  0.391847  0.392866  0.823440  1
