# generated using pymatgen
data_Dy8Ti3Nb(Si2W)8
_symmetry_space_group_name_H-M   'P 1'
_cell_length_a   6.92168576
_cell_length_b   6.92168530
_cell_length_c   12.82936334
_cell_angle_alpha   90.04452558
_cell_angle_beta   89.95547605
_cell_angle_gamma   89.91068429
_symmetry_Int_Tables_number   1
_chemical_formula_structural   Dy8Ti3Nb(Si2W)8
_chemical_formula_sum   'Dy8 Ti3 Nb1 Si16 W8'
_cell_volume   614.65022224
_cell_formula_units_Z   1
loop_
 _symmetry_equiv_pos_site_id
 _symmetry_equiv_pos_as_xyz
  1  'x, y, z'
loop_
 _atom_site_type_symbol
 _atom_site_label
 _atom_site_symmetry_multiplicity
 _atom_site_fract_x
 _atom_site_fract_y
 _atom_site_fract_z
 _atom_site_occupancy
  Dy  Dy0  1  0.997803  0.659800  0.031289  1
  Dy  Dy1  1  0.001917  0.340253  0.531118  1
  Dy  Dy2  1  0.659800  0.997803  0.968711  1
  Dy  Dy3  1  0.160226  0.502358  0.781792  1
  Dy  Dy4  1  0.839850  0.498870  0.281505  1
  Dy  Dy5  1  0.502358  0.160226  0.218208  1
  Dy  Dy6  1  0.498870  0.839850  0.718495  1
  Dy  Dy7  1  0.340253  0.001917  0.468882  1
  Ti  Ti8  1  0.830426  0.169166  0.750103  1
  Ti  Ti9  1  0.169166  0.830426  0.249897  1
  Ti  Ti10  1  0.330103  0.330103  0.000000  1
  Nb  Nb11  1  0.669659  0.669659  0.500000  1
  Si  Si12  1  0.043171  0.711428  0.435594  1
  Si  Si13  1  0.958363  0.289236  0.936550  1
  Si  Si14  1  0.711428  0.043171  0.564406  1
  Si  Si15  1  0.210249  0.458814  0.186189  1
  Si  Si16  1  0.790203  0.540014  0.687959  1
  Si  Si17  1  0.458814  0.210249  0.813811  1
  Si  Si18  1  0.540014  0.790203  0.312041  1
  Si  Si19  1  0.289236  0.958363  0.063450  1
  Si  Si20  1  0.800291  0.871317  0.182631  1
  Si  Si21  1  0.297459  0.627800  0.568042  1
  Si  Si22  1  0.700738  0.371340  0.066785  1
  Si  Si23  1  0.627800  0.297459  0.431958  1
  Si  Si24  1  0.371340  0.700738  0.933215  1
  Si  Si25  1  0.128424  0.201137  0.316405  1
  Si  Si26  1  0.201137  0.128424  0.683595  1
  Si  Si27  1  0.871317  0.800291  0.817369  1
  W  W28  1  0.338751  0.505175  0.375545  1
  W  W29  1  0.840742  0.994756  0.373741  1
  W  W30  1  0.006505  0.160113  0.125680  1
  W  W31  1  0.994756  0.840742  0.626259  1
  W  W32  1  0.505175  0.338751  0.624455  1
  W  W33  1  0.160113  0.006505  0.874320  1
  W  W34  1  0.493799  0.659743  0.123888  1
  W  W35  1  0.659743  0.493799  0.876112  1
