# generated using pymatgen
data_HoTmMnB6
_symmetry_space_group_name_H-M   'P 1'
_cell_length_a   3.52973300
_cell_length_b   9.06535400
_cell_length_c   11.43779800
_cell_angle_alpha   90.00000000
_cell_angle_beta   90.00000000
_cell_angle_gamma   90.00000000
_symmetry_Int_Tables_number   1
_chemical_formula_structural   HoTmMnB6
_chemical_formula_sum   'Ho4 Tm4 Mn4 B24'
_cell_volume   365.98985350
_cell_formula_units_Z   4
loop_
 _symmetry_equiv_pos_site_id
 _symmetry_equiv_pos_as_xyz
  1  'x, y, z'
loop_
 _atom_site_type_symbol
 _atom_site_label
 _atom_site_symmetry_multiplicity
 _atom_site_fract_x
 _atom_site_fract_y
 _atom_site_fract_z
 _atom_site_occupancy
  Ho  Ho0  1  0.000000  0.323430  0.414854  1
  Ho  Ho1  1  0.000000  0.676570  0.585146  1
  Ho  Ho2  1  0.000000  0.823430  0.085146  1
  Ho  Ho3  1  0.000000  0.176570  0.914854  1
  Tm  Tm4  1  0.000000  0.942279  0.368602  1
  Tm  Tm5  1  0.000000  0.057721  0.631398  1
  Tm  Tm6  1  0.000000  0.442279  0.131398  1
  Tm  Tm7  1  0.000000  0.557721  0.868602  1
  Mn  Mn8  1  0.000000  0.639303  0.319691  1
  Mn  Mn9  1  0.000000  0.360697  0.680309  1
  Mn  Mn10  1  0.000000  0.139303  0.180309  1
  Mn  Mn11  1  0.000000  0.860697  0.819691  1
  B  B12  1  0.500000  0.554132  0.432027  1
  B  B13  1  0.500000  0.445868  0.567973  1
  B  B14  1  0.500000  0.054132  0.067973  1
  B  B15  1  0.500000  0.945868  0.932027  1
  B  B16  1  0.500000  0.747730  0.417602  1
  B  B17  1  0.500000  0.252270  0.582398  1
  B  B18  1  0.500000  0.247730  0.082398  1
  B  B19  1  0.500000  0.752270  0.917602  1
  B  B20  1  0.500000  0.790535  0.264948  1
  B  B21  1  0.500000  0.209465  0.735052  1
  B  B22  1  0.500000  0.290535  0.235052  1
  B  B23  1  0.500000  0.709465  0.764948  1
  B  B24  1  0.500000  0.630873  0.185948  1
  B  B25  1  0.500000  0.369127  0.814052  1
  B  B26  1  0.500000  0.130873  0.314052  1
  B  B27  1  0.500000  0.869127  0.685948  1
  B  B28  1  0.500000  0.984170  0.211380  1
  B  B29  1  0.500000  0.015830  0.788620  1
  B  B30  1  0.500000  0.484170  0.288620  1
  B  B31  1  0.500000  0.515830  0.711380  1
  B  B32  1  0.500000  0.601441  0.027998  1
  B  B33  1  0.500000  0.398559  0.972002  1
  B  B34  1  0.500000  0.101441  0.472002  1
  B  B35  1  0.500000  0.898559  0.527998  1
