# generated using pymatgen
data_Y3HoCdPt
_symmetry_space_group_name_H-M   'P 1'
_cell_length_a   9.69884325
_cell_length_b   9.69884350
_cell_length_c   9.69884300
_cell_angle_alpha   60.00000512
_cell_angle_beta   60.00000426
_cell_angle_gamma   60.00000370
_symmetry_Int_Tables_number   1
_chemical_formula_structural   Y3HoCdPt
_chemical_formula_sum   'Y12 Ho4 Cd4 Pt4'
_cell_volume   645.12647691
_cell_formula_units_Z   4
loop_
 _symmetry_equiv_pos_site_id
 _symmetry_equiv_pos_as_xyz
  1  'x, y, z'
loop_
 _atom_site_type_symbol
 _atom_site_label
 _atom_site_symmetry_multiplicity
 _atom_site_fract_x
 _atom_site_fract_y
 _atom_site_fract_z
 _atom_site_occupancy
  Y  Y0  1  0.809914  0.190086  0.190086  1
  Y  Y1  1  0.190086  0.809914  0.809914  1
  Y  Y2  1  0.190086  0.809914  0.190086  1
  Y  Y3  1  0.809914  0.190086  0.809914  1
  Y  Y4  1  0.190086  0.190086  0.809914  1
  Y  Y5  1  0.809914  0.809914  0.190086  1
  Y  Y6  1  0.935719  0.564281  0.564281  1
  Y  Y7  1  0.564281  0.935719  0.935719  1
  Y  Y8  1  0.564281  0.935719  0.564281  1
  Y  Y9  1  0.935719  0.564281  0.935719  1
  Y  Y10  1  0.564281  0.564281  0.935719  1
  Y  Y11  1  0.935719  0.935719  0.564281  1
  Ho  Ho12  1  0.352146  0.352146  0.352146  1
  Ho  Ho13  1  0.352146  0.352146  0.943563  1
  Ho  Ho14  1  0.352146  0.943563  0.352146  1
  Ho  Ho15  1  0.943563  0.352146  0.352146  1
  Cd  Cd16  1  0.581838  0.581838  0.581838  1
  Cd  Cd17  1  0.581838  0.581838  0.254487  1
  Cd  Cd18  1  0.581838  0.254487  0.581838  1
  Cd  Cd19  1  0.254487  0.581838  0.581838  1
  Pt  Pt20  1  0.143961  0.143961  0.143961  1
  Pt  Pt21  1  0.143961  0.143961  0.568117  1
  Pt  Pt22  1  0.143961  0.568117  0.143961  1
  Pt  Pt23  1  0.568117  0.143961  0.143961  1
