# generated using pymatgen
data_Ho4FeTc5Ge8
_symmetry_space_group_name_H-M   'P 1'
_cell_length_a   6.88245622
_cell_length_b   6.93535654
_cell_length_c   6.90105584
_cell_angle_alpha   69.46009752
_cell_angle_beta   90.07922066
_cell_angle_gamma   90.28253811
_symmetry_Int_Tables_number   1
_chemical_formula_structural   Ho4FeTc5Ge8
_chemical_formula_sum   'Ho4 Fe1 Tc5 Ge8'
_cell_volume   308.45861481
_cell_formula_units_Z   1
loop_
 _symmetry_equiv_pos_site_id
 _symmetry_equiv_pos_as_xyz
  1  'x, y, z'
loop_
 _atom_site_type_symbol
 _atom_site_label
 _atom_site_symmetry_multiplicity
 _atom_site_fract_x
 _atom_site_fract_y
 _atom_site_fract_z
 _atom_site_occupancy
  Ho  Ho0  1  0.670996  0.445544  0.193470  1
  Ho  Ho1  1  0.170571  0.055086  0.803960  1
  Ho  Ho2  1  0.329168  0.548694  0.812008  1
  Ho  Ho3  1  0.830463  0.948263  0.191181  1
  Fe  Fe4  1  0.360630  0.741488  0.236212  1
  Tc  Tc5  1  0.501542  0.994154  0.501363  1
  Tc  Tc6  1  0.996630  0.506743  0.499031  1
  Tc  Tc7  1  0.145772  0.245222  0.239381  1
  Tc  Tc8  1  0.641463  0.253325  0.757075  1
  Tc  Tc9  1  0.855693  0.759711  0.767980  1
  Ge  Ge10  1  0.442431  0.123837  0.105654  1
  Ge  Ge11  1  0.941925  0.370532  0.897330  1
  Ge  Ge12  1  0.549736  0.863153  0.903145  1
  Ge  Ge13  1  0.062106  0.635622  0.106565  1
  Ge  Ge14  1  0.855729  0.135509  0.512171  1
  Ge  Ge15  1  0.351780  0.374086  0.480093  1
  Ge  Ge16  1  0.150666  0.861553  0.481178  1
  Ge  Ge17  1  0.642701  0.637476  0.512202  1
