# generated using pymatgen
data_HoTm7Lu2(In2Pt)4
_symmetry_space_group_name_H-M   'P 1'
_cell_length_a   3.60896600
_cell_length_b   8.05365706
_cell_length_c   18.05462603
_cell_angle_alpha   90.00376199
_cell_angle_beta   90.00022535
_cell_angle_gamma   89.99927201
_symmetry_Int_Tables_number   1
_chemical_formula_structural   HoTm7Lu2(In2Pt)4
_chemical_formula_sum   'Ho1 Tm7 Lu2 In8 Pt4'
_cell_volume   524.76446625
_cell_formula_units_Z   1
loop_
 _symmetry_equiv_pos_site_id
 _symmetry_equiv_pos_as_xyz
  1  'x, y, z'
loop_
 _atom_site_type_symbol
 _atom_site_label
 _atom_site_symmetry_multiplicity
 _atom_site_fract_x
 _atom_site_fract_y
 _atom_site_fract_z
 _atom_site_occupancy
  Ho  Ho0  1  0.000000  0.500000  0.500000  1
  Tm  Tm1  1  0.000008  0.383091  0.914265  1
  Tm  Tm2  1  0.999992  0.616909  0.085735  1
  Tm  Tm3  1  0.999997  0.243450  0.221026  1
  Tm  Tm4  1  0.000003  0.756550  0.778974  1
  Tm  Tm5  1  0.000011  0.256585  0.720541  1
  Tm  Tm6  1  0.999989  0.743415  0.279459  1
  Tm  Tm7  1  0.000000  0.000000  0.000000  1
  Lu  Lu8  1  0.000017  0.116741  0.414048  1
  Lu  Lu9  1  0.999983  0.883259  0.585952  1
  In  In10  1  0.500009  0.421991  0.351630  1
  In  In11  1  0.499991  0.578009  0.648370  1
  In  In12  1  0.499983  0.076317  0.851459  1
  In  In13  1  0.500017  0.923683  0.148541  1
  In  In14  1  0.500017  0.291917  0.066560  1
  In  In15  1  0.499983  0.708083  0.933440  1
  In  In16  1  0.500000  0.205192  0.565796  1
  In  In17  1  0.500000  0.794808  0.434204  1
  Pt  Pt18  1  0.500019  0.025364  0.304865  1
  Pt  Pt19  1  0.499981  0.974636  0.695135  1
  Pt  Pt20  1  0.499999  0.474549  0.804135  1
  Pt  Pt21  1  0.500001  0.525451  0.195865  1
