# generated using pymatgen
data_SmTh7MnS17
_symmetry_space_group_name_H-M   'P 1'
_cell_length_a   8.04874041
_cell_length_b   8.02355684
_cell_length_c   10.64987300
_cell_angle_alpha   80.61245040
_cell_angle_beta   80.59389039
_cell_angle_gamma   64.84094600
_symmetry_Int_Tables_number   1
_chemical_formula_structural   SmTh7MnS17
_chemical_formula_sum   'Sm1 Th7 Mn1 S17'
_cell_volume   610.76098377
_cell_formula_units_Z   1
loop_
 _symmetry_equiv_pos_site_id
 _symmetry_equiv_pos_as_xyz
  1  'x, y, z'
loop_
 _atom_site_type_symbol
 _atom_site_label
 _atom_site_symmetry_multiplicity
 _atom_site_fract_x
 _atom_site_fract_y
 _atom_site_fract_z
 _atom_site_occupancy
  Sm  Sm0  1  0.813099  0.304856  0.296762  1
  Th  Th1  1  0.303064  0.813188  0.293260  1
  Th  Th2  1  0.185672  0.696806  0.704641  1
  Th  Th3  1  0.696967  0.187456  0.703615  1
  Th  Th4  1  0.205654  0.205012  0.543874  1
  Th  Th5  1  0.793930  0.795613  0.452441  1
  Th  Th6  1  0.683938  0.679680  0.978536  1
  Th  Th7  1  0.316727  0.316963  0.025363  1
  Mn  Mn8  1  0.999121  0.002830  0.001292  1
  S  S9  1  0.824876  0.430537  0.534125  1
  S  S10  1  0.431137  0.820880  0.532368  1
  S  S11  1  0.176704  0.568979  0.467232  1
  S  S12  1  0.570138  0.175812  0.469653  1
  S  S13  1  0.946785  0.321198  0.026630  1
  S  S14  1  0.323970  0.944991  0.027430  1
  S  S15  1  0.053950  0.678875  0.971850  1
  S  S16  1  0.676600  0.056034  0.970131  1
  S  S17  1  0.211466  0.205565  0.280116  1
  S  S18  1  0.791384  0.790398  0.720549  1
  S  S19  1  0.056563  0.055752  0.779660  1
  S  S20  1  0.943966  0.945487  0.221137  1
  S  S21  1  0.302584  0.302667  0.756146  1
  S  S22  1  0.694127  0.700512  0.242990  1
  S  S23  1  0.518804  0.521468  0.831515  1
  S  S24  1  0.477282  0.482093  0.165377  1
  S  S25  1  0.001491  0.996349  0.503307  1
