# generated using pymatgen
data_NaSm6ZnBr12
_symmetry_space_group_name_H-M   'P 1'
_cell_length_a   9.39345395
_cell_length_b   9.39331183
_cell_length_c   9.39315367
_cell_angle_alpha   107.06588415
_cell_angle_beta   107.06000215
_cell_angle_gamma   107.05504293
_symmetry_Int_Tables_number   1
_chemical_formula_structural   NaSm6ZnBr12
_chemical_formula_sum   'Na1 Sm6 Zn1 Br12'
_cell_volume   689.10295680
_cell_formula_units_Z   1
loop_
 _symmetry_equiv_pos_site_id
 _symmetry_equiv_pos_as_xyz
  1  'x, y, z'
loop_
 _atom_site_type_symbol
 _atom_site_label
 _atom_site_symmetry_multiplicity
 _atom_site_fract_x
 _atom_site_fract_y
 _atom_site_fract_z
 _atom_site_occupancy
  Na  Na0  1  0.500000  0.500000  0.500000  1
  Sm  Sm1  1  0.112489  0.328378  0.033009  1
  Sm  Sm2  1  0.328396  0.033031  0.112513  1
  Sm  Sm3  1  0.032987  0.112348  0.328443  1
  Sm  Sm4  1  0.967014  0.887652  0.671558  1
  Sm  Sm5  1  0.671604  0.966970  0.887487  1
  Sm  Sm6  1  0.887511  0.671622  0.966991  1
  Zn  Zn7  1  0.000000  0.000000  0.000000  1
  Br  Br8  1  0.222473  0.685391  0.074140  1
  Br  Br9  1  0.453453  0.373381  0.152207  1
  Br  Br10  1  0.685477  0.074270  0.222506  1
  Br  Br11  1  0.925798  0.777407  0.314547  1
  Br  Br12  1  0.152227  0.453497  0.373479  1
  Br  Br13  1  0.373375  0.152263  0.453584  1
  Br  Br14  1  0.626625  0.847737  0.546417  1
  Br  Br15  1  0.847774  0.546503  0.626521  1
  Br  Br16  1  0.074203  0.222593  0.685454  1
  Br  Br17  1  0.314524  0.925731  0.777494  1
  Br  Br18  1  0.546547  0.626619  0.847794  1
  Br  Br19  1  0.777527  0.314609  0.925860  1
