# generated using pymatgen
data_Lu12Tl2Fe3
_symmetry_space_group_name_H-M   'P 1'
_cell_length_a   8.18406204
_cell_length_b   8.18365074
_cell_length_c   8.18406323
_cell_angle_alpha   108.45502402
_cell_angle_beta   108.45740229
_cell_angle_gamma   111.52299716
_symmetry_Int_Tables_number   1
_chemical_formula_structural   Lu12Tl2Fe3
_chemical_formula_sum   'Lu12 Tl2 Fe3'
_cell_volume   421.53400723
_cell_formula_units_Z   1
loop_
 _symmetry_equiv_pos_site_id
 _symmetry_equiv_pos_as_xyz
  1  'x, y, z'
loop_
 _atom_site_type_symbol
 _atom_site_label
 _atom_site_symmetry_multiplicity
 _atom_site_fract_x
 _atom_site_fract_y
 _atom_site_fract_z
 _atom_site_occupancy
  Lu  Lu0  1  0.308992  0.308989  0.617977  1
  Lu  Lu1  1  0.691008  0.691011  0.382023  1
  Lu  Lu2  1  0.691012  0.308989  0.999997  1
  Lu  Lu3  1  0.308988  0.691011  0.000003  1
  Lu  Lu4  1  0.189667  0.425229  0.235561  1
  Lu  Lu5  1  0.810333  0.574771  0.764439  1
  Lu  Lu6  1  0.189644  0.954133  0.764490  1
  Lu  Lu7  1  0.954117  0.189672  0.764467  1
  Lu  Lu8  1  0.810356  0.045867  0.235510  1
  Lu  Lu9  1  0.045883  0.810328  0.235533  1
  Lu  Lu10  1  0.425205  0.189672  0.235553  1
  Lu  Lu11  1  0.574795  0.810328  0.764447  1
  Tl  Tl12  1  0.000000  0.500000  0.500000  1
  Tl  Tl13  1  0.500000  0.000000  0.500000  1
  Fe  Fe14  1  0.383029  0.382945  0.999917  1
  Fe  Fe15  1  0.616971  0.617055  0.000083  1
  Fe  Fe16  1  0.000000  0.000000  0.000000  1
