# generated using pymatgen
data_Tb3Dy7Cd3Co
_symmetry_space_group_name_H-M   'P 1'
_cell_length_a   9.58706900
_cell_length_b   9.58706935
_cell_length_c   9.79738800
_cell_angle_alpha   90.00000000
_cell_angle_beta   90.00000000
_cell_angle_gamma   119.99999533
_symmetry_Int_Tables_number   1
_chemical_formula_structural   Tb3Dy7Cd3Co
_chemical_formula_sum   'Tb6 Dy14 Cd6 Co2'
_cell_volume   779.85288275
_cell_formula_units_Z   2
loop_
 _symmetry_equiv_pos_site_id
 _symmetry_equiv_pos_as_xyz
  1  'x, y, z'
loop_
 _atom_site_type_symbol
 _atom_site_label
 _atom_site_symmetry_multiplicity
 _atom_site_fract_x
 _atom_site_fract_y
 _atom_site_fract_z
 _atom_site_occupancy
  Tb  Tb0  1  0.542774  0.457226  0.250000  1
  Tb  Tb1  1  0.542774  0.085548  0.250000  1
  Tb  Tb2  1  0.914452  0.457226  0.250000  1
  Tb  Tb3  1  0.457226  0.542774  0.750000  1
  Tb  Tb4  1  0.457226  0.914452  0.750000  1
  Tb  Tb5  1  0.085548  0.542774  0.750000  1
  Dy  Dy6  1  0.000000  0.000000  0.500000  1
  Dy  Dy7  1  0.000000  0.000000  0.000000  1
  Dy  Dy8  1  0.211936  0.788064  0.435999  1
  Dy  Dy9  1  0.211936  0.423873  0.435999  1
  Dy  Dy10  1  0.576127  0.788064  0.435999  1
  Dy  Dy11  1  0.788064  0.211936  0.564001  1
  Dy  Dy12  1  0.788064  0.576127  0.564001  1
  Dy  Dy13  1  0.423873  0.211936  0.564001  1
  Dy  Dy14  1  0.788064  0.211936  0.935999  1
  Dy  Dy15  1  0.788064  0.576127  0.935999  1
  Dy  Dy16  1  0.423873  0.211936  0.935999  1
  Dy  Dy17  1  0.211936  0.788064  0.064001  1
  Dy  Dy18  1  0.211936  0.423873  0.064001  1
  Dy  Dy19  1  0.576127  0.788064  0.064001  1
  Cd  Cd20  1  0.885426  0.114574  0.250000  1
  Cd  Cd21  1  0.885426  0.770852  0.250000  1
  Cd  Cd22  1  0.229148  0.114574  0.250000  1
  Cd  Cd23  1  0.114574  0.885426  0.750000  1
  Cd  Cd24  1  0.114574  0.229148  0.750000  1
  Cd  Cd25  1  0.770852  0.885426  0.750000  1
  Co  Co26  1  0.333333  0.666667  0.250000  1
  Co  Co27  1  0.666667  0.333333  0.750000  1
