# generated using pymatgen
data_NdDy9(AlBi2)2
_symmetry_space_group_name_H-M   'P 1'
_cell_length_a   6.51536300
_cell_length_b   9.05095657
_cell_length_c   9.05997015
_cell_angle_alpha   119.71539322
_cell_angle_beta   90.00002608
_cell_angle_gamma   89.99993349
_symmetry_Int_Tables_number   1
_chemical_formula_structural   NdDy9(AlBi2)2
_chemical_formula_sum   'Nd1 Dy9 Al2 Bi4'
_cell_volume   464.01163815
_cell_formula_units_Z   1
loop_
 _symmetry_equiv_pos_site_id
 _symmetry_equiv_pos_as_xyz
  1  'x, y, z'
loop_
 _atom_site_type_symbol
 _atom_site_label
 _atom_site_symmetry_multiplicity
 _atom_site_fract_x
 _atom_site_fract_y
 _atom_site_fract_z
 _atom_site_occupancy
  Nd  Nd0  1  0.250000  0.012339  0.772494  1
  Dy  Dy1  1  0.500201  0.342046  0.685867  1
  Dy  Dy2  1  0.500178  0.658395  0.315487  1
  Dy  Dy3  1  0.999821  0.658394  0.315487  1
  Dy  Dy4  1  0.999798  0.342045  0.685868  1
  Dy  Dy5  1  0.750000  0.248559  0.000749  1
  Dy  Dy6  1  0.749998  0.753954  0.768892  1
  Dy  Dy7  1  0.750001  0.986062  0.225559  1
  Dy  Dy8  1  0.250001  0.753090  0.999925  1
  Dy  Dy9  1  0.249999  0.245533  0.231144  1
  Al  Al10  1  0.749999  0.600535  0.000406  1
  Al  Al11  1  0.250000  0.404835  0.002806  1
  Bi  Bi12  1  0.750001  0.388080  0.394972  1
  Bi  Bi13  1  0.750000  0.993773  0.604810  1
  Bi  Bi14  1  0.249999  0.605641  0.603008  1
  Bi  Bi15  1  0.250000  0.006719  0.392529  1
