# generated using pymatgen
data_Y3TmAl18NiIr5
_symmetry_space_group_name_H-M   'P 1'
_cell_length_a   7.53920998
_cell_length_b   7.54116902
_cell_length_c   9.45613265
_cell_angle_alpha   90.16074221
_cell_angle_beta   90.16956391
_cell_angle_gamma   119.74754475
_symmetry_Int_Tables_number   1
_chemical_formula_structural   Y3TmAl18NiIr5
_chemical_formula_sum   'Y3 Tm1 Al18 Ni1 Ir5'
_cell_volume   466.76763023
_cell_formula_units_Z   1
loop_
 _symmetry_equiv_pos_site_id
 _symmetry_equiv_pos_as_xyz
  1  'x, y, z'
loop_
 _atom_site_type_symbol
 _atom_site_label
 _atom_site_symmetry_multiplicity
 _atom_site_fract_x
 _atom_site_fract_y
 _atom_site_fract_z
 _atom_site_occupancy
  Y  Y0  1  0.994405  0.668723  0.249794  1
  Y  Y1  1  0.005776  0.331454  0.750189  1
  Y  Y2  1  0.668559  0.994235  0.249847  1
  Tm  Tm3  1  0.331474  0.005637  0.749969  1
  Al  Al4  1  0.125203  0.124926  0.247016  1
  Al  Al5  1  0.876112  0.875386  0.753112  1
  Al  Al6  1  0.000658  0.332330  0.073616  1
  Al  Al7  1  0.000046  0.668388  0.925547  1
  Al  Al8  1  0.999854  0.667013  0.574464  1
  Al  Al9  1  0.333652  0.000884  0.427171  1
  Al  Al10  1  0.000863  0.333734  0.426383  1
  Al  Al11  1  0.665957  0.999455  0.574545  1
  Al  Al12  1  0.666983  0.999533  0.925432  1
  Al  Al13  1  0.332239  0.000655  0.072757  1
  Al  Al14  1  0.333757  0.333370  0.553618  1
  Al  Al15  1  0.666372  0.666394  0.447948  1
  Al  Al16  1  0.668644  0.668650  0.051405  1
  Al  Al17  1  0.330995  0.330540  0.946945  1
  Al  Al18  1  0.338943  0.546386  0.249498  1
  Al  Al19  1  0.660267  0.452847  0.750484  1
  Al  Al20  1  0.546161  0.338714  0.249490  1
  Al  Al21  1  0.453678  0.661861  0.750494  1
  Ni  Ni22  1  0.999379  0.998253  0.999796  1
  Ir  Ir23  1  0.671603  0.327950  0.999605  1
  Ir  Ir24  1  0.328125  0.672116  0.999602  1
  Ir  Ir25  1  0.328222  0.672157  0.500375  1
  Ir  Ir26  1  0.671647  0.328061  0.500382  1
  Ir  Ir27  1  0.000423  0.000347  0.500518  1
