# generated using pymatgen
data_Sc4Al2B4RuRh9
_symmetry_space_group_name_H-M   'P 1'
_cell_length_a   9.37686082
_cell_length_b   3.04075000
_cell_length_c   9.37686082
_cell_angle_alpha   90.00000000
_cell_angle_beta   90.36211139
_cell_angle_gamma   90.00000000
_symmetry_Int_Tables_number   1
_chemical_formula_structural   Sc4Al2B4RuRh9
_chemical_formula_sum   'Sc4 Al2 B4 Ru1 Rh9'
_cell_volume   267.35418172
_cell_formula_units_Z   1
loop_
 _symmetry_equiv_pos_site_id
 _symmetry_equiv_pos_as_xyz
  1  'x, y, z'
loop_
 _atom_site_type_symbol
 _atom_site_label
 _atom_site_symmetry_multiplicity
 _atom_site_fract_x
 _atom_site_fract_y
 _atom_site_fract_z
 _atom_site_occupancy
  Sc  Sc0  1  0.672931  0.000000  0.172931  1
  Sc  Sc1  1  0.175589  0.000000  0.324409  1
  Sc  Sc2  1  0.824411  0.000000  0.675589  1
  Sc  Sc3  1  0.327067  0.000000  0.827069  1
  Al  Al4  1  0.000000  0.000000  0.000000  1
  Al  Al5  1  0.500000  0.000000  0.500000  1
  B  B6  1  0.377808  0.000000  0.122192  1
  B  B7  1  0.875400  0.000000  0.375400  1
  B  B8  1  0.124600  0.000000  0.624600  1
  B  B9  1  0.622192  0.000000  0.877808  1
  Ru  Ru10  1  0.500000  0.500000  0.000000  1
  Rh  Rh11  1  0.214538  0.500000  0.071828  1
  Rh  Rh12  1  0.929175  0.500000  0.216068  1
  Rh  Rh13  1  0.428171  0.500000  0.285460  1
  Rh  Rh14  1  0.716068  0.500000  0.429174  1
  Rh  Rh15  1  0.000000  0.500000  0.500000  1
  Rh  Rh16  1  0.283930  0.500000  0.570826  1
  Rh  Rh17  1  0.571829  0.500000  0.714538  1
  Rh  Rh18  1  0.070825  0.500000  0.783931  1
  Rh  Rh19  1  0.785461  0.500000  0.928172  1
