# generated using pymatgen
data_Er8CuSnPd23
_symmetry_space_group_name_H-M   'P 1'
_cell_length_a   8.30687300
_cell_length_b   8.35712200
_cell_length_c   8.39248200
_cell_angle_alpha   90.00000000
_cell_angle_beta   90.00000000
_cell_angle_gamma   90.00000000
_symmetry_Int_Tables_number   1
_chemical_formula_structural   Er8CuSnPd23
_chemical_formula_sum   'Er8 Cu1 Sn1 Pd23'
_cell_volume   582.61911801
_cell_formula_units_Z   1
loop_
 _symmetry_equiv_pos_site_id
 _symmetry_equiv_pos_as_xyz
  1  'x, y, z'
loop_
 _atom_site_type_symbol
 _atom_site_label
 _atom_site_symmetry_multiplicity
 _atom_site_fract_x
 _atom_site_fract_y
 _atom_site_fract_z
 _atom_site_occupancy
  Er  Er0  1  0.252693  0.251100  0.256009  1
  Er  Er1  1  0.746885  0.747201  0.746673  1
  Er  Er2  1  0.746885  0.747201  0.253327  1
  Er  Er3  1  0.746885  0.252799  0.746673  1
  Er  Er4  1  0.252693  0.251100  0.743991  1
  Er  Er5  1  0.252693  0.748900  0.256009  1
  Er  Er6  1  0.252693  0.748900  0.743991  1
  Er  Er7  1  0.746885  0.252799  0.253327  1
  Cu  Cu8  1  0.268250  0.500000  0.000000  1
  Sn  Sn9  1  0.999152  0.000000  0.000000  1
  Pd  Pd10  1  0.736266  0.500000  0.000000  1
  Pd  Pd11  1  0.999729  0.264513  0.500000  1
  Pd  Pd12  1  0.494316  0.268600  0.000000  1
  Pd  Pd13  1  0.999729  0.735487  0.500000  1
  Pd  Pd14  1  0.494316  0.731400  0.000000  1
  Pd  Pd15  1  0.500027  0.000000  0.265114  1
  Pd  Pd16  1  0.264578  0.000000  0.500000  1
  Pd  Pd17  1  0.500027  0.000000  0.734886  1
  Pd  Pd18  1  0.735080  0.000000  0.500000  1
  Pd  Pd19  1  0.001291  0.500000  0.265162  1
  Pd  Pd20  1  0.001291  0.500000  0.734838  1
  Pd  Pd21  1  0.254451  0.500000  0.500000  1
  Pd  Pd22  1  0.745221  0.500000  0.500000  1
  Pd  Pd23  1  0.500144  0.254773  0.500000  1
  Pd  Pd24  1  0.500144  0.745227  0.500000  1
  Pd  Pd25  1  0.496628  0.500000  0.252969  1
  Pd  Pd26  1  0.496628  0.500000  0.747031  1
  Pd  Pd27  1  0.307822  0.000000  0.000000  1
  Pd  Pd28  1  0.689969  0.000000  0.000000  1
  Pd  Pd29  1  0.008626  0.310698  0.000000  1
  Pd  Pd30  1  0.008626  0.689302  0.000000  1
  Pd  Pd31  1  0.999690  0.000000  0.305523  1
  Pd  Pd32  1  0.999690  0.000000  0.694477  1
