# generated using pymatgen
data_Cr3Co(PtO3)8
_symmetry_space_group_name_H-M   'P 1'
_cell_length_a   4.56110326
_cell_length_b   18.86733401
_cell_length_c   4.58733247
_cell_angle_alpha   90.00143105
_cell_angle_beta   89.95458773
_cell_angle_gamma   90.00006646
_symmetry_Int_Tables_number   1
_chemical_formula_structural   Cr3Co(PtO3)8
_chemical_formula_sum   'Cr3 Co1 Pt8 O24'
_cell_volume   394.76671080
_cell_formula_units_Z   1
loop_
 _symmetry_equiv_pos_site_id
 _symmetry_equiv_pos_as_xyz
  1  'x, y, z'
loop_
 _atom_site_type_symbol
 _atom_site_label
 _atom_site_symmetry_multiplicity
 _atom_site_fract_x
 _atom_site_fract_y
 _atom_site_fract_z
 _atom_site_occupancy
  Cr  Cr0  1  0.499976  0.750059  0.500034  1
  Cr  Cr1  1  0.000002  0.999996  0.000083  1
  Cr  Cr2  1  0.500033  0.249908  0.499986  1
  Co  Co3  1  0.000020  0.499999  0.999982  1
  Pt  Pt4  1  0.000090  0.166113  0.999986  1
  Pt  Pt5  1  0.000060  0.665900  0.000028  1
  Pt  Pt6  1  0.499950  0.416149  0.499987  1
  Pt  Pt7  1  0.499903  0.916080  0.500012  1
  Pt  Pt8  1  0.500069  0.083932  0.499979  1
  Pt  Pt9  1  0.500075  0.583838  0.500001  1
  Pt  Pt10  1  0.999956  0.334092  0.999981  1
  Pt  Pt11  1  0.999907  0.833906  0.000012  1
  O  O12  1  0.803226  0.249867  0.189551  1
  O  O13  1  0.803179  0.750131  0.189619  1
  O  O14  1  0.303211  0.000006  0.310446  1
  O  O15  1  0.302648  0.500010  0.309668  1
  O  O16  1  0.697376  0.500003  0.690312  1
  O  O17  1  0.696782  0.999999  0.689519  1
  O  O18  1  0.196820  0.249873  0.810413  1
  O  O19  1  0.196778  0.750139  0.810444  1
  O  O20  1  0.805285  0.418214  0.187399  1
  O  O21  1  0.804182  0.918253  0.188266  1
  O  O22  1  0.804478  0.081779  0.188329  1
  O  O23  1  0.805490  0.581773  0.187559  1
  O  O24  1  0.304366  0.168194  0.311564  1
  O  O25  1  0.304010  0.668236  0.311278  1
  O  O26  1  0.303742  0.331725  0.311338  1
  O  O27  1  0.304076  0.831824  0.311704  1
  O  O28  1  0.695920  0.168192  0.688296  1
  O  O29  1  0.696209  0.668238  0.688677  1
  O  O30  1  0.696055  0.331728  0.688743  1
  O  O31  1  0.695616  0.831829  0.688434  1
  O  O32  1  0.194504  0.418213  0.812470  1
  O  O33  1  0.195495  0.918250  0.811634  1
  O  O34  1  0.195757  0.081771  0.811728  1
  O  O35  1  0.194755  0.581777  0.812534  1
