# generated using pymatgen
data_ScU2Sn3Ir2Ru
_symmetry_space_group_name_H-M   'P 1'
_cell_length_a   7.40234529
_cell_length_b   7.40234515
_cell_length_c   3.95722400
_cell_angle_alpha   90.00000000
_cell_angle_beta   90.00000000
_cell_angle_gamma   121.10799947
_symmetry_Int_Tables_number   1
_chemical_formula_structural   ScU2Sn3Ir2Ru
_chemical_formula_sum   'Sc1 U2 Sn3 Ir2 Ru1'
_cell_volume   185.65300018
_cell_formula_units_Z   1
loop_
 _symmetry_equiv_pos_site_id
 _symmetry_equiv_pos_as_xyz
  1  'x, y, z'
loop_
 _atom_site_type_symbol
 _atom_site_label
 _atom_site_symmetry_multiplicity
 _atom_site_fract_x
 _atom_site_fract_y
 _atom_site_fract_z
 _atom_site_occupancy
  Sc  Sc0  1  0.404860  0.404860  0.500000  1
  U  U1  1  0.588504  0.000906  0.500000  1
  U  U2  1  0.000906  0.588504  0.500000  1
  Sn  Sn3  1  0.730632  0.730632  0.000000  1
  Sn  Sn4  1  0.256160  0.013651  0.000000  1
  Sn  Sn5  1  0.013651  0.256160  0.000000  1
  Ir  Ir6  1  0.682386  0.331518  0.000000  1
  Ir  Ir7  1  0.331518  0.682386  0.000000  1
  Ru  Ru8  1  0.991383  0.991383  0.500000  1
