# generated using pymatgen
data_Ho11ScSi12Os3Rh
_symmetry_space_group_name_H-M   'P 1'
_cell_length_a   4.17667600
_cell_length_b   10.66586602
_cell_length_c   12.23846370
_cell_angle_alpha   89.90480905
_cell_angle_beta   90.00000000
_cell_angle_gamma   90.00000000
_symmetry_Int_Tables_number   1
_chemical_formula_structural   Ho11ScSi12Os3Rh
_chemical_formula_sum   'Ho11 Sc1 Si12 Os3 Rh1'
_cell_volume   545.19669603
_cell_formula_units_Z   1
loop_
 _symmetry_equiv_pos_site_id
 _symmetry_equiv_pos_as_xyz
  1  'x, y, z'
loop_
 _atom_site_type_symbol
 _atom_site_label
 _atom_site_symmetry_multiplicity
 _atom_site_fract_x
 _atom_site_fract_y
 _atom_site_fract_z
 _atom_site_occupancy
  Ho  Ho0  1  0.250000  0.880232  0.023291  1
  Ho  Ho1  1  0.250000  0.622363  0.518061  1
  Ho  Ho2  1  0.750000  0.119482  0.981372  1
  Ho  Ho3  1  0.750000  0.381756  0.479426  1
  Ho  Ho4  1  0.250000  0.920804  0.602359  1
  Ho  Ho5  1  0.250000  0.580906  0.106182  1
  Ho  Ho6  1  0.750000  0.077292  0.394982  1
  Ho  Ho7  1  0.750000  0.420231  0.895550  1
  Ho  Ho8  1  0.250000  0.662967  0.800141  1
  Ho  Ho9  1  0.750000  0.339359  0.200470  1
  Ho  Ho10  1  0.750000  0.159559  0.698920  1
  Sc  Sc11  1  0.250000  0.836141  0.297434  1
  Si  Si12  1  0.250000  0.012567  0.822648  1
  Si  Si13  1  0.250000  0.490230  0.320635  1
  Si  Si14  1  0.750000  0.987223  0.181094  1
  Si  Si15  1  0.750000  0.510392  0.679401  1
  Si  Si16  1  0.250000  0.248165  0.840605  1
  Si  Si17  1  0.250000  0.250857  0.342321  1
  Si  Si18  1  0.750000  0.753037  0.162958  1
  Si  Si19  1  0.750000  0.748793  0.654987  1
  Si  Si20  1  0.250000  0.203561  0.543762  1
  Si  Si21  1  0.250000  0.296945  0.045198  1
  Si  Si22  1  0.750000  0.800560  0.447821  1
  Si  Si23  1  0.750000  0.699286  0.959272  1
  Os  Os24  1  0.250000  0.390361  0.680246  1
  Os  Os25  1  0.250000  0.107258  0.183149  1
  Os  Os26  1  0.750000  0.611341  0.319479  1
  Rh  Rh27  1  0.750000  0.888334  0.818237  1
