# generated using pymatgen
data_Ho2Ga10Tc2Os
_symmetry_space_group_name_H-M   'P 1'
_cell_length_a   9.01306100
_cell_length_b   9.01306100
_cell_length_c   6.32566300
_cell_angle_alpha   90.00000000
_cell_angle_beta   90.00000000
_cell_angle_gamma   90.00000000
_symmetry_Int_Tables_number   1
_chemical_formula_structural   Ho2Ga10Tc2Os
_chemical_formula_sum   'Ho4 Ga20 Tc4 Os2'
_cell_volume   513.86693281
_cell_formula_units_Z   2
loop_
 _symmetry_equiv_pos_site_id
 _symmetry_equiv_pos_as_xyz
  1  'x, y, z'
loop_
 _atom_site_type_symbol
 _atom_site_label
 _atom_site_symmetry_multiplicity
 _atom_site_fract_x
 _atom_site_fract_y
 _atom_site_fract_z
 _atom_site_occupancy
  Ho  Ho0  1  0.683223  0.183223  0.000000  1
  Ho  Ho1  1  0.316777  0.816777  0.000000  1
  Ho  Ho2  1  0.816777  0.683223  0.000000  1
  Ho  Ho3  1  0.183223  0.316777  0.000000  1
  Ga  Ga4  1  0.940209  0.205793  0.292536  1
  Ga  Ga5  1  0.705793  0.440209  0.292536  1
  Ga  Ga6  1  0.500000  0.000000  0.287406  1
  Ga  Ga7  1  0.559791  0.705793  0.707464  1
  Ga  Ga8  1  0.294207  0.559791  0.707464  1
  Ga  Ga9  1  0.794207  0.940209  0.292536  1
  Ga  Ga10  1  0.940209  0.205793  0.707464  1
  Ga  Ga11  1  0.294207  0.559791  0.292536  1
  Ga  Ga12  1  0.059791  0.794207  0.292536  1
  Ga  Ga13  1  0.705793  0.440209  0.707464  1
  Ga  Ga14  1  0.440209  0.294207  0.707464  1
  Ga  Ga15  1  0.059791  0.794207  0.707464  1
  Ga  Ga16  1  0.205793  0.059791  0.707464  1
  Ga  Ga17  1  0.794207  0.940209  0.707464  1
  Ga  Ga18  1  0.205793  0.059791  0.292536  1
  Ga  Ga19  1  0.000000  0.500000  0.712594  1
  Ga  Ga20  1  0.000000  0.500000  0.287406  1
  Ga  Ga21  1  0.559791  0.705793  0.292536  1
  Ga  Ga22  1  0.440209  0.294207  0.292536  1
  Ga  Ga23  1  0.500000  0.000000  0.712594  1
  Tc  Tc24  1  0.679463  0.179463  0.500000  1
  Tc  Tc25  1  0.820537  0.679463  0.500000  1
  Tc  Tc26  1  0.179463  0.320537  0.500000  1
  Tc  Tc27  1  0.320537  0.820537  0.500000  1
  Os  Os28  1  0.000000  0.000000  0.000000  1
  Os  Os29  1  0.500000  0.500000  0.000000  1
