# generated using pymatgen
data_Sr4ZnSi6Ni
_symmetry_space_group_name_H-M   'P 1'
_cell_length_a   8.56053200
_cell_length_b   8.23518492
_cell_length_c   6.27054300
_cell_angle_alpha   70.86430079
_cell_angle_beta   65.34544237
_cell_angle_gamma   43.79025655
_symmetry_Int_Tables_number   1
_chemical_formula_structural   Sr4ZnSi6Ni
_chemical_formula_sum   'Sr4 Zn1 Si6 Ni1'
_cell_volume   277.77568383
_cell_formula_units_Z   1
loop_
 _symmetry_equiv_pos_site_id
 _symmetry_equiv_pos_as_xyz
  1  'x, y, z'
loop_
 _atom_site_type_symbol
 _atom_site_label
 _atom_site_symmetry_multiplicity
 _atom_site_fract_x
 _atom_site_fract_y
 _atom_site_fract_z
 _atom_site_occupancy
  Sr  Sr0  1  0.245177  0.750545  0.249456  1
  Sr  Sr1  1  0.252081  0.252082  0.247919  1
  Sr  Sr2  1  0.752080  0.752082  0.747919  1
  Sr  Sr3  1  0.750544  0.245179  0.754822  1
  Zn  Zn4  1  0.666148  0.666150  0.333851  1
  Si  Si5  1  0.838235  0.838236  0.161765  1
  Si  Si6  1  0.838094  0.323596  0.161906  1
  Si  Si7  1  0.651573  0.174844  0.348426  1
  Si  Si8  1  0.323595  0.838095  0.676405  1
  Si  Si9  1  0.174843  0.651574  0.825156  1
  Si  Si10  1  0.173925  0.173926  0.826074  1
  Ni  Ni11  1  0.333695  0.333697  0.666304  1
