# generated using pymatgen
data_Cs11Na(FeO4)4
_symmetry_space_group_name_H-M   'P 1'
_cell_length_a   8.53883807
_cell_length_b   8.59323302
_cell_length_c   11.55165700
_cell_angle_alpha   111.78868774
_cell_angle_beta   111.69636250
_cell_angle_gamma   90.02689776
_symmetry_Int_Tables_number   1
_chemical_formula_structural   Cs11Na(FeO4)4
_chemical_formula_sum   'Cs11 Na1 Fe4 O16'
_cell_volume   721.93084337
_cell_formula_units_Z   1
loop_
 _symmetry_equiv_pos_site_id
 _symmetry_equiv_pos_as_xyz
  1  'x, y, z'
loop_
 _atom_site_type_symbol
 _atom_site_label
 _atom_site_symmetry_multiplicity
 _atom_site_fract_x
 _atom_site_fract_y
 _atom_site_fract_z
 _atom_site_occupancy
  Cs  Cs0  1  0.287430  0.287525  0.574846  1
  Cs  Cs1  1  0.499637  0.000040  0.000089  1
  Cs  Cs2  1  0.250203  0.750018  0.500133  1
  Cs  Cs3  1  0.925823  0.931156  0.245675  1
  Cs  Cs4  1  0.074330  0.685541  0.753967  1
  Cs  Cs5  1  0.712657  0.712352  0.425195  1
  Cs  Cs6  1  0.000119  0.500472  0.999977  1
  Cs  Cs7  1  0.680326  0.069147  0.754480  1
  Cs  Cs8  1  0.320342  0.314982  0.246433  1
  Cs  Cs9  1  0.750059  0.249984  0.499769  1
  Cs  Cs10  1  0.500290  0.500012  0.999961  1
  Na  Na11  1  0.000249  0.000078  0.000126  1
  Fe  Fe12  1  0.870335  0.382270  0.244964  1
  Fe  Fe13  1  0.129379  0.137380  0.754700  1
  Fe  Fe14  1  0.625313  0.617491  0.754749  1
  Fe  Fe15  1  0.374999  0.862805  0.245403  1
  O  O16  1  0.392657  0.993935  0.408327  1
  O  O17  1  0.778079  0.787272  0.893076  1
  O  O18  1  0.662343  0.337647  0.227054  1
  O  O19  1  0.337612  0.662001  0.243474  1
  O  O20  1  0.015150  0.413822  0.408086  1
  O  O21  1  0.565249  0.889761  0.227793  1
  O  O22  1  0.337306  0.110498  0.772482  1
  O  O23  1  0.223615  0.895682  0.107265  1
  O  O24  1  0.605837  0.585238  0.591182  1
  O  O25  1  0.116037  0.104251  0.892687  1
  O  O26  1  0.661852  0.418626  0.756735  1
  O  O27  1  0.983942  0.006232  0.591853  1
  O  O28  1  0.905479  0.581259  0.243205  1
  O  O29  1  0.883782  0.211910  0.106613  1
  O  O30  1  0.093923  0.338126  0.756563  1
  O  O31  1  0.435644  0.662484  0.773140  1
