# generated using pymatgen
data_Nb13Co8Os3C4
_symmetry_space_group_name_H-M   'P 1'
_cell_length_a   8.20477834
_cell_length_b   8.15393937
_cell_length_c   8.20477800
_cell_angle_alpha   59.79352931
_cell_angle_beta   59.99999332
_cell_angle_gamma   59.79353391
_symmetry_Int_Tables_number   1
_chemical_formula_structural   Nb13Co8Os3C4
_chemical_formula_sum   'Nb13 Co8 Os3 C4'
_cell_volume   386.92228172
_cell_formula_units_Z   1
loop_
 _symmetry_equiv_pos_site_id
 _symmetry_equiv_pos_as_xyz
  1  'x, y, z'
loop_
 _atom_site_type_symbol
 _atom_site_label
 _atom_site_symmetry_multiplicity
 _atom_site_fract_x
 _atom_site_fract_y
 _atom_site_fract_z
 _atom_site_occupancy
  Nb  Nb0  1  0.625000  0.125000  0.625000  1
  Nb  Nb1  1  0.804469  0.803325  0.196103  1
  Nb  Nb2  1  0.186272  0.194438  0.809645  1
  Nb  Nb3  1  0.809645  0.194438  0.809645  1
  Nb  Nb4  1  0.196103  0.803325  0.196103  1
  Nb  Nb5  1  0.196103  0.803325  0.804469  1
  Nb  Nb6  1  0.809645  0.194438  0.186272  1
  Nb  Nb7  1  0.445531  0.446675  0.053897  1
  Nb  Nb8  1  0.063728  0.055562  0.440355  1
  Nb  Nb9  1  0.440355  0.055562  0.440355  1
  Nb  Nb10  1  0.053897  0.446675  0.053897  1
  Nb  Nb11  1  0.053897  0.446675  0.445531  1
  Nb  Nb12  1  0.440355  0.055562  0.063728  1
  Co  Co13  1  0.731087  0.426421  0.421246  1
  Co  Co14  1  0.424960  0.725119  0.424960  1
  Co  Co15  1  0.421246  0.426421  0.731087  1
  Co  Co16  1  0.421246  0.426421  0.421246  1
  Co  Co17  1  0.518913  0.823579  0.828754  1
  Co  Co18  1  0.825040  0.524881  0.825040  1
  Co  Co19  1  0.828754  0.823579  0.518913  1
  Co  Co20  1  0.828754  0.823579  0.828754  1
  Os  Os21  1  0.125000  0.625000  0.625000  1
  Os  Os22  1  0.625000  0.625000  0.125000  1
  Os  Os23  1  0.625000  0.625000  0.625000  1
  C  C24  1  0.625000  0.125000  0.125000  1
  C  C25  1  0.125000  0.625000  0.125000  1
  C  C26  1  0.125000  0.125000  0.625000  1
  C  C27  1  0.125000  0.125000  0.125000  1
