# generated using pymatgen
data_PrCd4Au
_symmetry_space_group_name_H-M   'P 1'
_cell_length_a   10.49261700
_cell_length_b   10.49261549
_cell_length_c   4.47985500
_cell_angle_alpha   90.00000000
_cell_angle_beta   90.00000000
_cell_angle_gamma   119.99999529
_symmetry_Int_Tables_number   1
_chemical_formula_structural   PrCd4Au
_chemical_formula_sum   'Pr3 Cd12 Au3'
_cell_volume   427.13207792
_cell_formula_units_Z   3
loop_
 _symmetry_equiv_pos_site_id
 _symmetry_equiv_pos_as_xyz
  1  'x, y, z'
loop_
 _atom_site_type_symbol
 _atom_site_label
 _atom_site_symmetry_multiplicity
 _atom_site_fract_x
 _atom_site_fract_y
 _atom_site_fract_z
 _atom_site_occupancy
  Pr  Pr0  1  0.000000  0.406222  0.000000  1
  Pr  Pr1  1  0.406222  0.000000  0.000000  1
  Pr  Pr2  1  0.593778  0.593778  0.000000  1
  Cd  Cd3  1  0.527602  0.823732  0.500000  1
  Cd  Cd4  1  0.296130  0.472398  0.500000  1
  Cd  Cd5  1  0.472398  0.296130  0.500000  1
  Cd  Cd6  1  0.703870  0.176268  0.500000  1
  Cd  Cd7  1  0.821761  0.821761  0.500000  1
  Cd  Cd8  1  0.000000  0.178239  0.500000  1
  Cd  Cd9  1  0.178239  0.000000  0.500000  1
  Cd  Cd10  1  0.176268  0.703870  0.500000  1
  Cd  Cd11  1  0.000000  0.732550  0.000000  1
  Cd  Cd12  1  0.823732  0.527602  0.500000  1
  Cd  Cd13  1  0.267450  0.267450  0.000000  1
  Cd  Cd14  1  0.732550  0.000000  0.000000  1
  Au  Au15  1  0.000000  0.000000  0.000000  1
  Au  Au16  1  0.666667  0.333333  0.000000  1
  Au  Au17  1  0.333333  0.666667  0.000000  1
