# generated using pymatgen
data_Y2Fe9Ni3P7
_symmetry_space_group_name_H-M   'P 1'
_cell_length_a   3.63492700
_cell_length_b   8.99987259
_cell_length_c   9.00515803
_cell_angle_alpha   119.69188406
_cell_angle_beta   90.00000000
_cell_angle_gamma   90.00000000
_symmetry_Int_Tables_number   1
_chemical_formula_structural   Y2Fe9Ni3P7
_chemical_formula_sum   'Y2 Fe9 Ni3 P7'
_cell_volume   255.91400766
_cell_formula_units_Z   1
loop_
 _symmetry_equiv_pos_site_id
 _symmetry_equiv_pos_as_xyz
  1  'x, y, z'
loop_
 _atom_site_type_symbol
 _atom_site_label
 _atom_site_symmetry_multiplicity
 _atom_site_fract_x
 _atom_site_fract_y
 _atom_site_fract_z
 _atom_site_occupancy
  Y  Y0  1  0.000000  0.664557  0.332005  1
  Y  Y1  1  0.500000  0.337340  0.668612  1
  Fe  Fe2  1  0.000000  0.571898  0.632543  1
  Fe  Fe3  1  0.000000  0.880112  0.724662  1
  Fe  Fe4  1  0.000000  0.270799  0.154473  1
  Fe  Fe5  1  0.000000  0.846730  0.119774  1
  Fe  Fe6  1  0.500000  0.432416  0.385071  1
  Fe  Fe7  1  0.500000  0.613431  0.048680  1
  Fe  Fe8  1  0.500000  0.125470  0.901643  1
  Fe  Fe9  1  0.500000  0.096393  0.214663  1
  Fe  Fe10  1  0.500000  0.780208  0.877936  1
  Ni  Ni11  1  0.000000  0.371528  0.940177  1
  Ni  Ni12  1  0.000000  0.061980  0.433508  1
  Ni  Ni13  1  0.500000  0.948363  0.563009  1
  P  P14  1  0.000000  0.112078  0.706543  1
  P  P15  1  0.000000  0.303699  0.411108  1
  P  P16  1  0.000000  0.597171  0.890902  1
  P  P17  1  0.500000  0.705156  0.600741  1
  P  P18  1  0.500000  0.401850  0.118475  1
  P  P19  1  0.500000  0.880526  0.278227  1
  P  P20  1  0.000000  0.998296  0.997247  1
