# generated using pymatgen
data_Zr6Al16Os3Pt4
_symmetry_space_group_name_H-M   'P 1'
_cell_length_a   8.76970295
_cell_length_b   8.77103917
_cell_length_c   8.82137505
_cell_angle_alpha   59.79994043
_cell_angle_beta   59.71336839
_cell_angle_gamma   60.38512995
_symmetry_Int_Tables_number   1
_chemical_formula_structural   Zr6Al16Os3Pt4
_chemical_formula_sum   'Zr6 Al16 Os3 Pt4'
_cell_volume   479.38911737
_cell_formula_units_Z   1
loop_
 _symmetry_equiv_pos_site_id
 _symmetry_equiv_pos_as_xyz
  1  'x, y, z'
loop_
 _atom_site_type_symbol
 _atom_site_label
 _atom_site_symmetry_multiplicity
 _atom_site_fract_x
 _atom_site_fract_y
 _atom_site_fract_z
 _atom_site_occupancy
  Zr  Zr0  1  0.674141  0.670785  0.325859  1
  Zr  Zr1  1  0.305031  0.694969  0.305031  1
  Zr  Zr2  1  0.701854  0.303373  0.298146  1
  Zr  Zr3  1  0.325859  0.329215  0.674141  1
  Zr  Zr4  1  0.694969  0.305031  0.694969  1
  Zr  Zr5  1  0.298146  0.696627  0.701854  1
  Al  Al6  1  0.881869  0.871164  0.361480  1
  Al  Al7  1  0.887878  0.363757  0.872559  1
  Al  Al8  1  0.361480  0.885487  0.881869  1
  Al  Al9  1  0.872559  0.875805  0.887878  1
  Al  Al10  1  0.118131  0.128836  0.638520  1
  Al  Al11  1  0.112122  0.636243  0.127441  1
  Al  Al12  1  0.638520  0.114513  0.118131  1
  Al  Al13  1  0.127441  0.124195  0.112122  1
  Al  Al14  1  0.663795  0.663439  0.011124  1
  Al  Al15  1  0.661431  0.015864  0.662891  1
  Al  Al16  1  0.011124  0.661644  0.663795  1
  Al  Al17  1  0.662891  0.659815  0.661431  1
  Al  Al18  1  0.336205  0.336561  0.988876  1
  Al  Al19  1  0.338569  0.984136  0.337109  1
  Al  Al20  1  0.988876  0.338356  0.336205  1
  Al  Al21  1  0.337109  0.340185  0.338569  1
  Os  Os22  1  0.000000  0.500000  0.500000  1
  Os  Os23  1  0.000000  0.500000  0.000000  1
  Os  Os24  1  0.500000  0.000000  0.000000  1
  Pt  Pt25  1  0.000000  0.000000  0.000000  1
  Pt  Pt26  1  0.000000  0.000000  0.500000  1
  Pt  Pt27  1  0.500000  0.000000  0.500000  1
  Pt  Pt28  1  0.500000  0.500000  0.000000  1
