# generated using pymatgen
data_Cs6Cr2Se2S5
_symmetry_space_group_name_H-M   'P 1'
_cell_length_a   11.50302574
_cell_length_b   8.48872307
_cell_length_c   14.05375700
_cell_angle_alpha   54.75958441
_cell_angle_beta   90.07454464
_cell_angle_gamma   90.10686443
_symmetry_Int_Tables_number   1
_chemical_formula_structural   Cs6Cr2Se2S5
_chemical_formula_sum   'Cs12 Cr4 Se4 S10'
_cell_volume   1120.80209643
_cell_formula_units_Z   2
loop_
 _symmetry_equiv_pos_site_id
 _symmetry_equiv_pos_as_xyz
  1  'x, y, z'
loop_
 _atom_site_type_symbol
 _atom_site_label
 _atom_site_symmetry_multiplicity
 _atom_site_fract_x
 _atom_site_fract_y
 _atom_site_fract_z
 _atom_site_occupancy
  Cs  Cs0  1  0.785835  0.571963  0.298247  1
  Cs  Cs1  1  0.654415  0.953435  0.918299  1
  Cs  Cs2  1  0.531307  0.179102  0.571892  1
  Cs  Cs3  1  0.022914  0.814097  0.923394  1
  Cs  Cs4  1  0.294039  0.424689  0.200567  1
  Cs  Cs5  1  0.154720  0.037952  0.584550  1
  Cs  Cs6  1  0.848222  0.966087  0.406566  1
  Cs  Cs7  1  0.706069  0.569758  0.795217  1
  Cs  Cs8  1  0.972499  0.194932  0.067515  1
  Cs  Cs9  1  0.478233  0.822031  0.431248  1
  Cs  Cs10  1  0.349840  0.033274  0.093182  1
  Cs  Cs11  1  0.206714  0.422600  0.709317  1
  Cr  Cr12  1  0.864776  0.336232  0.632825  1
  Cr  Cr13  1  0.366404  0.662662  0.868405  1
  Cr  Cr14  1  0.635635  0.324293  0.133179  1
  Cr  Cr15  1  0.132379  0.682793  0.368266  1
  Se  Se16  1  0.076088  0.725151  0.197657  1
  Se  Se17  1  0.298648  0.495637  0.430092  1
  Se  Se18  1  0.344261  0.944620  0.859617  1
  Se  Se19  1  0.843897  0.054602  0.640131  1
  S  S20  1  0.992216  0.546018  0.500534  1
  S  S21  1  0.789695  0.506130  0.069656  1
  S  S22  1  0.581337  0.279107  0.294642  1
  S  S23  1  0.494131  0.452603  0.000880  1
  S  S24  1  0.415800  0.731500  0.700047  1
  S  S25  1  0.205040  0.501097  0.924353  1
  S  S26  1  0.167024  0.957868  0.342123  1
  S  S27  1  0.670007  0.048432  0.158646  1
  S  S28  1  0.703507  0.496743  0.577215  1
  S  S29  1  0.914350  0.264598  0.801742  1
