# generated using pymatgen
data_ThAsIrN
_symmetry_space_group_name_H-M   'P 1'
_cell_length_a   4.12255800
_cell_length_b   4.12255800
_cell_length_c   8.52155400
_cell_angle_alpha   90.00000000
_cell_angle_beta   90.00000000
_cell_angle_gamma   90.00000000
_symmetry_Int_Tables_number   1
_chemical_formula_structural   ThAsIrN
_chemical_formula_sum   'Th2 As2 Ir2 N2'
_cell_volume   144.82793861
_cell_formula_units_Z   2
loop_
 _symmetry_equiv_pos_site_id
 _symmetry_equiv_pos_as_xyz
  1  'x, y, z'
loop_
 _atom_site_type_symbol
 _atom_site_label
 _atom_site_symmetry_multiplicity
 _atom_site_fract_x
 _atom_site_fract_y
 _atom_site_fract_z
 _atom_site_occupancy
  Th  Th0  1  0.499999  0.000000  0.134031  1
  Th  Th1  1  0.000000  0.499999  0.865969  1
  As  As2  1  0.000000  0.499999  0.335152  1
  As  As3  1  0.499999  0.000000  0.664847  1
  Ir  Ir4  1  0.000000  0.000000  0.500000  1
  Ir  Ir5  1  0.499999  0.499999  0.500000  1
  N  N6  1  0.000000  0.000000  0.000000  1
  N  N7  1  0.499999  0.499999  0.000000  1
