# generated using pymatgen
data_Tb3In3NiIrPd
_symmetry_space_group_name_H-M   'P 1'
_cell_length_a   7.71299200
_cell_length_b   7.71299249
_cell_length_c   3.75566500
_cell_angle_alpha   90.00000000
_cell_angle_beta   90.00000000
_cell_angle_gamma   120.00000647
_symmetry_Int_Tables_number   1
_chemical_formula_structural   Tb3In3NiIrPd
_chemical_formula_sum   'Tb3 In3 Ni1 Ir1 Pd1'
_cell_volume   193.49210069
_cell_formula_units_Z   1
loop_
 _symmetry_equiv_pos_site_id
 _symmetry_equiv_pos_as_xyz
  1  'x, y, z'
loop_
 _atom_site_type_symbol
 _atom_site_label
 _atom_site_symmetry_multiplicity
 _atom_site_fract_x
 _atom_site_fract_y
 _atom_site_fract_z
 _atom_site_occupancy
  Tb  Tb0  1  0.413812  0.399284  0.000000  1
  Tb  Tb1  1  0.600716  0.014528  0.000000  1
  Tb  Tb2  1  0.985472  0.586188  0.000000  1
  In  In3  1  0.003767  0.253852  0.500000  1
  In  In4  1  0.746148  0.749916  0.500000  1
  In  In5  1  0.250084  0.996233  0.500000  1
  Ni  Ni6  1  0.000000  0.000000  0.000000  1
  Ir  Ir7  1  0.666667  0.333333  0.500000  1
  Pd  Pd8  1  0.333333  0.666667  0.500000  1
