# generated using pymatgen
data_Ti4Ga2B4(RuRh)5
_symmetry_space_group_name_H-M   'P 1'
_cell_length_a   9.22829750
_cell_length_b   2.99397600
_cell_length_c   9.26925843
_cell_angle_alpha   90.00000000
_cell_angle_beta   89.88738069
_cell_angle_gamma   90.00000000
_symmetry_Int_Tables_number   1
_chemical_formula_structural   Ti4Ga2B4(RuRh)5
_chemical_formula_sum   'Ti4 Ga2 B4 Ru5 Rh5'
_cell_volume   256.10263876
_cell_formula_units_Z   1
loop_
 _symmetry_equiv_pos_site_id
 _symmetry_equiv_pos_as_xyz
  1  'x, y, z'
loop_
 _atom_site_type_symbol
 _atom_site_label
 _atom_site_symmetry_multiplicity
 _atom_site_fract_x
 _atom_site_fract_y
 _atom_site_fract_z
 _atom_site_occupancy
  Ti  Ti0  1  0.671251  0.000000  0.178478  1
  Ti  Ti1  1  0.172405  0.000000  0.316031  1
  Ti  Ti2  1  0.827335  0.000000  0.671284  1
  Ti  Ti3  1  0.322180  0.000000  0.836137  1
  Ga  Ga4  1  0.001525  0.000000  0.002312  1
  Ga  Ga5  1  0.499440  0.000000  0.497951  1
  B  B6  1  0.374310  0.000000  0.127187  1
  B  B7  1  0.878275  0.000000  0.372171  1
  B  B8  1  0.123670  0.000000  0.623923  1
  B  B9  1  0.624230  0.000000  0.876316  1
  Ru  Ru10  1  0.502985  0.500001  0.999528  1
  Ru  Ru11  1  0.215559  0.500001  0.069181  1
  Ru  Ru12  1  0.922339  0.500001  0.213430  1
  Ru  Ru13  1  0.427952  0.500001  0.285791  1
  Ru  Ru14  1  0.001971  0.500001  0.499148  1
  Rh  Rh15  1  0.715041  0.500001  0.431503  1
  Rh  Rh16  1  0.286863  0.500001  0.577592  1
  Rh  Rh17  1  0.573384  0.500001  0.713444  1
  Rh  Rh18  1  0.071499  0.500001  0.785534  1
  Rh  Rh19  1  0.787785  0.500001  0.923056  1
