# generated using pymatgen
data_Rb2SmDy(SiSe4)2
_symmetry_space_group_name_H-M   'P 1'
_cell_length_a   7.04182950
_cell_length_b   6.73867115
_cell_length_c   18.88525093
_cell_angle_alpha   71.99720760
_cell_angle_beta   90.10930649
_cell_angle_gamma   89.96880686
_symmetry_Int_Tables_number   1
_chemical_formula_structural   Rb2SmDy(SiSe4)2
_chemical_formula_sum   'Rb4 Sm2 Dy2 Si4 Se16'
_cell_volume   852.27721251
_cell_formula_units_Z   2
loop_
 _symmetry_equiv_pos_site_id
 _symmetry_equiv_pos_as_xyz
  1  'x, y, z'
loop_
 _atom_site_type_symbol
 _atom_site_label
 _atom_site_symmetry_multiplicity
 _atom_site_fract_x
 _atom_site_fract_y
 _atom_site_fract_z
 _atom_site_occupancy
  Rb  Rb0  1  0.251076  0.726929  0.033771  1
  Rb  Rb1  1  0.248796  0.727458  0.533539  1
  Rb  Rb2  1  0.751204  0.272542  0.466461  1
  Rb  Rb3  1  0.748924  0.273071  0.966229  1
  Sm  Sm4  1  0.726112  0.228022  0.726667  1
  Sm  Sm5  1  0.273888  0.771978  0.273333  1
  Dy  Dy6  1  0.776318  0.229310  0.226333  1
  Dy  Dy7  1  0.223682  0.770690  0.773667  1
  Si  Si8  1  0.260695  0.216138  0.835829  1
  Si  Si9  1  0.239283  0.216341  0.335804  1
  Si  Si10  1  0.760717  0.783659  0.664196  1
  Si  Si11  1  0.739305  0.783862  0.164171  1
  Se  Se12  1  0.490170  0.982962  0.651093  1
  Se  Se13  1  0.175820  0.419124  0.216529  1
  Se  Se14  1  0.509830  0.017038  0.348907  1
  Se  Se15  1  0.993872  0.011300  0.850152  1
  Se  Se16  1  0.320599  0.424256  0.717158  1
  Se  Se17  1  0.255736  0.420392  0.911427  1
  Se  Se18  1  0.744264  0.579608  0.088573  1
  Se  Se19  1  0.824180  0.580876  0.783471  1
  Se  Se20  1  0.756239  0.585398  0.586770  1
  Se  Se21  1  0.243761  0.414602  0.413230  1
  Se  Se22  1  0.494860  0.966628  0.858662  1
  Se  Se23  1  0.998386  0.028598  0.641287  1
  Se  Se24  1  0.505140  0.033372  0.141338  1
  Se  Se25  1  0.006128  0.988700  0.149848  1
  Se  Se26  1  0.001614  0.971402  0.358713  1
  Se  Se27  1  0.679401  0.575744  0.282842  1
