# generated using pymatgen
data_TbYbY(BPt2)3
_symmetry_space_group_name_H-M   'P 1'
_cell_length_a   5.40735649
_cell_length_b   5.41323241
_cell_length_c   7.78788700
_cell_angle_alpha   90.00000000
_cell_angle_beta   90.00000000
_cell_angle_gamma   120.06170077
_symmetry_Int_Tables_number   1
_chemical_formula_structural   TbYbY(BPt2)3
_chemical_formula_sum   'Tb1 Yb1 Y1 B3 Pt6'
_cell_volume   197.29750606
_cell_formula_units_Z   1
loop_
 _symmetry_equiv_pos_site_id
 _symmetry_equiv_pos_as_xyz
  1  'x, y, z'
loop_
 _atom_site_type_symbol
 _atom_site_label
 _atom_site_symmetry_multiplicity
 _atom_site_fract_x
 _atom_site_fract_y
 _atom_site_fract_z
 _atom_site_occupancy
  Tb  Tb0  1  0.500000  0.500000  0.836646  1
  Yb  Yb1  1  0.000000  0.500000  0.166730  1
  Y  Y2  1  0.500000  0.000000  0.496633  1
  B  B3  1  0.500000  0.500000  0.331194  1
  B  B4  1  0.500000  0.000000  0.002159  1
  B  B5  1  0.000000  0.500000  0.666633  1
  Pt  Pt6  1  0.152123  0.850717  0.833429  1
  Pt  Pt7  1  0.152143  0.301394  0.499929  1
  Pt  Pt8  1  0.704141  0.852076  0.166644  1
  Pt  Pt9  1  0.847877  0.149283  0.833429  1
  Pt  Pt10  1  0.847857  0.698606  0.499929  1
  Pt  Pt11  1  0.295859  0.147924  0.166644  1
