# generated using pymatgen
data_YEr2Sn3HgIr2
_symmetry_space_group_name_H-M   'P 1'
_cell_length_a   7.60987185
_cell_length_b   7.62790127
_cell_length_c   4.00030700
_cell_angle_alpha   90.00000000
_cell_angle_beta   90.00000000
_cell_angle_gamma   120.15537508
_symmetry_Int_Tables_number   1
_chemical_formula_structural   YEr2Sn3HgIr2
_chemical_formula_sum   'Y1 Er2 Sn3 Hg1 Ir2'
_cell_volume   200.78176636
_cell_formula_units_Z   1
loop_
 _symmetry_equiv_pos_site_id
 _symmetry_equiv_pos_as_xyz
  1  'x, y, z'
loop_
 _atom_site_type_symbol
 _atom_site_label
 _atom_site_symmetry_multiplicity
 _atom_site_fract_x
 _atom_site_fract_y
 _atom_site_fract_z
 _atom_site_occupancy
  Y  Y0  1  0.389824  0.411120  0.500000  1
  Er  Er1  1  0.588338  0.976308  0.500000  1
  Er  Er2  1  0.023799  0.612434  0.500000  1
  Sn  Sn3  1  0.744267  0.751353  0.000000  1
  Sn  Sn4  1  0.248422  0.992880  0.000000  1
  Sn  Sn5  1  0.006316  0.255201  0.000000  1
  Hg  Hg6  1  0.667896  0.332985  0.000000  1
  Ir  Ir7  1  0.332614  0.669231  0.000000  1
  Ir  Ir8  1  0.998521  0.998489  0.500000  1
