# generated using pymatgen
data_Er15Th(CdNi)4
_symmetry_space_group_name_H-M   'P 1'
_cell_length_a   9.45016328
_cell_length_b   9.45016313
_cell_length_c   9.45016392
_cell_angle_alpha   60.19681891
_cell_angle_beta   60.19682277
_cell_angle_gamma   60.19682034
_symmetry_Int_Tables_number   1
_chemical_formula_structural   Er15Th(CdNi)4
_chemical_formula_sum   'Er15 Th1 Cd4 Ni4'
_cell_volume   599.42416243
_cell_formula_units_Z   1
loop_
 _symmetry_equiv_pos_site_id
 _symmetry_equiv_pos_as_xyz
  1  'x, y, z'
loop_
 _atom_site_type_symbol
 _atom_site_label
 _atom_site_symmetry_multiplicity
 _atom_site_fract_x
 _atom_site_fract_y
 _atom_site_fract_z
 _atom_site_occupancy
  Er  Er0  1  0.349945  0.349945  0.947598  1
  Er  Er1  1  0.349945  0.947598  0.349945  1
  Er  Er2  1  0.947598  0.349945  0.349945  1
  Er  Er3  1  0.813204  0.188822  0.188822  1
  Er  Er4  1  0.190131  0.813071  0.813071  1
  Er  Er5  1  0.188822  0.813204  0.188822  1
  Er  Er6  1  0.813071  0.190131  0.813071  1
  Er  Er7  1  0.188822  0.188822  0.813204  1
  Er  Er8  1  0.813071  0.813071  0.190131  1
  Er  Er9  1  0.936698  0.565978  0.565978  1
  Er  Er10  1  0.563686  0.937596  0.937596  1
  Er  Er11  1  0.565978  0.936698  0.565978  1
  Er  Er12  1  0.937596  0.563686  0.937596  1
  Er  Er13  1  0.565978  0.565978  0.936698  1
  Er  Er14  1  0.937596  0.937596  0.563686  1
  Th  Th15  1  0.343154  0.343154  0.343154  1
  Cd  Cd16  1  0.581389  0.581389  0.581389  1
  Cd  Cd17  1  0.581779  0.581779  0.254606  1
  Cd  Cd18  1  0.581779  0.254606  0.581779  1
  Cd  Cd19  1  0.254606  0.581779  0.581779  1
  Ni  Ni20  1  0.143406  0.143406  0.143406  1
  Ni  Ni21  1  0.139872  0.139872  0.572002  1
  Ni  Ni22  1  0.139872  0.572002  0.139872  1
  Ni  Ni23  1  0.572002  0.139872  0.139872  1
