# generated using pymatgen
data_CuIrRhO6
_symmetry_space_group_name_H-M   'P 1'
_cell_length_a   4.51960700
_cell_length_b   4.51960700
_cell_length_c   9.38504200
_cell_angle_alpha   90.00000000
_cell_angle_beta   90.00000000
_cell_angle_gamma   90.00000000
_symmetry_Int_Tables_number   1
_chemical_formula_structural   CuIrRhO6
_chemical_formula_sum   'Cu2 Ir2 Rh2 O12'
_cell_volume   191.70682110
_cell_formula_units_Z   2
loop_
 _symmetry_equiv_pos_site_id
 _symmetry_equiv_pos_as_xyz
  1  'x, y, z'
loop_
 _atom_site_type_symbol
 _atom_site_label
 _atom_site_symmetry_multiplicity
 _atom_site_fract_x
 _atom_site_fract_y
 _atom_site_fract_z
 _atom_site_occupancy
  Cu  Cu0  1  0.500000  0.500000  0.165945  1
  Cu  Cu1  1  0.000000  0.000000  0.665945  1
  Ir  Ir2  1  0.500000  0.500000  0.499312  1
  Ir  Ir3  1  0.000000  0.000000  0.999312  1
  Rh  Rh4  1  0.500000  0.500000  0.834639  1
  Rh  Rh5  1  0.000000  0.000000  0.334639  1
  O  O6  1  0.201407  0.798593  0.498163  1
  O  O7  1  0.798593  0.201407  0.498163  1
  O  O8  1  0.298593  0.298593  0.998163  1
  O  O9  1  0.701407  0.701407  0.998163  1
  O  O10  1  0.192733  0.807267  0.165090  1
  O  O11  1  0.807267  0.192733  0.165090  1
  O  O12  1  0.307267  0.307267  0.665090  1
  O  O13  1  0.692733  0.692733  0.665090  1
  O  O14  1  0.806569  0.193431  0.836799  1
  O  O15  1  0.193431  0.806569  0.836799  1
  O  O16  1  0.693431  0.693431  0.336799  1
  O  O17  1  0.306569  0.306569  0.336799  1
