# generated using pymatgen
data_DyY5(Er2Sb3)2
_symmetry_space_group_name_H-M   'P 1'
_cell_length_a   6.25278300
_cell_length_b   8.98236213
_cell_length_c   8.98246400
_cell_angle_alpha   119.99962732
_cell_angle_beta   90.00025586
_cell_angle_gamma   89.99949025
_symmetry_Int_Tables_number   1
_chemical_formula_structural   DyY5(Er2Sb3)2
_chemical_formula_sum   'Dy1 Y5 Er4 Sb6'
_cell_volume   436.90967776
_cell_formula_units_Z   1
loop_
 _symmetry_equiv_pos_site_id
 _symmetry_equiv_pos_as_xyz
  1  'x, y, z'
loop_
 _atom_site_type_symbol
 _atom_site_label
 _atom_site_symmetry_multiplicity
 _atom_site_fract_x
 _atom_site_fract_y
 _atom_site_fract_z
 _atom_site_occupancy
  Dy  Dy0  1  0.750000  0.247441  0.000000  1
  Y  Y1  1  0.750002  0.752657  0.752607  1
  Y  Y2  1  0.750002  0.000049  0.247393  1
  Y  Y3  1  0.250007  0.752535  0.000000  1
  Y  Y4  1  0.250001  0.247391  0.247350  1
  Y  Y5  1  0.250001  0.000041  0.752650  1
  Er  Er6  1  0.500033  0.333350  0.666699  1
  Er  Er7  1  0.500033  0.666650  0.333301  1
  Er  Er8  1  0.999954  0.666653  0.333310  1
  Er  Er9  1  0.999954  0.333343  0.666690  1
  Sb  Sb10  1  0.750002  0.610994  0.000000  1
  Sb  Sb11  1  0.750003  0.388968  0.388942  1
  Sb  Sb12  1  0.750003  0.000026  0.611058  1
  Sb  Sb13  1  0.250000  0.388940  0.000000  1
  Sb  Sb14  1  0.250005  0.610989  0.611016  1
  Sb  Sb15  1  0.250005  0.999973  0.388984  1
