# generated using pymatgen
data_LuThB6Os
_symmetry_space_group_name_H-M   'P 1'
_cell_length_a   3.70392400
_cell_length_b   9.21464500
_cell_length_c   11.61706200
_cell_angle_alpha   90.00000000
_cell_angle_beta   90.00000000
_cell_angle_gamma   90.00000000
_symmetry_Int_Tables_number   1
_chemical_formula_structural   LuThB6Os
_chemical_formula_sum   'Lu4 Th4 B24 Os4'
_cell_volume   396.49433124
_cell_formula_units_Z   4
loop_
 _symmetry_equiv_pos_site_id
 _symmetry_equiv_pos_as_xyz
  1  'x, y, z'
loop_
 _atom_site_type_symbol
 _atom_site_label
 _atom_site_symmetry_multiplicity
 _atom_site_fract_x
 _atom_site_fract_y
 _atom_site_fract_z
 _atom_site_occupancy
  Lu  Lu0  1  0.000000  0.944767  0.374724  1
  Lu  Lu1  1  0.000000  0.055233  0.625276  1
  Lu  Lu2  1  0.000000  0.444767  0.125276  1
  Lu  Lu3  1  0.000000  0.555233  0.874724  1
  Th  Th4  1  0.000000  0.321054  0.413723  1
  Th  Th5  1  0.000000  0.678946  0.586277  1
  Th  Th6  1  0.000000  0.821054  0.086277  1
  Th  Th7  1  0.000000  0.178946  0.913723  1
  B  B8  1  0.500000  0.555629  0.430652  1
  B  B9  1  0.500000  0.444371  0.569348  1
  B  B10  1  0.500000  0.055629  0.069348  1
  B  B11  1  0.500000  0.944371  0.930652  1
  B  B12  1  0.500000  0.752022  0.417335  1
  B  B13  1  0.500000  0.247978  0.582665  1
  B  B14  1  0.500000  0.252022  0.082665  1
  B  B15  1  0.500000  0.747978  0.917335  1
  B  B16  1  0.500000  0.792167  0.267245  1
  B  B17  1  0.500000  0.207833  0.732754  1
  B  B18  1  0.500000  0.292167  0.232755  1
  B  B19  1  0.500000  0.707833  0.767246  1
  B  B20  1  0.500000  0.630047  0.184410  1
  B  B21  1  0.500000  0.369953  0.815590  1
  B  B22  1  0.500000  0.130047  0.315590  1
  B  B23  1  0.500000  0.869953  0.684410  1
  B  B24  1  0.500000  0.984898  0.215109  1
  B  B25  1  0.500000  0.015102  0.784891  1
  B  B26  1  0.500000  0.484898  0.284891  1
  B  B27  1  0.500000  0.515102  0.715109  1
  B  B28  1  0.500000  0.602492  0.027848  1
  B  B29  1  0.500000  0.397508  0.972152  1
  B  B30  1  0.500000  0.102492  0.472152  1
  B  B31  1  0.500000  0.897508  0.527848  1
  Os  Os32  1  0.000000  0.639696  0.318980  1
  Os  Os33  1  0.000000  0.360304  0.681020  1
  Os  Os34  1  0.000000  0.139696  0.181020  1
  Os  Os35  1  0.000000  0.860304  0.818980  1
