# generated using pymatgen
data_Li4TaCo3Ni6P7
_symmetry_space_group_name_H-M   'P 1'
_cell_length_a   9.13989200
_cell_length_b   9.10279925
_cell_length_c   3.57297000
_cell_angle_alpha   90.00000000
_cell_angle_beta   90.00000000
_cell_angle_gamma   120.38286238
_symmetry_Int_Tables_number   1
_chemical_formula_structural   Li4TaCo3Ni6P7
_chemical_formula_sum   'Li4 Ta1 Co3 Ni6 P7'
_cell_volume   256.44106501
_cell_formula_units_Z   1
loop_
 _symmetry_equiv_pos_site_id
 _symmetry_equiv_pos_as_xyz
  1  'x, y, z'
loop_
 _atom_site_type_symbol
 _atom_site_label
 _atom_site_symmetry_multiplicity
 _atom_site_fract_x
 _atom_site_fract_y
 _atom_site_fract_z
 _atom_site_occupancy
  Li  Li0  1  0.899278  0.125130  0.500000  1
  Li  Li1  1  0.224368  0.100874  0.500000  1
  Li  Li2  1  0.330704  0.665945  0.000000  1
  Li  Li3  1  0.663973  0.330652  0.500000  1
  Ta  Ta4  1  0.875034  0.779364  0.500000  1
  Co  Co5  1  0.563589  0.954471  0.500000  1
  Co  Co6  1  0.392323  0.435875  0.500000  1
  Co  Co7  1  0.052289  0.610142  0.500000  1
  Ni  Ni8  1  0.709852  0.880106  0.000000  1
  Ni  Ni9  1  0.166031  0.287208  0.000000  1
  Ni  Ni10  1  0.125558  0.836449  0.000000  1
  Ni  Ni11  1  0.629881  0.567679  0.000000  1
  Ni  Ni12  1  0.939986  0.367472  0.000000  1
  Ni  Ni13  1  0.429872  0.060456  0.000000  1
  P  P14  1  0.570888  0.710845  0.500000  1
  P  P15  1  0.134749  0.421206  0.500000  1
  P  P16  1  0.292263  0.869945  0.500000  1
  P  P17  1  0.001570  0.001519  0.000000  1
  P  P18  1  0.884687  0.573227  0.000000  1
  P  P19  1  0.693583  0.119780  0.000000  1
  P  P20  1  0.419520  0.301653  0.000000  1
