# generated using pymatgen
data_Ho2NpO6
_symmetry_space_group_name_H-M   'P 1'
_cell_length_a   5.50666200
_cell_length_b   7.80895022
_cell_length_c   11.82026527
_cell_angle_alpha   73.71987339
_cell_angle_beta   90.00000000
_cell_angle_gamma   90.00000000
_symmetry_Int_Tables_number   1
_chemical_formula_structural   Ho2NpO6
_chemical_formula_sum   'Ho8 Np4 O24'
_cell_volume   487.90521363
_cell_formula_units_Z   4
loop_
 _symmetry_equiv_pos_site_id
 _symmetry_equiv_pos_as_xyz
  1  'x, y, z'
loop_
 _atom_site_type_symbol
 _atom_site_label
 _atom_site_symmetry_multiplicity
 _atom_site_fract_x
 _atom_site_fract_y
 _atom_site_fract_z
 _atom_site_occupancy
  Ho  Ho0  1  0.743993  0.000000  0.750000  1
  Ho  Ho1  1  0.256007  0.000000  0.250000  1
  Ho  Ho2  1  0.186830  0.795164  0.579653  1
  Ho  Ho3  1  0.813170  0.795164  0.079653  1
  Ho  Ho4  1  0.698969  0.500000  0.750000  1
  Ho  Ho5  1  0.301031  0.500000  0.250000  1
  Ho  Ho6  1  0.186830  0.204836  0.920347  1
  Ho  Ho7  1  0.813170  0.204836  0.420347  1
  Np  Np8  1  0.255498  0.719775  0.887062  1
  Np  Np9  1  0.744502  0.719775  0.387062  1
  Np  Np10  1  0.255498  0.280225  0.612938  1
  Np  Np11  1  0.744502  0.280225  0.112938  1
  O  O12  1  0.043723  0.943830  0.896665  1
  O  O13  1  0.553273  0.849466  0.931475  1
  O  O14  1  0.956277  0.943830  0.396665  1
  O  O15  1  0.450203  0.801072  0.726450  1
  O  O16  1  0.446727  0.849466  0.431475  1
  O  O17  1  0.963222  0.713539  0.766224  1
  O  O18  1  0.549797  0.801072  0.226450  1
  O  O19  1  0.875995  0.626065  0.555647  1
  O  O20  1  0.389734  0.479849  0.883402  1
  O  O21  1  0.036778  0.713539  0.266224  1
  O  O22  1  0.389734  0.520151  0.616598  1
  O  O23  1  0.875995  0.373935  0.944353  1
  O  O24  1  0.124005  0.626065  0.055647  1
  O  O25  1  0.610266  0.479849  0.383402  1
  O  O26  1  0.963222  0.286461  0.733776  1
  O  O27  1  0.610266  0.520151  0.116598  1
  O  O28  1  0.124005  0.373935  0.444353  1
  O  O29  1  0.450203  0.198928  0.773550  1
  O  O30  1  0.036778  0.286461  0.233776  1
  O  O31  1  0.553273  0.150534  0.568525  1
  O  O32  1  0.549797  0.198928  0.273550  1
  O  O33  1  0.043723  0.056170  0.603335  1
  O  O34  1  0.446727  0.150534  0.068525  1
  O  O35  1  0.956277  0.056170  0.103335  1
