# generated using pymatgen
data_Hf3Zr2Fe13(CoP2)6
_symmetry_space_group_name_H-M   'P 1'
_cell_length_a   11.78537700
_cell_length_b   11.77299013
_cell_length_c   3.61218000
_cell_angle_alpha   90.00000000
_cell_angle_beta   90.00000000
_cell_angle_gamma   120.15559014
_symmetry_Int_Tables_number   1
_chemical_formula_structural   Hf3Zr2Fe13(CoP2)6
_chemical_formula_sum   'Hf3 Zr2 Fe13 Co6 P12'
_cell_volume   433.35841891
_cell_formula_units_Z   1
loop_
 _symmetry_equiv_pos_site_id
 _symmetry_equiv_pos_as_xyz
  1  'x, y, z'
loop_
 _atom_site_type_symbol
 _atom_site_label
 _atom_site_symmetry_multiplicity
 _atom_site_fract_x
 _atom_site_fract_y
 _atom_site_fract_z
 _atom_site_occupancy
  Hf  Hf0  1  0.812824  0.999618  0.000000  1
  Hf  Hf1  1  0.000071  0.813568  0.000000  1
  Hf  Hf2  1  0.185960  0.186077  0.000000  1
  Zr  Zr3  1  0.334276  0.668337  0.500000  1
  Zr  Zr4  1  0.666238  0.332354  0.500000  1
  Fe  Fe5  1  0.625065  0.803071  0.500000  1
  Fe  Fe6  1  0.196561  0.819899  0.500000  1
  Fe  Fe7  1  0.180282  0.377336  0.500000  1
  Fe  Fe8  1  0.376979  0.180763  0.500000  1
  Fe  Fe9  1  0.802878  0.621958  0.500000  1
  Fe  Fe10  1  0.819158  0.196254  0.500000  1
  Fe  Fe11  1  0.282158  0.000059  0.000000  1
  Fe  Fe12  1  0.999885  0.283032  0.000000  1
  Fe  Fe13  1  0.717430  0.716264  0.000000  1
  Fe  Fe14  1  0.446321  0.001946  0.500000  1
  Fe  Fe15  1  0.000337  0.446948  0.500000  1
  Fe  Fe16  1  0.553409  0.553426  0.500000  1
  Fe  Fe17  1  0.514528  0.874580  0.000000  1
  Co  Co18  1  0.125699  0.639810  0.000000  1
  Co  Co19  1  0.360927  0.486108  0.000000  1
  Co  Co20  1  0.485608  0.360528  0.000000  1
  Co  Co21  1  0.874683  0.513714  0.000000  1
  Co  Co22  1  0.638685  0.124574  0.000000  1
  Co  Co23  1  0.000250  0.000296  0.500000  1
  P  P24  1  0.178873  0.999948  0.500000  1
  P  P25  1  0.999553  0.178978  0.500000  1
  P  P26  1  0.821588  0.820654  0.500000  1
  P  P27  1  0.521265  0.688673  0.000000  1
  P  P28  1  0.314497  0.835027  0.000000  1
  P  P29  1  0.167129  0.479996  0.000000  1
  P  P30  1  0.478882  0.165902  0.000000  1
  P  P31  1  0.687192  0.520113  0.000000  1
  P  P32  1  0.833147  0.312249  0.000000  1
  P  P33  1  0.634329  0.997768  0.500000  1
  P  P34  1  0.000175  0.636632  0.500000  1
  P  P35  1  0.363159  0.363539  0.500000  1
