# generated using pymatgen
data_HoTm(CdSn)2
_symmetry_space_group_name_H-M   'P 1'
_cell_length_a   4.39382628
_cell_length_b   4.39382544
_cell_length_c   8.49238800
_cell_angle_alpha   104.99245757
_cell_angle_beta   104.99245466
_cell_angle_gamma   89.99999725
_symmetry_Int_Tables_number   1
_chemical_formula_structural   HoTm(CdSn)2
_chemical_formula_sum   'Ho1 Tm1 Cd2 Sn2'
_cell_volume   152.58569854
_cell_formula_units_Z   1
loop_
 _symmetry_equiv_pos_site_id
 _symmetry_equiv_pos_as_xyz
  1  'x, y, z'
loop_
 _atom_site_type_symbol
 _atom_site_label
 _atom_site_symmetry_multiplicity
 _atom_site_fract_x
 _atom_site_fract_y
 _atom_site_fract_z
 _atom_site_occupancy
  Ho  Ho0  1  0.663943  0.663943  0.327885  1
  Tm  Tm1  1  0.336253  0.336253  0.672507  1
  Cd  Cd2  1  0.499724  0.999724  0.999448  1
  Cd  Cd3  1  0.999724  0.499724  0.999448  1
  Sn  Sn4  1  0.142336  0.142336  0.284673  1
  Sn  Sn5  1  0.858020  0.858020  0.716040  1
