# generated using pymatgen
data_Tm4ReTc4Ru3
_symmetry_space_group_name_H-M   'P 1'
_cell_length_a   5.17935973
_cell_length_b   5.30558251
_cell_length_c   9.05999000
_cell_angle_alpha   90.00000000
_cell_angle_beta   90.00000000
_cell_angle_gamma   119.80453341
_symmetry_Int_Tables_number   1
_chemical_formula_structural   Tm4ReTc4Ru3
_chemical_formula_sum   'Tm4 Re1 Tc4 Ru3'
_cell_volume   216.03272439
_cell_formula_units_Z   1
loop_
 _symmetry_equiv_pos_site_id
 _symmetry_equiv_pos_as_xyz
  1  'x, y, z'
loop_
 _atom_site_type_symbol
 _atom_site_label
 _atom_site_symmetry_multiplicity
 _atom_site_fract_x
 _atom_site_fract_y
 _atom_site_fract_z
 _atom_site_occupancy
  Tm  Tm0  1  0.334443  0.668880  0.436612  1
  Tm  Tm1  1  0.661620  0.328763  0.565184  1
  Tm  Tm2  1  0.661620  0.328763  0.934816  1
  Tm  Tm3  1  0.334443  0.668880  0.063388  1
  Re  Re4  1  0.671354  0.838617  0.750000  1
  Tc  Tc5  1  0.831486  0.172121  0.250000  1
  Tc  Tc6  1  0.828231  0.657462  0.250000  1
  Tc  Tc7  1  0.346118  0.173979  0.250000  1
  Tc  Tc8  1  0.178723  0.833296  0.750000  1
  Ru  Ru9  1  0.987027  0.988488  0.501020  1
  Ru  Ru10  1  0.987027  0.988488  0.998980  1
  Ru  Ru11  1  0.177908  0.352266  0.750000  1
