# generated using pymatgen
data_CrFeNi4(BO5)2
_symmetry_space_group_name_H-M   'P 1'
_cell_length_a   3.03730200
_cell_length_b   9.33135243
_cell_length_c   12.30335625
_cell_angle_alpha   90.06063429
_cell_angle_beta   90.00000000
_cell_angle_gamma   90.00000000
_symmetry_Int_Tables_number   1
_chemical_formula_structural   CrFeNi4(BO5)2
_chemical_formula_sum   'Cr2 Fe2 Ni8 B4 O20'
_cell_volume   348.70319346
_cell_formula_units_Z   2
loop_
 _symmetry_equiv_pos_site_id
 _symmetry_equiv_pos_as_xyz
  1  'x, y, z'
loop_
 _atom_site_type_symbol
 _atom_site_label
 _atom_site_symmetry_multiplicity
 _atom_site_fract_x
 _atom_site_fract_y
 _atom_site_fract_z
 _atom_site_occupancy
  Cr  Cr0  1  0.000000  0.258777  0.886892  1
  Cr  Cr1  1  0.000000  0.741223  0.113108  1
  Fe  Fe2  1  0.000000  0.239640  0.384824  1
  Fe  Fe3  1  0.000000  0.760360  0.615176  1
  Ni  Ni4  1  0.500000  0.000000  0.500000  1
  Ni  Ni5  1  0.500000  0.500000  0.000000  1
  Ni  Ni6  1  0.500000  0.999385  0.217914  1
  Ni  Ni7  1  0.500000  0.000615  0.782086  1
  Ni  Ni8  1  0.500000  0.499310  0.719321  1
  Ni  Ni9  1  0.500000  0.500690  0.280679  1
  Ni  Ni10  1  0.000000  0.000000  0.000000  1
  Ni  Ni11  1  0.000000  0.500000  0.500000  1
  B  B12  1  0.000000  0.271820  0.138359  1
  B  B13  1  0.000000  0.728180  0.861641  1
  B  B14  1  0.000000  0.228376  0.640342  1
  B  B15  1  0.000000  0.771624  0.359658  1
  O  O16  1  0.500000  0.106847  0.356424  1
  O  O17  1  0.500000  0.893153  0.643576  1
  O  O18  1  0.500000  0.391068  0.857470  1
  O  O19  1  0.500000  0.608932  0.142530  1
  O  O20  1  0.000000  0.123704  0.140468  1
  O  O21  1  0.000000  0.876296  0.859532  1
  O  O22  1  0.000000  0.376347  0.641015  1
  O  O23  1  0.000000  0.623653  0.358985  1
  O  O24  1  0.500000  0.382964  0.421749  1
  O  O25  1  0.500000  0.617036  0.578251  1
  O  O26  1  0.500000  0.117358  0.922676  1
  O  O27  1  0.500000  0.882642  0.077324  1
  O  O28  1  0.000000  0.347863  0.235631  1
  O  O29  1  0.000000  0.652137  0.764369  1
  O  O30  1  0.000000  0.154488  0.738722  1
  O  O31  1  0.000000  0.845512  0.261278  1
  O  O32  1  0.000000  0.347446  0.040491  1
  O  O33  1  0.000000  0.652554  0.959509  1
  O  O34  1  0.000000  0.151172  0.543063  1
  O  O35  1  0.000000  0.848828  0.456937  1
