# generated using pymatgen
data_LaPu(GaNi4)2
_symmetry_space_group_name_H-M   'P 1'
_cell_length_a   4.04808200
_cell_length_b   5.06742700
_cell_length_c   8.42239300
_cell_angle_alpha   90.00000000
_cell_angle_beta   90.00000000
_cell_angle_gamma   90.00000000
_symmetry_Int_Tables_number   1
_chemical_formula_structural   LaPu(GaNi4)2
_chemical_formula_sum   'La1 Pu1 Ga2 Ni8'
_cell_volume   172.77157988
_cell_formula_units_Z   1
loop_
 _symmetry_equiv_pos_site_id
 _symmetry_equiv_pos_as_xyz
  1  'x, y, z'
loop_
 _atom_site_type_symbol
 _atom_site_label
 _atom_site_symmetry_multiplicity
 _atom_site_fract_x
 _atom_site_fract_y
 _atom_site_fract_z
 _atom_site_occupancy
  La  La0  1  0.000000  0.000000  0.000000  1
  Pu  Pu1  1  0.000000  0.500000  0.500000  1
  Ga  Ga2  1  0.500000  0.500000  0.000000  1
  Ga  Ga3  1  0.500000  0.000000  0.500000  1
  Ni  Ni4  1  0.000000  0.000000  0.333281  1
  Ni  Ni5  1  0.000000  0.500000  0.825022  1
  Ni  Ni6  1  0.000000  0.500000  0.174978  1
  Ni  Ni7  1  0.000000  0.000000  0.666719  1
  Ni  Ni8  1  0.500000  0.253954  0.254601  1
  Ni  Ni9  1  0.500000  0.746046  0.745399  1
  Ni  Ni10  1  0.500000  0.746046  0.254601  1
  Ni  Ni11  1  0.500000  0.253954  0.745399  1
