# generated using pymatgen
data_Ca8YbDyIr4
_symmetry_space_group_name_H-M   'P 1'
_cell_length_a   6.53232947
_cell_length_b   7.52407588
_cell_length_c   8.60057083
_cell_angle_alpha   97.36413968
_cell_angle_beta   112.31890877
_cell_angle_gamma   89.99999372
_symmetry_Int_Tables_number   1
_chemical_formula_structural   Ca8YbDyIr4
_chemical_formula_sum   'Ca8 Yb1 Dy1 Ir4'
_cell_volume   387.27610302
_cell_formula_units_Z   1
loop_
 _symmetry_equiv_pos_site_id
 _symmetry_equiv_pos_as_xyz
  1  'x, y, z'
loop_
 _atom_site_type_symbol
 _atom_site_label
 _atom_site_symmetry_multiplicity
 _atom_site_fract_x
 _atom_site_fract_y
 _atom_site_fract_z
 _atom_site_occupancy
  Ca  Ca0  1  0.799681  0.081702  0.827006  1
  Ca  Ca1  1  0.972675  0.418298  0.172994  1
  Ca  Ca2  1  0.197807  0.918696  0.174602  1
  Ca  Ca3  1  0.023205  0.581304  0.825398  1
  Ca  Ca4  1  0.202931  0.180127  0.565974  1
  Ca  Ca5  1  0.636956  0.319873  0.434026  1
  Ca  Ca6  1  0.798350  0.819280  0.436818  1
  Ca  Ca7  1  0.361534  0.680720  0.563182  1
  Yb  Yb8  1  0.432883  0.250000  0.000000  1
  Dy  Dy9  1  0.562954  0.750000  0.000000  1
  Ir  Ir10  1  0.601968  0.430372  0.787340  1
  Ir  Ir11  1  0.814627  0.069628  0.212660  1
  Ir  Ir12  1  0.403492  0.581453  0.212555  1
  Ir  Ir13  1  0.190938  0.918547  0.787445  1
