# generated using pymatgen
data_Tb16Ho4(CoPt3)3
_symmetry_space_group_name_H-M   'P 1'
_cell_length_a   11.05879200
_cell_length_b   11.05879200
_cell_length_c   6.41244900
_cell_angle_alpha   90.00000000
_cell_angle_beta   90.00000000
_cell_angle_gamma   90.00000000
_symmetry_Int_Tables_number   1
_chemical_formula_structural   Tb16Ho4(CoPt3)3
_chemical_formula_sum   'Tb16 Ho4 Co3 Pt9'
_cell_volume   784.22250906
_cell_formula_units_Z   1
loop_
 _symmetry_equiv_pos_site_id
 _symmetry_equiv_pos_as_xyz
  1  'x, y, z'
loop_
 _atom_site_type_symbol
 _atom_site_label
 _atom_site_symmetry_multiplicity
 _atom_site_fract_x
 _atom_site_fract_y
 _atom_site_fract_z
 _atom_site_occupancy
  Tb  Tb0  1  0.294531  0.087304  0.380643  1
  Tb  Tb1  1  0.293484  0.912537  0.870720  1
  Tb  Tb2  1  0.706516  0.087463  0.870720  1
  Tb  Tb3  1  0.705469  0.912696  0.380643  1
  Tb  Tb4  1  0.587463  0.793484  0.870720  1
  Tb  Tb5  1  0.587304  0.205469  0.380643  1
  Tb  Tb6  1  0.412696  0.794531  0.380643  1
  Tb  Tb7  1  0.412537  0.206516  0.870720  1
  Tb  Tb8  1  0.201635  0.414592  0.623757  1
  Tb  Tb9  1  0.201783  0.585851  0.124430  1
  Tb  Tb10  1  0.798217  0.414149  0.124430  1
  Tb  Tb11  1  0.798365  0.585408  0.623757  1
  Tb  Tb12  1  0.914149  0.701783  0.124430  1
  Tb  Tb13  1  0.914592  0.298365  0.623757  1
  Tb  Tb14  1  0.085408  0.701635  0.623757  1
  Tb  Tb15  1  0.085851  0.298217  0.124430  1
  Ho  Ho16  1  0.000000  0.000000  0.500539  1
  Ho  Ho17  1  0.000000  0.000000  0.000756  1
  Ho  Ho18  1  0.500000  0.500000  0.000756  1
  Ho  Ho19  1  0.500000  0.500000  0.500539  1
  Co  Co20  1  0.500000  0.000000  0.618443  1
  Co  Co21  1  0.000000  0.500000  0.879709  1
  Co  Co22  1  0.000000  0.500000  0.379594  1
  Pt  Pt23  1  0.847302  0.151920  0.250109  1
  Pt  Pt24  1  0.847651  0.847781  0.750503  1
  Pt  Pt25  1  0.152349  0.152219  0.750503  1
  Pt  Pt26  1  0.152698  0.848080  0.250109  1
  Pt  Pt27  1  0.652219  0.347651  0.750503  1
  Pt  Pt28  1  0.651920  0.652698  0.250109  1
  Pt  Pt29  1  0.348080  0.347302  0.250109  1
  Pt  Pt30  1  0.347781  0.652349  0.750503  1
  Pt  Pt31  1  0.500000  0.000000  0.119017  1
