# generated using pymatgen
data_ThTi2(Nb2Sn3)2
_symmetry_space_group_name_H-M   'P 1'
_cell_length_a   5.79747600
_cell_length_b   5.78754979
_cell_length_c   9.67870400
_cell_angle_alpha   90.00000000
_cell_angle_beta   90.00000000
_cell_angle_gamma   120.05673973
_symmetry_Int_Tables_number   1
_chemical_formula_structural   ThTi2(Nb2Sn3)2
_chemical_formula_sum   'Th1 Ti2 Nb4 Sn6'
_cell_volume   281.08194452
_cell_formula_units_Z   1
loop_
 _symmetry_equiv_pos_site_id
 _symmetry_equiv_pos_as_xyz
  1  'x, y, z'
loop_
 _atom_site_type_symbol
 _atom_site_label
 _atom_site_symmetry_multiplicity
 _atom_site_fract_x
 _atom_site_fract_y
 _atom_site_fract_z
 _atom_site_occupancy
  Th  Th0  1  0.000000  0.000000  0.000000  1
  Ti  Ti1  1  0.500000  0.000000  0.750901  1
  Ti  Ti2  1  0.500000  0.000000  0.249099  1
  Nb  Nb3  1  0.000000  0.500000  0.751836  1
  Nb  Nb4  1  0.500000  0.500000  0.751836  1
  Nb  Nb5  1  0.000000  0.500000  0.248164  1
  Nb  Nb6  1  0.500000  0.500000  0.248164  1
  Sn  Sn7  1  0.664444  0.328888  0.500000  1
  Sn  Sn8  1  0.335556  0.671112  0.500000  1
  Sn  Sn9  1  0.664118  0.328234  0.000000  1
  Sn  Sn10  1  0.335882  0.671766  0.000000  1
  Sn  Sn11  1  0.000000  0.000000  0.667828  1
  Sn  Sn12  1  0.000000  0.000000  0.332172  1
