# generated using pymatgen
data_Nd6Ga5SiRh12
_symmetry_space_group_name_H-M   'P 1'
_cell_length_a   5.66396500
_cell_length_b   5.66402552
_cell_length_c   15.67410500
_cell_angle_alpha   90.00000000
_cell_angle_beta   90.00000000
_cell_angle_gamma   120.00031329
_symmetry_Int_Tables_number   1
_chemical_formula_structural   Nd6Ga5SiRh12
_chemical_formula_sum   'Nd6 Ga5 Si1 Rh12'
_cell_volume   435.46953200
_cell_formula_units_Z   1
loop_
 _symmetry_equiv_pos_site_id
 _symmetry_equiv_pos_as_xyz
  1  'x, y, z'
loop_
 _atom_site_type_symbol
 _atom_site_label
 _atom_site_symmetry_multiplicity
 _atom_site_fract_x
 _atom_site_fract_y
 _atom_site_fract_z
 _atom_site_occupancy
  Nd  Nd0  1  0.666657  0.333330  0.958731  1
  Nd  Nd1  1  0.666657  0.333330  0.541269  1
  Nd  Nd2  1  0.333342  0.666667  0.038892  1
  Nd  Nd3  1  0.666678  0.333336  0.750000  1
  Nd  Nd4  1  0.333342  0.666667  0.461108  1
  Nd  Nd5  1  0.333310  0.666661  0.250000  1
  Ga  Ga6  1  0.666704  0.333353  0.250000  1
  Ga  Ga7  1  0.000001  0.000006  0.502925  1
  Ga  Ga8  1  0.999964  0.999975  0.250000  1
  Ga  Ga9  1  0.000052  0.000042  0.750000  1
  Ga  Ga10  1  0.000001  0.000006  0.997075  1
  Si  Si11  1  0.333329  0.666669  0.750000  1
  Rh  Rh12  1  0.169622  0.339241  0.867708  1
  Rh  Rh13  1  0.169622  0.339241  0.632292  1
  Rh  Rh14  1  0.660756  0.830376  0.867705  1
  Rh  Rh15  1  0.336053  0.168022  0.374148  1
  Rh  Rh16  1  0.831968  0.663946  0.374145  1
  Rh  Rh17  1  0.831970  0.168019  0.374147  1
  Rh  Rh18  1  0.831970  0.168019  0.125853  1
  Rh  Rh19  1  0.336053  0.168022  0.125852  1
  Rh  Rh20  1  0.660756  0.830376  0.632295  1
  Rh  Rh21  1  0.169612  0.830373  0.632294  1
  Rh  Rh22  1  0.831968  0.663946  0.125855  1
  Rh  Rh23  1  0.169612  0.830373  0.867706  1
