# generated using pymatgen
data_ScNb11Ga8Fe2(CoC2)2
_symmetry_space_group_name_H-M   'P 1'
_cell_length_a   8.22147170
_cell_length_b   8.22147203
_cell_length_c   8.21768200
_cell_angle_alpha   60.01524831
_cell_angle_beta   60.01524697
_cell_angle_gamma   60.06586166
_symmetry_Int_Tables_number   1
_chemical_formula_structural   ScNb11Ga8Fe2(CoC2)2
_chemical_formula_sum   'Sc1 Nb11 Ga8 Fe2 Co2 C4'
_cell_volume   393.05139224
_cell_formula_units_Z   1
loop_
 _symmetry_equiv_pos_site_id
 _symmetry_equiv_pos_as_xyz
  1  'x, y, z'
loop_
 _atom_site_type_symbol
 _atom_site_label
 _atom_site_symmetry_multiplicity
 _atom_site_fract_x
 _atom_site_fract_y
 _atom_site_fract_z
 _atom_site_occupancy
  Sc  Sc0  1  0.696976  0.303196  0.695961  1
  Nb  Nb1  1  0.941914  0.556050  0.559614  1
  Nb  Nb2  1  0.553768  0.942766  0.941855  1
  Nb  Nb3  1  0.945843  0.550904  0.945600  1
  Nb  Nb4  1  0.559384  0.560740  0.939713  1
  Nb  Nb5  1  0.944365  0.945392  0.553744  1
  Nb  Nb6  1  0.690586  0.698612  0.306165  1
  Nb  Nb7  1  0.306120  0.700140  0.689259  1
  Nb  Nb8  1  0.696800  0.301745  0.303651  1
  Nb  Nb9  1  0.303130  0.301010  0.695987  1
  Nb  Nb10  1  0.551517  0.946258  0.556348  1
  Nb  Nb11  1  0.307848  0.695387  0.307751  1
  Ga  Ga12  1  0.333572  0.336737  0.331466  1
  Ga  Ga13  1  0.249473  0.914158  0.918735  1
  Ga  Ga14  1  0.915929  0.248783  0.917187  1
  Ga  Ga15  1  0.915820  0.914198  0.252691  1
  Ga  Ga16  1  0.333058  0.002747  0.330776  1
  Ga  Ga17  1  0.333777  0.335699  0.998308  1
  Ga  Ga18  1  0.999073  0.335326  0.334034  1
  Ga  Ga19  1  0.915924  0.914221  0.916779  1
  Fe  Fe20  1  0.123731  0.126171  0.124438  1
  Fe  Fe21  1  0.129870  0.122829  0.625166  1
  Co  Co22  1  0.625196  0.123171  0.128914  1
  Co  Co23  1  0.124019  0.625712  0.124900  1
  C  C24  1  0.624400  0.627201  0.623764  1
  C  C25  1  0.125964  0.623319  0.627272  1
  C  C26  1  0.624245  0.124508  0.623718  1
  C  C27  1  0.627698  0.623019  0.126208  1
