# generated using pymatgen
data_ZrTa5TiSn6
_symmetry_space_group_name_H-M   'P 1'
_cell_length_a   5.73117894
_cell_length_b   5.73117707
_cell_length_c   9.58500500
_cell_angle_alpha   90.00000000
_cell_angle_beta   90.00000000
_cell_angle_gamma   120.09417893
_symmetry_Int_Tables_number   1
_chemical_formula_structural   ZrTa5TiSn6
_chemical_formula_sum   'Zr1 Ta5 Ti1 Sn6'
_cell_volume   272.39418857
_cell_formula_units_Z   1
loop_
 _symmetry_equiv_pos_site_id
 _symmetry_equiv_pos_as_xyz
  1  'x, y, z'
loop_
 _atom_site_type_symbol
 _atom_site_label
 _atom_site_symmetry_multiplicity
 _atom_site_fract_x
 _atom_site_fract_y
 _atom_site_fract_z
 _atom_site_occupancy
  Zr  Zr0  1  0.000000  0.000000  0.997156  1
  Ta  Ta1  1  0.000000  0.500000  0.249112  1
  Ta  Ta2  1  0.000000  0.500000  0.752774  1
  Ta  Ta3  1  0.500000  0.500000  0.750973  1
  Ta  Ta4  1  0.500000  0.000000  0.249112  1
  Ta  Ta5  1  0.500000  0.000000  0.752774  1
  Ti  Ti6  1  0.500000  0.500000  0.248565  1
  Sn  Sn7  1  0.334991  0.665009  0.002102  1
  Sn  Sn8  1  0.334621  0.665379  0.499465  1
  Sn  Sn9  1  0.000000  0.000000  0.324608  1
  Sn  Sn10  1  0.000000  0.000000  0.671794  1
  Sn  Sn11  1  0.665009  0.334991  0.002102  1
  Sn  Sn12  1  0.665379  0.334621  0.499465  1
