# generated using pymatgen
data_Cs3AsPBr9
_symmetry_space_group_name_H-M   'P 1'
_cell_length_a   7.87213900
_cell_length_b   7.87213894
_cell_length_c   19.50942400
_cell_angle_alpha   90.00000000
_cell_angle_beta   90.00000000
_cell_angle_gamma   120.00000445
_symmetry_Int_Tables_number   1
_chemical_formula_structural   Cs3AsPBr9
_chemical_formula_sum   'Cs6 As2 P2 Br18'
_cell_volume   1047.03346870
_cell_formula_units_Z   2
loop_
 _symmetry_equiv_pos_site_id
 _symmetry_equiv_pos_as_xyz
  1  'x, y, z'
loop_
 _atom_site_type_symbol
 _atom_site_label
 _atom_site_symmetry_multiplicity
 _atom_site_fract_x
 _atom_site_fract_y
 _atom_site_fract_z
 _atom_site_occupancy
  Cs  Cs0  1  0.666667  0.333333  0.917913  1
  Cs  Cs1  1  0.333333  0.666667  0.417913  1
  Cs  Cs2  1  0.666667  0.333333  0.586424  1
  Cs  Cs3  1  0.333333  0.666667  0.086424  1
  Cs  Cs4  1  0.000000  0.000000  0.744920  1
  Cs  Cs5  1  0.000000  0.000000  0.244920  1
  As  As6  1  0.333333  0.666667  0.659741  1
  As  As7  1  0.666667  0.333333  0.159741  1
  P  P8  1  0.666667  0.333333  0.345510  1
  P  P9  1  0.333333  0.666667  0.845510  1
  Br  Br10  1  0.816297  0.632593  0.410724  1
  Br  Br11  1  0.183703  0.367407  0.910724  1
  Br  Br12  1  0.183703  0.816297  0.910724  1
  Br  Br13  1  0.175618  0.351236  0.587622  1
  Br  Br14  1  0.632593  0.816297  0.910724  1
  Br  Br15  1  0.367407  0.183703  0.410724  1
  Br  Br16  1  0.008881  0.504441  0.750151  1
  Br  Br17  1  0.816297  0.183703  0.410724  1
  Br  Br18  1  0.504441  0.008881  0.250151  1
  Br  Br19  1  0.495559  0.504441  0.750151  1
  Br  Br20  1  0.504441  0.495559  0.250151  1
  Br  Br21  1  0.991119  0.495559  0.250151  1
  Br  Br22  1  0.351236  0.175618  0.087622  1
  Br  Br23  1  0.495559  0.991119  0.750151  1
  Br  Br24  1  0.824382  0.648764  0.087622  1
  Br  Br25  1  0.175618  0.824382  0.587622  1
  Br  Br26  1  0.648764  0.824382  0.587622  1
  Br  Br27  1  0.824382  0.175618  0.087622  1
