# generated using pymatgen
data_SrNd5SmOsBr12
_symmetry_space_group_name_H-M   'P 1'
_cell_length_a   9.52820629
_cell_length_b   9.62996763
_cell_length_c   9.52317119
_cell_angle_alpha   106.37577419
_cell_angle_beta   106.14502031
_cell_angle_gamma   106.03665559
_symmetry_Int_Tables_number   1
_chemical_formula_structural   SrNd5SmOsBr12
_chemical_formula_sum   'Sr1 Nd5 Sm1 Os1 Br12'
_cell_volume   743.28364821
_cell_formula_units_Z   1
loop_
 _symmetry_equiv_pos_site_id
 _symmetry_equiv_pos_as_xyz
  1  'x, y, z'
loop_
 _atom_site_type_symbol
 _atom_site_label
 _atom_site_symmetry_multiplicity
 _atom_site_fract_x
 _atom_site_fract_y
 _atom_site_fract_z
 _atom_site_occupancy
  Sr  Sr0  1  0.500123  0.499899  0.500254  1
  Nd  Nd1  1  0.104950  0.318153  0.019666  1
  Nd  Nd2  1  0.307001  0.019322  0.101343  1
  Nd  Nd3  1  0.019482  0.100545  0.307871  1
  Nd  Nd4  1  0.980043  0.897831  0.691662  1
  Nd  Nd5  1  0.692737  0.980285  0.898683  1
  Sm  Sm6  1  0.895736  0.684712  0.979831  1
  Os  Os7  1  0.999754  0.999571  0.999636  1
  Br  Br8  1  0.216463  0.680582  0.071643  1
  Br  Br9  1  0.448620  0.365883  0.148773  1
  Br  Br10  1  0.680138  0.072424  0.220418  1
  Br  Br11  1  0.927193  0.779023  0.316166  1
  Br  Br12  1  0.148312  0.447444  0.366626  1
  Br  Br13  1  0.367532  0.150567  0.449395  1
  Br  Br14  1  0.632456  0.849372  0.550527  1
  Br  Br15  1  0.852120  0.552583  0.636722  1
  Br  Br16  1  0.071934  0.218543  0.680029  1
  Br  Br17  1  0.319890  0.927591  0.779570  1
  Br  Br18  1  0.555102  0.634110  0.853190  1
  Br  Br19  1  0.780413  0.321560  0.927995  1
