# generated using pymatgen
data_Tb8Ti9Nb2Si16Pd
_symmetry_space_group_name_H-M   'P 1'
_cell_length_a   7.07790227
_cell_length_b   7.07730678
_cell_length_c   12.94290169
_cell_angle_alpha   90.16298610
_cell_angle_beta   89.86263931
_cell_angle_gamma   89.64885789
_symmetry_Int_Tables_number   1
_chemical_formula_structural   Tb8Ti9Nb2Si16Pd
_chemical_formula_sum   'Tb8 Ti9 Nb2 Si16 Pd1'
_cell_volume   648.32542945
_cell_formula_units_Z   1
loop_
 _symmetry_equiv_pos_site_id
 _symmetry_equiv_pos_as_xyz
  1  'x, y, z'
loop_
 _atom_site_type_symbol
 _atom_site_label
 _atom_site_symmetry_multiplicity
 _atom_site_fract_x
 _atom_site_fract_y
 _atom_site_fract_z
 _atom_site_occupancy
  Tb  Tb0  1  0.340723  0.002183  0.467371  1
  Tb  Tb1  1  0.497124  0.840816  0.717488  1
  Tb  Tb2  1  0.501541  0.158871  0.214641  1
  Tb  Tb3  1  0.840966  0.498033  0.282420  1
  Tb  Tb4  1  0.158879  0.501762  0.785552  1
  Tb  Tb5  1  0.657057  0.999676  0.968190  1
  Tb  Tb6  1  0.002669  0.340260  0.532655  1
  Tb  Tb7  1  0.999392  0.656817  0.031672  1
  Ti  Ti8  1  0.825888  0.175168  0.751266  1
  Ti  Ti9  1  0.149481  0.006045  0.877032  1
  Ti  Ti10  1  0.492299  0.654625  0.125052  1
  Ti  Ti11  1  0.509203  0.349876  0.626630  1
  Ti  Ti12  1  0.654209  0.493006  0.875473  1
  Ti  Ti13  1  0.349360  0.509598  0.372958  1
  Ti  Ti14  1  0.848617  0.990552  0.374767  1
  Ti  Ti15  1  0.006214  0.148250  0.123520  1
  Ti  Ti16  1  0.991064  0.847492  0.624736  1
  Nb  Nb17  1  0.174475  0.826260  0.248637  1
  Nb  Nb18  1  0.673118  0.673095  0.500131  1
  Si  Si19  1  0.201430  0.131215  0.685732  1
  Si  Si20  1  0.373937  0.709402  0.932969  1
  Si  Si21  1  0.629681  0.295683  0.434454  1
  Si  Si22  1  0.709457  0.373794  0.066598  1
  Si  Si23  1  0.295407  0.629282  0.565832  1
  Si  Si24  1  0.797349  0.869263  0.183593  1
  Si  Si25  1  0.131418  0.202402  0.314816  1
  Si  Si26  1  0.869159  0.798645  0.815931  1
  Si  Si27  1  0.287189  0.945492  0.062945  1
  Si  Si28  1  0.547192  0.792012  0.313859  1
  Si  Si29  1  0.451070  0.209852  0.814008  1
  Si  Si30  1  0.792167  0.546392  0.686256  1
  Si  Si31  1  0.209817  0.450123  0.185896  1
  Si  Si32  1  0.709707  0.048388  0.565131  1
  Si  Si33  1  0.943629  0.285763  0.935265  1
  Si  Si34  1  0.047788  0.708560  0.436092  1
  Pd  Pd35  1  0.331322  0.331343  0.000433  1
