# generated using pymatgen
data_Ho12B3CCl12
_symmetry_space_group_name_H-M   'P 1'
_cell_length_a   9.32600306
_cell_length_b   9.32600295
_cell_length_c   9.32600336
_cell_angle_alpha   109.32497583
_cell_angle_beta   109.32497748
_cell_angle_gamma   109.32497563
_symmetry_Int_Tables_number   1
_chemical_formula_structural   Ho12B3CCl12
_chemical_formula_sum   'Ho12 B3 C1 Cl12'
_cell_volume   627.76080856
_cell_formula_units_Z   1
loop_
 _symmetry_equiv_pos_site_id
 _symmetry_equiv_pos_as_xyz
  1  'x, y, z'
loop_
 _atom_site_type_symbol
 _atom_site_label
 _atom_site_symmetry_multiplicity
 _atom_site_fract_x
 _atom_site_fract_y
 _atom_site_fract_z
 _atom_site_occupancy
  Ho  Ho0  1  0.465406  0.479601  0.234713  1
  Ho  Ho1  1  0.750000  0.235440  0.264560  1
  Ho  Ho2  1  0.750000  0.015315  0.484685  1
  Ho  Ho3  1  0.234713  0.465406  0.479601  1
  Ho  Ho4  1  0.264560  0.750000  0.235440  1
  Ho  Ho5  1  0.034594  0.265287  0.020399  1
  Ho  Ho6  1  0.020399  0.034594  0.265287  1
  Ho  Ho7  1  0.484685  0.750000  0.015315  1
  Ho  Ho8  1  0.479601  0.234713  0.465406  1
  Ho  Ho9  1  0.015315  0.484685  0.750000  1
  Ho  Ho10  1  0.265287  0.020399  0.034594  1
  Ho  Ho11  1  0.235440  0.264560  0.750000  1
  B  B12  1  0.499114  0.000886  0.250000  1
  B  B13  1  0.000886  0.250000  0.499114  1
  B  B14  1  0.250000  0.499114  0.000886  1
  C  C15  1  0.250000  0.250000  0.250000  1
  Cl  Cl16  1  0.250000  0.756621  0.743379  1
  Cl  Cl17  1  0.512527  0.505922  0.753933  1
  Cl  Cl18  1  0.987473  0.746067  0.994078  1
  Cl  Cl19  1  0.743379  0.250000  0.756621  1
  Cl  Cl20  1  0.994078  0.987473  0.746067  1
  Cl  Cl21  1  0.250000  0.994054  0.505946  1
  Cl  Cl22  1  0.753933  0.512527  0.505922  1
  Cl  Cl23  1  0.505946  0.250000  0.994054  1
  Cl  Cl24  1  0.756621  0.743379  0.250000  1
  Cl  Cl25  1  0.746067  0.994078  0.987473  1
  Cl  Cl26  1  0.994054  0.505946  0.250000  1
  Cl  Cl27  1  0.505922  0.753933  0.512527  1
