# generated using pymatgen
data_TbTa3Nb2(B2Ru5)2
_symmetry_space_group_name_H-M   'P 1'
_cell_length_a   9.51796036
_cell_length_b   9.51104564
_cell_length_c   3.06010300
_cell_angle_alpha   90.00000000
_cell_angle_beta   90.00000000
_cell_angle_gamma   90.60733747
_symmetry_Int_Tables_number   1
_chemical_formula_structural   TbTa3Nb2(B2Ru5)2
_chemical_formula_sum   'Tb1 Ta3 Nb2 B4 Ru10'
_cell_volume   277.00257284
_cell_formula_units_Z   1
loop_
 _symmetry_equiv_pos_site_id
 _symmetry_equiv_pos_as_xyz
  1  'x, y, z'
loop_
 _atom_site_type_symbol
 _atom_site_label
 _atom_site_symmetry_multiplicity
 _atom_site_fract_x
 _atom_site_fract_y
 _atom_site_fract_z
 _atom_site_occupancy
  Tb  Tb0  1  0.824814  0.675360  0.000000  1
  Ta  Ta1  1  0.676596  0.174936  0.000000  1
  Ta  Ta2  1  0.500377  0.500409  0.000000  1
  Ta  Ta3  1  0.000278  0.999065  0.000000  1
  Nb  Nb4  1  0.178364  0.321946  0.000000  1
  Nb  Nb5  1  0.324786  0.823714  0.000000  1
  B  B6  1  0.617622  0.881837  0.000000  1
  B  B7  1  0.376534  0.123015  0.000000  1
  B  B8  1  0.124210  0.619608  0.000000  1
  B  B9  1  0.881295  0.376160  0.000000  1
  Ru  Ru10  1  0.558245  0.725774  0.500000  1
  Ru  Ru11  1  0.428869  0.282785  0.500000  1
  Ru  Ru12  1  0.081018  0.781991  0.500000  1
  Ru  Ru13  1  0.928363  0.215575  0.500000  1
  Ru  Ru14  1  0.283321  0.569558  0.500000  1
  Ru  Ru15  1  0.716764  0.415356  0.500000  1
  Ru  Ru16  1  0.217708  0.072548  0.500000  1
  Ru  Ru17  1  0.774728  0.943820  0.500000  1
  Ru  Ru18  1  0.497728  0.005911  0.500000  1
  Ru  Ru19  1  0.008380  0.490634  0.500000  1
