# generated using pymatgen
data_Yb2PaRh3
_symmetry_space_group_name_H-M   'P 1'
_cell_length_a   5.26943911
_cell_length_b   5.89423385
_cell_length_c   5.89423300
_cell_angle_alpha   59.99999914
_cell_angle_beta   55.99365131
_cell_angle_gamma   55.99365743
_symmetry_Int_Tables_number   1
_chemical_formula_structural   Yb2PaRh3
_chemical_formula_sum   'Yb2 Pa1 Rh3'
_cell_volume   121.04850404
_cell_formula_units_Z   1
loop_
 _symmetry_equiv_pos_site_id
 _symmetry_equiv_pos_as_xyz
  1  'x, y, z'
loop_
 _atom_site_type_symbol
 _atom_site_label
 _atom_site_symmetry_multiplicity
 _atom_site_fract_x
 _atom_site_fract_y
 _atom_site_fract_z
 _atom_site_occupancy
  Yb  Yb0  1  0.751121  0.749626  0.749626  1
  Yb  Yb1  1  0.498879  0.500374  0.500374  1
  Pa  Pa2  1  0.625000  0.125000  0.125000  1
  Rh  Rh3  1  0.125000  0.625000  0.125000  1
  Rh  Rh4  1  0.125000  0.125000  0.625000  1
  Rh  Rh5  1  0.125000  0.125000  0.125000  1
