# generated using pymatgen
data_NaNd(ReH9)2
_symmetry_space_group_name_H-M   'P 1'
_cell_length_a   5.01106295
_cell_length_b   5.01105221
_cell_length_c   8.71966862
_cell_angle_alpha   91.28553839
_cell_angle_beta   88.71427679
_cell_angle_gamma   121.92448891
_symmetry_Int_Tables_number   1
_chemical_formula_structural   NaNd(ReH9)2
_chemical_formula_sum   'Na1 Nd1 Re2 H18'
_cell_volume   185.77759116
_cell_formula_units_Z   1
loop_
 _symmetry_equiv_pos_site_id
 _symmetry_equiv_pos_as_xyz
  1  'x, y, z'
loop_
 _atom_site_type_symbol
 _atom_site_label
 _atom_site_symmetry_multiplicity
 _atom_site_fract_x
 _atom_site_fract_y
 _atom_site_fract_z
 _atom_site_occupancy
  Na  Na0  1  0.000000  0.000000  0.000000  1
  Nd  Nd1  1  0.000000  0.000000  0.500000  1
  Re  Re2  1  0.324704  0.675319  0.732524  1
  Re  Re3  1  0.675296  0.324681  0.267476  1
  H  H4  1  0.416497  0.583516  0.558085  1
  H  H5  1  0.583503  0.416484  0.441915  1
  H  H6  1  0.410606  0.589413  0.900981  1
  H  H7  1  0.589394  0.410587  0.099019  1
  H  H8  1  0.493617  0.984393  0.855747  1
  H  H9  1  0.984379  0.493601  0.144251  1
  H  H10  1  0.518538  0.013147  0.627577  1
  H  H11  1  0.013132  0.518522  0.372425  1
  H  H12  1  0.506383  0.015607  0.144253  1
  H  H13  1  0.015621  0.506399  0.855749  1
  H  H14  1  0.481462  0.986853  0.372423  1
  H  H15  1  0.986868  0.481478  0.627575  1
  H  H16  1  0.708875  0.778763  0.740457  1
  H  H17  1  0.778752  0.708862  0.259546  1
  H  H18  1  0.291125  0.221237  0.259543  1
  H  H19  1  0.221248  0.291138  0.740454  1
  H  H20  1  0.134338  0.865679  0.750153  1
  H  H21  1  0.865662  0.134321  0.249847  1
