# generated using pymatgen
data_CaPmCu4
_symmetry_space_group_name_H-M   'P 1'
_cell_length_a   5.67648210
_cell_length_b   5.67648314
_cell_length_c   5.67648268
_cell_angle_alpha   135.66116709
_cell_angle_beta   100.42426375
_cell_angle_gamma   95.96062584
_symmetry_Int_Tables_number   1
_chemical_formula_structural   CaPmCu4
_chemical_formula_sum   'Ca1 Pm1 Cu4'
_cell_volume   118.26571539
_cell_formula_units_Z   1
loop_
 _symmetry_equiv_pos_site_id
 _symmetry_equiv_pos_as_xyz
  1  'x, y, z'
loop_
 _atom_site_type_symbol
 _atom_site_label
 _atom_site_symmetry_multiplicity
 _atom_site_fract_x
 _atom_site_fract_y
 _atom_site_fract_z
 _atom_site_occupancy
  Ca  Ca0  1  0.000000  0.000000  0.000000  1
  Pm  Pm1  1  0.500000  0.500000  0.000000  1
  Cu  Cu2  1  0.578848  0.246886  0.331962  1
  Cu  Cu3  1  0.085077  0.753115  0.331963  1
  Cu  Cu4  1  0.914924  0.246886  0.668039  1
  Cu  Cu5  1  0.421152  0.753115  0.668038  1
