# generated using pymatgen
data_Zr3Al3PdPt2
_symmetry_space_group_name_H-M   'P 1'
_cell_length_a   7.12869900
_cell_length_b   7.12869838
_cell_length_c   7.35104100
_cell_angle_alpha   90.00000000
_cell_angle_beta   90.00000000
_cell_angle_gamma   119.99999825
_symmetry_Int_Tables_number   1
_chemical_formula_structural   Zr3Al3PdPt2
_chemical_formula_sum   'Zr6 Al6 Pd2 Pt4'
_cell_volume   323.51915653
_cell_formula_units_Z   2
loop_
 _symmetry_equiv_pos_site_id
 _symmetry_equiv_pos_as_xyz
  1  'x, y, z'
loop_
 _atom_site_type_symbol
 _atom_site_label
 _atom_site_symmetry_multiplicity
 _atom_site_fract_x
 _atom_site_fract_y
 _atom_site_fract_z
 _atom_site_occupancy
  Zr  Zr0  1  0.025062  0.605163  0.750000  1
  Zr  Zr1  1  0.974938  0.580102  0.250000  1
  Zr  Zr2  1  0.605163  0.025062  0.250000  1
  Zr  Zr3  1  0.580102  0.974938  0.750000  1
  Zr  Zr4  1  0.419898  0.394837  0.250000  1
  Zr  Zr5  1  0.394837  0.419898  0.750000  1
  Al  Al6  1  0.000000  0.257707  0.500000  1
  Al  Al7  1  0.742293  0.742293  0.000000  1
  Al  Al8  1  0.000000  0.257707  0.000000  1
  Al  Al9  1  0.257707  0.000000  0.500000  1
  Al  Al10  1  0.257707  0.000000  0.000000  1
  Al  Al11  1  0.742293  0.742293  0.500000  1
  Pd  Pd12  1  0.000000  0.000000  0.250000  1
  Pd  Pd13  1  0.000000  0.000000  0.750000  1
  Pt  Pt14  1  0.333333  0.666667  0.467354  1
  Pt  Pt15  1  0.666667  0.333333  0.532646  1
  Pt  Pt16  1  0.666667  0.333333  0.967354  1
  Pt  Pt17  1  0.333333  0.666667  0.032646  1
