# generated using pymatgen
data_Th10CuSiPb6
_symmetry_space_group_name_H-M   'P 1'
_cell_length_a   9.65632900
_cell_length_b   9.65633042
_cell_length_c   6.61973500
_cell_angle_alpha   90.00000000
_cell_angle_beta   90.00000000
_cell_angle_gamma   120.00000540
_symmetry_Int_Tables_number   1
_chemical_formula_structural   Th10CuSiPb6
_chemical_formula_sum   'Th10 Cu1 Si1 Pb6'
_cell_volume   534.55867847
_cell_formula_units_Z   1
loop_
 _symmetry_equiv_pos_site_id
 _symmetry_equiv_pos_as_xyz
  1  'x, y, z'
loop_
 _atom_site_type_symbol
 _atom_site_label
 _atom_site_symmetry_multiplicity
 _atom_site_fract_x
 _atom_site_fract_y
 _atom_site_fract_z
 _atom_site_occupancy
  Th  Th0  1  0.666667  0.333333  0.500000  1
  Th  Th1  1  0.333333  0.666667  0.500000  1
  Th  Th2  1  0.333333  0.666667  0.000000  1
  Th  Th3  1  0.666667  0.333333  0.000000  1
  Th  Th4  1  0.742739  0.742739  0.244488  1
  Th  Th5  1  0.257261  0.000000  0.244488  1
  Th  Th6  1  0.000000  0.257261  0.244488  1
  Th  Th7  1  0.257261  0.257261  0.755512  1
  Th  Th8  1  0.742739  0.000000  0.755512  1
  Th  Th9  1  0.000000  0.742739  0.755512  1
  Cu  Cu10  1  0.000000  0.000000  0.500000  1
  Si  Si11  1  0.000000  0.000000  0.000000  1
  Pb  Pb12  1  0.385128  0.385128  0.251636  1
  Pb  Pb13  1  0.614872  0.000000  0.251636  1
  Pb  Pb14  1  0.000000  0.614872  0.251636  1
  Pb  Pb15  1  0.614872  0.614872  0.748364  1
  Pb  Pb16  1  0.385128  0.000000  0.748364  1
  Pb  Pb17  1  0.000000  0.385128  0.748364  1
