# generated using pymatgen
data_Ca(Eu4Au3)2
_symmetry_space_group_name_H-M   'P 1'
_cell_length_a   8.09186291
_cell_length_b   8.09186277
_cell_length_c   8.09186300
_cell_angle_alpha   71.05465696
_cell_angle_beta   71.05464980
_cell_angle_gamma   71.05465021
_symmetry_Int_Tables_number   1
_chemical_formula_structural   Ca(Eu4Au3)2
_chemical_formula_sum   'Ca1 Eu8 Au6'
_cell_volume   459.53454224
_cell_formula_units_Z   1
loop_
 _symmetry_equiv_pos_site_id
 _symmetry_equiv_pos_as_xyz
  1  'x, y, z'
loop_
 _atom_site_type_symbol
 _atom_site_label
 _atom_site_symmetry_multiplicity
 _atom_site_fract_x
 _atom_site_fract_y
 _atom_site_fract_z
 _atom_site_occupancy
  Ca  Ca0  1  0.000000  0.000000  0.000000  1
  Eu  Eu1  1  0.200108  0.200108  0.200108  1
  Eu  Eu2  1  0.799892  0.799892  0.799892  1
  Eu  Eu3  1  0.399171  0.662489  0.158744  1
  Eu  Eu4  1  0.662489  0.158744  0.399171  1
  Eu  Eu5  1  0.158744  0.399171  0.662489  1
  Eu  Eu6  1  0.600829  0.337511  0.841256  1
  Eu  Eu7  1  0.337511  0.841256  0.600829  1
  Eu  Eu8  1  0.841256  0.600829  0.337511  1
  Au  Au9  1  0.043602  0.841978  0.405512  1
  Au  Au10  1  0.841978  0.405512  0.043602  1
  Au  Au11  1  0.405512  0.043602  0.841978  1
  Au  Au12  1  0.956398  0.158022  0.594488  1
  Au  Au13  1  0.158022  0.594488  0.956398  1
  Au  Au14  1  0.594488  0.956398  0.158022  1
