# generated using pymatgen
data_Dy3Y5Ti9Si16Mo3
_symmetry_space_group_name_H-M   'P 1'
_cell_length_a   7.01719622
_cell_length_b   7.01722755
_cell_length_c   12.90175401
_cell_angle_alpha   89.98676558
_cell_angle_beta   90.01559582
_cell_angle_gamma   89.98524079
_symmetry_Int_Tables_number   1
_chemical_formula_structural   Dy3Y5Ti9Si16Mo3
_chemical_formula_sum   'Dy3 Y5 Ti9 Si16 Mo3'
_cell_volume   635.29859606
_cell_formula_units_Z   1
loop_
 _symmetry_equiv_pos_site_id
 _symmetry_equiv_pos_as_xyz
  1  'x, y, z'
loop_
 _atom_site_type_symbol
 _atom_site_label
 _atom_site_symmetry_multiplicity
 _atom_site_fract_x
 _atom_site_fract_y
 _atom_site_fract_z
 _atom_site_occupancy
  Dy  Dy0  1  0.501277  0.158466  0.218114  1
  Dy  Dy1  1  0.499700  0.840939  0.716667  1
  Dy  Dy2  1  0.340428  0.000389  0.466834  1
  Y  Y3  1  0.997919  0.660152  0.033505  1
  Y  Y4  1  0.000490  0.340371  0.533129  1
  Y  Y5  1  0.660137  0.997924  0.966497  1
  Y  Y6  1  0.158529  0.501354  0.781892  1
  Y  Y7  1  0.840881  0.499598  0.283322  1
  Ti  Ti8  1  0.347193  0.509168  0.374370  1
  Ti  Ti9  1  0.847237  0.990972  0.376340  1
  Ti  Ti10  1  0.008436  0.151910  0.124797  1
  Ti  Ti11  1  0.991037  0.847300  0.623618  1
  Ti  Ti12  1  0.509204  0.347129  0.625595  1
  Ti  Ti13  1  0.151920  0.008442  0.875186  1
  Ti  Ti14  1  0.326814  0.326768  0.000032  1
  Ti  Ti15  1  0.491666  0.653755  0.127433  1
  Ti  Ti16  1  0.653743  0.491738  0.872556  1
  Si  Si17  1  0.047110  0.708622  0.434941  1
  Si  Si18  1  0.951908  0.291860  0.934052  1
  Si  Si19  1  0.708476  0.046998  0.565085  1
  Si  Si20  1  0.209132  0.453354  0.184879  1
  Si  Si21  1  0.791179  0.547585  0.684635  1
  Si  Si22  1  0.453434  0.209057  0.815136  1
  Si  Si23  1  0.547468  0.791313  0.315414  1
  Si  Si24  1  0.291894  0.951972  0.065992  1
  Si  Si25  1  0.798366  0.870739  0.184738  1
  Si  Si26  1  0.299169  0.629957  0.565236  1
  Si  Si27  1  0.702043  0.369961  0.065221  1
  Si  Si28  1  0.629755  0.299083  0.434727  1
  Si  Si29  1  0.370046  0.702077  0.934775  1
  Si  Si30  1  0.129669  0.201118  0.314922  1
  Si  Si31  1  0.201209  0.129487  0.685066  1
  Si  Si32  1  0.870609  0.798393  0.815252  1
  Mo  Mo33  1  0.672859  0.673004  0.500018  1
  Mo  Mo34  1  0.826065  0.172870  0.749319  1
  Mo  Mo35  1  0.172996  0.826169  0.250704  1
