# generated using pymatgen
data_TaNb5Si6Tc5Ru
_symmetry_space_group_name_H-M   'P 1'
_cell_length_a   7.54678352
_cell_length_b   7.53979511
_cell_length_c   7.55589695
_cell_angle_alpha   127.44270092
_cell_angle_beta   124.18123969
_cell_angle_gamma   80.27296557
_symmetry_Int_Tables_number   1
_chemical_formula_structural   TaNb5Si6Tc5Ru
_chemical_formula_sum   'Ta1 Nb5 Si6 Tc5 Ru1'
_cell_volume   272.46565849
_cell_formula_units_Z   1
loop_
 _symmetry_equiv_pos_site_id
 _symmetry_equiv_pos_as_xyz
  1  'x, y, z'
loop_
 _atom_site_type_symbol
 _atom_site_label
 _atom_site_symmetry_multiplicity
 _atom_site_fract_x
 _atom_site_fract_y
 _atom_site_fract_z
 _atom_site_occupancy
  Ta  Ta0  1  0.250467  0.092997  0.338726  1
  Nb  Nb1  1  0.944363  0.907993  0.464907  1
  Nb  Nb2  1  0.053511  0.506756  0.956199  1
  Nb  Nb3  1  0.534414  0.503936  0.463723  1
  Nb  Nb4  1  0.466549  0.935192  0.968736  1
  Nb  Nb5  1  0.749846  0.083289  0.839648  1
  Si  Si6  1  0.726987  0.481584  0.253908  1
  Si  Si7  1  0.280704  0.511317  0.732604  1
  Si  Si8  1  0.668632  0.175380  0.510922  1
  Si  Si9  1  0.327385  0.838288  0.499773  1
  Si  Si10  1  0.165439  0.172516  0.003328  1
  Si  Si11  1  0.835758  0.834319  0.009098  1
  Tc  Tc12  1  0.476340  0.752593  0.229370  1
  Tc  Tc13  1  0.019069  0.751687  0.773779  1
  Tc  Tc14  1  0.903637  0.251425  0.409172  1
  Tc  Tc15  1  0.092028  0.502681  0.342896  1
  Tc  Tc16  1  0.341660  0.252770  0.845527  1
  Ru  Ru17  1  0.663211  0.503077  0.915482  1
