# generated using pymatgen
data_NdHoCo5B2
_symmetry_space_group_name_H-M   'P 1'
_cell_length_a   5.08334000
_cell_length_b   5.08334114
_cell_length_c   20.17483400
_cell_angle_alpha   90.00000000
_cell_angle_beta   90.00000000
_cell_angle_gamma   120.00536615
_symmetry_Int_Tables_number   1
_chemical_formula_structural   NdHoCo5B2
_chemical_formula_sum   'Nd4 Ho4 Co20 B8'
_cell_volume   451.45610483
_cell_formula_units_Z   4
loop_
 _symmetry_equiv_pos_site_id
 _symmetry_equiv_pos_as_xyz
  1  'x, y, z'
loop_
 _atom_site_type_symbol
 _atom_site_label
 _atom_site_symmetry_multiplicity
 _atom_site_fract_x
 _atom_site_fract_y
 _atom_site_fract_z
 _atom_site_occupancy
  Nd  Nd0  1  0.666634  0.333366  0.523119  1
  Nd  Nd1  1  0.333366  0.666634  0.476881  1
  Nd  Nd2  1  0.333366  0.666634  0.023119  1
  Nd  Nd3  1  0.666634  0.333366  0.976881  1
  Ho  Ho4  1  0.666585  0.333415  0.676080  1
  Ho  Ho5  1  0.333415  0.666585  0.323920  1
  Ho  Ho6  1  0.333415  0.666585  0.176080  1
  Ho  Ho7  1  0.666585  0.333415  0.823920  1
  Co  Co8  1  0.000000  0.000000  0.500000  1
  Co  Co9  1  0.000000  0.000000  0.000000  1
  Co  Co10  1  0.167538  0.335228  0.750000  1
  Co  Co11  1  0.167554  0.832446  0.750000  1
  Co  Co12  1  0.664772  0.832462  0.750000  1
  Co  Co13  1  0.832462  0.664772  0.250000  1
  Co  Co14  1  0.832446  0.167554  0.250000  1
  Co  Co15  1  0.335228  0.167538  0.250000  1
  Co  Co16  1  0.161327  0.322877  0.608873  1
  Co  Co17  1  0.161390  0.838610  0.608827  1
  Co  Co18  1  0.677123  0.838674  0.608873  1
  Co  Co19  1  0.838674  0.677123  0.391127  1
  Co  Co20  1  0.838610  0.161390  0.391173  1
  Co  Co21  1  0.322877  0.161327  0.391127  1
  Co  Co22  1  0.838674  0.677123  0.108873  1
  Co  Co23  1  0.838610  0.161390  0.108827  1
  Co  Co24  1  0.322877  0.161327  0.108873  1
  Co  Co25  1  0.161327  0.322877  0.891127  1
  Co  Co26  1  0.161390  0.838610  0.891173  1
  Co  Co27  1  0.677123  0.838674  0.891127  1
  B  B28  1  0.999897  0.000103  0.679095  1
  B  B29  1  0.000103  0.999897  0.320905  1
  B  B30  1  0.000103  0.999897  0.179095  1
  B  B31  1  0.999897  0.000103  0.820905  1
  B  B32  1  0.666656  0.333344  0.324237  1
  B  B33  1  0.333344  0.666656  0.675763  1
  B  B34  1  0.333344  0.666656  0.824237  1
  B  B35  1  0.666656  0.333344  0.175763  1
