# generated using pymatgen
data_Dy3Er(MnOs)4
_symmetry_space_group_name_H-M   'P 1'
_cell_length_a   5.31613971
_cell_length_b   5.20927103
_cell_length_c   9.20538471
_cell_angle_alpha   73.56384357
_cell_angle_beta   89.81075207
_cell_angle_gamma   119.33721666
_symmetry_Int_Tables_number   1
_chemical_formula_structural   Dy3Er(MnOs)4
_chemical_formula_sum   'Dy3 Er1 Mn4 Os4'
_cell_volume   210.05781703
_cell_formula_units_Z   1
loop_
 _symmetry_equiv_pos_site_id
 _symmetry_equiv_pos_as_xyz
  1  'x, y, z'
loop_
 _atom_site_type_symbol
 _atom_site_label
 _atom_site_symmetry_multiplicity
 _atom_site_fract_x
 _atom_site_fract_y
 _atom_site_fract_z
 _atom_site_occupancy
  Dy  Dy0  1  0.378491  0.752226  0.874039  1
  Dy  Dy1  1  0.996606  0.997785  0.001035  1
  Dy  Dy2  1  0.496470  0.997779  0.500913  1
  Er  Er3  1  0.878596  0.752330  0.373936  1
  Mn  Mn4  1  0.187565  0.375064  0.437437  1
  Mn  Mn5  1  0.687475  0.374982  0.937512  1
  Mn  Mn6  1  0.937358  0.374974  0.187409  1
  Mn  Mn7  1  0.437740  0.375065  0.687612  1
  Os  Os8  1  0.437375  0.374726  0.187826  1
  Os  Os9  1  0.937474  0.375247  0.687227  1
  Os  Os10  1  0.437375  0.874823  0.187826  1
  Os  Os11  1  0.937474  0.875000  0.687227  1
