# generated using pymatgen
data_CsLi6BiO6
_symmetry_space_group_name_H-M   'P 1'
_cell_length_a   5.58484029
_cell_length_b   5.58484129
_cell_length_c   5.58484108
_cell_angle_alpha   101.51627271
_cell_angle_beta   101.51625309
_cell_angle_gamma   101.51626739
_symmetry_Int_Tables_number   1
_chemical_formula_structural   CsLi6BiO6
_chemical_formula_sum   'Cs1 Li6 Bi1 O6'
_cell_volume   161.96351636
_cell_formula_units_Z   1
loop_
 _symmetry_equiv_pos_site_id
 _symmetry_equiv_pos_as_xyz
  1  'x, y, z'
loop_
 _atom_site_type_symbol
 _atom_site_label
 _atom_site_symmetry_multiplicity
 _atom_site_fract_x
 _atom_site_fract_y
 _atom_site_fract_z
 _atom_site_occupancy
  Cs  Cs0  1  0.500000  0.500000  0.500000  1
  Li  Li1  1  0.657122  0.342876  0.999998  1
  Li  Li2  1  0.342874  0.657124  0.999999  1
  Li  Li3  1  0.657123  0.000000  0.342874  1
  Li  Li4  1  0.999999  0.657124  0.342874  1
  Li  Li5  1  0.999998  0.342876  0.657122  1
  Li  Li6  1  0.342874  0.000000  0.657123  1
  Bi  Bi7  1  0.000000  0.000000  0.000000  1
  O  O8  1  0.723565  0.723565  0.095389  1
  O  O9  1  0.276434  0.904611  0.276434  1
  O  O10  1  0.904611  0.276435  0.276434  1
  O  O11  1  0.095389  0.723565  0.723565  1
  O  O12  1  0.723565  0.095388  0.723565  1
  O  O13  1  0.276434  0.276435  0.904611  1
