# generated using pymatgen
data_Ho7Cd(Co3Sn11)2
_symmetry_space_group_name_H-M   'P 1'
_cell_length_a   9.65675100
_cell_length_b   9.65674966
_cell_length_c   9.98918600
_cell_angle_alpha   90.00000000
_cell_angle_beta   90.00000000
_cell_angle_gamma   119.99999432
_symmetry_Int_Tables_number   1
_chemical_formula_structural   Ho7Cd(Co3Sn11)2
_chemical_formula_sum   'Ho7 Cd1 Co6 Sn22'
_cell_volume   806.71988572
_cell_formula_units_Z   1
loop_
 _symmetry_equiv_pos_site_id
 _symmetry_equiv_pos_as_xyz
  1  'x, y, z'
loop_
 _atom_site_type_symbol
 _atom_site_label
 _atom_site_symmetry_multiplicity
 _atom_site_fract_x
 _atom_site_fract_y
 _atom_site_fract_z
 _atom_site_occupancy
  Ho  Ho0  1  0.000000  0.000000  0.000000  1
  Ho  Ho1  1  0.521046  0.478954  0.693611  1
  Ho  Ho2  1  0.521046  0.042091  0.693611  1
  Ho  Ho3  1  0.957909  0.478954  0.693611  1
  Ho  Ho4  1  0.042091  0.521046  0.306389  1
  Ho  Ho5  1  0.478954  0.957909  0.306389  1
  Ho  Ho6  1  0.478954  0.521046  0.306389  1
  Cd  Cd7  1  0.000000  0.000000  0.500000  1
  Co  Co8  1  0.167921  0.832079  0.803058  1
  Co  Co9  1  0.167921  0.335842  0.803058  1
  Co  Co10  1  0.664158  0.832079  0.803058  1
  Co  Co11  1  0.335842  0.167921  0.196942  1
  Co  Co12  1  0.832079  0.664158  0.196942  1
  Co  Co13  1  0.832079  0.167921  0.196942  1
  Sn  Sn14  1  0.666667  0.333333  0.181440  1
  Sn  Sn15  1  0.666667  0.333333  0.880793  1
  Sn  Sn16  1  0.333333  0.666667  0.119207  1
  Sn  Sn17  1  0.346020  0.346020  0.000000  1
  Sn  Sn18  1  0.000000  0.653980  0.000000  1
  Sn  Sn19  1  0.653980  0.000000  0.000000  1
  Sn  Sn20  1  0.653980  0.653980  0.000000  1
  Sn  Sn21  1  0.333333  0.666667  0.818560  1
  Sn  Sn22  1  0.435566  0.217783  0.452902  1
  Sn  Sn23  1  0.217783  0.782217  0.547098  1
  Sn  Sn24  1  0.217783  0.435566  0.547098  1
  Sn  Sn25  1  0.564434  0.782217  0.547098  1
  Sn  Sn26  1  0.116642  0.883358  0.271361  1
  Sn  Sn27  1  0.782217  0.564434  0.452902  1
  Sn  Sn28  1  0.782217  0.217783  0.452902  1
  Sn  Sn29  1  0.346020  0.000000  0.000000  1
  Sn  Sn30  1  0.116642  0.233284  0.271361  1
  Sn  Sn31  1  0.766716  0.883358  0.271361  1
  Sn  Sn32  1  0.233284  0.116642  0.728639  1
  Sn  Sn33  1  0.883358  0.766716  0.728639  1
  Sn  Sn34  1  0.883358  0.116642  0.728639  1
  Sn  Sn35  1  0.000000  0.346020  0.000000  1
