# generated using pymatgen
data_Hf2Zr6Nb2Al12Co7
_symmetry_space_group_name_H-M   'P 1'
_cell_length_a   8.68307280
_cell_length_b   8.68307324
_cell_length_c   8.68127200
_cell_angle_alpha   60.00686191
_cell_angle_beta   60.00686025
_cell_angle_gamma   59.95498753
_symmetry_Int_Tables_number   1
_chemical_formula_structural   Hf2Zr6Nb2Al12Co7
_chemical_formula_sum   'Hf2 Zr6 Nb2 Al12 Co7'
_cell_volume   462.71365477
_cell_formula_units_Z   1
loop_
 _symmetry_equiv_pos_site_id
 _symmetry_equiv_pos_as_xyz
  1  'x, y, z'
loop_
 _atom_site_type_symbol
 _atom_site_label
 _atom_site_symmetry_multiplicity
 _atom_site_fract_x
 _atom_site_fract_y
 _atom_site_fract_z
 _atom_site_occupancy
  Hf  Hf0  1  0.117670  0.117670  0.646718  1
  Hf  Hf1  1  0.117670  0.117670  0.117943  1
  Zr  Zr2  1  0.688299  0.309978  0.311004  1
  Zr  Zr3  1  0.688299  0.309978  0.690719  1
  Zr  Zr4  1  0.694022  0.694022  0.305978  1
  Zr  Zr5  1  0.309978  0.688299  0.690719  1
  Zr  Zr6  1  0.309978  0.688299  0.311004  1
  Zr  Zr7  1  0.311231  0.311231  0.688769  1
  Nb  Nb8  1  0.643062  0.119458  0.118740  1
  Nb  Nb9  1  0.119458  0.643062  0.118740  1
  Al  Al10  1  0.365035  0.876146  0.879410  1
  Al  Al11  1  0.876146  0.365035  0.879410  1
  Al  Al12  1  0.877979  0.877979  0.364310  1
  Al  Al13  1  0.877979  0.877979  0.879731  1
  Al  Al14  1  0.989615  0.338452  0.335967  1
  Al  Al15  1  0.338452  0.989615  0.335967  1
  Al  Al16  1  0.336526  0.336526  0.992279  1
  Al  Al17  1  0.336526  0.336526  0.334670  1
  Al  Al18  1  0.004573  0.665225  0.665101  1
  Al  Al19  1  0.665225  0.004573  0.665101  1
  Al  Al20  1  0.665331  0.665331  0.004819  1
  Al  Al21  1  0.665331  0.665331  0.664518  1
  Co  Co22  1  0.993526  0.993526  0.006474  1
  Co  Co23  1  0.501358  0.003059  0.002902  1
  Co  Co24  1  0.501358  0.003059  0.492682  1
  Co  Co25  1  0.496834  0.496834  0.003166  1
  Co  Co26  1  0.003059  0.501358  0.492682  1
  Co  Co27  1  0.003059  0.501358  0.002902  1
  Co  Co28  1  0.002424  0.002424  0.497576  1
