# generated using pymatgen
data_Ac2H2Br3Cl
_symmetry_space_group_name_H-M   'P 1'
_cell_length_a   4.29045900
_cell_length_b   4.29045833
_cell_length_c   15.04619600
_cell_angle_alpha   90.00000000
_cell_angle_beta   90.00000000
_cell_angle_gamma   119.99999748
_symmetry_Int_Tables_number   1
_chemical_formula_structural   Ac2H2Br3Cl
_chemical_formula_sum   'Ac2 H2 Br3 Cl1'
_cell_volume   239.86385095
_cell_formula_units_Z   1
loop_
 _symmetry_equiv_pos_site_id
 _symmetry_equiv_pos_as_xyz
  1  'x, y, z'
loop_
 _atom_site_type_symbol
 _atom_site_label
 _atom_site_symmetry_multiplicity
 _atom_site_fract_x
 _atom_site_fract_y
 _atom_site_fract_z
 _atom_site_occupancy
  Ac  Ac0  1  0.000000  0.000000  0.245421  1
  Ac  Ac1  1  0.000000  0.000000  0.750187  1
  H  H2  1  0.333333  0.666667  0.750229  1
  H  H3  1  0.666667  0.333333  0.246254  1
  Br  Br4  1  0.666667  0.333333  0.882698  1
  Br  Br5  1  0.666667  0.333333  0.618171  1
  Br  Br6  1  0.333333  0.666667  0.379452  1
  Cl  Cl7  1  0.333333  0.666667  0.127588  1
