# generated using pymatgen
data_BaHoGe4N7
_symmetry_space_group_name_H-M   'P 1'
_cell_length_a   6.33510800
_cell_length_b   6.33510760
_cell_length_c   10.35286300
_cell_angle_alpha   90.00000000
_cell_angle_beta   90.00000000
_cell_angle_gamma   120.00000210
_symmetry_Int_Tables_number   1
_chemical_formula_structural   BaHoGe4N7
_chemical_formula_sum   'Ba2 Ho2 Ge8 N14'
_cell_volume   359.83144109
_cell_formula_units_Z   2
loop_
 _symmetry_equiv_pos_site_id
 _symmetry_equiv_pos_as_xyz
  1  'x, y, z'
loop_
 _atom_site_type_symbol
 _atom_site_label
 _atom_site_symmetry_multiplicity
 _atom_site_fract_x
 _atom_site_fract_y
 _atom_site_fract_z
 _atom_site_occupancy
  Ba  Ba0  1  0.333333  0.666667  0.363980  1
  Ba  Ba1  1  0.666667  0.333333  0.863980  1
  Ho  Ho2  1  0.333333  0.666667  0.736499  1
  Ho  Ho3  1  0.666667  0.333333  0.236499  1
  Ge  Ge4  1  0.826403  0.652805  0.546714  1
  Ge  Ge5  1  0.173597  0.826403  0.046714  1
  Ge  Ge6  1  0.652805  0.826403  0.046714  1
  Ge  Ge7  1  0.347195  0.173597  0.546714  1
  Ge  Ge8  1  0.826403  0.173597  0.546714  1
  Ge  Ge9  1  0.173597  0.347195  0.046714  1
  Ge  Ge10  1  0.000000  0.000000  0.812395  1
  Ge  Ge11  1  0.000000  0.000000  0.312395  1
  N  N12  1  0.000000  0.000000  0.620381  1
  N  N13  1  0.000000  0.000000  0.120381  1
  N  N14  1  0.159062  0.318125  0.868644  1
  N  N15  1  0.840938  0.159062  0.368644  1
  N  N16  1  0.318125  0.159062  0.368644  1
  N  N17  1  0.681875  0.840938  0.868644  1
  N  N18  1  0.159062  0.840938  0.868644  1
  N  N19  1  0.840938  0.681875  0.368644  1
  N  N20  1  0.988254  0.494128  0.604857  1
  N  N21  1  0.494128  0.988254  0.104857  1
  N  N22  1  0.494128  0.505872  0.104857  1
  N  N23  1  0.505872  0.494128  0.604857  1
  N  N24  1  0.011746  0.505872  0.104857  1
  N  N25  1  0.505872  0.011746  0.604857  1
