# generated using pymatgen
data_Se(SN3)2
_symmetry_space_group_name_H-M   'P 1'
_cell_length_a   5.62693346
_cell_length_b   4.63010883
_cell_length_c   10.37569985
_cell_angle_alpha   85.39193955
_cell_angle_beta   84.02084229
_cell_angle_gamma   83.89860841
_symmetry_Int_Tables_number   1
_chemical_formula_structural   Se(SN3)2
_chemical_formula_sum   'Se1 S2 N6'
_cell_volume   266.67127259
_cell_formula_units_Z   1
loop_
 _symmetry_equiv_pos_site_id
 _symmetry_equiv_pos_as_xyz
  1  'x, y, z'
loop_
 _atom_site_type_symbol
 _atom_site_label
 _atom_site_symmetry_multiplicity
 _atom_site_fract_x
 _atom_site_fract_y
 _atom_site_fract_z
 _atom_site_occupancy
  Se  Se0  1  0.652609  0.700197  0.050727  1
  S  S1  1  0.846341  0.314779  0.152357  1
  S  S2  1  0.594423  0.025771  0.201425  1
  N  N3  1  0.969855  0.257759  0.763985  1
  N  N4  1  0.149118  0.551031  0.418392  1
  N  N5  1  0.107753  0.786886  0.390296  1
  N  N6  1  0.425029  0.827376  0.654104  1
  N  N7  1  0.598081  0.750476  0.599443  1
  N  N8  1  0.780801  0.215739  0.796257  1
