# generated using pymatgen
data_La6NdTm3InSn5Cl2
_symmetry_space_group_name_H-M   'P 1'
_cell_length_a   9.48069800
_cell_length_b   9.48069723
_cell_length_c   6.76393500
_cell_angle_alpha   90.00000000
_cell_angle_beta   90.00000000
_cell_angle_gamma   119.99999571
_symmetry_Int_Tables_number   1
_chemical_formula_structural   La6NdTm3InSn5Cl2
_chemical_formula_sum   'La6 Nd1 Tm3 In1 Sn5 Cl2'
_cell_volume   526.51490005
_cell_formula_units_Z   1
loop_
 _symmetry_equiv_pos_site_id
 _symmetry_equiv_pos_as_xyz
  1  'x, y, z'
loop_
 _atom_site_type_symbol
 _atom_site_label
 _atom_site_symmetry_multiplicity
 _atom_site_fract_x
 _atom_site_fract_y
 _atom_site_fract_z
 _atom_site_occupancy
  La  La0  1  0.737173  0.998694  0.750053  1
  La  La1  1  0.738479  0.739631  0.250780  1
  La  La2  1  0.001113  0.262011  0.250069  1
  La  La3  1  0.999366  0.737460  0.749796  1
  La  La4  1  0.262454  0.262697  0.749773  1
  La  La5  1  0.260531  0.998873  0.250543  1
  Nd  Nd6  1  0.333313  0.667446  0.000878  1
  Tm  Tm7  1  0.667161  0.333584  0.999855  1
  Tm  Tm8  1  0.332341  0.666924  0.499661  1
  Tm  Tm9  1  0.667475  0.332906  0.499498  1
  In  In10  1  0.608677  0.604334  0.744962  1
  Sn  Sn11  1  0.993957  0.604498  0.253588  1
  Sn  Sn12  1  0.609983  0.004726  0.254072  1
  Sn  Sn13  1  0.394076  0.004346  0.745971  1
  Sn  Sn14  1  0.995337  0.389157  0.745271  1
  Sn  Sn15  1  0.397352  0.391561  0.254860  1
  Cl  Cl16  1  0.000565  0.000722  0.500120  1
  Cl  Cl17  1  0.000645  0.000429  0.000250  1
