# generated using pymatgen
data_Tb2P7(IrRu5)2
_symmetry_space_group_name_H-M   'P 1'
_cell_length_a   9.41239007
_cell_length_b   9.47119987
_cell_length_c   3.96124600
_cell_angle_alpha   90.00000000
_cell_angle_beta   90.00000000
_cell_angle_gamma   120.15757902
_symmetry_Int_Tables_number   1
_chemical_formula_structural   Tb2P7(IrRu5)2
_chemical_formula_sum   'Tb2 P7 Ir2 Ru10'
_cell_volume   305.33428203
_cell_formula_units_Z   1
loop_
 _symmetry_equiv_pos_site_id
 _symmetry_equiv_pos_as_xyz
  1  'x, y, z'
loop_
 _atom_site_type_symbol
 _atom_site_label
 _atom_site_symmetry_multiplicity
 _atom_site_fract_x
 _atom_site_fract_y
 _atom_site_fract_z
 _atom_site_occupancy
  Tb  Tb0  1  0.668303  0.333676  0.500000  1
  Tb  Tb1  1  0.330566  0.665423  0.000000  1
  P  P2  1  0.600667  0.716120  0.500000  1
  P  P3  1  0.000377  0.000781  0.000000  1
  P  P4  1  0.278476  0.880344  0.500000  1
  P  P5  1  0.112887  0.401585  0.500000  1
  P  P6  1  0.885747  0.576826  0.000000  1
  P  P7  1  0.424720  0.303934  0.000000  1
  P  P8  1  0.697216  0.118578  0.000000  1
  Ir  Ir9  1  0.552063  0.942833  0.500000  1
  Ir  Ir10  1  0.389592  0.445586  0.500000  1
  Ru  Ru11  1  0.913982  0.125550  0.500000  1
  Ru  Ru12  1  0.214058  0.087742  0.500000  1
  Ru  Ru13  1  0.874795  0.791281  0.500000  1
  Ru  Ru14  1  0.726864  0.891949  0.000000  1
  Ru  Ru15  1  0.109296  0.838426  0.000000  1
  Ru  Ru16  1  0.166051  0.271531  0.000000  1
  Ru  Ru17  1  0.430871  0.066220  0.000000  1
  Ru  Ru18  1  0.936098  0.361595  0.000000  1
  Ru  Ru19  1  0.638003  0.570963  0.000000  1
  Ru  Ru20  1  0.049369  0.609056  0.500000  1
