# generated using pymatgen
data_Pr5Sm3(Si3Rh)4
_symmetry_space_group_name_H-M   'P 1'
_cell_length_a   8.26722200
_cell_length_b   8.26722263
_cell_length_c   8.42160100
_cell_angle_alpha   90.00000000
_cell_angle_beta   90.00000000
_cell_angle_gamma   119.99999747
_symmetry_Int_Tables_number   1
_chemical_formula_structural   Pr5Sm3(Si3Rh)4
_chemical_formula_sum   'Pr5 Sm3 Si12 Rh4'
_cell_volume   498.47632593
_cell_formula_units_Z   1
loop_
 _symmetry_equiv_pos_site_id
 _symmetry_equiv_pos_as_xyz
  1  'x, y, z'
loop_
 _atom_site_type_symbol
 _atom_site_label
 _atom_site_symmetry_multiplicity
 _atom_site_fract_x
 _atom_site_fract_y
 _atom_site_fract_z
 _atom_site_occupancy
  Pr  Pr0  1  0.000000  0.000000  0.250000  1
  Pr  Pr1  1  0.000000  0.000000  0.750000  1
  Pr  Pr2  1  0.500633  0.499367  0.250000  1
  Pr  Pr3  1  0.500633  0.001265  0.250000  1
  Pr  Pr4  1  0.998735  0.499367  0.250000  1
  Sm  Sm5  1  0.499494  0.500506  0.750000  1
  Sm  Sm6  1  0.499494  0.998989  0.750000  1
  Sm  Sm7  1  0.001011  0.500506  0.750000  1
  Si  Si8  1  0.167036  0.832964  0.503248  1
  Si  Si9  1  0.167036  0.334074  0.503248  1
  Si  Si10  1  0.665926  0.832964  0.503248  1
  Si  Si11  1  0.833039  0.166961  0.503164  1
  Si  Si12  1  0.833039  0.666075  0.503164  1
  Si  Si13  1  0.333925  0.166961  0.503164  1
  Si  Si14  1  0.833039  0.166961  0.996836  1
  Si  Si15  1  0.833039  0.666075  0.996836  1
  Si  Si16  1  0.333925  0.166961  0.996836  1
  Si  Si17  1  0.167036  0.832964  0.996752  1
  Si  Si18  1  0.167036  0.334074  0.996752  1
  Si  Si19  1  0.665926  0.832964  0.996752  1
  Rh  Rh20  1  0.333333  0.666667  0.506136  1
  Rh  Rh21  1  0.666667  0.333333  0.508265  1
  Rh  Rh22  1  0.666667  0.333333  0.991735  1
  Rh  Rh23  1  0.333333  0.666667  0.993864  1
