# generated using pymatgen
data_Pr5Sm2Dy(GeO5)4
_symmetry_space_group_name_H-M   'P 1'
_cell_length_a   8.42796021
_cell_length_b   8.45384378
_cell_length_c   10.98913738
_cell_angle_alpha   61.53775320
_cell_angle_beta   61.16246300
_cell_angle_gamma   49.82172158
_symmetry_Int_Tables_number   1
_chemical_formula_structural   Pr5Sm2Dy(GeO5)4
_chemical_formula_sum   'Pr5 Sm2 Dy1 Ge4 O20'
_cell_volume   507.77707943
_cell_formula_units_Z   1
loop_
 _symmetry_equiv_pos_site_id
 _symmetry_equiv_pos_as_xyz
  1  'x, y, z'
loop_
 _atom_site_type_symbol
 _atom_site_label
 _atom_site_symmetry_multiplicity
 _atom_site_fract_x
 _atom_site_fract_y
 _atom_site_fract_z
 _atom_site_occupancy
  Pr  Pr0  1  0.719741  0.209435  0.965625  1
  Pr  Pr1  1  0.788976  0.277280  0.537889  1
  Pr  Pr2  1  0.279915  0.794966  0.033916  1
  Pr  Pr3  1  0.207091  0.722274  0.462936  1
  Pr  Pr4  1  0.994739  0.727315  0.836703  1
  Sm  Sm5  1  0.264600  0.023110  0.656989  1
  Sm  Sm6  1  0.007481  0.264198  0.168972  1
  Dy  Dy7  1  0.743027  0.976519  0.337257  1
  Ge  Ge8  1  0.774122  0.596525  0.687570  1
  Ge  Ge9  1  0.407004  0.221808  0.811168  1
  Ge  Ge10  1  0.226132  0.405665  0.305573  1
  Ge  Ge11  1  0.592535  0.776364  0.195597  1
  O  O12  1  0.775333  0.629348  0.062662  1
  O  O13  1  0.383109  0.218964  0.431575  1
  O  O14  1  0.222075  0.355792  0.950467  1
  O  O15  1  0.630730  0.784837  0.554311  1
  O  O16  1  0.587600  0.584852  0.362393  1
  O  O17  1  0.401954  0.423653  0.131979  1
  O  O18  1  0.404346  0.421351  0.647873  1
  O  O19  1  0.589578  0.584885  0.858110  1
  O  O20  1  0.949457  0.653012  0.674254  1
  O  O21  1  0.351145  0.049904  0.818418  1
  O  O22  1  0.052910  0.341201  0.325056  1
  O  O23  1  0.656407  0.946205  0.182413  1
  O  O24  1  0.882856  0.074642  0.396717  1
  O  O25  1  0.916098  0.107998  0.112479  1
  O  O26  1  0.113242  0.925889  0.601688  1
  O  O27  1  0.080716  0.897865  0.889899  1
  O  O28  1  0.083386  0.672059  0.323326  1
  O  O29  1  0.324163  0.913204  0.183462  1
  O  O30  1  0.914718  0.330826  0.671151  1
  O  O31  1  0.674816  0.088055  0.821572  1
