# generated using pymatgen
data_Pr2Nd6Cu3Si12Rh
_symmetry_space_group_name_H-M   'P 1'
_cell_length_a   8.17030900
_cell_length_b   8.17030999
_cell_length_c   8.56487200
_cell_angle_alpha   90.00000000
_cell_angle_beta   90.00000000
_cell_angle_gamma   120.00000006
_symmetry_Int_Tables_number   1
_chemical_formula_structural   Pr2Nd6Cu3Si12Rh
_chemical_formula_sum   'Pr2 Nd6 Cu3 Si12 Rh1'
_cell_volume   495.14058375
_cell_formula_units_Z   1
loop_
 _symmetry_equiv_pos_site_id
 _symmetry_equiv_pos_as_xyz
  1  'x, y, z'
loop_
 _atom_site_type_symbol
 _atom_site_label
 _atom_site_symmetry_multiplicity
 _atom_site_fract_x
 _atom_site_fract_y
 _atom_site_fract_z
 _atom_site_occupancy
  Pr  Pr0  1  0.000000  0.000000  0.750088  1
  Pr  Pr1  1  0.000000  0.000000  0.250010  1
  Nd  Nd2  1  0.499226  0.500774  0.751626  1
  Nd  Nd3  1  0.499226  0.998453  0.751626  1
  Nd  Nd4  1  0.001547  0.500774  0.751626  1
  Nd  Nd5  1  0.499958  0.500042  0.248543  1
  Nd  Nd6  1  0.000086  0.500042  0.248543  1
  Nd  Nd7  1  0.499958  0.999914  0.248543  1
  Cu  Cu8  1  0.666667  0.333333  0.997115  1
  Cu  Cu9  1  0.666667  0.333333  0.502205  1
  Cu  Cu10  1  0.333333  0.666667  0.498519  1
  Si  Si11  1  0.832346  0.167654  0.999673  1
  Si  Si12  1  0.832346  0.664691  0.999673  1
  Si  Si13  1  0.335309  0.167654  0.999673  1
  Si  Si14  1  0.831027  0.168973  0.500271  1
  Si  Si15  1  0.831027  0.662055  0.500271  1
  Si  Si16  1  0.337945  0.168973  0.500271  1
  Si  Si17  1  0.169083  0.830917  0.499745  1
  Si  Si18  1  0.661833  0.830917  0.499745  1
  Si  Si19  1  0.169083  0.338167  0.499745  1
  Si  Si20  1  0.168254  0.831746  0.000492  1
  Si  Si21  1  0.663494  0.831746  0.000492  1
  Si  Si22  1  0.168254  0.336506  0.000492  1
  Rh  Rh23  1  0.333333  0.666667  0.001007  1
