# generated using pymatgen
data_Y2HoPaPt4
_symmetry_space_group_name_H-M   'P 1'
_cell_length_a   4.55562700
_cell_length_b   5.61088386
_cell_length_c   7.01335261
_cell_angle_alpha   91.08255820
_cell_angle_beta   90.00000000
_cell_angle_gamma   90.00000000
_symmetry_Int_Tables_number   1
_chemical_formula_structural   Y2HoPaPt4
_chemical_formula_sum   'Y2 Ho1 Pa1 Pt4'
_cell_volume   179.23696776
_cell_formula_units_Z   1
loop_
 _symmetry_equiv_pos_site_id
 _symmetry_equiv_pos_as_xyz
  1  'x, y, z'
loop_
 _atom_site_type_symbol
 _atom_site_label
 _atom_site_symmetry_multiplicity
 _atom_site_fract_x
 _atom_site_fract_y
 _atom_site_fract_z
 _atom_site_occupancy
  Y  Y0  1  0.250000  0.142111  0.184580  1
  Y  Y1  1  0.750000  0.645766  0.315068  1
  Ho  Ho2  1  0.750000  0.854842  0.819810  1
  Pa  Pa3  1  0.250000  0.355912  0.682487  1
  Pt  Pt4  1  0.250000  0.839923  0.554778  1
  Pt  Pt5  1  0.250000  0.651026  0.033331  1
  Pt  Pt6  1  0.750000  0.167918  0.467620  1
  Pt  Pt7  1  0.750000  0.342502  0.942326  1
