# generated using pymatgen
data_NdTi2AlAu3
_symmetry_space_group_name_H-M   'P 1'
_cell_length_a   5.72411840
_cell_length_b   5.72411972
_cell_length_c   5.67678211
_cell_angle_alpha   101.76993990
_cell_angle_beta   101.76992777
_cell_angle_gamma   126.54179685
_symmetry_Int_Tables_number   1
_chemical_formula_structural   NdTi2AlAu3
_chemical_formula_sum   'Nd1 Ti2 Al1 Au3'
_cell_volume   133.18659048
_cell_formula_units_Z   1
loop_
 _symmetry_equiv_pos_site_id
 _symmetry_equiv_pos_as_xyz
  1  'x, y, z'
loop_
 _atom_site_type_symbol
 _atom_site_label
 _atom_site_symmetry_multiplicity
 _atom_site_fract_x
 _atom_site_fract_y
 _atom_site_fract_z
 _atom_site_occupancy
  Nd  Nd0  1  0.004681  0.995319  0.000000  1
  Ti  Ti1  1  0.246539  0.753461  0.500000  1
  Ti  Ti2  1  0.746539  0.253461  0.500000  1
  Al  Al3  1  0.307024  0.692976  0.000000  1
  Au  Au4  1  0.308136  0.320250  0.628386  1
  Au  Au5  1  0.679750  0.691864  0.371614  1
  Au  Au6  1  0.707331  0.292669  0.000000  1
