# generated using pymatgen
data_TiMnCr2(FeP)4
_symmetry_space_group_name_H-M   'P 1'
_cell_length_a   3.54533900
_cell_length_b   5.85286902
_cell_length_c   6.61588976
_cell_angle_alpha   90.41178633
_cell_angle_beta   90.00000000
_cell_angle_gamma   90.00000000
_symmetry_Int_Tables_number   1
_chemical_formula_structural   TiMnCr2(FeP)4
_chemical_formula_sum   'Ti1 Mn1 Cr2 Fe4 P4'
_cell_volume   137.27884503
_cell_formula_units_Z   1
loop_
 _symmetry_equiv_pos_site_id
 _symmetry_equiv_pos_as_xyz
  1  'x, y, z'
loop_
 _atom_site_type_symbol
 _atom_site_label
 _atom_site_symmetry_multiplicity
 _atom_site_fract_x
 _atom_site_fract_y
 _atom_site_fract_z
 _atom_site_occupancy
  Ti  Ti0  1  0.750000  0.976184  0.176621  1
  Mn  Mn1  1  0.250000  0.030029  0.825735  1
  Cr  Cr2  1  0.750000  0.476777  0.330431  1
  Cr  Cr3  1  0.250000  0.519993  0.668908  1
  Fe  Fe4  1  0.250000  0.645064  0.057240  1
  Fe  Fe5  1  0.750000  0.354520  0.937421  1
  Fe  Fe6  1  0.250000  0.144728  0.439544  1
  Fe  Fe7  1  0.750000  0.856261  0.565265  1
  P  P8  1  0.250000  0.277734  0.124358  1
  P  P9  1  0.750000  0.725309  0.869526  1
  P  P10  1  0.250000  0.759874  0.382333  1
  P  P11  1  0.750000  0.233526  0.622617  1
