# generated using pymatgen
data_DyNpU2F12
_symmetry_space_group_name_H-M   'P 1'
_cell_length_a   4.53871900
_cell_length_b   6.54128578
_cell_length_c   7.07883200
_cell_angle_alpha   90.00000000
_cell_angle_beta   90.00000000
_cell_angle_gamma   89.20746007
_symmetry_Int_Tables_number   1
_chemical_formula_structural   DyNpU2F12
_chemical_formula_sum   'Dy1 Np1 U2 F12'
_cell_volume   210.14374862
_cell_formula_units_Z   1
loop_
 _symmetry_equiv_pos_site_id
 _symmetry_equiv_pos_as_xyz
  1  'x, y, z'
loop_
 _atom_site_type_symbol
 _atom_site_label
 _atom_site_symmetry_multiplicity
 _atom_site_fract_x
 _atom_site_fract_y
 _atom_site_fract_z
 _atom_site_occupancy
  Dy  Dy0  1  0.943800  0.633151  0.750000  1
  Np  Np1  1  0.049249  0.369205  0.250000  1
  U  U2  1  0.441102  0.861896  0.250000  1
  U  U3  1  0.556234  0.133934  0.750000  1
  F  F4  1  0.084594  0.967957  0.750000  1
  F  F5  1  0.564965  0.510969  0.250000  1
  F  F6  1  0.411292  0.492267  0.750000  1
  F  F7  1  0.918822  0.015552  0.250000  1
  F  F8  1  0.390624  0.169588  0.063002  1
  F  F9  1  0.890794  0.343310  0.928347  1
  F  F10  1  0.109069  0.671848  0.445919  1
  F  F11  1  0.624484  0.822791  0.566553  1
  F  F12  1  0.624484  0.822791  0.933447  1
  F  F13  1  0.109069  0.671848  0.054081  1
  F  F14  1  0.890794  0.343310  0.571653  1
  F  F15  1  0.390624  0.169588  0.436998  1
