# generated using pymatgen
data_Tb8Ta4Ti8Si15Sn
_symmetry_space_group_name_H-M   'P 1'
_cell_length_a   7.12080354
_cell_length_b   7.08014997
_cell_length_c   13.06768604
_cell_angle_alpha   89.97012250
_cell_angle_beta   89.84738077
_cell_angle_gamma   89.96481140
_symmetry_Int_Tables_number   1
_chemical_formula_structural   Tb8Ta4Ti8Si15Sn
_chemical_formula_sum   'Tb8 Ta4 Ti8 Si15 Sn1'
_cell_volume   658.82257350
_cell_formula_units_Z   1
loop_
 _symmetry_equiv_pos_site_id
 _symmetry_equiv_pos_as_xyz
  1  'x, y, z'
loop_
 _atom_site_type_symbol
 _atom_site_label
 _atom_site_symmetry_multiplicity
 _atom_site_fract_x
 _atom_site_fract_y
 _atom_site_fract_z
 _atom_site_occupancy
  Tb  Tb0  1  0.342761  0.999808  0.462268  1
  Tb  Tb1  1  0.505098  0.834998  0.718628  1
  Tb  Tb2  1  0.502036  0.160045  0.216946  1
  Tb  Tb3  1  0.840660  0.497531  0.281932  1
  Tb  Tb4  1  0.159639  0.508869  0.785648  1
  Tb  Tb5  1  0.661149  0.996281  0.969204  1
  Tb  Tb6  1  0.993741  0.346907  0.527492  1
  Tb  Tb7  1  0.998822  0.659842  0.033658  1
  Ta  Ta8  1  0.326175  0.326420  0.001197  1
  Ta  Ta9  1  0.174157  0.826086  0.249585  1
  Ta  Ta10  1  0.816583  0.176294  0.751815  1
  Ta  Ta11  1  0.673421  0.673361  0.499646  1
  Ti  Ti12  1  0.153918  0.009579  0.882839  1
  Ti  Ti13  1  0.490834  0.652342  0.126386  1
  Ti  Ti14  1  0.515599  0.351559  0.625874  1
  Ti  Ti15  1  0.655174  0.492005  0.875921  1
  Ti  Ti16  1  0.346053  0.509767  0.373405  1
  Ti  Ti17  1  0.845478  0.990682  0.375575  1
  Ti  Ti18  1  0.010762  0.153257  0.123634  1
  Ti  Ti19  1  0.978782  0.834224  0.619166  1
  Si  Si20  1  0.372340  0.701765  0.936704  1
  Si  Si21  1  0.626639  0.298553  0.433623  1
  Si  Si22  1  0.701949  0.371438  0.065606  1
  Si  Si23  1  0.297453  0.628862  0.564863  1
  Si  Si24  1  0.799279  0.871716  0.184970  1
  Si  Si25  1  0.128339  0.201181  0.314103  1
  Si  Si26  1  0.872179  0.801542  0.815534  1
  Si  Si27  1  0.293502  0.953208  0.066127  1
  Si  Si28  1  0.548157  0.790084  0.312949  1
  Si  Si29  1  0.459584  0.209202  0.819634  1
  Si  Si30  1  0.794538  0.543734  0.687074  1
  Si  Si31  1  0.208290  0.453822  0.185728  1
  Si  Si32  1  0.705885  0.047704  0.564059  1
  Si  Si33  1  0.953593  0.292521  0.935757  1
  Si  Si34  1  0.047073  0.709557  0.433352  1
  Sn  Sn35  1  0.200359  0.125250  0.679094  1
