# generated using pymatgen
data_Dy12TcIrOs2
_symmetry_space_group_name_H-M   'P 1'
_cell_length_a   6.32094147
_cell_length_b   7.35597503
_cell_length_c   9.14026900
_cell_angle_alpha   90.00000000
_cell_angle_beta   90.00000000
_cell_angle_gamma   90.10672165
_symmetry_Int_Tables_number   1
_chemical_formula_structural   Dy12TcIrOs2
_chemical_formula_sum   'Dy12 Tc1 Ir1 Os2'
_cell_volume   424.99149511
_cell_formula_units_Z   1
loop_
 _symmetry_equiv_pos_site_id
 _symmetry_equiv_pos_as_xyz
  1  'x, y, z'
loop_
 _atom_site_type_symbol
 _atom_site_label
 _atom_site_symmetry_multiplicity
 _atom_site_fract_x
 _atom_site_fract_y
 _atom_site_fract_z
 _atom_site_occupancy
  Dy  Dy0  1  0.330938  0.674900  0.061607  1
  Dy  Dy1  1  0.169202  0.177327  0.438015  1
  Dy  Dy2  1  0.669574  0.324077  0.563289  1
  Dy  Dy3  1  0.827390  0.823183  0.934217  1
  Dy  Dy4  1  0.669574  0.324077  0.936711  1
  Dy  Dy5  1  0.827390  0.823183  0.565783  1
  Dy  Dy6  1  0.330938  0.674900  0.438393  1
  Dy  Dy7  1  0.169202  0.177327  0.061985  1
  Dy  Dy8  1  0.867152  0.538174  0.250000  1
  Dy  Dy9  1  0.633355  0.039723  0.250000  1
  Dy  Dy10  1  0.129824  0.462829  0.750000  1
  Dy  Dy11  1  0.370962  0.961687  0.750000  1
  Tc  Tc12  1  0.963714  0.113517  0.750000  1
  Ir  Ir13  1  0.043745  0.884149  0.250000  1
  Os  Os14  1  0.458413  0.385433  0.250000  1
  Os  Os15  1  0.538628  0.615515  0.750000  1
