# generated using pymatgen
data_TbTm3U4(ReB6)4
_symmetry_space_group_name_H-M   'P 1'
_cell_length_a   3.62629700
_cell_length_b   9.28142743
_cell_length_c   11.39914053
_cell_angle_alpha   89.96506461
_cell_angle_beta   90.00000000
_cell_angle_gamma   90.00000000
_symmetry_Int_Tables_number   1
_chemical_formula_structural   TbTm3U4(ReB6)4
_chemical_formula_sum   'Tb1 Tm3 U4 Re4 B24'
_cell_volume   383.66322324
_cell_formula_units_Z   1
loop_
 _symmetry_equiv_pos_site_id
 _symmetry_equiv_pos_as_xyz
  1  'x, y, z'
loop_
 _atom_site_type_symbol
 _atom_site_label
 _atom_site_symmetry_multiplicity
 _atom_site_fract_x
 _atom_site_fract_y
 _atom_site_fract_z
 _atom_site_occupancy
  Tb  Tb0  1  0.000000  0.163296  0.907668  1
  Tm  Tm1  1  0.000000  0.336794  0.407693  1
  Tm  Tm2  1  0.000000  0.663237  0.592152  1
  Tm  Tm3  1  0.000000  0.836530  0.092493  1
  U  U4  1  0.000000  0.956195  0.396207  1
  U  U5  1  0.000000  0.043586  0.603605  1
  U  U6  1  0.000000  0.456817  0.103986  1
  U  U7  1  0.000000  0.544128  0.896495  1
  Re  Re8  1  0.000000  0.645116  0.318776  1
  Re  Re9  1  0.000000  0.355459  0.680642  1
  Re  Re10  1  0.000000  0.145050  0.181907  1
  Re  Re11  1  0.000000  0.853793  0.818412  1
  B  B12  1  0.500000  0.550909  0.431470  1
  B  B13  1  0.500000  0.449322  0.568229  1
  B  B14  1  0.500000  0.050655  0.069255  1
  B  B15  1  0.500000  0.947612  0.931398  1
  B  B16  1  0.500000  0.742304  0.423396  1
  B  B17  1  0.500000  0.257803  0.576250  1
  B  B18  1  0.500000  0.242997  0.077440  1
  B  B19  1  0.500000  0.757099  0.923334  1
  B  B20  1  0.500000  0.802042  0.275004  1
  B  B21  1  0.500000  0.198307  0.724414  1
  B  B22  1  0.500000  0.302257  0.225441  1
  B  B23  1  0.500000  0.697609  0.774723  1
  B  B24  1  0.500000  0.644466  0.188677  1
  B  B25  1  0.500000  0.356516  0.811043  1
  B  B26  1  0.500000  0.144354  0.311622  1
  B  B27  1  0.500000  0.855113  0.688238  1
  B  B28  1  0.500000  0.988035  0.219409  1
  B  B29  1  0.500000  0.010572  0.780234  1
  B  B30  1  0.500000  0.488253  0.281028  1
  B  B31  1  0.500000  0.512039  0.718844  1
  B  B32  1  0.500000  0.641261  0.039305  1
  B  B33  1  0.500000  0.360668  0.961374  1
  B  B34  1  0.500000  0.141333  0.460801  1
  B  B35  1  0.500000  0.858474  0.539036  1
