# generated using pymatgen
data_LuNbFeB2Ru5
_symmetry_space_group_name_H-M   'P 1'
_cell_length_a   9.35811445
_cell_length_b   9.35811389
_cell_length_c   3.04316400
_cell_angle_alpha   90.00000000
_cell_angle_beta   90.00000000
_cell_angle_gamma   90.35887078
_symmetry_Int_Tables_number   1
_chemical_formula_structural   LuNbFeB2Ru5
_chemical_formula_sum   'Lu2 Nb2 Fe2 B4 Ru10'
_cell_volume   266.49773194
_cell_formula_units_Z   2
loop_
 _symmetry_equiv_pos_site_id
 _symmetry_equiv_pos_as_xyz
  1  'x, y, z'
loop_
 _atom_site_type_symbol
 _atom_site_label
 _atom_site_symmetry_multiplicity
 _atom_site_fract_x
 _atom_site_fract_y
 _atom_site_fract_z
 _atom_site_occupancy
  Lu  Lu0  1  0.824205  0.675795  0.000000  1
  Lu  Lu1  1  0.175795  0.324205  0.000000  1
  Nb  Nb2  1  0.323439  0.823439  0.000000  1
  Nb  Nb3  1  0.676561  0.176561  0.000000  1
  Fe  Fe4  1  0.500000  0.500000  0.000000  1
  Fe  Fe5  1  0.000000  0.000000  0.000000  1
  B  B6  1  0.624049  0.875951  0.000000  1
  B  B7  1  0.375951  0.124049  0.000000  1
  B  B8  1  0.123662  0.623662  0.000000  1
  B  B9  1  0.876338  0.376338  0.000000  1
  Ru  Ru10  1  0.562232  0.717076  0.500000  1
  Ru  Ru11  1  0.437768  0.282924  0.500000  1
  Ru  Ru12  1  0.079141  0.789342  0.500000  1
  Ru  Ru13  1  0.920859  0.210658  0.500000  1
  Ru  Ru14  1  0.289342  0.579141  0.500000  1
  Ru  Ru15  1  0.710658  0.420859  0.500000  1
  Ru  Ru16  1  0.217076  0.062232  0.500000  1
  Ru  Ru17  1  0.782924  0.937768  0.500000  1
  Ru  Ru18  1  0.500000  0.000000  0.500000  1
  Ru  Ru19  1  0.000000  0.500000  0.500000  1
