# generated using pymatgen
data_Lu3In2SnPd3
_symmetry_space_group_name_H-M   'P 1'
_cell_length_a   7.70332165
_cell_length_b   7.73104666
_cell_length_c   3.69553300
_cell_angle_alpha   90.00000000
_cell_angle_beta   90.00000000
_cell_angle_gamma   120.11912852
_symmetry_Int_Tables_number   1
_chemical_formula_structural   Lu3In2SnPd3
_chemical_formula_sum   'Lu3 In2 Sn1 Pd3'
_cell_volume   190.37129128
_cell_formula_units_Z   1
loop_
 _symmetry_equiv_pos_site_id
 _symmetry_equiv_pos_as_xyz
  1  'x, y, z'
loop_
 _atom_site_type_symbol
 _atom_site_label
 _atom_site_symmetry_multiplicity
 _atom_site_fract_x
 _atom_site_fract_y
 _atom_site_fract_z
 _atom_site_occupancy
  Lu  Lu0  1  0.407431  0.404913  0.500000  1
  Lu  Lu1  1  0.592569  0.997482  0.500000  1
  Lu  Lu2  1  0.000000  0.598848  0.500000  1
  In  In3  1  0.734391  0.732854  0.000000  1
  In  In4  1  0.265609  0.998463  0.000000  1
  Sn  Sn5  1  0.000000  0.264900  0.000000  1
  Pd  Pd6  1  0.668888  0.332872  0.000000  1
  Pd  Pd7  1  0.331112  0.663985  0.000000  1
  Pd  Pd8  1  0.000000  0.005684  0.500000  1
