# generated using pymatgen
data_Ta3Ga2CuC
_symmetry_space_group_name_H-M   'P 1'
_cell_length_a   8.27764428
_cell_length_b   8.27764387
_cell_length_c   8.27764900
_cell_angle_alpha   59.99995868
_cell_angle_beta   59.99996222
_cell_angle_gamma   59.99991287
_symmetry_Int_Tables_number   1
_chemical_formula_structural   Ta3Ga2CuC
_chemical_formula_sum   'Ta12 Ga8 Cu4 C4'
_cell_volume   401.05594688
_cell_formula_units_Z   4
loop_
 _symmetry_equiv_pos_site_id
 _symmetry_equiv_pos_as_xyz
  1  'x, y, z'
loop_
 _atom_site_type_symbol
 _atom_site_label
 _atom_site_symmetry_multiplicity
 _atom_site_fract_x
 _atom_site_fract_y
 _atom_site_fract_z
 _atom_site_occupancy
  Ta  Ta0  1  0.566605  0.933395  0.566605  1
  Ta  Ta1  1  0.316605  0.683395  0.683395  1
  Ta  Ta2  1  0.683395  0.316605  0.316605  1
  Ta  Ta3  1  0.316605  0.683395  0.316605  1
  Ta  Ta4  1  0.683395  0.683395  0.316604  1
  Ta  Ta5  1  0.316605  0.316605  0.683395  1
  Ta  Ta6  1  0.566605  0.566605  0.933396  1
  Ta  Ta7  1  0.933395  0.566605  0.566605  1
  Ta  Ta8  1  0.566605  0.933395  0.933395  1
  Ta  Ta9  1  0.933395  0.933395  0.566605  1
  Ta  Ta10  1  0.683395  0.316605  0.683395  1
  Ta  Ta11  1  0.933395  0.566605  0.933395  1
  Ga  Ga12  1  0.915063  0.915063  0.915062  1
  Ga  Ga13  1  0.995187  0.334937  0.334938  1
  Ga  Ga14  1  0.334937  0.995187  0.334938  1
  Ga  Ga15  1  0.334937  0.334937  0.995187  1
  Ga  Ga16  1  0.915063  0.254813  0.915062  1
  Ga  Ga17  1  0.915063  0.915063  0.254813  1
  Ga  Ga18  1  0.254813  0.915063  0.915062  1
  Ga  Ga19  1  0.334937  0.334937  0.334938  1
  Cu  Cu20  1  0.125000  0.125000  0.125000  1
  Cu  Cu21  1  0.625000  0.125000  0.125000  1
  Cu  Cu22  1  0.125000  0.625000  0.125000  1
  Cu  Cu23  1  0.125000  0.125000  0.625000  1
  C  C24  1  0.625000  0.625000  0.625000  1
  C  C25  1  0.125000  0.625000  0.625000  1
  C  C26  1  0.625000  0.125000  0.625000  1
  C  C27  1  0.625000  0.625000  0.125000  1
