# generated using pymatgen
data_Th2Mn3Si7Ni9
_symmetry_space_group_name_H-M   'P 1'
_cell_length_a   9.30697000
_cell_length_b   9.30697047
_cell_length_c   3.79508100
_cell_angle_alpha   90.00000000
_cell_angle_beta   90.00000000
_cell_angle_gamma   119.99999831
_symmetry_Int_Tables_number   1
_chemical_formula_structural   Th2Mn3Si7Ni9
_chemical_formula_sum   'Th2 Mn3 Si7 Ni9'
_cell_volume   284.68746083
_cell_formula_units_Z   1
loop_
 _symmetry_equiv_pos_site_id
 _symmetry_equiv_pos_as_xyz
  1  'x, y, z'
loop_
 _atom_site_type_symbol
 _atom_site_label
 _atom_site_symmetry_multiplicity
 _atom_site_fract_x
 _atom_site_fract_y
 _atom_site_fract_z
 _atom_site_occupancy
  Th  Th0  1  0.333333  0.666667  0.000000  1
  Th  Th1  1  0.000000  0.000000  0.500000  1
  Mn  Mn2  1  0.772130  0.231967  0.500000  1
  Mn  Mn3  1  0.768033  0.540164  0.500000  1
  Mn  Mn4  1  0.459836  0.227870  0.500000  1
  Si  Si5  1  0.771111  0.041115  0.000000  1
  Si  Si6  1  0.958885  0.729996  0.000000  1
  Si  Si7  1  0.270004  0.228889  0.000000  1
  Si  Si8  1  0.371602  0.938093  0.500000  1
  Si  Si9  1  0.061907  0.433508  0.500000  1
  Si  Si10  1  0.566492  0.628398  0.500000  1
  Si  Si11  1  0.666667  0.333333  0.000000  1
  Ni  Ni12  1  0.040394  0.271459  0.000000  1
  Ni  Ni13  1  0.728541  0.768934  0.000000  1
  Ni  Ni14  1  0.231066  0.959606  0.000000  1
  Ni  Ni15  1  0.535786  0.054071  0.000000  1
  Ni  Ni16  1  0.945929  0.481715  0.000000  1
  Ni  Ni17  1  0.518285  0.464214  0.000000  1
  Ni  Ni18  1  0.613615  0.902647  0.500000  1
  Ni  Ni19  1  0.097353  0.710966  0.500000  1
  Ni  Ni20  1  0.289034  0.386385  0.500000  1
