# generated using pymatgen
data_Ca9Hg(BiPt2)2
_symmetry_space_group_name_H-M   'P 1'
_cell_length_a   9.18511439
_cell_length_b   9.18511417
_cell_length_c   9.18511500
_cell_angle_alpha   130.12569228
_cell_angle_beta   130.12569114
_cell_angle_gamma   73.20590681
_symmetry_Int_Tables_number   1
_chemical_formula_structural   Ca9Hg(BiPt2)2
_chemical_formula_sum   'Ca9 Hg1 Bi2 Pt4'
_cell_volume   442.34830608
_cell_formula_units_Z   1
loop_
 _symmetry_equiv_pos_site_id
 _symmetry_equiv_pos_as_xyz
  1  'x, y, z'
loop_
 _atom_site_type_symbol
 _atom_site_label
 _atom_site_symmetry_multiplicity
 _atom_site_fract_x
 _atom_site_fract_y
 _atom_site_fract_z
 _atom_site_occupancy
  Ca  Ca0  1  0.000000  0.000000  0.000000  1
  Ca  Ca1  1  0.788759  0.311171  0.844784  1
  Ca  Ca2  1  0.211241  0.688829  0.155216  1
  Ca  Ca3  1  0.466387  0.943975  0.155216  1
  Ca  Ca4  1  0.311171  0.466387  0.522412  1
  Ca  Ca5  1  0.056025  0.211241  0.522412  1
  Ca  Ca6  1  0.533613  0.056025  0.844784  1
  Ca  Ca7  1  0.688829  0.533613  0.477588  1
  Ca  Ca8  1  0.943975  0.788759  0.477588  1
  Hg  Hg9  1  0.500000  0.500000  0.000000  1
  Bi  Bi10  1  0.237427  0.237427  0.000000  1
  Bi  Bi11  1  0.762573  0.762573  0.000000  1
  Pt  Pt12  1  0.121076  0.630734  0.751812  1
  Pt  Pt13  1  0.878924  0.369266  0.248188  1
  Pt  Pt14  1  0.630734  0.878924  0.509658  1
  Pt  Pt15  1  0.369266  0.121076  0.490342  1
