# generated using pymatgen
data_Tm8SnPb3Au8
_symmetry_space_group_name_H-M   'P 1'
_cell_length_a   8.04121800
_cell_length_b   8.04121800
_cell_length_c   7.27803800
_cell_angle_alpha   90.00000000
_cell_angle_beta   90.00000000
_cell_angle_gamma   90.00000000
_symmetry_Int_Tables_number   1
_chemical_formula_structural   Tm8SnPb3Au8
_chemical_formula_sum   'Tm8 Sn1 Pb3 Au8'
_cell_volume   470.60657555
_cell_formula_units_Z   1
loop_
 _symmetry_equiv_pos_site_id
 _symmetry_equiv_pos_as_xyz
  1  'x, y, z'
loop_
 _atom_site_type_symbol
 _atom_site_label
 _atom_site_symmetry_multiplicity
 _atom_site_fract_x
 _atom_site_fract_y
 _atom_site_fract_z
 _atom_site_occupancy
  Tm  Tm0  1  0.682852  0.324252  0.499377  1
  Tm  Tm1  1  0.317148  0.675748  0.499377  1
  Tm  Tm2  1  0.175748  0.182852  0.000623  1
  Tm  Tm3  1  0.824252  0.817148  0.000623  1
  Tm  Tm4  1  0.847664  0.840611  0.499319  1
  Tm  Tm5  1  0.152336  0.159389  0.499319  1
  Tm  Tm6  1  0.340611  0.652336  0.000681  1
  Tm  Tm7  1  0.659389  0.347664  0.000681  1
  Sn  Sn8  1  0.000000  0.500000  0.250000  1
  Pb  Pb9  1  0.500000  0.000000  0.250000  1
  Pb  Pb10  1  0.000000  0.500000  0.750000  1
  Pb  Pb11  1  0.500000  0.000000  0.750000  1
  Au  Au12  1  0.873770  0.128944  0.224389  1
  Au  Au13  1  0.126230  0.871056  0.224389  1
  Au  Au14  1  0.374300  0.371744  0.724321  1
  Au  Au15  1  0.625700  0.628256  0.724321  1
  Au  Au16  1  0.128256  0.874300  0.775679  1
  Au  Au17  1  0.871744  0.125700  0.775679  1
  Au  Au18  1  0.628944  0.626230  0.275611  1
  Au  Au19  1  0.371056  0.373770  0.275611  1
