# generated using pymatgen
data_Pr2Nd3Sn15Ir8
_symmetry_space_group_name_H-M   'P 1'
_cell_length_a   4.52356800
_cell_length_b   7.35940703
_cell_length_c   18.76316940
_cell_angle_alpha   89.88328434
_cell_angle_beta   90.00000000
_cell_angle_gamma   90.00000000
_symmetry_Int_Tables_number   1
_chemical_formula_structural   Pr2Nd3Sn15Ir8
_chemical_formula_sum   'Pr2 Nd3 Sn15 Ir8'
_cell_volume   624.63921337
_cell_formula_units_Z   1
loop_
 _symmetry_equiv_pos_site_id
 _symmetry_equiv_pos_as_xyz
  1  'x, y, z'
loop_
 _atom_site_type_symbol
 _atom_site_label
 _atom_site_symmetry_multiplicity
 _atom_site_fract_x
 _atom_site_fract_y
 _atom_site_fract_z
 _atom_site_occupancy
  Pr  Pr0  1  0.500000  0.001496  0.855935  1
  Pr  Pr1  1  0.500000  0.499315  0.357522  1
  Nd  Nd2  1  0.000000  0.000214  0.143949  1
  Nd  Nd3  1  0.000000  0.501341  0.641874  1
  Nd  Nd4  1  0.500000  0.490581  0.930803  1
  Sn  Sn5  1  0.000000  0.718259  0.805570  1
  Sn  Sn6  1  0.000000  0.779845  0.306473  1
  Sn  Sn7  1  0.500000  0.276611  0.193608  1
  Sn  Sn8  1  0.500000  0.219684  0.692304  1
  Sn  Sn9  1  0.000000  0.854004  0.969785  1
  Sn  Sn10  1  0.000000  0.631238  0.467878  1
  Sn  Sn11  1  0.500000  0.133643  0.033093  1
  Sn  Sn12  1  0.500000  0.366621  0.531904  1
  Sn  Sn13  1  0.000000  0.304497  0.818495  1
  Sn  Sn14  1  0.000000  0.199369  0.317842  1
  Sn  Sn15  1  0.500000  0.698323  0.185842  1
  Sn  Sn16  1  0.500000  0.807382  0.678614  1
  Sn  Sn17  1  0.500000  0.020879  0.433649  1
  Sn  Sn18  1  0.000000  0.513064  0.067577  1
  Sn  Sn19  1  0.000000  0.979450  0.567646  1
  Ir  Ir20  1  0.000000  0.229238  0.964744  1
  Ir  Ir21  1  0.000000  0.248267  0.464593  1
  Ir  Ir22  1  0.500000  0.765138  0.045121  1
  Ir  Ir23  1  0.500000  0.750026  0.533869  1
  Ir  Ir24  1  0.000000  0.019014  0.715422  1
  Ir  Ir25  1  0.000000  0.483260  0.214420  1
  Ir  Ir26  1  0.500000  0.987729  0.288440  1
  Ir  Ir27  1  0.500000  0.521511  0.773029  1
