# generated using pymatgen
data_Na5HfZr2(Cu4As3)4
_symmetry_space_group_name_H-M   'P 1'
_cell_length_a   13.17635260
_cell_length_b   13.17635204
_cell_length_c   4.00026300
_cell_angle_alpha   90.00000000
_cell_angle_beta   90.00000000
_cell_angle_gamma   119.96545279
_symmetry_Int_Tables_number   1
_chemical_formula_structural   Na5HfZr2(Cu4As3)4
_chemical_formula_sum   'Na5 Hf1 Zr2 Cu16 As12'
_cell_volume   601.67318446
_cell_formula_units_Z   1
loop_
 _symmetry_equiv_pos_site_id
 _symmetry_equiv_pos_as_xyz
  1  'x, y, z'
loop_
 _atom_site_type_symbol
 _atom_site_label
 _atom_site_symmetry_multiplicity
 _atom_site_fract_x
 _atom_site_fract_y
 _atom_site_fract_z
 _atom_site_occupancy
  Na  Na0  1  0.185321  0.185321  0.500000  1
  Na  Na1  1  0.814801  0.999966  0.500000  1
  Na  Na2  1  0.999966  0.814801  0.500000  1
  Na  Na3  1  0.333294  0.666646  0.000000  1
  Na  Na4  1  0.666646  0.333294  0.000000  1
  Hf  Hf5  1  0.570006  0.570006  0.000000  1
  Zr  Zr6  1  0.430529  0.999931  0.000000  1
  Zr  Zr7  1  0.999931  0.430529  0.000000  1
  Cu  Cu8  1  0.722997  0.722997  0.500000  1
  Cu  Cu9  1  0.276314  0.000067  0.500000  1
  Cu  Cu10  1  0.000067  0.276314  0.500000  1
  Cu  Cu11  1  0.182637  0.371650  0.000000  1
  Cu  Cu12  1  0.628637  0.810123  0.000000  1
  Cu  Cu13  1  0.189019  0.817611  0.000000  1
  Cu  Cu14  1  0.810123  0.628637  0.000000  1
  Cu  Cu15  1  0.817611  0.189019  0.000000  1
  Cu  Cu16  1  0.371650  0.182637  0.000000  1
  Cu  Cu17  1  0.359483  0.480804  0.500000  1
  Cu  Cu18  1  0.519232  0.878269  0.500000  1
  Cu  Cu19  1  0.121621  0.640804  0.500000  1
  Cu  Cu20  1  0.878269  0.519232  0.500000  1
  Cu  Cu21  1  0.640804  0.121621  0.500000  1
  Cu  Cu22  1  0.480804  0.359483  0.500000  1
  Cu  Cu23  1  0.999959  0.999959  0.000000  1
  As  As24  1  0.821636  0.821636  0.000000  1
  As  As25  1  0.178520  0.000189  0.000000  1
  As  As26  1  0.000189  0.178520  0.000000  1
  As  As27  1  0.171050  0.485703  0.500000  1
  As  As28  1  0.514347  0.684181  0.500000  1
  As  As29  1  0.314617  0.828859  0.500000  1
  As  As30  1  0.684181  0.514347  0.500000  1
  As  As31  1  0.828859  0.314617  0.500000  1
  As  As32  1  0.485703  0.171050  0.500000  1
  As  As33  1  0.364934  0.364934  0.000000  1
  As  As34  1  0.636631  0.999614  0.000000  1
  As  As35  1  0.999614  0.636631  0.000000  1
