# generated using pymatgen
data_Pm2MgPdO6
_symmetry_space_group_name_H-M   'P 1'
_cell_length_a   5.46416331
_cell_length_b   5.46416170
_cell_length_c   5.46416314
_cell_angle_alpha   62.52608495
_cell_angle_beta   62.52608572
_cell_angle_gamma   62.52608617
_symmetry_Int_Tables_number   1
_chemical_formula_structural   Pm2MgPdO6
_chemical_formula_sum   'Pm2 Mg1 Pd1 O6'
_cell_volume   121.85303733
_cell_formula_units_Z   1
loop_
 _symmetry_equiv_pos_site_id
 _symmetry_equiv_pos_as_xyz
  1  'x, y, z'
loop_
 _atom_site_type_symbol
 _atom_site_label
 _atom_site_symmetry_multiplicity
 _atom_site_fract_x
 _atom_site_fract_y
 _atom_site_fract_z
 _atom_site_occupancy
  Pm  Pm0  1  0.254195  0.254195  0.254195  1
  Pm  Pm1  1  0.745805  0.745805  0.745804  1
  Mg  Mg2  1  0.000000  0.000000  0.000000  1
  Pd  Pd3  1  0.500000  0.500000  0.500000  1
  O  O4  1  0.741247  0.342632  0.160939  1
  O  O5  1  0.657367  0.839060  0.258753  1
  O  O6  1  0.160939  0.741247  0.342633  1
  O  O7  1  0.839061  0.258753  0.657367  1
  O  O8  1  0.342631  0.160939  0.741249  1
  O  O9  1  0.258752  0.657368  0.839060  1
