# generated using pymatgen
data_DyEr19(Ir2Ru)4
_symmetry_space_group_name_H-M   'P 1'
_cell_length_a   10.73188510
_cell_length_b   10.73142602
_cell_length_c   6.37754405
_cell_angle_alpha   89.99711245
_cell_angle_beta   90.01427123
_cell_angle_gamma   89.99324107
_symmetry_Int_Tables_number   1
_chemical_formula_structural   DyEr19(Ir2Ru)4
_chemical_formula_sum   'Dy1 Er19 Ir8 Ru4'
_cell_volume   734.49171352
_cell_formula_units_Z   1
loop_
 _symmetry_equiv_pos_site_id
 _symmetry_equiv_pos_as_xyz
  1  'x, y, z'
loop_
 _atom_site_type_symbol
 _atom_site_label
 _atom_site_symmetry_multiplicity
 _atom_site_fract_x
 _atom_site_fract_y
 _atom_site_fract_z
 _atom_site_occupancy
  Dy  Dy0  1  0.293120  0.086564  0.376863  1
  Er  Er1  1  0.293446  0.913312  0.877201  1
  Er  Er2  1  0.706552  0.086474  0.877255  1
  Er  Er3  1  0.706602  0.913480  0.377298  1
  Er  Er4  1  0.586538  0.793453  0.877253  1
  Er  Er5  1  0.586819  0.206690  0.377270  1
  Er  Er6  1  0.413655  0.793170  0.377252  1
  Er  Er7  1  0.413683  0.206658  0.877198  1
  Er  Er8  1  0.206508  0.413601  0.622870  1
  Er  Er9  1  0.206502  0.586486  0.122758  1
  Er  Er10  1  0.793465  0.413530  0.122703  1
  Er  Er11  1  0.793481  0.586508  0.622771  1
  Er  Er12  1  0.913497  0.706519  0.122666  1
  Er  Er13  1  0.913484  0.293457  0.622791  1
  Er  Er14  1  0.086448  0.706526  0.622810  1
  Er  Er15  1  0.086309  0.293588  0.122542  1
  Er  Er16  1  0.999724  0.999854  0.500133  1
  Er  Er17  1  0.999928  0.999979  0.999983  1
  Er  Er18  1  0.500041  0.500034  0.999992  1
  Er  Er19  1  0.500060  0.500038  0.500035  1
  Ir  Ir20  1  0.847383  0.152611  0.249986  1
  Ir  Ir21  1  0.847407  0.847418  0.750013  1
  Ir  Ir22  1  0.152289  0.152785  0.750904  1
  Ir  Ir23  1  0.152410  0.847039  0.249770  1
  Ir  Ir24  1  0.652581  0.347406  0.750031  1
  Ir  Ir25  1  0.652547  0.652599  0.249991  1
  Ir  Ir26  1  0.347504  0.347911  0.249735  1
  Ir  Ir27  1  0.347411  0.652585  0.750023  1
  Ru  Ru28  1  0.500260  0.999875  0.121857  1
  Ru  Ru29  1  0.500330  0.999877  0.622583  1
  Ru  Ru30  1  0.000007  0.499980  0.877742  1
  Ru  Ru31  1  0.000007  0.499993  0.377719  1
