# generated using pymatgen
data_Yb8GaAsPd23
_symmetry_space_group_name_H-M   'P 1'
_cell_length_a   8.37679300
_cell_length_b   8.37714500
_cell_length_c   8.21987300
_cell_angle_alpha   90.00000000
_cell_angle_beta   90.00000000
_cell_angle_gamma   90.00000000
_symmetry_Int_Tables_number   1
_chemical_formula_structural   Yb8GaAsPd23
_chemical_formula_sum   'Yb8 Ga1 As1 Pd23'
_cell_volume   576.81815883
_cell_formula_units_Z   1
loop_
 _symmetry_equiv_pos_site_id
 _symmetry_equiv_pos_as_xyz
  1  'x, y, z'
loop_
 _atom_site_type_symbol
 _atom_site_label
 _atom_site_symmetry_multiplicity
 _atom_site_fract_x
 _atom_site_fract_y
 _atom_site_fract_z
 _atom_site_occupancy
  Yb  Yb0  1  0.263514  0.245228  0.750334  1
  Yb  Yb1  1  0.247814  0.746481  0.251432  1
  Yb  Yb2  1  0.752186  0.253519  0.251432  1
  Yb  Yb3  1  0.736486  0.754772  0.750334  1
  Yb  Yb4  1  0.752186  0.746481  0.251432  1
  Yb  Yb5  1  0.736486  0.245228  0.750334  1
  Yb  Yb6  1  0.263514  0.754772  0.750334  1
  Yb  Yb7  1  0.247814  0.253519  0.251432  1
  Ga  Ga8  1  0.000000  0.000000  0.008304  1
  As  As9  1  0.000000  0.500000  0.706132  1
  Pd  Pd10  1  0.500000  0.500000  0.748470  1
  Pd  Pd11  1  0.500000  0.254278  0.497397  1
  Pd  Pd12  1  0.254040  0.500000  0.509779  1
  Pd  Pd13  1  0.500000  0.500000  0.257432  1
  Pd  Pd14  1  0.500000  0.745722  0.497397  1
  Pd  Pd15  1  0.745960  0.500000  0.509779  1
  Pd  Pd16  1  0.000000  0.000000  0.711069  1
  Pd  Pd17  1  0.000000  0.299207  0.973361  1
  Pd  Pd18  1  0.292346  0.000000  0.003348  1
  Pd  Pd19  1  0.000000  0.000000  0.303870  1
  Pd  Pd20  1  0.000000  0.700793  0.973361  1
  Pd  Pd21  1  0.707654  0.000000  0.003348  1
  Pd  Pd22  1  0.500000  0.260016  0.006299  1
  Pd  Pd23  1  0.261169  0.000000  0.501183  1
  Pd  Pd24  1  0.000000  0.262740  0.510791  1
  Pd  Pd25  1  0.500000  0.000000  0.739394  1
  Pd  Pd26  1  0.264543  0.500000  0.998137  1
  Pd  Pd27  1  0.000000  0.500000  0.254166  1
  Pd  Pd28  1  0.500000  0.739984  0.006299  1
  Pd  Pd29  1  0.000000  0.737260  0.510791  1
  Pd  Pd30  1  0.500000  0.000000  0.263502  1
  Pd  Pd31  1  0.738831  0.000000  0.501183  1
  Pd  Pd32  1  0.735457  0.500000  0.998137  1
