# generated using pymatgen
data_Li6PrEr(BO3)4
_symmetry_space_group_name_H-M   'P 1'
_cell_length_a   6.48783900
_cell_length_b   8.81031516
_cell_length_c   10.00012396
_cell_angle_alpha   114.85465911
_cell_angle_beta   90.00000000
_cell_angle_gamma   90.00000000
_symmetry_Int_Tables_number   1
_chemical_formula_structural   Li6PrEr(BO3)4
_chemical_formula_sum   'Li12 Pr2 Er2 B8 O24'
_cell_volume   518.66222452
_cell_formula_units_Z   2
loop_
 _symmetry_equiv_pos_site_id
 _symmetry_equiv_pos_as_xyz
  1  'x, y, z'
loop_
 _atom_site_type_symbol
 _atom_site_label
 _atom_site_symmetry_multiplicity
 _atom_site_fract_x
 _atom_site_fract_y
 _atom_site_fract_z
 _atom_site_occupancy
  Li  Li0  1  0.437955  0.037818  0.333427  1
  Li  Li1  1  0.744075  0.125794  0.519188  1
  Li  Li2  1  0.757432  0.630336  0.024513  1
  Li  Li3  1  0.244075  0.374206  0.980812  1
  Li  Li4  1  0.216411  0.295211  0.456328  1
  Li  Li5  1  0.937955  0.462182  0.166573  1
  Li  Li6  1  0.565116  0.963497  0.664834  1
  Li  Li7  1  0.779830  0.704046  0.538645  1
  Li  Li8  1  0.257432  0.869664  0.475487  1
  Li  Li9  1  0.716411  0.204789  0.043672  1
  Li  Li10  1  0.279830  0.795954  0.961355  1
  Li  Li11  1  0.065116  0.536503  0.835166  1
  Pr  Pr12  1  0.028456  0.982985  0.802711  1
  Pr  Pr13  1  0.528456  0.517015  0.697289  1
  Er  Er14  1  0.970640  0.016019  0.202239  1
  Er  Er15  1  0.470640  0.483981  0.297761  1
  B  B16  1  0.336936  0.213075  0.673875  1
  B  B17  1  0.327881  0.162468  0.115486  1
  B  B18  1  0.663029  0.779186  0.320981  1
  B  B19  1  0.163029  0.720814  0.179019  1
  B  B20  1  0.827881  0.337532  0.384514  1
  B  B21  1  0.671487  0.844898  0.899538  1
  B  B22  1  0.836936  0.286925  0.826125  1
  B  B23  1  0.171487  0.655102  0.600462  1
  O  O24  1  0.296920  0.063627  0.682093  1
  O  O25  1  0.559552  0.781837  0.445762  1
  O  O26  1  0.213817  0.024342  0.025567  1
  O  O27  1  0.714399  0.925856  0.309362  1
  O  O28  1  0.183141  0.689173  0.750943  1
  O  O29  1  0.796920  0.436373  0.817907  1
  O  O30  1  0.436400  0.213734  0.549147  1
  O  O31  1  0.286744  0.368720  0.786053  1
  O  O32  1  0.059552  0.718163  0.054238  1
  O  O33  1  0.936400  0.286266  0.950853  1
  O  O34  1  0.713817  0.475658  0.474433  1
  O  O35  1  0.785507  0.977369  0.997366  1
  O  O36  1  0.561872  0.740403  0.943459  1
  O  O37  1  0.214399  0.574144  0.190638  1
  O  O38  1  0.204132  0.880815  0.288138  1
  O  O39  1  0.061872  0.759597  0.556541  1
  O  O40  1  0.683141  0.810827  0.749057  1
  O  O41  1  0.431083  0.266498  0.066091  1
  O  O42  1  0.827185  0.295127  0.234790  1
  O  O43  1  0.704132  0.619185  0.211862  1
  O  O44  1  0.786744  0.131280  0.713947  1
  O  O45  1  0.285507  0.522631  0.502634  1
  O  O46  1  0.931083  0.233502  0.433909  1
  O  O47  1  0.327185  0.204873  0.265210  1
