# generated using pymatgen
data_Yb6DyHoSb6
_symmetry_space_group_name_H-M   'P 1'
_cell_length_a   8.11187836
_cell_length_b   8.11350054
_cell_length_c   8.16595568
_cell_angle_alpha   70.52738221
_cell_angle_beta   70.54477054
_cell_angle_gamma   109.11902916
_symmetry_Int_Tables_number   1
_chemical_formula_structural   Yb6DyHoSb6
_chemical_formula_sum   'Yb6 Dy1 Ho1 Sb6'
_cell_volume   415.58638438
_cell_formula_units_Z   1
loop_
 _symmetry_equiv_pos_site_id
 _symmetry_equiv_pos_as_xyz
  1  'x, y, z'
loop_
 _atom_site_type_symbol
 _atom_site_label
 _atom_site_symmetry_multiplicity
 _atom_site_fract_x
 _atom_site_fract_y
 _atom_site_fract_z
 _atom_site_occupancy
  Yb  Yb0  1  0.001142  0.358960  0.495077  1
  Yb  Yb1  1  0.495715  0.495540  0.148740  1
  Yb  Yb2  1  0.644860  0.148721  0.356656  1
  Yb  Yb3  1  0.359033  0.001166  0.994998  1
  Yb  Yb4  1  0.495407  0.495586  0.648778  1
  Yb  Yb5  1  0.148764  0.644824  0.856753  1
  Dy  Dy6  1  0.000514  0.854670  0.499402  1
  Ho  Ho7  1  0.854749  0.000499  0.999425  1
  Sb  Sb8  1  0.633395  0.873740  0.750344  1
  Sb  Sb9  1  0.873690  0.633771  0.249722  1
  Sb  Sb10  1  0.239611  0.118514  0.629247  1
  Sb  Sb11  1  0.756633  0.377582  0.871267  1
  Sb  Sb12  1  0.378226  0.756712  0.370973  1
  Sb  Sb13  1  0.118260  0.239715  0.128616  1
