# generated using pymatgen
data_Er3Ga3NiPt2
_symmetry_space_group_name_H-M   'P 1'
_cell_length_a   7.20506500
_cell_length_b   7.20506583
_cell_length_c   3.77249500
_cell_angle_alpha   90.00000000
_cell_angle_beta   90.00000000
_cell_angle_gamma   120.00000076
_symmetry_Int_Tables_number   1
_chemical_formula_structural   Er3Ga3NiPt2
_chemical_formula_sum   'Er3 Ga3 Ni1 Pt2'
_cell_volume   169.60363568
_cell_formula_units_Z   1
loop_
 _symmetry_equiv_pos_site_id
 _symmetry_equiv_pos_as_xyz
  1  'x, y, z'
loop_
 _atom_site_type_symbol
 _atom_site_label
 _atom_site_symmetry_multiplicity
 _atom_site_fract_x
 _atom_site_fract_y
 _atom_site_fract_z
 _atom_site_occupancy
  Er  Er0  1  0.000000  0.402339  0.500000  1
  Er  Er1  1  0.597661  0.597661  0.500000  1
  Er  Er2  1  0.402339  0.000000  0.500000  1
  Ga  Ga3  1  0.000000  0.759089  0.000000  1
  Ga  Ga4  1  0.240911  0.240911  0.000000  1
  Ga  Ga5  1  0.759089  0.000000  0.000000  1
  Ni  Ni6  1  0.000000  0.000000  0.500000  1
  Pt  Pt7  1  0.333333  0.666667  0.000000  1
  Pt  Pt8  1  0.666667  0.333333  0.000000  1
