# generated using pymatgen
data_ErTmMn12P7
_symmetry_space_group_name_H-M   'P 1'
_cell_length_a   9.28143500
_cell_length_b   9.28143482
_cell_length_c   3.58471400
_cell_angle_alpha   90.00000000
_cell_angle_beta   90.00000000
_cell_angle_gamma   120.00000420
_symmetry_Int_Tables_number   1
_chemical_formula_structural   ErTmMn12P7
_chemical_formula_sum   'Er1 Tm1 Mn12 P7'
_cell_volume   267.43323150
_cell_formula_units_Z   1
loop_
 _symmetry_equiv_pos_site_id
 _symmetry_equiv_pos_as_xyz
  1  'x, y, z'
loop_
 _atom_site_type_symbol
 _atom_site_label
 _atom_site_symmetry_multiplicity
 _atom_site_fract_x
 _atom_site_fract_y
 _atom_site_fract_z
 _atom_site_occupancy
  Er  Er0  1  0.666667  0.333333  0.500000  1
  Tm  Tm1  1  0.000000  0.000000  0.000000  1
  Mn  Mn2  1  0.709720  0.617989  0.000000  1
  Mn  Mn3  1  0.382011  0.091730  0.000000  1
  Mn  Mn4  1  0.908270  0.290280  0.000000  1
  Mn  Mn5  1  0.213741  0.389830  0.000000  1
  Mn  Mn6  1  0.610170  0.823910  0.000000  1
  Mn  Mn7  1  0.176090  0.786259  0.000000  1
  Mn  Mn8  1  0.288443  0.229065  0.500000  1
  Mn  Mn9  1  0.770935  0.059377  0.500000  1
  Mn  Mn10  1  0.940623  0.711557  0.500000  1
  Mn  Mn11  1  0.458507  0.563589  0.500000  1
  Mn  Mn12  1  0.436411  0.894919  0.500000  1
  Mn  Mn13  1  0.105081  0.541493  0.500000  1
  P  P14  1  0.454126  0.375766  0.000000  1
  P  P15  1  0.624234  0.078360  0.000000  1
  P  P16  1  0.921640  0.545874  0.000000  1
  P  P17  1  0.052588  0.256875  0.500000  1
  P  P18  1  0.743125  0.795715  0.500000  1
  P  P19  1  0.204285  0.947412  0.500000  1
  P  P20  1  0.333333  0.666667  0.000000  1
