# generated using pymatgen
data_DyEr4In4PtRh
_symmetry_space_group_name_H-M   'P 1'
_cell_length_a   3.59851800
_cell_length_b   8.09067477
_cell_length_c   18.17391597
_cell_angle_alpha   90.12054356
_cell_angle_beta   90.00000000
_cell_angle_gamma   90.00000000
_symmetry_Int_Tables_number   1
_chemical_formula_structural   DyEr4In4PtRh
_chemical_formula_sum   'Dy2 Er8 In8 Pt2 Rh2'
_cell_volume   529.12219337
_cell_formula_units_Z   2
loop_
 _symmetry_equiv_pos_site_id
 _symmetry_equiv_pos_as_xyz
  1  'x, y, z'
loop_
 _atom_site_type_symbol
 _atom_site_label
 _atom_site_symmetry_multiplicity
 _atom_site_fract_x
 _atom_site_fract_y
 _atom_site_fract_z
 _atom_site_occupancy
  Dy  Dy0  1  0.000000  0.000000  0.000000  1
  Dy  Dy1  1  0.000000  0.500000  0.500000  1
  Er  Er2  1  0.000000  0.115158  0.412281  1
  Er  Er3  1  0.000000  0.884842  0.587719  1
  Er  Er4  1  0.000000  0.383090  0.913744  1
  Er  Er5  1  0.000000  0.616910  0.086256  1
  Er  Er6  1  0.000000  0.238928  0.221465  1
  Er  Er7  1  0.000000  0.761072  0.778535  1
  Er  Er8  1  0.000000  0.251391  0.720454  1
  Er  Er9  1  0.000000  0.748609  0.279546  1
  In  In10  1  0.500000  0.422749  0.351346  1
  In  In11  1  0.500000  0.577251  0.648654  1
  In  In12  1  0.500000  0.073336  0.850169  1
  In  In13  1  0.500000  0.926664  0.149831  1
  In  In14  1  0.500000  0.292507  0.066165  1
  In  In15  1  0.500000  0.707493  0.933835  1
  In  In16  1  0.500000  0.206074  0.567699  1
  In  In17  1  0.500000  0.793926  0.432301  1
  Pt  Pt18  1  0.500000  0.478090  0.803455  1
  Pt  Pt19  1  0.500000  0.521910  0.196545  1
  Rh  Rh20  1  0.500000  0.022144  0.304537  1
  Rh  Rh21  1  0.500000  0.977856  0.695463  1
