# generated using pymatgen
data_Tb3Hf(P3Pd4)2
_symmetry_space_group_name_H-M   'P 1'
_cell_length_a   4.00158200
_cell_length_b   11.43958900
_cell_length_c   13.29002800
_cell_angle_alpha   90.00000000
_cell_angle_beta   90.00000000
_cell_angle_gamma   90.00000000
_symmetry_Int_Tables_number   1
_chemical_formula_structural   Tb3Hf(P3Pd4)2
_chemical_formula_sum   'Tb6 Hf2 P12 Pd16'
_cell_volume   608.37034782
_cell_formula_units_Z   2
loop_
 _symmetry_equiv_pos_site_id
 _symmetry_equiv_pos_as_xyz
  1  'x, y, z'
loop_
 _atom_site_type_symbol
 _atom_site_label
 _atom_site_symmetry_multiplicity
 _atom_site_fract_x
 _atom_site_fract_y
 _atom_site_fract_z
 _atom_site_occupancy
  Tb  Tb0  1  0.000000  0.500000  0.521748  1
  Tb  Tb1  1  0.500000  0.000000  0.478252  1
  Tb  Tb2  1  0.500000  0.816474  0.204545  1
  Tb  Tb3  1  0.500000  0.183526  0.204545  1
  Tb  Tb4  1  0.000000  0.683526  0.795455  1
  Tb  Tb5  1  0.000000  0.316474  0.795455  1
  Hf  Hf6  1  0.500000  0.500000  0.155220  1
  Hf  Hf7  1  0.000000  0.000000  0.844780  1
  P  P8  1  0.500000  0.500000  0.872071  1
  P  P9  1  0.000000  0.000000  0.127929  1
  P  P10  1  0.500000  0.500000  0.354905  1
  P  P11  1  0.000000  0.000000  0.645095  1
  P  P12  1  0.500000  0.318798  0.616415  1
  P  P13  1  0.500000  0.681202  0.616415  1
  P  P14  1  0.000000  0.181202  0.383585  1
  P  P15  1  0.000000  0.818798  0.383585  1
  P  P16  1  0.500000  0.845620  0.884204  1
  P  P17  1  0.500000  0.154380  0.884204  1
  P  P18  1  0.000000  0.654380  0.115796  1
  P  P19  1  0.000000  0.345620  0.115796  1
  Pd  Pd20  1  0.500000  0.500000  0.698479  1
  Pd  Pd21  1  0.000000  0.000000  0.301521  1
  Pd  Pd22  1  0.000000  0.500000  0.982791  1
  Pd  Pd23  1  0.500000  0.000000  0.017209  1
  Pd  Pd24  1  0.500000  0.331916  0.976564  1
  Pd  Pd25  1  0.500000  0.668084  0.976564  1
  Pd  Pd26  1  0.000000  0.168084  0.023436  1
  Pd  Pd27  1  0.000000  0.831916  0.023436  1
  Pd  Pd28  1  0.500000  0.301971  0.433690  1
  Pd  Pd29  1  0.500000  0.698029  0.433690  1
  Pd  Pd30  1  0.000000  0.198029  0.566310  1
  Pd  Pd31  1  0.000000  0.801971  0.566310  1
  Pd  Pd32  1  0.500000  0.873897  0.705584  1
  Pd  Pd33  1  0.500000  0.126103  0.705584  1
  Pd  Pd34  1  0.000000  0.626103  0.294416  1
  Pd  Pd35  1  0.000000  0.373897  0.294416  1
