# generated using pymatgen
data_Al3(Fe2B)2
_symmetry_space_group_name_H-M   'P 1'
_cell_length_a   8.08165200
_cell_length_b   8.08165200
_cell_length_c   2.79250600
_cell_angle_alpha   90.00000000
_cell_angle_beta   90.00000000
_cell_angle_gamma   90.00000000
_symmetry_Int_Tables_number   1
_chemical_formula_structural   Al3(Fe2B)2
_chemical_formula_sum   'Al6 Fe8 B4'
_cell_volume   182.38722097
_cell_formula_units_Z   2
loop_
 _symmetry_equiv_pos_site_id
 _symmetry_equiv_pos_as_xyz
  1  'x, y, z'
loop_
 _atom_site_type_symbol
 _atom_site_label
 _atom_site_symmetry_multiplicity
 _atom_site_fract_x
 _atom_site_fract_y
 _atom_site_fract_z
 _atom_site_occupancy
  Al  Al0  1  0.000000  0.000000  0.500000  1
  Al  Al1  1  0.500000  0.500000  0.500000  1
  Al  Al2  1  0.000000  0.344278  0.500000  1
  Al  Al3  1  0.344278  0.000000  0.500000  1
  Al  Al4  1  0.655722  0.000000  0.500000  1
  Al  Al5  1  0.000000  0.655722  0.500000  1
  Fe  Fe6  1  0.821908  0.821908  0.000000  1
  Fe  Fe7  1  0.821908  0.178092  0.000000  1
  Fe  Fe8  1  0.178092  0.821908  0.000000  1
  Fe  Fe9  1  0.178092  0.178092  0.000000  1
  Fe  Fe10  1  0.500000  0.754363  0.000000  1
  Fe  Fe11  1  0.754363  0.500000  0.000000  1
  Fe  Fe12  1  0.245637  0.500000  0.000000  1
  Fe  Fe13  1  0.500000  0.245637  0.000000  1
  B  B14  1  0.303794  0.303794  0.500000  1
  B  B15  1  0.303794  0.696206  0.500000  1
  B  B16  1  0.696206  0.303794  0.500000  1
  B  B17  1  0.696206  0.696206  0.500000  1
