# generated using pymatgen
data_DyY(ZrSb)2
_symmetry_space_group_name_H-M   'P 1'
_cell_length_a   4.35687100
_cell_length_b   4.35687100
_cell_length_c   8.15680600
_cell_angle_alpha   90.00000000
_cell_angle_beta   90.00000000
_cell_angle_gamma   90.00000000
_symmetry_Int_Tables_number   1
_chemical_formula_structural   DyY(ZrSb)2
_chemical_formula_sum   'Dy1 Y1 Zr2 Sb2'
_cell_volume   154.83514173
_cell_formula_units_Z   1
loop_
 _symmetry_equiv_pos_site_id
 _symmetry_equiv_pos_as_xyz
  1  'x, y, z'
loop_
 _atom_site_type_symbol
 _atom_site_label
 _atom_site_symmetry_multiplicity
 _atom_site_fract_x
 _atom_site_fract_y
 _atom_site_fract_z
 _atom_site_occupancy
  Dy  Dy0  1  0.500000  0.000000  0.347505  1
  Y  Y1  1  0.000000  0.500000  0.651292  1
  Zr  Zr2  1  0.000000  0.000000  0.000476  1
  Zr  Zr3  1  0.500000  0.500000  0.000476  1
  Sb  Sb4  1  0.000000  0.500000  0.264299  1
  Sb  Sb5  1  0.500000  0.000000  0.735952  1
