# generated using pymatgen
data_Tb5Er7Tc3Ru
_symmetry_space_group_name_H-M   'P 1'
_cell_length_a   6.27233382
_cell_length_b   7.37259720
_cell_length_c   9.08444087
_cell_angle_alpha   89.97428182
_cell_angle_beta   90.08731512
_cell_angle_gamma   90.00642690
_symmetry_Int_Tables_number   1
_chemical_formula_structural   Tb5Er7Tc3Ru
_chemical_formula_sum   'Tb5 Er7 Tc3 Ru1'
_cell_volume   420.09481662
_cell_formula_units_Z   1
loop_
 _symmetry_equiv_pos_site_id
 _symmetry_equiv_pos_as_xyz
  1  'x, y, z'
loop_
 _atom_site_type_symbol
 _atom_site_label
 _atom_site_symmetry_multiplicity
 _atom_site_fract_x
 _atom_site_fract_y
 _atom_site_fract_z
 _atom_site_occupancy
  Tb  Tb0  1  0.336212  0.676805  0.063230  1
  Tb  Tb1  1  0.874315  0.540001  0.250479  1
  Tb  Tb2  1  0.626096  0.039661  0.250294  1
  Tb  Tb3  1  0.128892  0.458288  0.749598  1
  Tb  Tb4  1  0.374888  0.958525  0.749643  1
  Er  Er5  1  0.161039  0.176107  0.437360  1
  Er  Er6  1  0.661115  0.324541  0.563019  1
  Er  Er7  1  0.837776  0.823903  0.936928  1
  Er  Er8  1  0.661532  0.324045  0.936619  1
  Er  Er9  1  0.837972  0.823669  0.562793  1
  Er  Er10  1  0.336358  0.676662  0.437275  1
  Er  Er11  1  0.160567  0.175956  0.062684  1
  Tc  Tc12  1  0.040832  0.884722  0.250578  1
  Tc  Tc13  1  0.460641  0.385701  0.250352  1
  Tc  Tc14  1  0.960251  0.115560  0.750103  1
  Ru  Ru15  1  0.541513  0.615853  0.749044  1
