# generated using pymatgen
data_Zr4In(Re5Tc3)3
_symmetry_space_group_name_H-M   'P 1'
_cell_length_a   8.47522286
_cell_length_b   8.47522265
_cell_length_c   8.47522243
_cell_angle_alpha   109.53157102
_cell_angle_beta   109.53157615
_cell_angle_gamma   109.53156379
_symmetry_Int_Tables_number   1
_chemical_formula_structural   Zr4In(Re5Tc3)3
_chemical_formula_sum   'Zr4 In1 Re15 Tc9'
_cell_volume   467.58144308
_cell_formula_units_Z   1
loop_
 _symmetry_equiv_pos_site_id
 _symmetry_equiv_pos_as_xyz
  1  'x, y, z'
loop_
 _atom_site_type_symbol
 _atom_site_label
 _atom_site_symmetry_multiplicity
 _atom_site_fract_x
 _atom_site_fract_y
 _atom_site_fract_z
 _atom_site_occupancy
  Zr  Zr0  1  0.629114  0.999753  0.999753  1
  Zr  Zr1  1  0.999753  0.629114  0.999753  1
  Zr  Zr2  1  0.999753  0.999753  0.629114  1
  Zr  Zr3  1  0.369012  0.369012  0.369012  1
  In  In4  1  0.999064  0.999064  0.999064  1
  Re  Re5  1  0.605809  0.605809  0.279640  1
  Re  Re6  1  0.279640  0.605809  0.605809  1
  Re  Re7  1  0.605809  0.279640  0.605809  1
  Re  Re8  1  0.377418  0.195579  0.000990  1
  Re  Re9  1  0.181246  0.805558  0.805558  1
  Re  Re10  1  0.377418  0.000990  0.195579  1
  Re  Re11  1  0.195579  0.377418  0.000990  1
  Re  Re12  1  0.000990  0.377418  0.195579  1
  Re  Re13  1  0.805558  0.181246  0.805558  1
  Re  Re14  1  0.805558  0.805558  0.181246  1
  Re  Re15  1  0.000990  0.195579  0.377418  1
  Re  Re16  1  0.195579  0.000990  0.377418  1
  Re  Re17  1  0.621905  0.621905  0.815807  1
  Re  Re18  1  0.815807  0.621905  0.621905  1
  Re  Re19  1  0.621905  0.815807  0.621905  1
  Tc  Tc20  1  0.394830  0.676064  0.000870  1
  Tc  Tc21  1  0.720039  0.324261  0.324261  1
  Tc  Tc22  1  0.394830  0.000870  0.676064  1
  Tc  Tc23  1  0.676064  0.394830  0.000870  1
  Tc  Tc24  1  0.000870  0.394830  0.676064  1
  Tc  Tc25  1  0.324261  0.720039  0.324261  1
  Tc  Tc26  1  0.324261  0.324261  0.720039  1
  Tc  Tc27  1  0.000870  0.676064  0.394830  1
  Tc  Tc28  1  0.676064  0.000870  0.394830  1
