# generated using pymatgen
data_PrNdHo8(In2Pt)4
_symmetry_space_group_name_H-M   'P 1'
_cell_length_a   3.62984800
_cell_length_b   8.19455923
_cell_length_c   18.37018051
_cell_angle_alpha   89.97309934
_cell_angle_beta   90.00000000
_cell_angle_gamma   90.00000000
_symmetry_Int_Tables_number   1
_chemical_formula_structural   PrNdHo8(In2Pt)4
_chemical_formula_sum   'Pr1 Nd1 Ho8 In8 Pt4'
_cell_volume   546.42104007
_cell_formula_units_Z   1
loop_
 _symmetry_equiv_pos_site_id
 _symmetry_equiv_pos_as_xyz
  1  'x, y, z'
loop_
 _atom_site_type_symbol
 _atom_site_label
 _atom_site_symmetry_multiplicity
 _atom_site_fract_x
 _atom_site_fract_y
 _atom_site_fract_z
 _atom_site_occupancy
  Pr  Pr0  1  0.000000  0.000000  0.000000  1
  Nd  Nd1  1  0.000000  0.500000  0.500000  1
  Ho  Ho2  1  0.000000  0.118908  0.413843  1
  Ho  Ho3  1  0.000000  0.881092  0.586157  1
  Ho  Ho4  1  0.000000  0.381041  0.913822  1
  Ho  Ho5  1  0.000000  0.618959  0.086178  1
  Ho  Ho6  1  0.000000  0.242170  0.219880  1
  Ho  Ho7  1  0.000000  0.757830  0.780120  1
  Ho  Ho8  1  0.000000  0.257825  0.719866  1
  Ho  Ho9  1  0.000000  0.742175  0.280134  1
  In  In10  1  0.500000  0.421692  0.348255  1
  In  In11  1  0.500000  0.578308  0.651745  1
  In  In12  1  0.500000  0.078409  0.847997  1
  In  In13  1  0.500000  0.921591  0.152003  1
  In  In14  1  0.500000  0.299775  0.067897  1
  In  In15  1  0.500000  0.700225  0.932103  1
  In  In16  1  0.500000  0.200905  0.567736  1
  In  In17  1  0.500000  0.799095  0.432264  1
  Pt  Pt18  1  0.500000  0.024462  0.303651  1
  Pt  Pt19  1  0.500000  0.975538  0.696349  1
  Pt  Pt20  1  0.500000  0.475556  0.803583  1
  Pt  Pt21  1  0.500000  0.524444  0.196417  1
