# generated using pymatgen
data_Sc2Ni11P7Ru
_symmetry_space_group_name_H-M   'P 1'
_cell_length_a   9.05919887
_cell_length_b   8.99763142
_cell_length_c   3.59836800
_cell_angle_alpha   90.00000000
_cell_angle_beta   90.00000000
_cell_angle_gamma   120.34994461
_symmetry_Int_Tables_number   1
_chemical_formula_structural   Sc2Ni11P7Ru
_chemical_formula_sum   'Sc2 Ni11 P7 Ru1'
_cell_volume   253.11153210
_cell_formula_units_Z   1
loop_
 _symmetry_equiv_pos_site_id
 _symmetry_equiv_pos_as_xyz
  1  'x, y, z'
loop_
 _atom_site_type_symbol
 _atom_site_label
 _atom_site_symmetry_multiplicity
 _atom_site_fract_x
 _atom_site_fract_y
 _atom_site_fract_z
 _atom_site_occupancy
  Sc  Sc0  1  0.002363  0.002776  0.000000  1
  Sc  Sc1  1  0.666016  0.331186  0.500000  1
  Ni  Ni2  1  0.395625  0.293680  0.000000  1
  Ni  Ni3  1  0.894086  0.602952  0.000000  1
  Ni  Ni4  1  0.707268  0.105195  0.000000  1
  Ni  Ni5  1  0.617139  0.786797  0.000000  1
  Ni  Ni6  1  0.179612  0.395139  0.000000  1
  Ni  Ni7  1  0.205902  0.822168  0.000000  1
  Ni  Ni8  1  0.770751  0.719447  0.500000  1
  Ni  Ni9  1  0.949469  0.231556  0.500000  1
  Ni  Ni10  1  0.281048  0.053016  0.500000  1
  Ni  Ni11  1  0.434501  0.536223  0.500000  1
  Ni  Ni12  1  0.101531  0.567028  0.500000  1
  P  P13  1  0.627416  0.545968  0.000000  1
  P  P14  1  0.922267  0.375146  0.000000  1
  P  P15  1  0.449816  0.078387  0.000000  1
  P  P16  1  0.748217  0.960278  0.500000  1
  P  P17  1  0.213982  0.257361  0.500000  1
  P  P18  1  0.041135  0.786084  0.500000  1
  P  P19  1  0.336288  0.671347  0.000000  1
  Ru  Ru20  1  0.455567  0.878264  0.500000  1
