# generated using pymatgen
data_Ho3Lu9Co4
_symmetry_space_group_name_H-M   'P 1'
_cell_length_a   6.10706764
_cell_length_b   6.83263582
_cell_length_c   9.12611500
_cell_angle_alpha   90.00000000
_cell_angle_beta   90.00000000
_cell_angle_gamma   90.08387300
_symmetry_Int_Tables_number   1
_chemical_formula_structural   Ho3Lu9Co4
_chemical_formula_sum   'Ho3 Lu9 Co4'
_cell_volume   380.80836146
_cell_formula_units_Z   1
loop_
 _symmetry_equiv_pos_site_id
 _symmetry_equiv_pos_as_xyz
  1  'x, y, z'
loop_
 _atom_site_type_symbol
 _atom_site_label
 _atom_site_symmetry_multiplicity
 _atom_site_fract_x
 _atom_site_fract_y
 _atom_site_fract_z
 _atom_site_occupancy
  Ho  Ho0  1  0.866781  0.541120  0.250000  1
  Ho  Ho1  1  0.633653  0.040490  0.250000  1
  Ho  Ho2  1  0.134339  0.458850  0.750000  1
  Lu  Lu3  1  0.324036  0.676515  0.065619  1
  Lu  Lu4  1  0.176138  0.175530  0.434539  1
  Lu  Lu5  1  0.675917  0.323605  0.566033  1
  Lu  Lu6  1  0.823494  0.824208  0.933596  1
  Lu  Lu7  1  0.675917  0.323605  0.933967  1
  Lu  Lu8  1  0.823494  0.824208  0.566404  1
  Lu  Lu9  1  0.324036  0.676515  0.434381  1
  Lu  Lu10  1  0.176138  0.175530  0.065461  1
  Lu  Lu11  1  0.365832  0.959306  0.750000  1
  Co  Co12  1  0.048149  0.888435  0.250000  1
  Co  Co13  1  0.451718  0.388585  0.250000  1
  Co  Co14  1  0.952786  0.111049  0.750000  1
  Co  Co15  1  0.547571  0.612451  0.750000  1
