# generated using pymatgen
data_Yb4Si12(Ni3Pt)5
_symmetry_space_group_name_H-M   'P 1'
_cell_length_a   18.85550728
_cell_length_b   3.80602200
_cell_length_c   6.83873516
_cell_angle_alpha   90.00000000
_cell_angle_beta   89.93288477
_cell_angle_gamma   90.00000000
_symmetry_Int_Tables_number   1
_chemical_formula_structural   Yb4Si12(Ni3Pt)5
_chemical_formula_sum   'Yb4 Si12 Ni15 Pt5'
_cell_volume   490.77790507
_cell_formula_units_Z   1
loop_
 _symmetry_equiv_pos_site_id
 _symmetry_equiv_pos_as_xyz
  1  'x, y, z'
loop_
 _atom_site_type_symbol
 _atom_site_label
 _atom_site_symmetry_multiplicity
 _atom_site_fract_x
 _atom_site_fract_y
 _atom_site_fract_z
 _atom_site_occupancy
  Yb  Yb0  1  0.638842  0.250000  0.628690  1
  Yb  Yb1  1  0.141477  0.250000  0.869623  1
  Yb  Yb2  1  0.361144  0.750000  0.371065  1
  Yb  Yb3  1  0.858489  0.750000  0.129240  1
  Si  Si4  1  0.913007  0.250000  0.425649  1
  Si  Si5  1  0.415857  0.250000  0.083671  1
  Si  Si6  1  0.086245  0.750000  0.582701  1
  Si  Si7  1  0.584019  0.750000  0.916174  1
  Si  Si8  1  0.736603  0.250000  0.120285  1
  Si  Si9  1  0.239816  0.250000  0.379645  1
  Si  Si10  1  0.263592  0.750000  0.879582  1
  Si  Si11  1  0.760357  0.750000  0.619616  1
  Si  Si12  1  0.927389  0.250000  0.834936  1
  Si  Si13  1  0.430501  0.250000  0.651241  1
  Si  Si14  1  0.072964  0.750000  0.156213  1
  Si  Si15  1  0.569353  0.750000  0.348698  1
  Ni  Ni16  1  0.495104  0.250000  0.365783  1
  Ni  Ni17  1  0.006035  0.750000  0.855825  1
  Ni  Ni18  1  0.504678  0.750000  0.634063  1
  Ni  Ni19  1  0.513906  0.250000  0.884511  1
  Ni  Ni20  1  0.015531  0.250000  0.613457  1
  Ni  Ni21  1  0.485996  0.750000  0.115613  1
  Ni  Ni22  1  0.985063  0.750000  0.394135  1
  Ni  Ni23  1  0.611769  0.250000  0.137544  1
  Ni  Ni24  1  0.116620  0.250000  0.371332  1
  Ni  Ni25  1  0.388225  0.750000  0.862949  1
  Ni  Ni26  1  0.884843  0.750000  0.639117  1
  Ni  Ni27  1  0.793749  0.250000  0.424715  1
  Ni  Ni28  1  0.296362  0.250000  0.074617  1
  Ni  Ni29  1  0.205771  0.750000  0.574970  1
  Ni  Ni30  1  0.703430  0.750000  0.924789  1
  Pt  Pt31  1  0.800316  0.250000  0.817392  1
  Pt  Pt32  1  0.303306  0.250000  0.682297  1
  Pt  Pt33  1  0.199220  0.750000  0.182072  1
  Pt  Pt34  1  0.696471  0.750000  0.317126  1
  Pt  Pt35  1  0.993949  0.250000  0.130664  1
