# generated using pymatgen
data_La8AlZn7(IrRh3)2
_symmetry_space_group_name_H-M   'P 1'
_cell_length_a   4.06472500
_cell_length_b   7.48620544
_cell_length_c   16.64240118
_cell_angle_alpha   89.63553729
_cell_angle_beta   90.00000000
_cell_angle_gamma   90.00000000
_symmetry_Int_Tables_number   1
_chemical_formula_structural   La8AlZn7(IrRh3)2
_chemical_formula_sum   'La8 Al1 Zn7 Ir2 Rh6'
_cell_volume   506.40747769
_cell_formula_units_Z   1
loop_
 _symmetry_equiv_pos_site_id
 _symmetry_equiv_pos_as_xyz
  1  'x, y, z'
loop_
 _atom_site_type_symbol
 _atom_site_label
 _atom_site_symmetry_multiplicity
 _atom_site_fract_x
 _atom_site_fract_y
 _atom_site_fract_z
 _atom_site_occupancy
  La  La0  1  0.750000  0.328776  0.440300  1
  La  La1  1  0.250000  0.047195  0.717154  1
  La  La2  1  0.250000  0.545344  0.783350  1
  La  La3  1  0.250000  0.672724  0.559949  1
  La  La4  1  0.750000  0.825093  0.058524  1
  La  La5  1  0.250000  0.170957  0.939081  1
  La  La6  1  0.750000  0.457758  0.219462  1
  La  La7  1  0.750000  0.952761  0.283996  1
  Al  Al8  1  0.250000  0.130474  0.150533  1
  Zn  Zn9  1  0.250000  0.999488  0.440392  1
  Zn  Zn10  1  0.750000  0.872694  0.850548  1
  Zn  Zn11  1  0.750000  0.001258  0.559616  1
  Zn  Zn12  1  0.250000  0.496691  0.060100  1
  Zn  Zn13  1  0.750000  0.371356  0.649604  1
  Zn  Zn14  1  0.750000  0.499483  0.940413  1
  Zn  Zn15  1  0.250000  0.627848  0.352070  1
  Ir  Ir16  1  0.750000  0.254626  0.814617  1
  Ir  Ir17  1  0.250000  0.241818  0.307419  1
  Rh  Rh18  1  0.250000  0.739539  0.934272  1
  Rh  Rh19  1  0.250000  0.241750  0.564937  1
  Rh  Rh20  1  0.250000  0.760056  0.182176  1
  Rh  Rh21  1  0.750000  0.757309  0.435093  1
  Rh  Rh22  1  0.750000  0.251684  0.071712  1
  Rh  Rh23  1  0.750000  0.753318  0.684676  1
