# generated using pymatgen
data_Nd3Ni11B3Ir
_symmetry_space_group_name_H-M   'P 1'
_cell_length_a   5.02062385
_cell_length_b   7.02461219
_cell_length_c   14.03380374
_cell_angle_alpha   104.49376712
_cell_angle_beta   100.30430255
_cell_angle_gamma   90.00000421
_symmetry_Int_Tables_number   1
_chemical_formula_structural   Nd3Ni11B3Ir
_chemical_formula_sum   'Nd6 Ni22 B6 Ir2'
_cell_volume   470.94209079
_cell_formula_units_Z   2
loop_
 _symmetry_equiv_pos_site_id
 _symmetry_equiv_pos_as_xyz
  1  'x, y, z'
loop_
 _atom_site_type_symbol
 _atom_site_label
 _atom_site_symmetry_multiplicity
 _atom_site_fract_x
 _atom_site_fract_y
 _atom_site_fract_z
 _atom_site_occupancy
  Nd  Nd0  1  0.508769  0.258769  0.017536  1
  Nd  Nd1  1  0.166258  0.916258  0.332516  1
  Nd  Nd2  1  0.170581  0.420581  0.341160  1
  Nd  Nd3  1  0.829420  0.579420  0.658840  1
  Nd  Nd4  1  0.833743  0.083742  0.667484  1
  Nd  Nd5  1  0.491232  0.741232  0.982465  1
  Ni  Ni6  1  0.068056  0.318057  0.136113  1
  Ni  Ni7  1  0.337852  0.033780  0.168771  1
  Ni  Ni8  1  0.830919  0.033780  0.168771  1
  Ni  Ni9  1  0.337852  0.634990  0.168771  1
  Ni  Ni10  1  0.830919  0.634990  0.168771  1
  Ni  Ni11  1  0.614628  0.364627  0.229254  1
  Ni  Ni12  1  0.667840  0.122819  0.335680  1
  Ni  Ni13  1  0.667840  0.712862  0.335680  1
  Ni  Ni14  1  0.721838  0.471838  0.443676  1
  Ni  Ni15  1  0.000000  0.205346  0.500000  1
  Ni  Ni16  1  0.500000  0.205346  0.500000  1
  Ni  Ni17  1  0.000000  0.794654  0.500000  1
  Ni  Ni18  1  0.500000  0.794654  0.500000  1
  Ni  Ni19  1  0.278162  0.528163  0.556323  1
  Ni  Ni20  1  0.332161  0.287139  0.664320  1
  Ni  Ni21  1  0.332161  0.877182  0.664320  1
  Ni  Ni22  1  0.385373  0.635373  0.770746  1
  Ni  Ni23  1  0.169083  0.365010  0.831230  1
  Ni  Ni24  1  0.662148  0.365010  0.831230  1
  Ni  Ni25  1  0.169083  0.966219  0.831230  1
  Ni  Ni26  1  0.662148  0.966219  0.831230  1
  Ni  Ni27  1  0.931944  0.681944  0.863887  1
  B  B28  1  0.050535  0.800535  0.101071  1
  B  B29  1  0.613206  0.863205  0.226411  1
  B  B30  1  0.722186  0.972185  0.444370  1
  B  B31  1  0.277815  0.027814  0.555630  1
  B  B32  1  0.386795  0.136794  0.773589  1
  B  B33  1  0.949466  0.199464  0.898929  1
  Ir  Ir34  1  0.000000  0.000000  0.000000  1
  Ir  Ir35  1  0.000000  0.500000  0.000000  1
