# generated using pymatgen
data_Y4IrPd(RhO7)2
_symmetry_space_group_name_H-M   'P 1'
_cell_length_a   7.26779674
_cell_length_b   7.23849021
_cell_length_c   7.26013600
_cell_angle_alpha   59.90102985
_cell_angle_beta   60.03486212
_cell_angle_gamma   59.92732675
_symmetry_Int_Tables_number   1
_chemical_formula_structural   Y4IrPd(RhO7)2
_chemical_formula_sum   'Y4 Ir1 Pd1 Rh2 O14'
_cell_volume   269.79250960
_cell_formula_units_Z   1
loop_
 _symmetry_equiv_pos_site_id
 _symmetry_equiv_pos_as_xyz
  1  'x, y, z'
loop_
 _atom_site_type_symbol
 _atom_site_label
 _atom_site_symmetry_multiplicity
 _atom_site_fract_x
 _atom_site_fract_y
 _atom_site_fract_z
 _atom_site_occupancy
  Y  Y0  1  0.625000  0.125000  0.125000  1
  Y  Y1  1  0.125000  0.625000  0.125000  1
  Y  Y2  1  0.125000  0.125000  0.625000  1
  Y  Y3  1  0.125000  0.125000  0.125000  1
  Ir  Ir4  1  0.125000  0.625000  0.625000  1
  Pd  Pd5  1  0.625000  0.125000  0.625000  1
  Rh  Rh6  1  0.625000  0.625000  0.125000  1
  Rh  Rh7  1  0.625000  0.625000  0.625000  1
  O  O8  1  0.716630  0.705675  0.288847  1
  O  O9  1  0.283429  0.290748  0.712912  1
  O  O10  1  0.718691  0.284681  0.714476  1
  O  O11  1  0.288484  0.706369  0.293249  1
  O  O12  1  0.288484  0.706369  0.711897  1
  O  O13  1  0.718691  0.284681  0.282153  1
  O  O14  1  0.533370  0.544325  0.961153  1
  O  O15  1  0.966571  0.959252  0.537088  1
  O  O16  1  0.531309  0.965319  0.535524  1
  O  O17  1  0.961516  0.543631  0.956751  1
  O  O18  1  0.961516  0.543631  0.538103  1
  O  O19  1  0.531309  0.965319  0.967847  1
  O  O20  1  0.248241  0.250691  0.250534  1
  O  O21  1  0.001759  0.999309  0.999466  1
