# generated using pymatgen
data_PSe(ClF2)3
_symmetry_space_group_name_H-M   'P 1'
_cell_length_a   9.29462000
_cell_length_b   7.45505135
_cell_length_c   11.51937000
_cell_angle_alpha   80.61473416
_cell_angle_beta   90.00000000
_cell_angle_gamma   90.00000000
_symmetry_Int_Tables_number   1
_chemical_formula_structural   PSe(ClF2)3
_chemical_formula_sum   'P4 Se4 Cl12 F24'
_cell_volume   787.51409739
_cell_formula_units_Z   4
loop_
 _symmetry_equiv_pos_site_id
 _symmetry_equiv_pos_as_xyz
  1  'x, y, z'
loop_
 _atom_site_type_symbol
 _atom_site_label
 _atom_site_symmetry_multiplicity
 _atom_site_fract_x
 _atom_site_fract_y
 _atom_site_fract_z
 _atom_site_occupancy
  P  P0  1  0.734124  0.834310  0.077472  1
  P  P1  1  0.265876  0.165690  0.922528  1
  P  P2  1  0.234124  0.165690  0.422528  1
  P  P3  1  0.765876  0.834310  0.577472  1
  Se  Se4  1  0.328361  0.798349  0.195690  1
  Se  Se5  1  0.671639  0.201651  0.804310  1
  Se  Se6  1  0.828361  0.201651  0.304310  1
  Se  Se7  1  0.171639  0.798349  0.695690  1
  Cl  Cl8  1  0.609968  0.239097  0.247410  1
  Cl  Cl9  1  0.390032  0.760903  0.752590  1
  Cl  Cl10  1  0.109968  0.760903  0.252590  1
  Cl  Cl11  1  0.890032  0.239097  0.747410  1
  Cl  Cl12  1  0.943790  0.307341  0.147438  1
  Cl  Cl13  1  0.056210  0.692659  0.852562  1
  Cl  Cl14  1  0.443790  0.692659  0.352562  1
  Cl  Cl15  1  0.556210  0.307341  0.647438  1
  Cl  Cl16  1  0.845506  0.427937  0.397650  1
  Cl  Cl17  1  0.154494  0.572063  0.602350  1
  Cl  Cl18  1  0.345506  0.572063  0.102350  1
  Cl  Cl19  1  0.654494  0.427937  0.897650  1
  F  F20  1  0.272702  0.958636  0.491428  1
  F  F21  1  0.727298  0.041364  0.508572  1
  F  F22  1  0.772702  0.041364  0.008572  1
  F  F23  1  0.227298  0.958636  0.991428  1
  F  F24  1  0.692652  0.634775  0.147441  1
  F  F25  1  0.307348  0.365225  0.852559  1
  F  F26  1  0.192652  0.365225  0.352559  1
  F  F27  1  0.807348  0.634775  0.647441  1
  F  F28  1  0.796266  0.892734  0.200126  1
  F  F29  1  0.203734  0.107266  0.799874  1
  F  F30  1  0.296266  0.107266  0.299874  1
  F  F31  1  0.703734  0.892734  0.700126  1
  F  F32  1  0.573292  0.911208  0.108680  1
  F  F33  1  0.426708  0.088792  0.891320  1
  F  F34  1  0.073292  0.088792  0.391320  1
  F  F35  1  0.926708  0.911208  0.608680  1
  F  F36  1  0.892390  0.764975  0.046978  1
  F  F37  1  0.107610  0.235025  0.953022  1
  F  F38  1  0.392390  0.235025  0.453022  1
  F  F39  1  0.607610  0.764975  0.546978  1
  F  F40  1  0.830955  0.784448  0.455327  1
  F  F41  1  0.169045  0.215552  0.544673  1
  F  F42  1  0.330955  0.215552  0.044673  1
  F  F43  1  0.669045  0.784448  0.955327  1
