# generated using pymatgen
data_Yb8CuSi12PdAu2
_symmetry_space_group_name_H-M   'P 1'
_cell_length_a   8.23357200
_cell_length_b   8.23357069
_cell_length_c   8.40149600
_cell_angle_alpha   90.00000000
_cell_angle_beta   90.00000000
_cell_angle_gamma   120.00000527
_symmetry_Int_Tables_number   1
_chemical_formula_structural   Yb8CuSi12PdAu2
_chemical_formula_sum   'Yb8 Cu1 Si12 Pd1 Au2'
_cell_volume   493.24619030
_cell_formula_units_Z   1
loop_
 _symmetry_equiv_pos_site_id
 _symmetry_equiv_pos_as_xyz
  1  'x, y, z'
loop_
 _atom_site_type_symbol
 _atom_site_label
 _atom_site_symmetry_multiplicity
 _atom_site_fract_x
 _atom_site_fract_y
 _atom_site_fract_z
 _atom_site_occupancy
  Yb  Yb0  1  0.498027  0.996054  0.252479  1
  Yb  Yb1  1  0.497392  0.994788  0.747152  1
  Yb  Yb2  1  0.003946  0.501973  0.252479  1
  Yb  Yb3  1  0.005212  0.502608  0.747152  1
  Yb  Yb4  1  0.498027  0.501973  0.252479  1
  Yb  Yb5  1  0.497392  0.502608  0.747152  1
  Yb  Yb6  1  0.000000  0.000000  0.250493  1
  Yb  Yb7  1  0.000000  0.000000  0.749824  1
  Cu  Cu8  1  0.333333  0.666667  0.001045  1
  Si  Si9  1  0.167380  0.334760  0.998722  1
  Si  Si10  1  0.837984  0.675967  0.002023  1
  Si  Si11  1  0.665240  0.832620  0.998722  1
  Si  Si12  1  0.839147  0.678293  0.500069  1
  Si  Si13  1  0.324033  0.162016  0.002023  1
  Si  Si14  1  0.165543  0.331086  0.499900  1
  Si  Si15  1  0.167380  0.832620  0.998722  1
  Si  Si16  1  0.321707  0.160853  0.500069  1
  Si  Si17  1  0.837984  0.162016  0.002023  1
  Si  Si18  1  0.668914  0.834457  0.499900  1
  Si  Si19  1  0.839147  0.160853  0.500069  1
  Si  Si20  1  0.165543  0.834457  0.499900  1
  Pd  Pd21  1  0.333333  0.666667  0.498429  1
  Au  Au22  1  0.666667  0.333333  0.997927  1
  Au  Au23  1  0.666667  0.333333  0.501249  1
