# generated using pymatgen
data_Y4Zn(InAu5)2
_symmetry_space_group_name_H-M   'P 1'
_cell_length_a   8.52766528
_cell_length_b   8.52767509
_cell_length_c   10.19343300
_cell_angle_alpha   90.00000000
_cell_angle_beta   90.00000000
_cell_angle_gamma   107.15799184
_symmetry_Int_Tables_number   1
_chemical_formula_structural   Y4Zn(InAu5)2
_chemical_formula_sum   'Y8 Zn2 In4 Au20'
_cell_volume   708.28760579
_cell_formula_units_Z   2
loop_
 _symmetry_equiv_pos_site_id
 _symmetry_equiv_pos_as_xyz
  1  'x, y, z'
loop_
 _atom_site_type_symbol
 _atom_site_label
 _atom_site_symmetry_multiplicity
 _atom_site_fract_x
 _atom_site_fract_y
 _atom_site_fract_z
 _atom_site_occupancy
  Y  Y0  1  0.699640  0.300361  0.000000  1
  Y  Y1  1  0.199640  0.800361  0.500000  1
  Y  Y2  1  0.799866  0.799866  0.296994  1
  Y  Y3  1  0.299866  0.299866  0.203006  1
  Y  Y4  1  0.800360  0.199639  0.500000  1
  Y  Y5  1  0.300360  0.699639  0.000000  1
  Y  Y6  1  0.700134  0.700134  0.796994  1
  Y  Y7  1  0.200134  0.200134  0.703006  1
  Zn  Zn8  1  0.000000  0.000000  0.000000  1
  Zn  Zn9  1  0.500000  0.500000  0.500000  1
  In  In10  1  0.515296  0.015295  0.250000  1
  In  In11  1  0.984704  0.484705  0.750000  1
  In  In12  1  0.015296  0.515295  0.250000  1
  In  In13  1  0.484704  0.984705  0.750000  1
  Au  Au14  1  0.164394  0.432524  0.482001  1
  Au  Au15  1  0.904357  0.904357  0.595524  1
  Au  Au16  1  0.567477  0.835605  0.518000  1
  Au  Au17  1  0.886781  0.162416  0.206890  1
  Au  Au18  1  0.386781  0.662416  0.293110  1
  Au  Au19  1  0.662416  0.386781  0.293109  1
  Au  Au20  1  0.404357  0.404357  0.904476  1
  Au  Au21  1  0.932523  0.664395  0.018000  1
  Au  Au22  1  0.337584  0.613219  0.706891  1
  Au  Au23  1  0.335606  0.067476  0.982001  1
  Au  Au24  1  0.595643  0.595643  0.095524  1
  Au  Au25  1  0.664394  0.932524  0.017999  1
  Au  Au26  1  0.095643  0.095643  0.404476  1
  Au  Au27  1  0.613219  0.337584  0.706890  1
  Au  Au28  1  0.113219  0.837584  0.793110  1
  Au  Au29  1  0.067477  0.335605  0.982000  1
  Au  Au30  1  0.835606  0.567476  0.517999  1
  Au  Au31  1  0.162416  0.886781  0.206891  1
  Au  Au32  1  0.432523  0.164395  0.482000  1
  Au  Au33  1  0.837584  0.113219  0.793109  1
