# generated using pymatgen
data_Ga3Sn12Ir3O14
_symmetry_space_group_name_H-M   'P 1'
_cell_length_a   7.17296709
_cell_length_b   7.15771972
_cell_length_c   12.80680609
_cell_angle_alpha   73.85180987
_cell_angle_beta   73.54012018
_cell_angle_gamma   60.13353725
_symmetry_Int_Tables_number   1
_chemical_formula_structural   Ga3Sn12Ir3O14
_chemical_formula_sum   'Ga3 Sn12 Ir3 O14'
_cell_volume   539.35979612
_cell_formula_units_Z   1
loop_
 _symmetry_equiv_pos_site_id
 _symmetry_equiv_pos_as_xyz
  1  'x, y, z'
loop_
 _atom_site_type_symbol
 _atom_site_label
 _atom_site_symmetry_multiplicity
 _atom_site_fract_x
 _atom_site_fract_y
 _atom_site_fract_z
 _atom_site_occupancy
  Ga  Ga0  1  0.895189  0.025102  0.178724  1
  Ga  Ga1  1  0.499268  0.597375  0.418791  1
  Ga  Ga2  1  0.508187  0.066337  0.420026  1
  Sn  Sn3  1  0.006527  0.076909  0.421621  1
  Sn  Sn4  1  0.103942  0.149774  0.650953  1
  Sn  Sn5  1  0.422507  0.991885  0.163918  1
  Sn  Sn6  1  0.149580  0.780396  0.920785  1
  Sn  Sn7  1  0.416323  0.507589  0.170432  1
  Sn  Sn8  1  0.898641  0.507643  0.166994  1
  Sn  Sn9  1  0.675944  0.751680  0.894469  1
  Sn  Sn10  1  0.675057  0.263089  0.916435  1
  Sn  Sn11  1  0.143445  0.263988  0.916964  1
  Sn  Sn12  1  0.586575  0.676541  0.641256  1
  Sn  Sn13  1  0.104881  0.670357  0.646598  1
  Sn  Sn14  1  0.021184  0.584188  0.377748  1
  Ir  Ir15  1  0.692340  0.297847  0.306650  1
  Ir  Ir16  1  0.885943  0.461517  0.768104  1
  Ir  Ir17  1  0.287113  0.385624  0.038648  1
  O  O18  1  0.120227  0.718483  0.465734  1
  O  O19  1  0.695735  0.718823  0.459994  1
  O  O20  1  0.953452  0.082482  0.009921  1
  O  O21  1  0.114812  0.274224  0.474472  1
  O  O22  1  0.620725  0.688892  0.065182  1
  O  O23  1  0.432388  0.558591  0.582026  1
  O  O24  1  0.356032  0.946498  0.346893  1
  O  O25  1  0.432484  0.009872  0.585276  1
  O  O26  1  0.965582  0.006282  0.596605  1
  O  O27  1  0.354583  0.944161  0.882630  1
  O  O28  1  0.820645  0.941556  0.883246  1
  O  O29  1  0.755117  0.845803  0.180016  1
  O  O30  1  0.214492  0.848324  0.182428  1
  O  O31  1  0.231452  0.796655  0.747232  1
