# generated using pymatgen
data_Pa3(Al3Fe)4
_symmetry_space_group_name_H-M   'P 1'
_cell_length_a   8.72328400
_cell_length_b   8.72328439
_cell_length_c   9.20046300
_cell_angle_alpha   90.00000000
_cell_angle_beta   90.00000000
_cell_angle_gamma   119.99999852
_symmetry_Int_Tables_number   1
_chemical_formula_structural   Pa3(Al3Fe)4
_chemical_formula_sum   'Pa6 Al24 Fe8'
_cell_volume   606.31786453
_cell_formula_units_Z   2
loop_
 _symmetry_equiv_pos_site_id
 _symmetry_equiv_pos_as_xyz
  1  'x, y, z'
loop_
 _atom_site_type_symbol
 _atom_site_label
 _atom_site_symmetry_multiplicity
 _atom_site_fract_x
 _atom_site_fract_y
 _atom_site_fract_z
 _atom_site_occupancy
  Pa  Pa0  1  0.799468  0.200532  0.750000  1
  Pa  Pa1  1  0.200532  0.799468  0.250000  1
  Pa  Pa2  1  0.401065  0.200532  0.750000  1
  Pa  Pa3  1  0.598935  0.799468  0.250000  1
  Pa  Pa4  1  0.799468  0.598935  0.750000  1
  Pa  Pa5  1  0.200532  0.401065  0.250000  1
  Al  Al6  1  0.666667  0.333333  0.991547  1
  Al  Al7  1  0.333333  0.666667  0.008453  1
  Al  Al8  1  0.333333  0.666667  0.491547  1
  Al  Al9  1  0.666667  0.333333  0.508453  1
  Al  Al10  1  0.840440  0.159560  0.421732  1
  Al  Al11  1  0.159560  0.840440  0.578268  1
  Al  Al12  1  0.319121  0.159560  0.421732  1
  Al  Al13  1  0.159560  0.840440  0.921732  1
  Al  Al14  1  0.680879  0.840440  0.578268  1
  Al  Al15  1  0.840440  0.159560  0.078268  1
  Al  Al16  1  0.840440  0.680879  0.421732  1
  Al  Al17  1  0.680879  0.840440  0.921732  1
  Al  Al18  1  0.159560  0.319121  0.578268  1
  Al  Al19  1  0.319121  0.159560  0.078268  1
  Al  Al20  1  0.159560  0.319121  0.921732  1
  Al  Al21  1  0.840440  0.680879  0.078268  1
  Al  Al22  1  0.439146  0.560854  0.750000  1
  Al  Al23  1  0.560854  0.439146  0.250000  1
  Al  Al24  1  0.121708  0.560854  0.750000  1
  Al  Al25  1  0.878292  0.439146  0.250000  1
  Al  Al26  1  0.439146  0.878292  0.750000  1
  Al  Al27  1  0.560854  0.121708  0.250000  1
  Al  Al28  1  0.000000  0.000000  0.750000  1
  Al  Al29  1  0.000000  0.000000  0.250000  1
  Fe  Fe30  1  0.500000  0.500000  0.000000  1
  Fe  Fe31  1  0.000000  0.500000  0.000000  1
  Fe  Fe32  1  0.500000  0.500000  0.500000  1
  Fe  Fe33  1  0.500000  0.000000  0.000000  1
  Fe  Fe34  1  0.000000  0.500000  0.500000  1
  Fe  Fe35  1  0.500000  0.000000  0.500000  1
  Fe  Fe36  1  0.000000  0.000000  0.000000  1
  Fe  Fe37  1  0.000000  0.000000  0.500000  1
