# generated using pymatgen
data_YbCeEr2(B4Ru)4
_symmetry_space_group_name_H-M   'P 1'
_cell_length_a   3.56240600
_cell_length_b   5.95597249
_cell_length_c   11.52293040
_cell_angle_alpha   90.07572810
_cell_angle_beta   90.00000000
_cell_angle_gamma   90.00000000
_symmetry_Int_Tables_number   1
_chemical_formula_structural   YbCeEr2(B4Ru)4
_chemical_formula_sum   'Yb1 Ce1 Er2 B16 Ru4'
_cell_volume   244.48862409
_cell_formula_units_Z   1
loop_
 _symmetry_equiv_pos_site_id
 _symmetry_equiv_pos_as_xyz
  1  'x, y, z'
loop_
 _atom_site_type_symbol
 _atom_site_label
 _atom_site_symmetry_multiplicity
 _atom_site_fract_x
 _atom_site_fract_y
 _atom_site_fract_z
 _atom_site_occupancy
  Yb  Yb0  1  0.500000  0.870900  0.649758  1
  Ce  Ce1  1  0.500000  0.628546  0.150278  1
  Er  Er2  1  0.500000  0.370539  0.847632  1
  Er  Er3  1  0.500000  0.127499  0.352595  1
  B  B4  1  0.000000  0.976683  0.191836  1
  B  B5  1  0.000000  0.025254  0.807399  1
  B  B6  1  0.000000  0.474920  0.309927  1
  B  B7  1  0.000000  0.524036  0.691553  1
  B  B8  1  0.000000  0.789118  0.315863  1
  B  B9  1  0.000000  0.211692  0.685201  1
  B  B10  1  0.000000  0.286909  0.185906  1
  B  B11  1  0.000000  0.713320  0.813146  1
  B  B12  1  0.000000  0.863505  0.470233  1
  B  B13  1  0.000000  0.135840  0.530316  1
  B  B14  1  0.000000  0.363633  0.029699  1
  B  B15  1  0.000000  0.636473  0.968385  1
  B  B16  1  0.000000  0.889928  0.045629  1
  B  B17  1  0.000000  0.112428  0.951518  1
  B  B18  1  0.000000  0.386932  0.454557  1
  B  B19  1  0.000000  0.613052  0.547288  1
  Ru  Ru20  1  0.500000  0.639231  0.407781  1
  Ru  Ru21  1  0.500000  0.360653  0.591677  1
  Ru  Ru22  1  0.500000  0.139876  0.093416  1
  Ru  Ru23  1  0.500000  0.859031  0.908406  1
