# generated using pymatgen
data_NdYCu2(PdO4)2
_symmetry_space_group_name_H-M   'P 1'
_cell_length_a   6.43342951
_cell_length_b   6.43343013
_cell_length_c   6.47248036
_cell_angle_alpha   125.27418322
_cell_angle_beta   127.23276448
_cell_angle_gamma   79.06341841
_symmetry_Int_Tables_number   1
_chemical_formula_structural   NdYCu2(PdO4)2
_chemical_formula_sum   'Nd1 Y1 Cu2 Pd2 O8'
_cell_volume   168.79231574
_cell_formula_units_Z   1
loop_
 _symmetry_equiv_pos_site_id
 _symmetry_equiv_pos_as_xyz
  1  'x, y, z'
loop_
 _atom_site_type_symbol
 _atom_site_label
 _atom_site_symmetry_multiplicity
 _atom_site_fract_x
 _atom_site_fract_y
 _atom_site_fract_z
 _atom_site_occupancy
  Nd  Nd0  1  0.749575  0.249575  0.500000  1
  Y  Y1  1  0.000360  0.000360  0.000000  1
  Cu  Cu2  1  0.377919  0.628822  0.256676  1
  Cu  Cu3  1  0.372146  0.121243  0.743324  1
  Pd  Pd4  1  0.876228  0.621038  0.247715  1
  Pd  Pd5  1  0.373323  0.628514  0.752285  1
  O  O6  1  0.017873  0.955437  0.359161  1
  O  O7  1  0.698235  0.846267  0.453458  1
  O  O8  1  0.392810  0.244778  0.546542  1
  O  O9  1  0.596276  0.658713  0.640839  1
  O  O10  1  0.731997  0.279557  0.120805  1
  O  O11  1  0.065711  0.399110  0.060315  1
  O  O12  1  0.158751  0.611192  0.879195  1
  O  O13  1  0.338795  0.005395  0.939685  1
