# generated using pymatgen
data_NdY4In4IrPd
_symmetry_space_group_name_H-M   'P 1'
_cell_length_a   3.67465200
_cell_length_b   8.16263315
_cell_length_c   18.44298914
_cell_angle_alpha   90.15873932
_cell_angle_beta   90.00000000
_cell_angle_gamma   90.00000000
_symmetry_Int_Tables_number   1
_chemical_formula_structural   NdY4In4IrPd
_chemical_formula_sum   'Nd2 Y8 In8 Ir2 Pd2'
_cell_volume   553.19231555
_cell_formula_units_Z   2
loop_
 _symmetry_equiv_pos_site_id
 _symmetry_equiv_pos_as_xyz
  1  'x, y, z'
loop_
 _atom_site_type_symbol
 _atom_site_label
 _atom_site_symmetry_multiplicity
 _atom_site_fract_x
 _atom_site_fract_y
 _atom_site_fract_z
 _atom_site_occupancy
  Nd  Nd0  1  0.500000  0.000000  0.000000  1
  Nd  Nd1  1  0.500000  0.500000  0.500000  1
  Y  Y2  1  0.500000  0.228456  0.778731  1
  Y  Y3  1  0.500000  0.771544  0.221269  1
  Y  Y4  1  0.500000  0.245719  0.280449  1
  Y  Y5  1  0.500000  0.754281  0.719551  1
  Y  Y6  1  0.500000  0.116584  0.587866  1
  Y  Y7  1  0.500000  0.883416  0.412134  1
  Y  Y8  1  0.500000  0.381010  0.085230  1
  Y  Y9  1  0.500000  0.618990  0.914770  1
  In  In10  1  0.000000  0.077838  0.151053  1
  In  In11  1  0.000000  0.922162  0.848947  1
  In  In12  1  0.000000  0.423170  0.652575  1
  In  In13  1  0.000000  0.576830  0.347425  1
  In  In14  1  0.000000  0.203320  0.430746  1
  In  In15  1  0.000000  0.796680  0.569254  1
  In  In16  1  0.000000  0.297556  0.931111  1
  In  In17  1  0.000000  0.702444  0.068889  1
  Ir  Ir18  1  0.000000  0.020255  0.695638  1
  Ir  Ir19  1  0.000000  0.979745  0.304362  1
  Pd  Pd20  1  0.000000  0.480362  0.196319  1
  Pd  Pd21  1  0.000000  0.519638  0.803681  1
