# generated using pymatgen
data_La4BiTe3
_symmetry_space_group_name_H-M   'P 1'
_cell_length_a   8.00306317
_cell_length_b   8.00306369
_cell_length_c   8.00306256
_cell_angle_alpha   131.79306551
_cell_angle_beta   131.79306396
_cell_angle_gamma   70.55605002
_symmetry_Int_Tables_number   1
_chemical_formula_structural   La4BiTe3
_chemical_formula_sum   'La4 Bi1 Te3'
_cell_volume   279.15862849
_cell_formula_units_Z   1
loop_
 _symmetry_equiv_pos_site_id
 _symmetry_equiv_pos_as_xyz
  1  'x, y, z'
loop_
 _atom_site_type_symbol
 _atom_site_label
 _atom_site_symmetry_multiplicity
 _atom_site_fract_x
 _atom_site_fract_y
 _atom_site_fract_z
 _atom_site_occupancy
  La  La0  1  0.252269  0.252269  0.000000  1
  La  La1  1  0.747731  0.747731  0.000000  1
  La  La2  1  0.500000  0.000000  0.500000  1
  La  La3  1  0.000000  0.500000  0.500000  1
  Bi  Bi4  1  0.500000  0.500000  0.000000  1
  Te  Te5  1  0.000000  0.000000  0.000000  1
  Te  Te6  1  0.750001  0.250000  0.500000  1
  Te  Te7  1  0.250000  0.750001  0.500000  1
