# generated using pymatgen
data_Tm2LuAl12Ru3Au
_symmetry_space_group_name_H-M   'P 1'
_cell_length_a   8.83167157
_cell_length_b   8.79484810
_cell_length_c   9.52906173
_cell_angle_alpha   90.06477810
_cell_angle_beta   89.98830113
_cell_angle_gamma   119.76424955
_symmetry_Int_Tables_number   1
_chemical_formula_structural   Tm2LuAl12Ru3Au
_chemical_formula_sum   'Tm4 Lu2 Al24 Ru6 Au2'
_cell_volume   642.50796663
_cell_formula_units_Z   2
loop_
 _symmetry_equiv_pos_site_id
 _symmetry_equiv_pos_as_xyz
  1  'x, y, z'
loop_
 _atom_site_type_symbol
 _atom_site_label
 _atom_site_symmetry_multiplicity
 _atom_site_fract_x
 _atom_site_fract_y
 _atom_site_fract_z
 _atom_site_occupancy
  Tm  Tm0  1  0.387012  0.193191  0.750620  1
  Tm  Tm1  1  0.612988  0.806809  0.249380  1
  Tm  Tm2  1  0.808508  0.611369  0.746003  1
  Tm  Tm3  1  0.191492  0.388631  0.253997  1
  Lu  Lu4  1  0.806875  0.196817  0.745538  1
  Lu  Lu5  1  0.193125  0.803183  0.254462  1
  Al  Al6  1  0.678749  0.338631  0.968187  1
  Al  Al7  1  0.321251  0.661369  0.031813  1
  Al  Al8  1  0.333620  0.666614  0.473441  1
  Al  Al9  1  0.666380  0.333386  0.526559  1
  Al  Al10  1  0.836476  0.162857  0.423210  1
  Al  Al11  1  0.163524  0.837143  0.576790  1
  Al  Al12  1  0.325687  0.162793  0.426472  1
  Al  Al13  1  0.152288  0.829005  0.918268  1
  Al  Al14  1  0.674313  0.837207  0.573528  1
  Al  Al15  1  0.847712  0.170995  0.081732  1
  Al  Al16  1  0.836177  0.672838  0.423796  1
  Al  Al17  1  0.682345  0.841149  0.914801  1
  Al  Al18  1  0.163823  0.327162  0.576204  1
  Al  Al19  1  0.317655  0.158851  0.085199  1
  Al  Al20  1  0.151766  0.322870  0.918325  1
  Al  Al21  1  0.848234  0.677130  0.081675  1
  Al  Al22  1  0.436022  0.563373  0.743127  1
  Al  Al23  1  0.563978  0.436627  0.256873  1
  Al  Al24  1  0.121098  0.560263  0.750470  1
  Al  Al25  1  0.878902  0.439737  0.249530  1
  Al  Al26  1  0.436489  0.873078  0.743476  1
  Al  Al27  1  0.563511  0.126922  0.256524  1
  Al  Al28  1  0.002716  0.001672  0.749201  1
  Al  Al29  1  0.997284  0.998328  0.250799  1
  Ru  Ru30  1  0.000000  0.500000  0.000000  1
  Ru  Ru31  1  0.500000  0.500000  0.500000  1
  Ru  Ru32  1  0.000000  0.500000  0.500000  1
  Ru  Ru33  1  0.500000  0.000000  0.500000  1
  Ru  Ru34  1  0.000000  0.000000  0.000000  1
  Ru  Ru35  1  0.000000  0.000000  0.500000  1
  Au  Au36  1  0.500000  0.500000  0.000000  1
  Au  Au37  1  0.500000  0.000000  0.000000  1
