# generated using pymatgen
data_LaGdGeO5
_symmetry_space_group_name_H-M   'P 1'
_cell_length_a   8.43689811
_cell_length_b   8.43698216
_cell_length_c   11.02092557
_cell_angle_alpha   61.35868067
_cell_angle_beta   61.35885807
_cell_angle_gamma   49.88368955
_symmetry_Int_Tables_number   1
_chemical_formula_structural   LaGdGeO5
_chemical_formula_sum   'La4 Gd4 Ge4 O20'
_cell_volume   509.25394787
_cell_formula_units_Z   4
loop_
 _symmetry_equiv_pos_site_id
 _symmetry_equiv_pos_as_xyz
  1  'x, y, z'
loop_
 _atom_site_type_symbol
 _atom_site_label
 _atom_site_symmetry_multiplicity
 _atom_site_fract_x
 _atom_site_fract_y
 _atom_site_fract_z
 _atom_site_occupancy
  La  La0  1  0.720326  0.207968  0.964975  1
  La  La1  1  0.792037  0.279664  0.535021  1
  La  La2  1  0.279674  0.792032  0.035025  1
  La  La3  1  0.207963  0.720336  0.464979  1
  Gd  Gd4  1  0.985586  0.735004  0.837901  1
  Gd  Gd5  1  0.264996  0.014416  0.662101  1
  Gd  Gd6  1  0.014414  0.264996  0.162099  1
  Gd  Gd7  1  0.735004  0.985584  0.337899  1
  Ge  Ge8  1  0.777611  0.594807  0.691126  1
  Ge  Ge9  1  0.405196  0.222384  0.808873  1
  Ge  Ge10  1  0.222389  0.405193  0.308874  1
  Ge  Ge11  1  0.594804  0.777616  0.191127  1
  O  O12  1  0.782284  0.631018  0.058825  1
  O  O13  1  0.368985  0.217713  0.441174  1
  O  O14  1  0.217716  0.368982  0.941175  1
  O  O15  1  0.631015  0.782287  0.558826  1
  O  O16  1  0.586098  0.588435  0.358742  1
  O  O17  1  0.411569  0.413901  0.141259  1
  O  O18  1  0.413902  0.411565  0.641258  1
  O  O19  1  0.588431  0.586099  0.858741  1
  O  O20  1  0.946618  0.656396  0.682305  1
  O  O21  1  0.343603  0.053381  0.817698  1
  O  O22  1  0.053382  0.343604  0.317695  1
  O  O23  1  0.656397  0.946619  0.182302  1
  O  O24  1  0.887932  0.080307  0.391571  1
  O  O25  1  0.919690  0.112070  0.108424  1
  O  O26  1  0.112068  0.919693  0.608429  1
  O  O27  1  0.080310  0.887930  0.891576  1
  O  O28  1  0.079684  0.672322  0.325123  1
  O  O29  1  0.327677  0.920319  0.174876  1
  O  O30  1  0.920316  0.327678  0.674877  1
  O  O31  1  0.672323  0.079681  0.825124  1
