# generated using pymatgen
data_LiTaZn(SbPt)3
_symmetry_space_group_name_H-M   'P 1'
_cell_length_a   7.67433568
_cell_length_b   7.69894489
_cell_length_c   7.67523829
_cell_angle_alpha   99.69562930
_cell_angle_beta   99.71871562
_cell_angle_gamma   119.99438074
_symmetry_Int_Tables_number   1
_chemical_formula_structural   LiTaZn(SbPt)3
_chemical_formula_sum   'Li2 Ta2 Zn2 Sb6 Pt6'
_cell_volume   369.75071635
_cell_formula_units_Z   2
loop_
 _symmetry_equiv_pos_site_id
 _symmetry_equiv_pos_as_xyz
  1  'x, y, z'
loop_
 _atom_site_type_symbol
 _atom_site_label
 _atom_site_symmetry_multiplicity
 _atom_site_fract_x
 _atom_site_fract_y
 _atom_site_fract_z
 _atom_site_occupancy
  Li  Li0  1  0.331004  0.165554  0.499243  1
  Li  Li1  1  0.998408  0.502208  0.500082  1
  Ta  Ta2  1  0.667586  0.831153  0.500348  1
  Ta  Ta3  1  0.830912  0.668813  0.001026  1
  Zn  Zn4  1  0.163793  0.329425  0.999155  1
  Zn  Zn5  1  0.504232  0.996123  0.000353  1
  Sb  Sb6  1  0.926235  0.101672  0.252553  1
  Sb  Sb7  1  0.251988  0.753235  0.254572  1
  Sb  Sb8  1  0.578935  0.404973  0.258632  1
  Sb  Sb9  1  0.100803  0.918092  0.739776  1
  Sb  Sb10  1  0.748636  0.260302  0.741505  1
  Sb  Sb11  1  0.397181  0.568353  0.750725  1
  Pt  Pt12  1  0.195425  0.028798  0.111510  1
  Pt  Pt13  1  0.870347  0.381305  0.112919  1
  Pt  Pt14  1  0.552762  0.709733  0.132837  1
  Pt  Pt15  1  0.024804  0.191153  0.627148  1
  Pt  Pt16  1  0.395691  0.876392  0.629232  1
  Pt  Pt17  1  0.711215  0.562679  0.638384  1
