# generated using pymatgen
data_Yb5Ho(OsO6)3
_symmetry_space_group_name_H-M   'P 1'
_cell_length_a   9.04098213
_cell_length_b   9.04098146
_cell_length_c   5.22447262
_cell_angle_alpha   90.14609855
_cell_angle_beta   89.85390816
_cell_angle_gamma   119.86035245
_symmetry_Int_Tables_number   1
_chemical_formula_structural   Yb5Ho(OsO6)3
_chemical_formula_sum   'Yb5 Ho1 Os3 O18'
_cell_volume   370.34953741
_cell_formula_units_Z   1
loop_
 _symmetry_equiv_pos_site_id
 _symmetry_equiv_pos_as_xyz
  1  'x, y, z'
loop_
 _atom_site_type_symbol
 _atom_site_label
 _atom_site_symmetry_multiplicity
 _atom_site_fract_x
 _atom_site_fract_y
 _atom_site_fract_z
 _atom_site_occupancy
  Yb  Yb0  1  0.000263  0.282432  0.497431  1
  Yb  Yb1  1  0.282432  0.000263  0.502569  1
  Yb  Yb2  1  0.378720  0.378720  0.000000  1
  Yb  Yb3  1  0.996499  0.621533  0.001232  1
  Yb  Yb4  1  0.621533  0.996499  0.998768  1
  Ho  Ho5  1  0.717896  0.717896  0.500000  1
  Os  Os6  1  0.665731  0.329733  0.505054  1
  Os  Os7  1  0.329733  0.665731  0.494946  1
  Os  Os8  1  0.004157  0.004157  0.000000  1
  O  O9  1  0.758711  0.231519  0.716959  1
  O  O10  1  0.770562  0.532698  0.712404  1
  O  O11  1  0.471930  0.243131  0.713996  1
  O  O12  1  0.532698  0.770562  0.287596  1
  O  O13  1  0.243131  0.471930  0.286004  1
  O  O14  1  0.231519  0.758711  0.283041  1
  O  O15  1  0.593036  0.455922  0.300102  1
  O  O16  1  0.545888  0.139872  0.297261  1
  O  O17  1  0.860546  0.407023  0.300444  1
  O  O18  1  0.070225  0.878219  0.794152  1
  O  O19  1  0.120846  0.194361  0.790295  1
  O  O20  1  0.804206  0.924342  0.785543  1
  O  O21  1  0.194361  0.120846  0.209705  1
  O  O22  1  0.924342  0.804206  0.214457  1
  O  O23  1  0.878219  0.070225  0.205848  1
  O  O24  1  0.455922  0.593036  0.699898  1
  O  O25  1  0.407023  0.860546  0.699556  1
  O  O26  1  0.139872  0.545888  0.702739  1
