# generated using pymatgen
data_Ce10Ir5Os
_symmetry_space_group_name_H-M   'P 1'
_cell_length_a   11.14946200
_cell_length_b   11.14946200
_cell_length_c   6.18775900
_cell_angle_alpha   90.00000000
_cell_angle_beta   90.00000000
_cell_angle_gamma   90.00000000
_symmetry_Int_Tables_number   1
_chemical_formula_structural   Ce10Ir5Os
_chemical_formula_sum   'Ce20 Ir10 Os2'
_cell_volume   769.20343305
_cell_formula_units_Z   2
loop_
 _symmetry_equiv_pos_site_id
 _symmetry_equiv_pos_as_xyz
  1  'x, y, z'
loop_
 _atom_site_type_symbol
 _atom_site_label
 _atom_site_symmetry_multiplicity
 _atom_site_fract_x
 _atom_site_fract_y
 _atom_site_fract_z
 _atom_site_occupancy
  Ce  Ce0  1  0.090042  0.289830  0.126526  1
  Ce  Ce1  1  0.789830  0.409958  0.126526  1
  Ce  Ce2  1  0.210170  0.590042  0.126526  1
  Ce  Ce3  1  0.909958  0.710170  0.126526  1
  Ce  Ce4  1  0.409958  0.789830  0.373474  1
  Ce  Ce5  1  0.590042  0.210170  0.373474  1
  Ce  Ce6  1  0.289830  0.090042  0.373474  1
  Ce  Ce7  1  0.710170  0.909958  0.373474  1
  Ce  Ce8  1  0.409461  0.210375  0.876970  1
  Ce  Ce9  1  0.710375  0.090539  0.876970  1
  Ce  Ce10  1  0.289625  0.909461  0.876970  1
  Ce  Ce11  1  0.590539  0.789625  0.876970  1
  Ce  Ce12  1  0.090539  0.710375  0.623030  1
  Ce  Ce13  1  0.909461  0.289625  0.623030  1
  Ce  Ce14  1  0.210375  0.409461  0.623030  1
  Ce  Ce15  1  0.789625  0.590539  0.623030  1
  Ce  Ce16  1  0.000000  0.000000  0.998848  1
  Ce  Ce17  1  0.500000  0.500000  0.998848  1
  Ce  Ce18  1  0.500000  0.500000  0.501152  1
  Ce  Ce19  1  0.000000  0.000000  0.501152  1
  Ir  Ir20  1  0.156394  0.843606  0.250000  1
  Ir  Ir21  1  0.343606  0.343606  0.250000  1
  Ir  Ir22  1  0.656394  0.656394  0.250000  1
  Ir  Ir23  1  0.843606  0.156394  0.250000  1
  Ir  Ir24  1  0.343094  0.656906  0.750000  1
  Ir  Ir25  1  0.156906  0.156906  0.750000  1
  Ir  Ir26  1  0.843094  0.843094  0.750000  1
  Ir  Ir27  1  0.656906  0.343094  0.750000  1
  Ir  Ir28  1  0.500000  0.000000  0.620685  1
  Ir  Ir29  1  0.000000  0.500000  0.879315  1
  Os  Os30  1  0.000000  0.500000  0.379045  1
  Os  Os31  1  0.500000  0.000000  0.120955  1
