# generated using pymatgen
data_CaAc7(USe5)4
_symmetry_space_group_name_H-M   'P 1'
_cell_length_a   8.08230848
_cell_length_b   8.64279700
_cell_length_c   12.77030400
_cell_angle_alpha   89.92316628
_cell_angle_beta   89.93330633
_cell_angle_gamma   90.01310951
_symmetry_Int_Tables_number   1
_chemical_formula_structural   CaAc7(USe5)4
_chemical_formula_sum   'Ca1 Ac7 U4 Se20'
_cell_volume   892.05221145
_cell_formula_units_Z   1
loop_
 _symmetry_equiv_pos_site_id
 _symmetry_equiv_pos_as_xyz
  1  'x, y, z'
loop_
 _atom_site_type_symbol
 _atom_site_label
 _atom_site_symmetry_multiplicity
 _atom_site_fract_x
 _atom_site_fract_y
 _atom_site_fract_z
 _atom_site_occupancy
  Ca  Ca0  1  0.522967  0.497002  0.320775  1
  Ac  Ac1  1  0.966276  0.999595  0.824527  1
  Ac  Ac2  1  0.467744  0.002427  0.671393  1
  Ac  Ac3  1  0.032481  0.498192  0.179593  1
  Ac  Ac4  1  0.468033  0.498029  0.670554  1
  Ac  Ac5  1  0.036169  0.001242  0.177984  1
  Ac  Ac6  1  0.533993  0.996151  0.324617  1
  Ac  Ac7  1  0.966449  0.501735  0.825538  1
  U  U8  1  0.066750  0.749867  0.490754  1
  U  U9  1  0.435885  0.749013  0.994121  1
  U  U10  1  0.930890  0.252961  0.505510  1
  U  U11  1  0.564243  0.251812  0.010088  1
  Se  Se12  1  0.835315  0.961171  0.587375  1
  Se  Se13  1  0.662421  0.540815  0.089636  1
  Se  Se14  1  0.166475  0.459051  0.414934  1
  Se  Se15  1  0.337427  0.039536  0.911749  1
  Se  Se16  1  0.166374  0.041094  0.414566  1
  Se  Se17  1  0.337628  0.460342  0.910692  1
  Se  Se18  1  0.838304  0.541945  0.591146  1
  Se  Se19  1  0.665345  0.959071  0.087758  1
  Se  Se20  1  0.841141  0.749538  0.316498  1
  Se  Se21  1  0.659912  0.750638  0.814780  1
  Se  Se22  1  0.160033  0.250448  0.684787  1
  Se  Se23  1  0.338387  0.249993  0.186101  1
  Se  Se24  1  0.447082  0.746042  0.493417  1
  Se  Se25  1  0.054774  0.749987  0.997909  1
  Se  Se26  1  0.553881  0.254413  0.499567  1
  Se  Se27  1  0.945904  0.250078  0.003770  1
  Se  Se28  1  0.184562  0.751117  0.707314  1
  Se  Se29  1  0.317632  0.745298  0.211204  1
  Se  Se30  1  0.811558  0.250943  0.289903  1
  Se  Se31  1  0.683967  0.250455  0.791440  1
