# generated using pymatgen
data_Nd2Sm(OsO5)2
_symmetry_space_group_name_H-M   'P 1'
_cell_length_a   5.51829310
_cell_length_b   5.51829350
_cell_length_c   6.98694461
_cell_angle_alpha   72.70292765
_cell_angle_beta   72.70292176
_cell_angle_gamma   90.30519514
_symmetry_Int_Tables_number   1
_chemical_formula_structural   Nd2Sm(OsO5)2
_chemical_formula_sum   'Nd2 Sm1 Os2 O10'
_cell_volume   192.92654341
_cell_formula_units_Z   1
loop_
 _symmetry_equiv_pos_site_id
 _symmetry_equiv_pos_as_xyz
  1  'x, y, z'
loop_
 _atom_site_type_symbol
 _atom_site_label
 _atom_site_symmetry_multiplicity
 _atom_site_fract_x
 _atom_site_fract_y
 _atom_site_fract_z
 _atom_site_occupancy
  Nd  Nd0  1  0.753690  0.246310  0.500000  1
  Nd  Nd1  1  0.246310  0.753690  0.500000  1
  Sm  Sm2  1  0.500000  0.500000  0.000000  1
  Os  Os3  1  0.130152  0.130152  0.824363  1
  Os  Os4  1  0.869848  0.869848  0.175637  1
  O  O5  1  0.829409  0.829409  0.473141  1
  O  O6  1  0.170591  0.170591  0.526859  1
  O  O7  1  0.593060  0.593060  0.281510  1
  O  O8  1  0.406940  0.406940  0.718490  1
  O  O9  1  0.382903  0.894237  0.787394  1
  O  O10  1  0.850227  0.850227  0.899175  1
  O  O11  1  0.149773  0.149773  0.100825  1
  O  O12  1  0.894237  0.382903  0.787394  1
  O  O13  1  0.617097  0.105763  0.212606  1
  O  O14  1  0.105763  0.617097  0.212606  1
