# generated using pymatgen
data_Tb2Er4Zn23As
_symmetry_space_group_name_H-M   'P 1'
_cell_length_a   9.04291542
_cell_length_b   9.04292165
_cell_length_c   9.03864800
_cell_angle_alpha   60.01559262
_cell_angle_beta   60.01565029
_cell_angle_gamma   59.97044857
_symmetry_Int_Tables_number   1
_chemical_formula_structural   Tb2Er4Zn23As
_chemical_formula_sum   'Tb2 Er4 Zn23 As1'
_cell_volume   522.65015581
_cell_formula_units_Z   1
loop_
 _symmetry_equiv_pos_site_id
 _symmetry_equiv_pos_as_xyz
  1  'x, y, z'
loop_
 _atom_site_type_symbol
 _atom_site_label
 _atom_site_symmetry_multiplicity
 _atom_site_fract_x
 _atom_site_fract_y
 _atom_site_fract_z
 _atom_site_occupancy
  Tb  Tb0  1  0.716111  0.283889  0.283662  1
  Tb  Tb1  1  0.716105  0.283895  0.716332  1
  Er  Er2  1  0.715204  0.715569  0.284616  1
  Er  Er3  1  0.283581  0.716419  0.716265  1
  Er  Er4  1  0.283577  0.716423  0.283732  1
  Er  Er5  1  0.284431  0.284796  0.715389  1
  Zn  Zn6  1  0.621735  0.123971  0.127147  1
  Zn  Zn7  1  0.125057  0.624067  0.125436  1
  Zn  Zn8  1  0.127567  0.124885  0.622950  1
  Zn  Zn9  1  0.127565  0.124883  0.124607  1
  Zn  Zn10  1  0.375933  0.874943  0.874559  1
  Zn  Zn11  1  0.876029  0.378265  0.872851  1
  Zn  Zn12  1  0.875117  0.872435  0.377054  1
  Zn  Zn13  1  0.875115  0.872433  0.875402  1
  Zn  Zn14  1  0.499325  0.999761  0.000556  1
  Zn  Zn15  1  0.499322  0.999764  0.500357  1
  Zn  Zn16  1  0.498928  0.501072  0.999999  1
  Zn  Zn17  1  0.000239  0.500675  0.499643  1
  Zn  Zn18  1  0.000236  0.500678  0.999443  1
  Zn  Zn19  1  0.000767  0.999233  0.500001  1
  Zn  Zn20  1  0.999879  0.000121  0.000001  1
  Zn  Zn21  1  0.012637  0.329476  0.328944  1
  Zn  Zn22  1  0.329708  0.009773  0.330256  1
  Zn  Zn23  1  0.329042  0.330150  0.011218  1
  Zn  Zn24  1  0.329044  0.330152  0.329588  1
  Zn  Zn25  1  0.990227  0.670292  0.669740  1
  Zn  Zn26  1  0.670524  0.987363  0.671059  1
  Zn  Zn27  1  0.669848  0.670956  0.988786  1
  Zn  Zn28  1  0.669850  0.670958  0.670412  1
  As  As29  1  0.497294  0.502706  0.499996  1
