# generated using pymatgen
data_Tb8Ta9Ti2NbSi16
_symmetry_space_group_name_H-M   'P 1'
_cell_length_a   7.06129476
_cell_length_b   7.05547570
_cell_length_c   13.01023868
_cell_angle_alpha   90.01410514
_cell_angle_beta   89.98949920
_cell_angle_gamma   89.93410908
_symmetry_Int_Tables_number   1
_chemical_formula_structural   Tb8Ta9Ti2NbSi16
_chemical_formula_sum   'Tb8 Ta9 Ti2 Nb1 Si16'
_cell_volume   648.17995627
_cell_formula_units_Z   1
loop_
 _symmetry_equiv_pos_site_id
 _symmetry_equiv_pos_as_xyz
  1  'x, y, z'
loop_
 _atom_site_type_symbol
 _atom_site_label
 _atom_site_symmetry_multiplicity
 _atom_site_fract_x
 _atom_site_fract_y
 _atom_site_fract_z
 _atom_site_occupancy
  Tb  Tb0  1  0.341297  0.002329  0.467758  1
  Tb  Tb1  1  0.498306  0.841369  0.717723  1
  Tb  Tb2  1  0.501543  0.158921  0.217809  1
  Tb  Tb3  1  0.841410  0.498066  0.282598  1
  Tb  Tb4  1  0.158835  0.501907  0.782493  1
  Tb  Tb5  1  0.658579  0.998000  0.967851  1
  Tb  Tb6  1  0.002802  0.340170  0.531970  1
  Tb  Tb7  1  0.997441  0.659710  0.031824  1
  Ta  Ta8  1  0.172587  0.826717  0.250214  1
  Ta  Ta9  1  0.827227  0.173101  0.749937  1
  Ta  Ta10  1  0.670652  0.670296  0.499590  1
  Ta  Ta11  1  0.153049  0.008085  0.874025  1
  Ta  Ta12  1  0.492769  0.653054  0.124183  1
  Ta  Ta13  1  0.507788  0.346734  0.624088  1
  Ta  Ta14  1  0.652653  0.491710  0.876011  1
  Ta  Ta15  1  0.347059  0.508671  0.376169  1
  Ta  Ta16  1  0.846414  0.991684  0.374110  1
  Ti  Ti17  1  0.008881  0.153977  0.125875  1
  Ti  Ti18  1  0.991254  0.845772  0.625983  1
  Nb  Nb19  1  0.329330  0.329725  0.999558  1
  Si  Si20  1  0.201639  0.131046  0.682536  1
  Si  Si21  1  0.367217  0.705752  0.932249  1
  Si  Si22  1  0.633018  0.295025  0.432418  1
  Si  Si23  1  0.705107  0.366149  0.067988  1
  Si  Si24  1  0.295597  0.634099  0.567885  1
  Si  Si25  1  0.798390  0.868900  0.182556  1
  Si  Si26  1  0.133092  0.202210  0.317077  1
  Si  Si27  1  0.866838  0.797671  0.817049  1
  Si  Si28  1  0.291387  0.954353  0.064484  1
  Si  Si29  1  0.545923  0.793786  0.313465  1
  Si  Si30  1  0.454109  0.206241  0.813143  1
  Si  Si31  1  0.795189  0.546839  0.685382  1
  Si  Si32  1  0.204937  0.453590  0.185858  1
  Si  Si33  1  0.708490  0.044572  0.564305  1
  Si  Si34  1  0.953727  0.293230  0.936700  1
  Si  Si35  1  0.045462  0.706540  0.437135  1
