# generated using pymatgen
data_EuY3Lu4(B6Ru)4
_symmetry_space_group_name_H-M   'P 1'
_cell_length_a   3.62448000
_cell_length_b   9.07502932
_cell_length_c   11.47311940
_cell_angle_alpha   90.03031144
_cell_angle_beta   90.00000000
_cell_angle_gamma   90.00000000
_symmetry_Int_Tables_number   1
_chemical_formula_structural   EuY3Lu4(B6Ru)4
_chemical_formula_sum   'Eu1 Y3 Lu4 B24 Ru4'
_cell_volume   377.37679949
_cell_formula_units_Z   1
loop_
 _symmetry_equiv_pos_site_id
 _symmetry_equiv_pos_as_xyz
  1  'x, y, z'
loop_
 _atom_site_type_symbol
 _atom_site_label
 _atom_site_symmetry_multiplicity
 _atom_site_fract_x
 _atom_site_fract_y
 _atom_site_fract_z
 _atom_site_occupancy
  Eu  Eu0  1  0.000000  0.177485  0.914177  1
  Y  Y1  1  0.000000  0.321155  0.414779  1
  Y  Y2  1  0.000000  0.678439  0.585548  1
  Y  Y3  1  0.000000  0.822210  0.085215  1
  Lu  Lu4  1  0.000000  0.943908  0.372872  1
  Lu  Lu5  1  0.000000  0.056243  0.628167  1
  Lu  Lu6  1  0.000000  0.443617  0.127949  1
  Lu  Lu7  1  0.000000  0.555747  0.871852  1
  B  B8  1  0.500000  0.554867  0.432303  1
  B  B9  1  0.500000  0.446101  0.566684  1
  B  B10  1  0.500000  0.054272  0.068739  1
  B  B11  1  0.500000  0.944212  0.932150  1
  B  B12  1  0.500000  0.750177  0.418973  1
  B  B13  1  0.500000  0.250255  0.580679  1
  B  B14  1  0.500000  0.250076  0.082512  1
  B  B15  1  0.500000  0.749431  0.918711  1
  B  B16  1  0.500000  0.791789  0.265941  1
  B  B17  1  0.500000  0.209236  0.733171  1
  B  B18  1  0.500000  0.291742  0.235243  1
  B  B19  1  0.500000  0.707513  0.765282  1
  B  B20  1  0.500000  0.630862  0.184153  1
  B  B21  1  0.500000  0.370264  0.814754  1
  B  B22  1  0.500000  0.130637  0.316666  1
  B  B23  1  0.500000  0.868848  0.684032  1
  B  B24  1  0.500000  0.982979  0.214016  1
  B  B25  1  0.500000  0.015693  0.786051  1
  B  B26  1  0.500000  0.483300  0.286619  1
  B  B27  1  0.500000  0.517420  0.712495  1
  B  B28  1  0.500000  0.603249  0.028179  1
  B  B29  1  0.500000  0.399029  0.972432  1
  B  B30  1  0.500000  0.104020  0.471846  1
  B  B31  1  0.500000  0.895701  0.528489  1
  Ru  Ru32  1  0.000000  0.638856  0.319835  1
  Ru  Ru33  1  0.000000  0.362737  0.678534  1
  Ru  Ru34  1  0.000000  0.139051  0.182102  1
  Ru  Ru35  1  0.000000  0.858879  0.818852  1
