# generated using pymatgen
data_Er8Ru3PtRh4
_symmetry_space_group_name_H-M   'P 1'
_cell_length_a   6.81209204
_cell_length_b   6.81040200
_cell_length_c   6.72143100
_cell_angle_alpha   90.00000000
_cell_angle_beta   90.00638387
_cell_angle_gamma   90.00000000
_symmetry_Int_Tables_number   1
_chemical_formula_structural   Er8Ru3PtRh4
_chemical_formula_sum   'Er8 Ru3 Pt1 Rh4'
_cell_volume   311.82791958
_cell_formula_units_Z   1
loop_
 _symmetry_equiv_pos_site_id
 _symmetry_equiv_pos_as_xyz
  1  'x, y, z'
loop_
 _atom_site_type_symbol
 _atom_site_label
 _atom_site_symmetry_multiplicity
 _atom_site_fract_x
 _atom_site_fract_y
 _atom_site_fract_z
 _atom_site_occupancy
  Er  Er0  1  0.498733  0.998342  0.250289  1
  Er  Er1  1  0.498733  0.501658  0.250289  1
  Er  Er2  1  0.002074  0.501706  0.250240  1
  Er  Er3  1  0.002074  0.998295  0.250240  1
  Er  Er4  1  0.001252  0.998281  0.749719  1
  Er  Er5  1  0.001252  0.501719  0.749719  1
  Er  Er6  1  0.497966  0.501682  0.749754  1
  Er  Er7  1  0.497966  0.998319  0.749754  1
  Ru  Ru8  1  0.249991  0.750001  0.499909  1
  Ru  Ru9  1  0.750009  0.250001  0.500172  1
  Ru  Ru10  1  0.250028  0.750001  0.999919  1
  Pt  Pt11  1  0.750102  0.250001  0.000266  1
  Rh  Rh12  1  0.249979  0.250001  0.999811  1
  Rh  Rh13  1  0.749998  0.750001  0.999986  1
  Rh  Rh14  1  0.749960  0.750001  0.500009  1
  Rh  Rh15  1  0.249882  0.250001  0.499925  1
