# generated using pymatgen
data_Lu4AlGa17Ir6
_symmetry_space_group_name_H-M   'P 1'
_cell_length_a   7.55787976
_cell_length_b   7.55788008
_cell_length_c   9.43509516
_cell_angle_alpha   89.98944401
_cell_angle_beta   89.98944211
_cell_angle_gamma   119.93567359
_symmetry_Int_Tables_number   1
_chemical_formula_structural   Lu4AlGa17Ir6
_chemical_formula_sum   'Lu4 Al1 Ga17 Ir6'
_cell_volume   467.04422318
_cell_formula_units_Z   1
loop_
 _symmetry_equiv_pos_site_id
 _symmetry_equiv_pos_as_xyz
  1  'x, y, z'
loop_
 _atom_site_type_symbol
 _atom_site_label
 _atom_site_symmetry_multiplicity
 _atom_site_fract_x
 _atom_site_fract_y
 _atom_site_fract_z
 _atom_site_occupancy
  Lu  Lu0  1  0.999225  0.669001  0.249741  1
  Lu  Lu1  1  0.001680  0.329448  0.749423  1
  Lu  Lu2  1  0.669001  0.999225  0.249741  1
  Lu  Lu3  1  0.329448  0.001680  0.749423  1
  Al  Al4  1  0.336020  0.336020  0.949040  1
  Ga  Ga5  1  0.126152  0.126152  0.249079  1
  Ga  Ga6  1  0.872111  0.872111  0.749020  1
  Ga  Ga7  1  0.997509  0.334298  0.081316  1
  Ga  Ga8  1  0.000715  0.664823  0.917295  1
  Ga  Ga9  1  0.000452  0.664459  0.582640  1
  Ga  Ga10  1  0.334384  0.998910  0.417066  1
  Ga  Ga11  1  0.998910  0.334384  0.417066  1
  Ga  Ga12  1  0.664459  0.000452  0.582640  1
  Ga  Ga13  1  0.664823  0.000715  0.917295  1
  Ga  Ga14  1  0.334298  0.997509  0.081316  1
  Ga  Ga15  1  0.331080  0.331080  0.565419  1
  Ga  Ga16  1  0.668780  0.668780  0.432371  1
  Ga  Ga17  1  0.673249  0.673249  0.067922  1
  Ga  Ga18  1  0.340755  0.548753  0.249763  1
  Ga  Ga19  1  0.654959  0.449647  0.750162  1
  Ga  Ga20  1  0.548753  0.340755  0.249763  1
  Ga  Ga21  1  0.449647  0.654959  0.750162  1
  Ir  Ir22  1  0.669696  0.328083  0.999007  1
  Ir  Ir23  1  0.328083  0.669696  0.999007  1
  Ir  Ir24  1  0.328132  0.672274  0.499457  1
  Ir  Ir25  1  0.672274  0.328132  0.499457  1
  Ir  Ir26  1  0.005648  0.005648  0.996294  1
  Ir  Ir27  1  0.999754  0.999754  0.499113  1
