# generated using pymatgen
data_Er8Ti7Re4Si16Mo
_symmetry_space_group_name_H-M   'P 1'
_cell_length_a   6.89138932
_cell_length_b   6.89549710
_cell_length_c   12.73252828
_cell_angle_alpha   89.77352143
_cell_angle_beta   89.99773164
_cell_angle_gamma   90.00830042
_symmetry_Int_Tables_number   1
_chemical_formula_structural   Er8Ti7Re4Si16Mo
_chemical_formula_sum   'Er8 Ti7 Re4 Si16 Mo1'
_cell_volume   605.03934523
_cell_formula_units_Z   1
loop_
 _symmetry_equiv_pos_site_id
 _symmetry_equiv_pos_as_xyz
  1  'x, y, z'
loop_
 _atom_site_type_symbol
 _atom_site_label
 _atom_site_symmetry_multiplicity
 _atom_site_fract_x
 _atom_site_fract_y
 _atom_site_fract_z
 _atom_site_occupancy
  Er  Er0  1  0.339515  0.999281  0.470180  1
  Er  Er1  1  0.499090  0.840032  0.719491  1
  Er  Er2  1  0.499544  0.160064  0.218849  1
  Er  Er3  1  0.838914  0.499312  0.280664  1
  Er  Er4  1  0.160190  0.499449  0.781245  1
  Er  Er5  1  0.659428  0.999959  0.967829  1
  Er  Er6  1  0.000165  0.339857  0.531438  1
  Er  Er7  1  0.999163  0.659968  0.029129  1
  Ti  Ti8  1  0.493159  0.654977  0.125766  1
  Ti  Ti9  1  0.503068  0.345814  0.627486  1
  Ti  Ti10  1  0.653716  0.496638  0.873739  1
  Ti  Ti11  1  0.345252  0.505990  0.374829  1
  Ti  Ti12  1  0.845001  0.995524  0.376644  1
  Ti  Ti13  1  0.005355  0.155432  0.125820  1
  Ti  Ti14  1  0.996662  0.845434  0.623811  1
  Re  Re15  1  0.169008  0.829417  0.249206  1
  Re  Re16  1  0.826681  0.169541  0.747080  1
  Re  Re17  1  0.669755  0.670314  0.499932  1
  Re  Re18  1  0.161721  0.993948  0.876529  1
  Si  Si19  1  0.197901  0.128194  0.685615  1
  Si  Si20  1  0.373946  0.705453  0.932692  1
  Si  Si21  1  0.628287  0.299258  0.433677  1
  Si  Si22  1  0.703702  0.369933  0.066058  1
  Si  Si23  1  0.300227  0.629763  0.567386  1
  Si  Si24  1  0.800292  0.870193  0.183187  1
  Si  Si25  1  0.129567  0.200332  0.317684  1
  Si  Si26  1  0.874198  0.804881  0.816791  1
  Si  Si27  1  0.292296  0.957051  0.064462  1
  Si  Si28  1  0.543934  0.792004  0.316454  1
  Si  Si29  1  0.451126  0.209486  0.816775  1
  Si  Si30  1  0.790768  0.546927  0.682797  1
  Si  Si31  1  0.207201  0.456250  0.184759  1
  Si  Si32  1  0.708400  0.044596  0.566354  1
  Si  Si33  1  0.959412  0.284496  0.932037  1
  Si  Si34  1  0.044501  0.708474  0.432783  1
  Mo  Mo35  1  0.328856  0.331760  0.000821  1
