# generated using pymatgen
data_Dy4Zn3Ga5Ag4
_symmetry_space_group_name_H-M   'P 1'
_cell_length_a   4.32981100
_cell_length_b   6.95017501
_cell_length_c   10.31103914
_cell_angle_alpha   89.99390052
_cell_angle_beta   90.00000000
_cell_angle_gamma   90.00000000
_symmetry_Int_Tables_number   1
_chemical_formula_structural   Dy4Zn3Ga5Ag4
_chemical_formula_sum   'Dy4 Zn3 Ga5 Ag4'
_cell_volume   310.28952392
_cell_formula_units_Z   1
loop_
 _symmetry_equiv_pos_site_id
 _symmetry_equiv_pos_as_xyz
  1  'x, y, z'
loop_
 _atom_site_type_symbol
 _atom_site_label
 _atom_site_symmetry_multiplicity
 _atom_site_fract_x
 _atom_site_fract_y
 _atom_site_fract_z
 _atom_site_occupancy
  Dy  Dy0  1  0.250000  0.780961  0.828806  1
  Dy  Dy1  1  0.750000  0.216039  0.169885  1
  Dy  Dy2  1  0.750000  0.720762  0.328314  1
  Dy  Dy3  1  0.250000  0.281528  0.672578  1
  Zn  Zn4  1  0.250000  0.923588  0.148896  1
  Zn  Zn5  1  0.750000  0.076526  0.850351  1
  Zn  Zn6  1  0.750000  0.577331  0.651135  1
  Ga  Ga7  1  0.250000  0.424843  0.347609  1
  Ga  Ga8  1  0.250000  0.702710  0.538539  1
  Ga  Ga9  1  0.750000  0.297143  0.466067  1
  Ga  Ga10  1  0.750000  0.798137  0.037720  1
  Ga  Ga11  1  0.250000  0.200632  0.962809  1
  Ag  Ag12  1  0.250000  0.541640  0.097999  1
  Ag  Ag13  1  0.750000  0.458753  0.900372  1
  Ag  Ag14  1  0.750000  0.958479  0.599679  1
  Ag  Ag15  1  0.250000  0.040929  0.399241  1
