# generated using pymatgen
data_Sc22InTc6Os
_symmetry_space_group_name_H-M   'P 1'
_cell_length_a   9.65708318
_cell_length_b   9.52816857
_cell_length_c   9.65708430
_cell_angle_alpha   60.44062182
_cell_angle_beta   58.72874800
_cell_angle_gamma   60.44061608
_symmetry_Int_Tables_number   1
_chemical_formula_structural   Sc22InTc6Os
_chemical_formula_sum   'Sc22 In1 Tc6 Os1'
_cell_volume   626.10444152
_cell_formula_units_Z   1
loop_
 _symmetry_equiv_pos_site_id
 _symmetry_equiv_pos_as_xyz
  1  'x, y, z'
loop_
 _atom_site_type_symbol
 _atom_site_label
 _atom_site_symmetry_multiplicity
 _atom_site_fract_x
 _atom_site_fract_y
 _atom_site_fract_z
 _atom_site_occupancy
  Sc  Sc0  1  0.844281  0.845953  0.844281  1
  Sc  Sc1  1  0.520982  0.170357  0.138303  1
  Sc  Sc2  1  0.138303  0.170357  0.520982  1
  Sc  Sc3  1  0.155719  0.534514  0.155719  1
  Sc  Sc4  1  0.861697  0.829643  0.479018  1
  Sc  Sc5  1  0.844281  0.465486  0.844281  1
  Sc  Sc6  1  0.479018  0.829643  0.861697  1
  Sc  Sc7  1  0.155719  0.154047  0.155719  1
  Sc  Sc8  1  0.197490  0.802510  0.197490  1
  Sc  Sc9  1  0.198358  0.806862  0.801642  1
  Sc  Sc10  1  0.801642  0.193138  0.198358  1
  Sc  Sc11  1  0.801642  0.806862  0.198358  1
  Sc  Sc12  1  0.198358  0.193138  0.801642  1
  Sc  Sc13  1  0.802510  0.197490  0.802510  1
  Sc  Sc14  1  0.375025  0.402008  0.375025  1
  Sc  Sc15  1  0.150387  0.610773  0.628067  1
  Sc  Sc16  1  0.624975  0.152058  0.624975  1
  Sc  Sc17  1  0.628067  0.610773  0.150387  1
  Sc  Sc18  1  0.375025  0.847942  0.375025  1
  Sc  Sc19  1  0.371933  0.389227  0.849613  1
  Sc  Sc20  1  0.849613  0.389227  0.371933  1
  Sc  Sc21  1  0.624975  0.597992  0.624975  1
  In  In22  1  0.500000  0.000000  0.500000  1
  Tc  Tc23  1  0.500000  0.500000  0.000000  1
  Tc  Tc24  1  0.000000  0.000000  0.500000  1
  Tc  Tc25  1  0.000000  0.500000  0.500000  1
  Tc  Tc26  1  0.500000  0.000000  0.000000  1
  Tc  Tc27  1  0.000000  0.500000  0.000000  1
  Tc  Tc28  1  0.000000  0.000000  0.000000  1
  Os  Os29  1  0.500000  0.500000  0.500000  1
