# generated using pymatgen
data_Tb15Y(TmIr3)4
_symmetry_space_group_name_H-M   'P 1'
_cell_length_a   10.91897606
_cell_length_b   10.91873412
_cell_length_c   6.36993705
_cell_angle_alpha   89.98704871
_cell_angle_beta   89.99397540
_cell_angle_gamma   90.01089330
_symmetry_Int_Tables_number   1
_chemical_formula_structural   Tb15Y(TmIr3)4
_chemical_formula_sum   'Tb15 Y1 Tm4 Ir12'
_cell_volume   759.43275333
_cell_formula_units_Z   1
loop_
 _symmetry_equiv_pos_site_id
 _symmetry_equiv_pos_as_xyz
  1  'x, y, z'
loop_
 _atom_site_type_symbol
 _atom_site_label
 _atom_site_symmetry_multiplicity
 _atom_site_fract_x
 _atom_site_fract_y
 _atom_site_fract_z
 _atom_site_occupancy
  Tb  Tb0  1  0.290415  0.087691  0.377395  1
  Tb  Tb1  1  0.290362  0.912383  0.877520  1
  Tb  Tb2  1  0.709687  0.087691  0.877493  1
  Tb  Tb3  1  0.709618  0.912329  0.377552  1
  Tb  Tb4  1  0.587670  0.790356  0.877482  1
  Tb  Tb5  1  0.587653  0.209627  0.377568  1
  Tb  Tb6  1  0.412333  0.790367  0.377512  1
  Tb  Tb7  1  0.412303  0.209646  0.877565  1
  Tb  Tb8  1  0.209590  0.412279  0.622418  1
  Tb  Tb9  1  0.209575  0.587555  0.122456  1
  Tb  Tb10  1  0.790423  0.412311  0.122539  1
  Tb  Tb11  1  0.790341  0.587641  0.622495  1
  Tb  Tb12  1  0.912363  0.709591  0.122508  1
  Tb  Tb13  1  0.912404  0.290348  0.622384  1
  Tb  Tb14  1  0.087690  0.709685  0.622528  1
  Y  Y15  1  0.087621  0.290339  0.122511  1
  Tm  Tm16  1  0.999983  0.000021  0.499985  1
  Tm  Tm17  1  0.000025  0.000087  0.000075  1
  Tm  Tm18  1  0.499988  0.499953  0.000042  1
  Tm  Tm19  1  0.500018  0.500021  0.500052  1
  Ir  Ir20  1  0.848240  0.151626  0.250008  1
  Ir  Ir21  1  0.848267  0.848258  0.750009  1
  Ir  Ir22  1  0.151719  0.151617  0.749774  1
  Ir  Ir23  1  0.151697  0.848283  0.250016  1
  Ir  Ir24  1  0.651707  0.348290  0.749989  1
  Ir  Ir25  1  0.651709  0.651745  0.249991  1
  Ir  Ir26  1  0.348391  0.348285  0.250083  1
  Ir  Ir27  1  0.348293  0.651728  0.750001  1
  Ir  Ir28  1  0.500001  0.000009  0.122239  1
  Ir  Ir29  1  0.500003  0.000007  0.622242  1
  Ir  Ir30  1  0.999937  0.500119  0.877599  1
  Ir  Ir31  1  0.999974  0.500113  0.377969  1
