# generated using pymatgen
data_Ba12Si15As
_symmetry_space_group_name_H-M   'P 1'
_cell_length_a   8.60334010
_cell_length_b   8.60334010
_cell_length_c   11.86780592
_cell_angle_alpha   90.11406039
_cell_angle_beta   90.11406039
_cell_angle_gamma   90.41657598
_symmetry_Int_Tables_number   1
_chemical_formula_structural   Ba12Si15As
_chemical_formula_sum   'Ba12 Si15 As1'
_cell_volume   878.39813599
_cell_formula_units_Z   1
loop_
 _symmetry_equiv_pos_site_id
 _symmetry_equiv_pos_as_xyz
  1  'x, y, z'
loop_
 _atom_site_type_symbol
 _atom_site_label
 _atom_site_symmetry_multiplicity
 _atom_site_fract_x
 _atom_site_fract_y
 _atom_site_fract_z
 _atom_site_occupancy
  Ba  Ba0  1  0.496970  0.001939  0.747190  1
  Ba  Ba1  1  0.499559  0.002726  0.252447  1
  Ba  Ba2  1  0.001939  0.496970  0.747190  1
  Ba  Ba3  1  0.002726  0.499559  0.252447  1
  Ba  Ba4  1  0.002120  0.002120  0.832696  1
  Ba  Ba5  1  0.497682  0.497682  0.331685  1
  Ba  Ba6  1  0.499313  0.499313  0.667182  1
  Ba  Ba7  1  0.001139  0.001139  0.169555  1
  Ba  Ba8  1  0.663749  0.663749  0.002564  1
  Ba  Ba9  1  0.834259  0.168309  0.499867  1
  Ba  Ba10  1  0.168309  0.834259  0.499867  1
  Ba  Ba11  1  0.335395  0.335395  0.000151  1
  Si  Si12  1  0.201445  0.201445  0.646053  1
  Si  Si13  1  0.795657  0.795657  0.350366  1
  Si  Si14  1  0.300596  0.700221  0.145517  1
  Si  Si15  1  0.700221  0.300596  0.145517  1
  Si  Si16  1  0.700315  0.300242  0.854089  1
  Si  Si17  1  0.300242  0.700315  0.854089  1
  Si  Si18  1  0.202030  0.202030  0.355149  1
  Si  Si19  1  0.699587  0.101553  0.999460  1
  Si  Si20  1  0.301112  0.899046  0.000217  1
  Si  Si21  1  0.101553  0.699587  0.999460  1
  Si  Si22  1  0.599868  0.802333  0.495961  1
  Si  Si23  1  0.899046  0.301112  0.000217  1
  Si  Si24  1  0.195735  0.400499  0.500911  1
  Si  Si25  1  0.802333  0.599868  0.495961  1
  Si  Si26  1  0.400499  0.195735  0.500911  1
  As  As27  1  0.796598  0.796598  0.653283  1
