# generated using pymatgen
data_V12Ga(SiSe12)2
_symmetry_space_group_name_H-M   'P 1'
_cell_length_a   12.46100986
_cell_length_b   12.46101041
_cell_length_c   12.46100964
_cell_angle_alpha   146.29182194
_cell_angle_beta   131.86541314
_cell_angle_gamma   60.04907600
_symmetry_Int_Tables_number   1
_chemical_formula_structural   V12Ga(SiSe12)2
_chemical_formula_sum   'V12 Ga1 Si2 Se24'
_cell_volume   792.32126672
_cell_formula_units_Z   1
loop_
 _symmetry_equiv_pos_site_id
 _symmetry_equiv_pos_as_xyz
  1  'x, y, z'
loop_
 _atom_site_type_symbol
 _atom_site_label
 _atom_site_symmetry_multiplicity
 _atom_site_fract_x
 _atom_site_fract_y
 _atom_site_fract_z
 _atom_site_occupancy
  V  V0  1  0.730469  0.129670  0.193481  1
  V  V1  1  0.397093  0.797323  0.194415  1
  V  V2  1  0.063811  0.463012  0.193481  1
  V  V3  1  0.867806  0.265638  0.602168  1
  V  V4  1  0.534622  0.932032  0.602590  1
  V  V5  1  0.201371  0.598116  0.603255  1
  V  V6  1  0.005139  0.401884  0.603255  1
  V  V7  1  0.670558  0.067968  0.602590  1
  V  V8  1  0.336529  0.734362  0.602168  1
  V  V9  1  0.730469  0.536988  0.600799  1
  V  V10  1  0.397093  0.202677  0.599769  1
  V  V11  1  0.063811  0.870330  0.600799  1
  Ga  Ga12  1  0.000326  0.000000  0.000326  1
  Si  Si13  1  0.666764  0.666803  0.999961  1
  Si  Si14  1  0.333159  0.333197  0.999961  1
  Se  Se15  1  0.467261  0.600352  0.401491  1
  Se  Se16  1  0.139872  0.276600  0.416472  1
  Se  Se17  1  0.801140  0.934230  0.401491  1
  Se  Se18  1  0.621309  0.756042  0.865266  1
  Se  Se19  1  0.289895  0.422702  0.867193  1
  Se  Se20  1  0.953292  0.093160  0.860131  1
  Se  Se21  1  0.766971  0.906840  0.860131  1
  Se  Se22  1  0.444489  0.577298  0.867193  1
  Se  Se23  1  0.109224  0.243958  0.865266  1
  Se  Se24  1  0.467261  0.065770  0.866910  1
  Se  Se25  1  0.139872  0.723400  0.863272  1
  Se  Se26  1  0.801140  0.399648  0.866910  1
  Se  Se27  1  0.630778  0.264279  0.895057  1
  Se  Se28  1  0.296747  0.930758  0.895282  1
  Se  Se29  1  0.964525  0.598535  0.895282  1
  Se  Se30  1  0.457640  0.088525  0.369116  1
  Se  Se31  1  0.123766  0.754978  0.368788  1
  Se  Se32  1  0.791662  0.421988  0.369672  1
  Se  Se33  1  0.280592  0.911475  0.369116  1
  Se  Se34  1  0.947684  0.578012  0.369672  1
  Se  Se35  1  0.613809  0.245022  0.368788  1
  Se  Se36  1  0.630778  0.735721  0.366499  1
  Se  Se37  1  0.296747  0.401465  0.365989  1
  Se  Se38  1  0.964525  0.069242  0.365989  1
