# generated using pymatgen
data_ErTm3Mg2(Ni7B2)2
_symmetry_space_group_name_H-M   'P 1'
_cell_length_a   4.97101700
_cell_length_b   4.97101725
_cell_length_c   14.18273600
_cell_angle_alpha   90.00000000
_cell_angle_beta   90.00000000
_cell_angle_gamma   120.00000502
_symmetry_Int_Tables_number   1
_chemical_formula_structural   ErTm3Mg2(Ni7B2)2
_chemical_formula_sum   'Er1 Tm3 Mg2 Ni14 B4'
_cell_volume   303.51569026
_cell_formula_units_Z   1
loop_
 _symmetry_equiv_pos_site_id
 _symmetry_equiv_pos_as_xyz
  1  'x, y, z'
loop_
 _atom_site_type_symbol
 _atom_site_label
 _atom_site_symmetry_multiplicity
 _atom_site_fract_x
 _atom_site_fract_y
 _atom_site_fract_z
 _atom_site_occupancy
  Er  Er0  1  0.666667  0.333333  0.469517  1
  Tm  Tm1  1  0.333333  0.666667  0.969678  1
  Tm  Tm2  1  0.333333  0.666667  0.745068  1
  Tm  Tm3  1  0.666667  0.333333  0.244732  1
  Mg  Mg4  1  0.333333  0.666667  0.533761  1
  Mg  Mg5  1  0.666667  0.333333  0.033235  1
  Ni  Ni6  1  0.000000  0.000000  0.001013  1
  Ni  Ni7  1  0.000000  0.000000  0.500975  1
  Ni  Ni8  1  0.165773  0.331547  0.146479  1
  Ni  Ni9  1  0.834183  0.668366  0.646515  1
  Ni  Ni10  1  0.668453  0.834227  0.146479  1
  Ni  Ni11  1  0.165773  0.834227  0.146479  1
  Ni  Ni12  1  0.834183  0.165817  0.646515  1
  Ni  Ni13  1  0.331634  0.165817  0.646515  1
  Ni  Ni14  1  0.833590  0.667179  0.853234  1
  Ni  Ni15  1  0.833590  0.166410  0.853234  1
  Ni  Ni16  1  0.332821  0.166410  0.853234  1
  Ni  Ni17  1  0.667335  0.833668  0.353004  1
  Ni  Ni18  1  0.166332  0.833668  0.353004  1
  Ni  Ni19  1  0.166332  0.332665  0.353004  1
  B  B20  1  0.333333  0.666667  0.250119  1
  B  B21  1  0.666667  0.333333  0.750071  1
  B  B22  1  0.000000  0.000000  0.251975  1
  B  B23  1  0.000000  0.000000  0.752155  1
