# generated using pymatgen
data_Pa4Sn2PtRh3
_symmetry_space_group_name_H-M   'P 1'
_cell_length_a   7.72788500
_cell_length_b   7.72788500
_cell_length_c   3.62319800
_cell_angle_alpha   90.00000000
_cell_angle_beta   90.00000000
_cell_angle_gamma   90.05836427
_symmetry_Int_Tables_number   1
_chemical_formula_structural   Pa4Sn2PtRh3
_chemical_formula_sum   'Pa4 Sn2 Pt1 Rh3'
_cell_volume   216.37802089
_cell_formula_units_Z   1
loop_
 _symmetry_equiv_pos_site_id
 _symmetry_equiv_pos_as_xyz
  1  'x, y, z'
loop_
 _atom_site_type_symbol
 _atom_site_label
 _atom_site_symmetry_multiplicity
 _atom_site_fract_x
 _atom_site_fract_y
 _atom_site_fract_z
 _atom_site_occupancy
  Pa  Pa0  1  0.323585  0.172418  0.500000  1
  Pa  Pa1  1  0.672418  0.823585  0.500000  1
  Pa  Pa2  1  0.173148  0.673148  0.500000  1
  Pa  Pa3  1  0.832738  0.332738  0.500000  1
  Sn  Sn4  1  0.003213  0.998882  0.000000  1
  Sn  Sn5  1  0.498882  0.503213  0.000000  1
  Pt  Pt6  1  0.628908  0.128908  0.000000  1
  Rh  Rh7  1  0.867514  0.632319  0.000000  1
  Rh  Rh8  1  0.367274  0.867274  0.000000  1
  Rh  Rh9  1  0.132319  0.367514  0.000000  1
