# generated using pymatgen
data_Na5Th3InI18
_symmetry_space_group_name_H-M   'P 1'
_cell_length_a   8.06918001
_cell_length_b   9.02970931
_cell_length_c   20.17390972
_cell_angle_alpha   95.35019971
_cell_angle_beta   90.01214588
_cell_angle_gamma   116.62343163
_symmetry_Int_Tables_number   1
_chemical_formula_structural   Na5Th3InI18
_chemical_formula_sum   'Na5 Th3 In1 I18'
_cell_volume   1306.88253243
_cell_formula_units_Z   1
loop_
 _symmetry_equiv_pos_site_id
 _symmetry_equiv_pos_as_xyz
  1  'x, y, z'
loop_
 _atom_site_type_symbol
 _atom_site_label
 _atom_site_symmetry_multiplicity
 _atom_site_fract_x
 _atom_site_fract_y
 _atom_site_fract_z
 _atom_site_occupancy
  Na  Na0  1  0.767837  0.533197  0.555694  1
  Na  Na1  1  0.908462  0.812393  0.775812  1
  Na  Na2  1  0.099919  0.199737  0.223778  1
  Na  Na3  1  0.231823  0.463689  0.440339  1
  Na  Na4  1  0.559755  0.126885  0.107895  1
  Th  Th5  1  0.007341  0.999427  0.001655  1
  Th  Th6  1  0.327534  0.667607  0.665413  1
  Th  Th7  1  0.666251  0.332710  0.332753  1
  In  In8  1  0.665657  0.320340  0.840280  1
  I  I9  1  0.644032  0.980591  0.740402  1
  I  I10  1  0.802068  0.213941  0.977390  1
  I  I11  1  0.207262  0.118988  0.870682  1
  I  I12  1  0.120326  0.571810  0.793957  1
  I  I13  1  0.547948  0.469433  0.695698  1
  I  I14  1  0.968898  0.644797  0.414932  1
  I  I15  1  0.702253  0.697548  0.915945  1
  I  I16  1  0.117769  0.868833  0.635421  1
  I  I17  1  0.548575  0.764797  0.538124  1
  I  I18  1  0.448102  0.230513  0.460873  1
  I  I19  1  0.880070  0.133577  0.363341  1
  I  I20  1  0.308392  0.314523  0.082314  1
  I  I21  1  0.029386  0.352950  0.584792  1
  I  I22  1  0.453684  0.533020  0.303113  1
  I  I23  1  0.884150  0.434551  0.205753  1
  I  I24  1  0.778778  0.897714  0.126968  1
  I  I25  1  0.213940  0.802838  0.030739  1
  I  I26  1  0.363123  0.020261  0.252602  1
