# generated using pymatgen
data_Th14Re4OsRu
_symmetry_space_group_name_H-M   'P 1'
_cell_length_a   10.04730892
_cell_length_b   10.00328710
_cell_length_c   6.33916492
_cell_angle_alpha   90.03221199
_cell_angle_beta   89.73616658
_cell_angle_gamma   119.77858057
_symmetry_Int_Tables_number   1
_chemical_formula_structural   Th14Re4OsRu
_chemical_formula_sum   'Th14 Re4 Os1 Ru1'
_cell_volume   552.98630539
_cell_formula_units_Z   1
loop_
 _symmetry_equiv_pos_site_id
 _symmetry_equiv_pos_as_xyz
  1  'x, y, z'
loop_
 _atom_site_type_symbol
 _atom_site_label
 _atom_site_symmetry_multiplicity
 _atom_site_fract_x
 _atom_site_fract_y
 _atom_site_fract_z
 _atom_site_occupancy
  Th  Th0  1  0.460090  0.536479  0.297456  1
  Th  Th1  1  0.076724  0.538911  0.295677  1
  Th  Th2  1  0.920787  0.459765  0.798129  1
  Th  Th3  1  0.253480  0.126446  0.507378  1
  Th  Th4  1  0.542217  0.078191  0.797783  1
  Th  Th5  1  0.749276  0.874515  0.009286  1
  Th  Th6  1  0.666526  0.333473  0.281664  1
  Th  Th7  1  0.126449  0.874464  0.004912  1
  Th  Th8  1  0.458830  0.922831  0.297847  1
  Th  Th9  1  0.541145  0.463632  0.798143  1
  Th  Th10  1  0.873477  0.125583  0.507708  1
  Th  Th11  1  0.126147  0.251883  0.005516  1
  Th  Th12  1  0.874038  0.748775  0.507990  1
  Th  Th13  1  0.332554  0.666169  0.781840  1
  Re  Re14  1  0.817341  0.630593  0.050303  1
  Re  Re15  1  0.816671  0.186591  0.050748  1
  Re  Re16  1  0.624759  0.812119  0.551433  1
  Re  Re17  1  0.369721  0.184701  0.047277  1
  Os  Os18  1  0.184978  0.373040  0.546794  1
  Ru  Ru19  1  0.184791  0.811840  0.546114  1
