# generated using pymatgen
data_Tb2YHf5Pt4
_symmetry_space_group_name_H-M   'P 1'
_cell_length_a   4.63108300
_cell_length_b   6.99062255
_cell_length_c   8.19246800
_cell_angle_alpha   89.70850161
_cell_angle_beta   90.00000000
_cell_angle_gamma   90.00000000
_symmetry_Int_Tables_number   1
_chemical_formula_structural   Tb2YHf5Pt4
_chemical_formula_sum   'Tb2 Y1 Hf5 Pt4'
_cell_volume   265.22078222
_cell_formula_units_Z   1
loop_
 _symmetry_equiv_pos_site_id
 _symmetry_equiv_pos_as_xyz
  1  'x, y, z'
loop_
 _atom_site_type_symbol
 _atom_site_label
 _atom_site_symmetry_multiplicity
 _atom_site_fract_x
 _atom_site_fract_y
 _atom_site_fract_z
 _atom_site_occupancy
  Tb  Tb0  1  0.750000  0.013728  0.675568  1
  Tb  Tb1  1  0.750000  0.514285  0.819532  1
  Y  Y2  1  0.250000  0.482539  0.182455  1
  Hf  Hf3  1  0.250000  0.851054  0.927165  1
  Hf  Hf4  1  0.250000  0.348148  0.577276  1
  Hf  Hf5  1  0.750000  0.143324  0.084292  1
  Hf  Hf6  1  0.750000  0.654880  0.419032  1
  Hf  Hf7  1  0.250000  0.985866  0.326965  1
  Pt  Pt8  1  0.250000  0.228594  0.905746  1
  Pt  Pt9  1  0.250000  0.737983  0.585701  1
  Pt  Pt10  1  0.750000  0.770535  0.095612  1
  Pt  Pt11  1  0.750000  0.269062  0.400656  1
