# generated using pymatgen
data_Dy4MnAl(Co2B)6
_symmetry_space_group_name_H-M   'P 1'
_cell_length_a   5.10165703
_cell_length_b   5.10165683
_cell_length_c   12.54123800
_cell_angle_alpha   90.00000000
_cell_angle_beta   90.00000000
_cell_angle_gamma   120.01209315
_symmetry_Int_Tables_number   1
_chemical_formula_structural   Dy4MnAl(Co2B)6
_chemical_formula_sum   'Dy4 Mn1 Al1 Co12 B6'
_cell_volume   282.64454400
_cell_formula_units_Z   1
loop_
 _symmetry_equiv_pos_site_id
 _symmetry_equiv_pos_as_xyz
  1  'x, y, z'
loop_
 _atom_site_type_symbol
 _atom_site_label
 _atom_site_symmetry_multiplicity
 _atom_site_fract_x
 _atom_site_fract_y
 _atom_site_fract_z
 _atom_site_occupancy
  Dy  Dy0  1  0.999998  0.000002  0.259451  1
  Dy  Dy1  1  0.000001  0.999999  0.500000  1
  Dy  Dy2  1  0.999991  0.000009  0.000000  1
  Dy  Dy3  1  0.999998  0.000002  0.740549  1
  Mn  Mn4  1  0.333386  0.666614  0.000000  1
  Al  Al5  1  0.666685  0.333315  0.000000  1
  Co  Co6  1  0.499890  0.999780  0.614643  1
  Co  Co7  1  0.499446  0.998906  0.841293  1
  Co  Co8  1  0.499452  0.500548  0.841277  1
  Co  Co9  1  0.499886  0.500114  0.385359  1
  Co  Co10  1  0.000220  0.500110  0.614643  1
  Co  Co11  1  0.001094  0.500554  0.158707  1
  Co  Co12  1  0.001094  0.500554  0.841293  1
  Co  Co13  1  0.499452  0.500548  0.158723  1
  Co  Co14  1  0.499890  0.999780  0.385357  1
  Co  Co15  1  0.499446  0.998906  0.158707  1
  Co  Co16  1  0.499886  0.500114  0.614641  1
  Co  Co17  1  0.000220  0.500110  0.385357  1
  B  B18  1  0.666657  0.333343  0.731234  1
  B  B19  1  0.333332  0.666668  0.731299  1
  B  B20  1  0.333332  0.666668  0.268701  1
  B  B21  1  0.666684  0.333316  0.500000  1
  B  B22  1  0.666657  0.333343  0.268766  1
  B  B23  1  0.333305  0.666695  0.500000  1
