# generated using pymatgen
data_La6Nd10Cd4Ir3Pd
_symmetry_space_group_name_H-M   'P 1'
_cell_length_a   10.00864289
_cell_length_b   10.03877902
_cell_length_c   10.03877837
_cell_angle_alpha   59.98826145
_cell_angle_beta   60.38668269
_cell_angle_gamma   60.38668809
_symmetry_Int_Tables_number   1
_chemical_formula_structural   La6Nd10Cd4Ir3Pd
_chemical_formula_sum   'La6 Nd10 Cd4 Ir3 Pd1'
_cell_volume   717.29324045
_cell_formula_units_Z   1
loop_
 _symmetry_equiv_pos_site_id
 _symmetry_equiv_pos_as_xyz
  1  'x, y, z'
loop_
 _atom_site_type_symbol
 _atom_site_label
 _atom_site_symmetry_multiplicity
 _atom_site_fract_x
 _atom_site_fract_y
 _atom_site_fract_z
 _atom_site_occupancy
  La  La0  1  0.345671  0.347373  0.347373  1
  La  La1  1  0.352736  0.351348  0.951242  1
  La  La2  1  0.352736  0.951242  0.351348  1
  La  La3  1  0.951824  0.352265  0.352265  1
  La  La4  1  0.804816  0.189282  0.189282  1
  La  La5  1  0.187151  0.811713  0.811713  1
  Nd  Nd6  1  0.190820  0.804635  0.191112  1
  Nd  Nd7  1  0.809570  0.189456  0.809517  1
  Nd  Nd8  1  0.190820  0.191112  0.804635  1
  Nd  Nd9  1  0.809570  0.809517  0.189456  1
  Nd  Nd10  1  0.938277  0.563669  0.563669  1
  Nd  Nd11  1  0.564839  0.936846  0.936846  1
  Nd  Nd12  1  0.563320  0.938535  0.563516  1
  Nd  Nd13  1  0.937038  0.564816  0.937037  1
  Nd  Nd14  1  0.563320  0.563516  0.938535  1
  Nd  Nd15  1  0.937038  0.937037  0.564816  1
  Cd  Cd16  1  0.581596  0.579912  0.579912  1
  Cd  Cd17  1  0.579577  0.581063  0.259222  1
  Cd  Cd18  1  0.579577  0.259222  0.581063  1
  Cd  Cd19  1  0.259213  0.579538  0.579538  1
  Ir  Ir20  1  0.142500  0.139142  0.573621  1
  Ir  Ir21  1  0.142500  0.573621  0.139142  1
  Ir  Ir22  1  0.573972  0.142463  0.142463  1
  Pd  Pd23  1  0.141515  0.142671  0.142671  1
