# generated using pymatgen
data_Er3Zr2(In2Rh)2
_symmetry_space_group_name_H-M   'P 1'
_cell_length_a   3.51452500
_cell_length_b   7.96267800
_cell_length_c   17.81443800
_cell_angle_alpha   90.00000000
_cell_angle_beta   90.00000000
_cell_angle_gamma   90.00000000
_symmetry_Int_Tables_number   1
_chemical_formula_structural   Er3Zr2(In2Rh)2
_chemical_formula_sum   'Er6 Zr4 In8 Rh4'
_cell_volume   498.53759786
_cell_formula_units_Z   2
loop_
 _symmetry_equiv_pos_site_id
 _symmetry_equiv_pos_as_xyz
  1  'x, y, z'
loop_
 _atom_site_type_symbol
 _atom_site_label
 _atom_site_symmetry_multiplicity
 _atom_site_fract_x
 _atom_site_fract_y
 _atom_site_fract_z
 _atom_site_occupancy
  Er  Er0  1  0.000000  0.000000  0.000000  1
  Er  Er1  1  0.000000  0.500000  0.500000  1
  Er  Er2  1  0.000000  0.748811  0.782188  1
  Er  Er3  1  0.000000  0.251189  0.217812  1
  Er  Er4  1  0.000000  0.248811  0.717812  1
  Er  Er5  1  0.000000  0.751189  0.282188  1
  Zr  Zr6  1  0.000000  0.876175  0.587045  1
  Zr  Zr7  1  0.000000  0.123825  0.412955  1
  Zr  Zr8  1  0.000000  0.376175  0.912955  1
  Zr  Zr9  1  0.000000  0.623825  0.087045  1
  In  In10  1  0.500000  0.807299  0.438719  1
  In  In11  1  0.500000  0.192701  0.561281  1
  In  In12  1  0.500000  0.307299  0.061281  1
  In  In13  1  0.500000  0.692701  0.938719  1
  In  In14  1  0.500000  0.926113  0.150156  1
  In  In15  1  0.500000  0.073887  0.849844  1
  In  In16  1  0.500000  0.426113  0.349844  1
  In  In17  1  0.500000  0.573887  0.650156  1
  Rh  Rh18  1  0.500000  0.962453  0.691723  1
  Rh  Rh19  1  0.500000  0.037547  0.308277  1
  Rh  Rh20  1  0.500000  0.462453  0.808277  1
  Rh  Rh21  1  0.500000  0.537547  0.191723  1
