# generated using pymatgen
data_Er4Tc5OsRu2
_symmetry_space_group_name_H-M   'P 1'
_cell_length_a   5.27274739
_cell_length_b   5.27274715
_cell_length_c   9.11796900
_cell_angle_alpha   90.00000000
_cell_angle_beta   90.00000000
_cell_angle_gamma   120.90896165
_symmetry_Int_Tables_number   1
_chemical_formula_structural   Er4Tc5OsRu2
_chemical_formula_sum   'Er4 Tc5 Os1 Ru2'
_cell_volume   217.49611350
_cell_formula_units_Z   1
loop_
 _symmetry_equiv_pos_site_id
 _symmetry_equiv_pos_as_xyz
  1  'x, y, z'
loop_
 _atom_site_type_symbol
 _atom_site_label
 _atom_site_symmetry_multiplicity
 _atom_site_fract_x
 _atom_site_fract_y
 _atom_site_fract_z
 _atom_site_occupancy
  Er  Er0  1  0.334815  0.665185  0.435022  1
  Er  Er1  1  0.665662  0.334338  0.562833  1
  Er  Er2  1  0.665662  0.334338  0.937167  1
  Er  Er3  1  0.334815  0.665185  0.064978  1
  Tc  Tc4  1  0.170909  0.342130  0.750000  1
  Tc  Tc5  1  0.171800  0.828200  0.750000  1
  Tc  Tc6  1  0.339638  0.171699  0.250000  1
  Tc  Tc7  1  0.828301  0.660362  0.250000  1
  Tc  Tc8  1  0.657870  0.829091  0.750000  1
  Os  Os9  1  0.826664  0.173336  0.250000  1
  Ru  Ru10  1  0.001931  0.998069  0.000767  1
  Ru  Ru11  1  0.001931  0.998069  0.499233  1
