# generated using pymatgen
data_K3Au(BrO3)6
_symmetry_space_group_name_H-M   'P 1'
_cell_length_a   7.21671888
_cell_length_b   7.31379722
_cell_length_c   10.65592000
_cell_angle_alpha   98.83578228
_cell_angle_beta   110.94271216
_cell_angle_gamma   103.97481812
_symmetry_Int_Tables_number   1
_chemical_formula_structural   K3Au(BrO3)6
_chemical_formula_sum   'K3 Au1 Br6 O18'
_cell_volume   491.54817293
_cell_formula_units_Z   1
loop_
 _symmetry_equiv_pos_site_id
 _symmetry_equiv_pos_as_xyz
  1  'x, y, z'
loop_
 _atom_site_type_symbol
 _atom_site_label
 _atom_site_symmetry_multiplicity
 _atom_site_fract_x
 _atom_site_fract_y
 _atom_site_fract_z
 _atom_site_occupancy
  K  K0  1  0.359067  0.556985  0.272568  1
  K  K1  1  0.640933  0.443015  0.727432  1
  K  K2  1  0.000000  0.500000  0.500000  1
  Au  Au3  1  0.000000  0.000000  0.000000  1
  Br  Br4  1  0.513204  0.046586  0.195976  1
  Br  Br5  1  0.486796  0.953414  0.804024  1
  Br  Br6  1  0.775606  0.549053  0.121482  1
  Br  Br7  1  0.224394  0.450947  0.878518  1
  Br  Br8  1  0.122505  0.087279  0.355398  1
  Br  Br9  1  0.877495  0.912721  0.644602  1
  O  O10  1  0.618266  0.676876  0.142009  1
  O  O11  1  0.381734  0.323124  0.857991  1
  O  O12  1  0.006809  0.360654  0.725533  1
  O  O13  1  0.993191  0.639346  0.274467  1
  O  O14  1  0.579337  0.287467  0.253494  1
  O  O15  1  0.420663  0.712533  0.746506  1
  O  O16  1  0.082570  0.165463  0.196205  1
  O  O17  1  0.917430  0.834537  0.803795  1
  O  O18  1  0.286962  0.968581  0.033406  1
  O  O19  1  0.713038  0.031419  0.966594  1
  O  O20  1  0.298718  0.298504  0.461238  1
  O  O21  1  0.701282  0.701496  0.538762  1
  O  O22  1  0.906594  0.088106  0.377602  1
  O  O23  1  0.093406  0.911894  0.622398  1
  O  O24  1  0.571131  0.045214  0.693589  1
  O  O25  1  0.428869  0.954786  0.306411  1
  O  O26  1  0.143518  0.374140  0.995882  1
  O  O27  1  0.856482  0.625860  0.004118  1
