# generated using pymatgen
data_Y5Sc3(Co4P3)4
_symmetry_space_group_name_H-M   'P 1'
_cell_length_a   12.25699200
_cell_length_b   12.25699125
_cell_length_c   3.72728600
_cell_angle_alpha   90.00000000
_cell_angle_beta   90.00000000
_cell_angle_gamma   120.00000743
_symmetry_Int_Tables_number   1
_chemical_formula_structural   Y5Sc3(Co4P3)4
_chemical_formula_sum   'Y5 Sc3 Co16 P12'
_cell_volume   484.94344785
_cell_formula_units_Z   1
loop_
 _symmetry_equiv_pos_site_id
 _symmetry_equiv_pos_as_xyz
  1  'x, y, z'
loop_
 _atom_site_type_symbol
 _atom_site_label
 _atom_site_symmetry_multiplicity
 _atom_site_fract_x
 _atom_site_fract_y
 _atom_site_fract_z
 _atom_site_occupancy
  Y  Y0  1  0.666667  0.333333  0.000000  1
  Y  Y1  1  0.333333  0.666667  0.000000  1
  Y  Y2  1  0.815839  0.815839  0.500000  1
  Y  Y3  1  0.184161  0.000000  0.500000  1
  Y  Y4  1  0.000000  0.184161  0.500000  1
  Sc  Sc5  1  0.439849  0.439849  0.000000  1
  Sc  Sc6  1  0.560151  0.000000  0.000000  1
  Sc  Sc7  1  0.000000  0.560151  0.000000  1
  Co  Co8  1  0.875667  0.355262  0.500000  1
  Co  Co9  1  0.644738  0.520404  0.500000  1
  Co  Co10  1  0.479596  0.124333  0.500000  1
  Co  Co11  1  0.355262  0.875667  0.500000  1
  Co  Co12  1  0.520404  0.644738  0.500000  1
  Co  Co13  1  0.124333  0.479596  0.500000  1
  Co  Co14  1  0.804731  0.178975  0.000000  1
  Co  Co15  1  0.821025  0.625755  0.000000  1
  Co  Co16  1  0.374245  0.195269  0.000000  1
  Co  Co17  1  0.178975  0.804731  0.000000  1
  Co  Co18  1  0.625755  0.821025  0.000000  1
  Co  Co19  1  0.195269  0.374245  0.000000  1
  Co  Co20  1  0.278583  0.278583  0.500000  1
  Co  Co21  1  0.721417  0.000000  0.500000  1
  Co  Co22  1  0.000000  0.721417  0.500000  1
  Co  Co23  1  0.000000  0.000000  0.000000  1
  P  P24  1  0.692513  0.170777  0.500000  1
  P  P25  1  0.829223  0.521736  0.500000  1
  P  P26  1  0.478264  0.307487  0.500000  1
  P  P27  1  0.170777  0.692513  0.500000  1
  P  P28  1  0.521736  0.829223  0.500000  1
  P  P29  1  0.307487  0.478264  0.500000  1
  P  P30  1  0.179599  0.179599  0.000000  1
  P  P31  1  0.820401  0.000000  0.000000  1
  P  P32  1  0.000000  0.820401  0.000000  1
  P  P33  1  0.644875  0.644875  0.000000  1
  P  P34  1  0.355125  0.000000  0.000000  1
  P  P35  1  0.000000  0.355125  0.000000  1
