# generated using pymatgen
data_SnGe(As2O7)2
_symmetry_space_group_name_H-M   'P 1'
_cell_length_a   5.02943259
_cell_length_b   8.29341570
_cell_length_c   7.33540739
_cell_angle_alpha   90.42332449
_cell_angle_beta   105.83525967
_cell_angle_gamma   90.67224230
_symmetry_Int_Tables_number   1
_chemical_formula_structural   SnGe(As2O7)2
_chemical_formula_sum   'Sn1 Ge1 As4 O14'
_cell_volume   294.31894144
_cell_formula_units_Z   1
loop_
 _symmetry_equiv_pos_site_id
 _symmetry_equiv_pos_as_xyz
  1  'x, y, z'
loop_
 _atom_site_type_symbol
 _atom_site_label
 _atom_site_symmetry_multiplicity
 _atom_site_fract_x
 _atom_site_fract_y
 _atom_site_fract_z
 _atom_site_occupancy
  Sn  Sn0  1  0.222885  0.506921  0.735477  1
  Ge  Ge1  1  0.781474  0.006707  0.270922  1
  As  As2  1  0.395708  0.179657  0.499866  1
  As  As3  1  0.217277  0.784995  0.104973  1
  As  As4  1  0.769052  0.262169  0.904924  1
  As  As5  1  0.613733  0.690810  0.490241  1
  O  O6  1  0.055873  0.307092  0.832773  1
  O  O7  1  0.100451  0.680356  0.897814  1
  O  O8  1  0.139162  0.038088  0.446705  1
  O  O9  1  0.300914  0.374923  0.512609  1
  O  O10  1  0.422801  0.698471  0.649262  1
  O  O11  1  0.589741  0.431525  0.928325  1
  O  O12  1  0.568770  0.121260  0.737289  1
  O  O13  1  0.401941  0.635098  0.260225  1
  O  O14  1  0.424143  0.949091  0.096738  1
  O  O15  1  0.619506  0.185747  0.360341  1
  O  O16  1  0.711150  0.887276  0.474607  1
  O  O17  1  0.858804  0.547321  0.527055  1
  O  O18  1  0.890066  0.151995  0.104588  1
  O  O19  1  0.921851  0.824060  0.169869  1
