# generated using pymatgen
data_Ce3ErAl18Ir5Pt
_symmetry_space_group_name_H-M   'P 1'
_cell_length_a   7.62780629
_cell_length_b   7.62163077
_cell_length_c   9.44936151
_cell_angle_alpha   89.97623443
_cell_angle_beta   89.98641858
_cell_angle_gamma   119.60178030
_symmetry_Int_Tables_number   1
_chemical_formula_structural   Ce3ErAl18Ir5Pt
_chemical_formula_sum   'Ce3 Er1 Al18 Ir5 Pt1'
_cell_volume   477.64949134
_cell_formula_units_Z   1
loop_
 _symmetry_equiv_pos_site_id
 _symmetry_equiv_pos_as_xyz
  1  'x, y, z'
loop_
 _atom_site_type_symbol
 _atom_site_label
 _atom_site_symmetry_multiplicity
 _atom_site_fract_x
 _atom_site_fract_y
 _atom_site_fract_z
 _atom_site_occupancy
  Ce  Ce0  1  0.004406  0.328838  0.749083  1
  Ce  Ce1  1  0.670863  0.996306  0.250914  1
  Ce  Ce2  1  0.329197  0.003504  0.748955  1
  Er  Er3  1  0.994865  0.671432  0.250676  1
  Al  Al4  1  0.128172  0.127369  0.250282  1
  Al  Al5  1  0.870547  0.868253  0.749807  1
  Al  Al6  1  0.005288  0.337918  0.077735  1
  Al  Al7  1  0.000755  0.667846  0.926591  1
  Al  Al8  1  0.997964  0.664409  0.571992  1
  Al  Al9  1  0.333007  0.999705  0.423434  1
  Al  Al10  1  0.002349  0.337876  0.423175  1
  Al  Al11  1  0.664941  0.997051  0.574727  1
  Al  Al12  1  0.664725  0.994401  0.924253  1
  Al  Al13  1  0.329673  0.996943  0.077750  1
  Al  Al14  1  0.334601  0.334572  0.548512  1
  Al  Al15  1  0.667852  0.666098  0.446060  1
  Al  Al16  1  0.667178  0.668900  0.055880  1
  Al  Al17  1  0.331811  0.334888  0.949312  1
  Al  Al18  1  0.340757  0.550033  0.250280  1
  Al  Al19  1  0.659604  0.454111  0.747749  1
  Al  Al20  1  0.548789  0.342633  0.252436  1
  Al  Al21  1  0.451841  0.656976  0.749844  1
  Ir  Ir22  1  0.328273  0.672197  0.999978  1
  Ir  Ir23  1  0.328339  0.671992  0.500118  1
  Ir  Ir24  1  0.672230  0.327604  0.499954  1
  Ir  Ir25  1  0.999689  0.000272  0.000085  1
  Ir  Ir26  1  0.999944  0.000008  0.500015  1
  Pt  Pt27  1  0.672340  0.327864  0.000404  1
