# generated using pymatgen
data_Sr8LaEr11Sn16
_symmetry_space_group_name_H-M   'P 1'
_cell_length_a   8.06511271
_cell_length_b   8.51007561
_cell_length_c   16.01963200
_cell_angle_alpha   90.21145436
_cell_angle_beta   89.97593824
_cell_angle_gamma   91.88723517
_symmetry_Int_Tables_number   1
_chemical_formula_structural   Sr8LaEr11Sn16
_chemical_formula_sum   'Sr8 La1 Er11 Sn16'
_cell_volume   1098.89901245
_cell_formula_units_Z   1
loop_
 _symmetry_equiv_pos_site_id
 _symmetry_equiv_pos_as_xyz
  1  'x, y, z'
loop_
 _atom_site_type_symbol
 _atom_site_label
 _atom_site_symmetry_multiplicity
 _atom_site_fract_x
 _atom_site_fract_y
 _atom_site_fract_z
 _atom_site_occupancy
  Sr  Sr0  1  0.825272  0.664835  0.878821  1
  Sr  Sr1  1  0.502471  0.324920  0.905511  1
  Sr  Sr2  1  0.003404  0.176684  0.590823  1
  Sr  Sr3  1  0.500263  0.675230  0.407336  1
  Sr  Sr4  1  0.998058  0.822210  0.094186  1
  Sr  Sr5  1  0.500322  0.676473  0.093705  1
  Sr  Sr6  1  0.997578  0.822951  0.407643  1
  Sr  Sr7  1  0.502362  0.324267  0.593479  1
  La  La8  1  0.996773  0.181652  0.904218  1
  Er  Er9  1  0.328241  0.836024  0.874495  1
  Er  Er10  1  0.828458  0.662515  0.625274  1
  Er  Er11  1  0.671293  0.162187  0.376349  1
  Er  Er12  1  0.174477  0.336600  0.127225  1
  Er  Er13  1  0.667957  0.161147  0.126306  1
  Er  Er14  1  0.172636  0.337534  0.375353  1
  Er  Er15  1  0.325978  0.838969  0.622139  1
  Er  Er16  1  0.165660  0.495188  0.749643  1
  Er  Er17  1  0.664599  0.004670  0.748508  1
  Er  Er18  1  0.838046  0.501935  0.250964  1
  Er  Er19  1  0.331320  0.993635  0.250220  1
  Sn  Sn20  1  0.327711  0.046996  0.040977  1
  Sn  Sn21  1  0.837084  0.459004  0.456645  1
  Sn  Sn22  1  0.664110  0.956812  0.543345  1
  Sn  Sn23  1  0.174615  0.531289  0.957630  1
  Sn  Sn24  1  0.657673  0.971749  0.956808  1
  Sn  Sn25  1  0.164131  0.540601  0.543651  1
  Sn  Sn26  1  0.335323  0.044075  0.455980  1
  Sn  Sn27  1  0.843797  0.447455  0.047205  1
  Sn  Sn28  1  0.520187  0.639001  0.744718  1
  Sn  Sn29  1  0.030617  0.884667  0.748012  1
  Sn  Sn30  1  0.475950  0.360738  0.251655  1
  Sn  Sn31  1  0.970678  0.124717  0.251449  1
  Sn  Sn32  1  0.294858  0.132636  0.750823  1
  Sn  Sn33  1  0.804516  0.352594  0.747384  1
  Sn  Sn34  1  0.702348  0.869696  0.250515  1
  Sn  Sn35  1  0.201233  0.638345  0.251001  1
