# generated using pymatgen
data_Ho5Tm15CoBi8Ru3
_symmetry_space_group_name_H-M   'P 1'
_cell_length_a   7.88651769
_cell_length_b   8.93655900
_cell_length_c   12.32478872
_cell_angle_alpha   90.00000000
_cell_angle_beta   89.83782550
_cell_angle_gamma   90.00000000
_symmetry_Int_Tables_number   1
_chemical_formula_structural   Ho5Tm15CoBi8Ru3
_chemical_formula_sum   'Ho5 Tm15 Co1 Bi8 Ru3'
_cell_volume   868.62705517
_cell_formula_units_Z   1
loop_
 _symmetry_equiv_pos_site_id
 _symmetry_equiv_pos_as_xyz
  1  'x, y, z'
loop_
 _atom_site_type_symbol
 _atom_site_label
 _atom_site_symmetry_multiplicity
 _atom_site_fract_x
 _atom_site_fract_y
 _atom_site_fract_z
 _atom_site_occupancy
  Ho  Ho0  1  0.842298  0.250000  0.791445  1
  Ho  Ho1  1  0.120365  0.250000  0.192038  1
  Ho  Ho2  1  0.378633  0.250000  0.691339  1
  Ho  Ho3  1  0.945585  0.250000  0.502918  1
  Ho  Ho4  1  0.554963  0.250000  0.003867  1
  Tm  Tm5  1  0.344109  0.750000  0.701575  1
  Tm  Tm6  1  0.657101  0.250000  0.293051  1
  Tm  Tm7  1  0.156645  0.750000  0.206306  1
  Tm  Tm8  1  0.880405  0.750000  0.808007  1
  Tm  Tm9  1  0.615600  0.750000  0.313926  1
  Tm  Tm10  1  0.674363  0.546151  0.563759  1
  Tm  Tm11  1  0.327666  0.462080  0.436675  1
  Tm  Tm12  1  0.173696  0.458080  0.935604  1
  Tm  Tm13  1  0.327666  0.037920  0.436675  1
  Tm  Tm14  1  0.825303  0.544854  0.064596  1
  Tm  Tm15  1  0.674363  0.953849  0.563759  1
  Tm  Tm16  1  0.825303  0.955146  0.064596  1
  Tm  Tm17  1  0.173696  0.041920  0.935604  1
  Tm  Tm18  1  0.057960  0.750000  0.496857  1
  Tm  Tm19  1  0.442973  0.750000  0.995913  1
  Co  Co20  1  0.428471  0.750000  0.491625  1
  Bi  Bi21  1  0.568973  0.509616  0.827190  1
  Bi  Bi22  1  0.431011  0.493461  0.173185  1
  Bi  Bi23  1  0.070377  0.493210  0.671967  1
  Bi  Bi24  1  0.431011  0.006539  0.173185  1
  Bi  Bi25  1  0.929880  0.509473  0.328065  1
  Bi  Bi26  1  0.568973  0.990384  0.827190  1
  Bi  Bi27  1  0.929880  0.990527  0.328065  1
  Bi  Bi28  1  0.070377  0.006790  0.671967  1
  Ru  Ru29  1  0.073861  0.750000  0.989794  1
  Ru  Ru30  1  0.925345  0.250000  0.009917  1
  Ru  Ru31  1  0.573150  0.250000  0.509340  1
