# generated using pymatgen
data_Sc8Re11Si16W
_symmetry_space_group_name_H-M   'P 1'
_cell_length_a   6.63901862
_cell_length_b   6.63919226
_cell_length_c   12.46404070
_cell_angle_alpha   90.03788842
_cell_angle_beta   89.95747836
_cell_angle_gamma   90.10401150
_symmetry_Int_Tables_number   1
_chemical_formula_structural   Sc8Re11Si16W
_chemical_formula_sum   'Sc8 Re11 Si16 W1'
_cell_volume   549.38533311
_cell_formula_units_Z   1
loop_
 _symmetry_equiv_pos_site_id
 _symmetry_equiv_pos_as_xyz
  1  'x, y, z'
loop_
 _atom_site_type_symbol
 _atom_site_label
 _atom_site_symmetry_multiplicity
 _atom_site_fract_x
 _atom_site_fract_y
 _atom_site_fract_z
 _atom_site_occupancy
  Sc  Sc0  1  0.008752  0.657362  0.030943  1
  Sc  Sc1  1  0.990868  0.340451  0.531740  1
  Sc  Sc2  1  0.340422  0.990885  0.468275  1
  Sc  Sc3  1  0.157067  0.492240  0.781967  1
  Sc  Sc4  1  0.840401  0.506645  0.279725  1
  Sc  Sc5  1  0.492202  0.157070  0.218038  1
  Sc  Sc6  1  0.506619  0.840431  0.720286  1
  Sc  Sc7  1  0.657346  0.008760  0.969052  1
  Re  Re8  1  0.166877  0.831518  0.249778  1
  Re  Re9  1  0.332482  0.332462  0.000031  1
  Re  Re10  1  0.011427  0.817528  0.630799  1
  Re  Re11  1  0.981646  0.187565  0.134344  1
  Re  Re12  1  0.817503  0.011381  0.369174  1
  Re  Re13  1  0.319904  0.481849  0.382391  1
  Re  Re14  1  0.687724  0.520139  0.884582  1
  Re  Re15  1  0.481935  0.319945  0.617591  1
  Re  Re16  1  0.520216  0.687676  0.115350  1
  Re  Re17  1  0.187463  0.981701  0.865683  1
  Re  Re18  1  0.831637  0.166791  0.750212  1
  Si  Si19  1  0.029792  0.714077  0.435247  1
  Si  Si20  1  0.624068  0.299897  0.429377  1
  Si  Si21  1  0.379856  0.695981  0.929478  1
  Si  Si22  1  0.195947  0.121524  0.679389  1
  Si  Si23  1  0.299892  0.624070  0.570621  1
  Si  Si24  1  0.695982  0.379844  0.070508  1
  Si  Si25  1  0.805622  0.879923  0.180051  1
  Si  Si26  1  0.121492  0.195925  0.320608  1
  Si  Si27  1  0.974855  0.276110  0.938861  1
  Si  Si28  1  0.714068  0.029822  0.564752  1
  Si  Si29  1  0.224469  0.474699  0.187814  1
  Si  Si30  1  0.779460  0.525752  0.689606  1
  Si  Si31  1  0.474698  0.224464  0.812189  1
  Si  Si32  1  0.525741  0.779425  0.310386  1
  Si  Si33  1  0.276075  0.974854  0.061159  1
  Si  Si34  1  0.879908  0.805618  0.819935  1
  W  W35  1  0.665585  0.665618  0.500057  1
