# generated using pymatgen
data_Tm15Sc5GeBi11
_symmetry_space_group_name_H-M   'P 1'
_cell_length_a   7.97838023
_cell_length_b   9.27436186
_cell_length_c   11.76993206
_cell_angle_alpha   89.94548830
_cell_angle_beta   89.82909927
_cell_angle_gamma   89.96029194
_symmetry_Int_Tables_number   1
_chemical_formula_structural   Tm15Sc5GeBi11
_chemical_formula_sum   'Tm15 Sc5 Ge1 Bi11'
_cell_volume   870.90441223
_cell_formula_units_Z   1
loop_
 _symmetry_equiv_pos_site_id
 _symmetry_equiv_pos_as_xyz
  1  'x, y, z'
loop_
 _atom_site_type_symbol
 _atom_site_label
 _atom_site_symmetry_multiplicity
 _atom_site_fract_x
 _atom_site_fract_y
 _atom_site_fract_z
 _atom_site_occupancy
  Tm  Tm0  1  0.353737  0.247956  0.293237  1
  Tm  Tm1  1  0.646443  0.749670  0.716739  1
  Tm  Tm2  1  0.146332  0.748994  0.782446  1
  Tm  Tm3  1  0.853832  0.249550  0.215409  1
  Tm  Tm4  1  0.190267  0.249523  0.775238  1
  Tm  Tm5  1  0.813225  0.749398  0.219077  1
  Tm  Tm6  1  0.315715  0.750631  0.280590  1
  Tm  Tm7  1  0.669535  0.249292  0.711538  1
  Tm  Tm8  1  0.805005  0.934663  0.940915  1
  Tm  Tm9  1  0.307181  0.948359  0.558938  1
  Tm  Tm10  1  0.806664  0.566010  0.941981  1
  Tm  Tm11  1  0.686525  0.071826  0.444830  1
  Tm  Tm12  1  0.195106  0.434669  0.059990  1
  Tm  Tm13  1  0.686508  0.427671  0.445046  1
  Tm  Tm14  1  0.307712  0.551426  0.559250  1
  Sc  Sc15  1  0.036103  0.249795  0.511775  1
  Sc  Sc16  1  0.980717  0.749734  0.488433  1
  Sc  Sc17  1  0.477268  0.750349  0.012446  1
  Sc  Sc18  1  0.522558  0.248231  0.988407  1
  Sc  Sc19  1  0.196379  0.069746  0.059264  1
  Ge  Ge20  1  0.405253  0.249862  0.537856  1
  Bi  Bi21  1  0.598797  0.749720  0.457679  1
  Bi  Bi22  1  0.101659  0.757750  0.043455  1
  Bi  Bi23  1  0.906773  0.248060  0.955748  1
  Bi  Bi24  1  0.064762  0.003513  0.328287  1
  Bi  Bi25  1  0.933430  0.997470  0.669344  1
  Bi  Bi26  1  0.432317  0.995427  0.831680  1
  Bi  Bi27  1  0.933097  0.501624  0.669639  1
  Bi  Bi28  1  0.562604  0.005048  0.169562  1
  Bi  Bi29  1  0.064841  0.496364  0.329702  1
  Bi  Bi30  1  0.565219  0.494007  0.170614  1
  Bi  Bi31  1  0.434436  0.503663  0.830887  1
