# generated using pymatgen
data_Ca6SmHo(Si3Pd)4
_symmetry_space_group_name_H-M   'P 1'
_cell_length_a   8.25689800
_cell_length_b   8.25689900
_cell_length_c   8.33300400
_cell_angle_alpha   90.00000000
_cell_angle_beta   90.00000000
_cell_angle_gamma   120.00000401
_symmetry_Int_Tables_number   1
_chemical_formula_structural   Ca6SmHo(Si3Pd)4
_chemical_formula_sum   'Ca6 Sm1 Ho1 Si12 Pd4'
_cell_volume   492.00112550
_cell_formula_units_Z   1
loop_
 _symmetry_equiv_pos_site_id
 _symmetry_equiv_pos_as_xyz
  1  'x, y, z'
loop_
 _atom_site_type_symbol
 _atom_site_label
 _atom_site_symmetry_multiplicity
 _atom_site_fract_x
 _atom_site_fract_y
 _atom_site_fract_z
 _atom_site_occupancy
  Ca  Ca0  1  0.501538  0.003073  0.250000  1
  Ca  Ca1  1  0.498515  0.997032  0.750000  1
  Ca  Ca2  1  0.996927  0.498462  0.250000  1
  Ca  Ca3  1  0.002968  0.501485  0.750000  1
  Ca  Ca4  1  0.501538  0.498462  0.250000  1
  Ca  Ca5  1  0.498515  0.501485  0.750000  1
  Sm  Sm6  1  0.000000  0.000000  0.250000  1
  Ho  Ho7  1  0.000000  0.000000  0.750000  1
  Si  Si8  1  0.164615  0.329228  0.999840  1
  Si  Si9  1  0.835393  0.670788  0.996010  1
  Si  Si10  1  0.670772  0.835385  0.999840  1
  Si  Si11  1  0.835393  0.670788  0.503990  1
  Si  Si12  1  0.329212  0.164607  0.996010  1
  Si  Si13  1  0.164615  0.329228  0.500160  1
  Si  Si14  1  0.164615  0.835385  0.999840  1
  Si  Si15  1  0.329212  0.164607  0.503990  1
  Si  Si16  1  0.835393  0.164607  0.996010  1
  Si  Si17  1  0.670772  0.835385  0.500160  1
  Si  Si18  1  0.835393  0.164607  0.503990  1
  Si  Si19  1  0.164615  0.835385  0.500160  1
  Pd  Pd20  1  0.333333  0.666667  0.001753  1
  Pd  Pd21  1  0.666667  0.333333  0.996697  1
  Pd  Pd22  1  0.666667  0.333333  0.503303  1
  Pd  Pd23  1  0.333333  0.666667  0.498247  1
