# generated using pymatgen
data_Pr5TaMoO12
_symmetry_space_group_name_H-M   'P 1'
_cell_length_a   7.17351911
_cell_length_b   7.17352030
_cell_length_c   7.72071749
_cell_angle_alpha   74.36932985
_cell_angle_beta   74.36932568
_cell_angle_gamma   50.84659594
_symmetry_Int_Tables_number   1
_chemical_formula_structural   Pr5TaMoO12
_chemical_formula_sum   'Pr5 Ta1 Mo1 O12'
_cell_volume   294.06299940
_cell_formula_units_Z   1
loop_
 _symmetry_equiv_pos_site_id
 _symmetry_equiv_pos_as_xyz
  1  'x, y, z'
loop_
 _atom_site_type_symbol
 _atom_site_label
 _atom_site_symmetry_multiplicity
 _atom_site_fract_x
 _atom_site_fract_y
 _atom_site_fract_z
 _atom_site_occupancy
  Pr  Pr0  1  0.300968  0.305830  0.360077  1
  Pr  Pr1  1  0.694170  0.699032  0.639923  1
  Pr  Pr2  1  0.692188  0.695751  0.167628  1
  Pr  Pr3  1  0.304249  0.307812  0.832372  1
  Pr  Pr4  1  0.995895  0.004105  0.500000  1
  Ta  Ta5  1  0.767960  0.232040  0.000000  1
  Mo  Mo6  1  0.251674  0.748326  0.000000  1
  O  O7  1  0.092505  0.598758  0.576654  1
  O  O8  1  0.991676  0.006968  0.182134  1
  O  O9  1  0.401242  0.907495  0.423346  1
  O  O10  1  0.511944  0.489617  0.177887  1
  O  O11  1  0.099134  0.576191  0.080834  1
  O  O12  1  0.901992  0.406510  0.423741  1
  O  O13  1  0.993032  0.008324  0.817866  1
  O  O14  1  0.593490  0.098007  0.576259  1
  O  O15  1  0.510383  0.488056  0.822113  1
  O  O16  1  0.577597  0.103907  0.079857  1
  O  O17  1  0.423809  0.900866  0.919166  1
  O  O18  1  0.896093  0.422403  0.920143  1
