# generated using pymatgen
data_Ba2Ni2I
_symmetry_space_group_name_H-M   'P 1'
_cell_length_a   4.31127300
_cell_length_b   4.31127280
_cell_length_c   19.15079400
_cell_angle_alpha   90.00000000
_cell_angle_beta   90.00000000
_cell_angle_gamma   119.99999385
_symmetry_Int_Tables_number   1
_chemical_formula_structural   Ba2Ni2I
_chemical_formula_sum   'Ba4 Ni4 I2'
_cell_volume   308.26801922
_cell_formula_units_Z   2
loop_
 _symmetry_equiv_pos_site_id
 _symmetry_equiv_pos_as_xyz
  1  'x, y, z'
loop_
 _atom_site_type_symbol
 _atom_site_label
 _atom_site_symmetry_multiplicity
 _atom_site_fract_x
 _atom_site_fract_y
 _atom_site_fract_z
 _atom_site_occupancy
  Ba  Ba0  1  0.000000  0.000000  0.108799  1
  Ba  Ba1  1  0.000000  0.000000  0.391201  1
  Ba  Ba2  1  0.000000  0.000000  0.891201  1
  Ba  Ba3  1  0.000000  0.000000  0.608799  1
  Ni  Ni4  1  0.333333  0.666667  0.000280  1
  Ni  Ni5  1  0.666667  0.333333  0.999720  1
  Ni  Ni6  1  0.333333  0.666667  0.499720  1
  Ni  Ni7  1  0.666667  0.333333  0.500280  1
  I  I8  1  0.333333  0.666667  0.750000  1
  I  I9  1  0.666667  0.333333  0.250000  1
