# generated using pymatgen
data_Y6Ho10Cd3AgIr4
_symmetry_space_group_name_H-M   'P 1'
_cell_length_a   9.62412296
_cell_length_b   9.62412290
_cell_length_c   9.62412312
_cell_angle_alpha   59.85656376
_cell_angle_beta   59.85656554
_cell_angle_gamma   59.85656844
_symmetry_Int_Tables_number   1
_chemical_formula_structural   Y6Ho10Cd3AgIr4
_chemical_formula_sum   'Y6 Ho10 Cd3 Ag1 Ir4'
_cell_volume   628.27906843
_cell_formula_units_Z   1
loop_
 _symmetry_equiv_pos_site_id
 _symmetry_equiv_pos_as_xyz
  1  'x, y, z'
loop_
 _atom_site_type_symbol
 _atom_site_label
 _atom_site_symmetry_multiplicity
 _atom_site_fract_x
 _atom_site_fract_y
 _atom_site_fract_z
 _atom_site_occupancy
  Y  Y0  1  0.937626  0.560752  0.560752  1
  Y  Y1  1  0.561375  0.937201  0.937201  1
  Y  Y2  1  0.560752  0.937626  0.560752  1
  Y  Y3  1  0.937201  0.561375  0.937201  1
  Y  Y4  1  0.560752  0.560752  0.937626  1
  Y  Y5  1  0.937201  0.937201  0.561375  1
  Ho  Ho6  1  0.348699  0.348699  0.348699  1
  Ho  Ho7  1  0.349519  0.349519  0.953717  1
  Ho  Ho8  1  0.349519  0.953717  0.349519  1
  Ho  Ho9  1  0.953717  0.349519  0.349519  1
  Ho  Ho10  1  0.809887  0.189129  0.189129  1
  Ho  Ho11  1  0.187126  0.810059  0.810059  1
  Ho  Ho12  1  0.189129  0.809887  0.189129  1
  Ho  Ho13  1  0.810059  0.187126  0.810059  1
  Ho  Ho14  1  0.189129  0.189129  0.809887  1
  Ho  Ho15  1  0.810059  0.810059  0.187126  1
  Cd  Cd16  1  0.581446  0.581446  0.258675  1
  Cd  Cd17  1  0.581446  0.258675  0.581446  1
  Cd  Cd18  1  0.258675  0.581446  0.581446  1
  Ag  Ag19  1  0.582601  0.582601  0.582601  1
  Ir  Ir20  1  0.141559  0.141559  0.141559  1
  Ir  Ir21  1  0.143116  0.143116  0.576293  1
  Ir  Ir22  1  0.143116  0.576293  0.143116  1
  Ir  Ir23  1  0.576293  0.143116  0.143116  1
