# generated using pymatgen
data_YbEr7(LuIr3)2
_symmetry_space_group_name_H-M   'P 1'
_cell_length_a   10.77714958
_cell_length_b   10.79859900
_cell_length_c   6.31870771
_cell_angle_alpha   90.00000000
_cell_angle_beta   90.20094541
_cell_angle_gamma   90.00000000
_symmetry_Int_Tables_number   1
_chemical_formula_structural   YbEr7(LuIr3)2
_chemical_formula_sum   'Yb2 Er14 Lu4 Ir12'
_cell_volume   735.35478053
_cell_formula_units_Z   2
loop_
 _symmetry_equiv_pos_site_id
 _symmetry_equiv_pos_as_xyz
  1  'x, y, z'
loop_
 _atom_site_type_symbol
 _atom_site_label
 _atom_site_symmetry_multiplicity
 _atom_site_fract_x
 _atom_site_fract_y
 _atom_site_fract_z
 _atom_site_occupancy
  Yb  Yb0  1  0.289333  0.087559  0.375851  1
  Yb  Yb1  1  0.289333  0.912441  0.875851  1
  Er  Er2  1  0.708794  0.086396  0.878243  1
  Er  Er3  1  0.708794  0.913604  0.378243  1
  Er  Er4  1  0.586804  0.791889  0.877283  1
  Er  Er5  1  0.586804  0.208111  0.377283  1
  Er  Er6  1  0.412426  0.791990  0.378236  1
  Er  Er7  1  0.412426  0.208010  0.878236  1
  Er  Er8  1  0.209699  0.413123  0.622733  1
  Er  Er9  1  0.209699  0.586877  0.122733  1
  Er  Er10  1  0.790683  0.412589  0.121400  1
  Er  Er11  1  0.790683  0.587411  0.621400  1
  Er  Er12  1  0.912799  0.709949  0.123147  1
  Er  Er13  1  0.912799  0.290051  0.623147  1
  Er  Er14  1  0.087613  0.709678  0.620970  1
  Er  Er15  1  0.087613  0.290322  0.120970  1
  Lu  Lu16  1  0.000491  0.999575  0.499342  1
  Lu  Lu17  1  0.000491  0.000425  0.999342  1
  Lu  Lu18  1  0.499876  0.499829  0.999521  1
  Lu  Lu19  1  0.499876  0.500171  0.499521  1
  Ir  Ir20  1  0.849426  0.152349  0.250191  1
  Ir  Ir21  1  0.849426  0.847651  0.750191  1
  Ir  Ir22  1  0.147711  0.156938  0.753556  1
  Ir  Ir23  1  0.147711  0.843062  0.253556  1
  Ir  Ir24  1  0.650958  0.347547  0.750203  1
  Ir  Ir25  1  0.650958  0.652453  0.250203  1
  Ir  Ir26  1  0.348869  0.351831  0.247469  1
  Ir  Ir27  1  0.348869  0.648169  0.747469  1
  Ir  Ir28  1  0.504297  0.000359  0.122874  1
  Ir  Ir29  1  0.504297  0.999641  0.622874  1
  Ir  Ir30  1  0.000220  0.500321  0.878980  1
  Ir  Ir31  1  0.000220  0.499679  0.378980  1
