# generated using pymatgen
data_YEr(PdO2)4
_symmetry_space_group_name_H-M   'P 1'
_cell_length_a   6.49951177
_cell_length_b   6.49951240
_cell_length_c   6.49951247
_cell_angle_alpha   126.91399336
_cell_angle_beta   126.91400017
_cell_angle_gamma   78.39103557
_symmetry_Int_Tables_number   1
_chemical_formula_structural   YEr(PdO2)4
_chemical_formula_sum   'Y1 Er1 Pd4 O8'
_cell_volume   169.96587249
_cell_formula_units_Z   1
loop_
 _symmetry_equiv_pos_site_id
 _symmetry_equiv_pos_as_xyz
  1  'x, y, z'
loop_
 _atom_site_type_symbol
 _atom_site_label
 _atom_site_symmetry_multiplicity
 _atom_site_fract_x
 _atom_site_fract_y
 _atom_site_fract_z
 _atom_site_occupancy
  Y  Y0  1  0.000000  0.000000  0.000000  1
  Er  Er1  1  0.750000  0.250000  0.500000  1
  Pd  Pd2  1  0.374668  0.624601  0.249316  1
  Pd  Pd3  1  0.874649  0.625332  0.249933  1
  Pd  Pd4  1  0.375284  0.125351  0.750684  1
  Pd  Pd5  1  0.375399  0.624716  0.750067  1
  O  O6  1  0.989930  0.962454  0.348025  1
  O  O7  1  0.709339  0.865235  0.467856  1
  O  O8  1  0.397380  0.241484  0.532144  1
  O  O9  1  0.614429  0.641905  0.651975  1
  O  O10  1  0.758516  0.290661  0.155896  1
  O  O11  1  0.037546  0.385571  0.027475  1
  O  O12  1  0.134765  0.602620  0.844104  1
  O  O13  1  0.358095  0.010070  0.972525  1
