# generated using pymatgen
data_Yb4ErU5O18
_symmetry_space_group_name_H-M   'P 1'
_cell_length_a   6.80400375
_cell_length_b   7.47023174
_cell_length_c   8.39648347
_cell_angle_alpha   99.01712741
_cell_angle_beta   98.48796284
_cell_angle_gamma   107.80361979
_symmetry_Int_Tables_number   1
_chemical_formula_structural   Yb4ErU5O18
_chemical_formula_sum   'Yb4 Er1 U5 O18'
_cell_volume   392.54146010
_cell_formula_units_Z   1
loop_
 _symmetry_equiv_pos_site_id
 _symmetry_equiv_pos_as_xyz
  1  'x, y, z'
loop_
 _atom_site_type_symbol
 _atom_site_label
 _atom_site_symmetry_multiplicity
 _atom_site_fract_x
 _atom_site_fract_y
 _atom_site_fract_z
 _atom_site_occupancy
  Yb  Yb0  1  0.593815  0.697096  0.195563  1
  Yb  Yb1  1  0.406578  0.303366  0.803779  1
  Yb  Yb2  1  0.205968  0.896779  0.419230  1
  Yb  Yb3  1  0.001132  0.503537  0.003162  1
  Er  Er4  1  0.795780  0.107050  0.579836  1
  U  U5  1  0.998352  0.997901  0.000815  1
  U  U6  1  0.790869  0.581927  0.590314  1
  U  U7  1  0.626101  0.204635  0.190418  1
  U  U8  1  0.373626  0.794469  0.807264  1
  U  U9  1  0.211306  0.421992  0.409654  1
  O  O10  1  0.821000  0.810877  0.476084  1
  O  O11  1  0.999488  0.254315  0.164385  1
  O  O12  1  0.671150  0.417825  0.061615  1
  O  O13  1  0.473725  0.000569  0.673150  1
  O  O14  1  0.860299  0.334854  0.430110  1
  O  O15  1  0.511078  0.411632  0.343864  1
  O  O16  1  0.254806  0.623825  0.275977  1
  O  O17  1  0.986398  0.829411  0.166190  1
  O  O18  1  0.656900  0.926089  0.007268  1
  O  O19  1  0.340147  0.072896  0.992142  1
  O  O20  1  0.004532  0.162005  0.826550  1
  O  O21  1  0.746404  0.371459  0.722097  1
  O  O22  1  0.492817  0.588785  0.657282  1
  O  O23  1  0.138183  0.662111  0.572034  1
  O  O24  1  0.544049  0.000424  0.328378  1
  O  O25  1  0.327265  0.580611  0.936768  1
  O  O26  1  0.997026  0.743839  0.834841  1
  O  O27  1  0.171207  0.199722  0.531230  1
