# generated using pymatgen
data_NdThBeSi4Ni
_symmetry_space_group_name_H-M   'P 1'
_cell_length_a   8.43510763
_cell_length_b   8.43510797
_cell_length_c   4.05417000
_cell_angle_alpha   90.00000000
_cell_angle_beta   90.00000000
_cell_angle_gamma   151.47126071
_symmetry_Int_Tables_number   1
_chemical_formula_structural   NdThBeSi4Ni
_chemical_formula_sum   'Nd1 Th1 Be1 Si4 Ni1'
_cell_volume   137.76760333
_cell_formula_units_Z   1
loop_
 _symmetry_equiv_pos_site_id
 _symmetry_equiv_pos_as_xyz
  1  'x, y, z'
loop_
 _atom_site_type_symbol
 _atom_site_label
 _atom_site_symmetry_multiplicity
 _atom_site_fract_x
 _atom_site_fract_y
 _atom_site_fract_z
 _atom_site_occupancy
  Nd  Nd0  1  0.602607  0.397393  0.250000  1
  Th  Th1  1  0.391687  0.608313  0.750000  1
  Be  Be2  1  0.824269  0.175731  0.250000  1
  Si  Si3  1  0.961165  0.038835  0.250000  1
  Si  Si4  1  0.039243  0.960757  0.750000  1
  Si  Si5  1  0.250049  0.749951  0.250000  1
  Si  Si6  1  0.748993  0.251007  0.750000  1
  Ni  Ni7  1  0.181987  0.818013  0.750000  1
