# generated using pymatgen
data_U4ZnTe12
_symmetry_space_group_name_H-M   'P 1'
_cell_length_a   7.41685045
_cell_length_b   7.41685104
_cell_length_c   11.42506293
_cell_angle_alpha   71.19537108
_cell_angle_beta   71.19537310
_cell_angle_gamma   69.79423496
_symmetry_Int_Tables_number   1
_chemical_formula_structural   U4ZnTe12
_chemical_formula_sum   'U4 Zn1 Te12'
_cell_volume   542.35020103
_cell_formula_units_Z   1
loop_
 _symmetry_equiv_pos_site_id
 _symmetry_equiv_pos_as_xyz
  1  'x, y, z'
loop_
 _atom_site_type_symbol
 _atom_site_label
 _atom_site_symmetry_multiplicity
 _atom_site_fract_x
 _atom_site_fract_y
 _atom_site_fract_z
 _atom_site_occupancy
  U  U0  1  0.808041  0.808041  0.843814  1
  U  U1  1  0.311195  0.311195  0.843398  1
  U  U2  1  0.688695  0.197475  0.157804  1
  U  U3  1  0.197475  0.688695  0.157804  1
  Zn  Zn4  1  0.816316  0.816316  0.530741  1
  Te  Te5  1  0.013764  0.013764  0.319498  1
  Te  Te6  1  0.501492  0.501492  0.328913  1
  Te  Te7  1  0.482415  0.994797  0.675069  1
  Te  Te8  1  0.994797  0.482415  0.675069  1
  Te  Te9  1  0.258077  0.258077  0.332258  1
  Te  Te10  1  0.753997  0.753997  0.325295  1
  Te  Te11  1  0.240505  0.740321  0.671835  1
  Te  Te12  1  0.740321  0.240505  0.671835  1
  Te  Te13  1  0.022727  0.022727  0.942578  1
  Te  Te14  1  0.522761  0.522761  0.939702  1
  Te  Te15  1  0.479482  0.979238  0.059393  1
  Te  Te16  1  0.979238  0.479482  0.059393  1
