# generated using pymatgen
data_Li4LaHo3Si8
_symmetry_space_group_name_H-M   'P 1'
_cell_length_a   3.83005400
_cell_length_b   7.62843616
_cell_length_c   10.27504232
_cell_angle_alpha   89.68267101
_cell_angle_beta   90.00000000
_cell_angle_gamma   90.00000000
_symmetry_Int_Tables_number   1
_chemical_formula_structural   Li4LaHo3Si8
_chemical_formula_sum   'Li4 La1 Ho3 Si8'
_cell_volume   300.20462009
_cell_formula_units_Z   1
loop_
 _symmetry_equiv_pos_site_id
 _symmetry_equiv_pos_as_xyz
  1  'x, y, z'
loop_
 _atom_site_type_symbol
 _atom_site_label
 _atom_site_symmetry_multiplicity
 _atom_site_fract_x
 _atom_site_fract_y
 _atom_site_fract_z
 _atom_site_occupancy
  Li  Li0  1  0.250000  0.993259  0.391840  1
  Li  Li1  1  0.250000  0.488535  0.105704  1
  Li  Li2  1  0.750000  0.010915  0.611246  1
  Li  Li3  1  0.750000  0.510266  0.893107  1
  La  La4  1  0.750000  0.355922  0.363075  1
  Ho  Ho5  1  0.250000  0.136055  0.863594  1
  Ho  Ho6  1  0.250000  0.639916  0.637046  1
  Ho  Ho7  1  0.750000  0.861007  0.134215  1
  Si  Si8  1  0.250000  0.231099  0.578039  1
  Si  Si9  1  0.250000  0.732329  0.931000  1
  Si  Si10  1  0.750000  0.776640  0.431063  1
  Si  Si11  1  0.750000  0.260004  0.061595  1
  Si  Si12  1  0.250000  0.665762  0.320636  1
  Si  Si13  1  0.250000  0.150286  0.171660  1
  Si  Si14  1  0.750000  0.344198  0.685051  1
  Si  Si15  1  0.750000  0.843809  0.821128  1
