# generated using pymatgen
data_TmSc(NbSe2)8
_symmetry_space_group_name_H-M   'P 1'
_cell_length_a   7.01411700
_cell_length_b   7.01411718
_cell_length_c   13.93505300
_cell_angle_alpha   90.00000000
_cell_angle_beta   90.00000000
_cell_angle_gamma   119.99999445
_symmetry_Int_Tables_number   1
_chemical_formula_structural   TmSc(NbSe2)8
_chemical_formula_sum   'Tm1 Sc1 Nb8 Se16'
_cell_volume   593.72495548
_cell_formula_units_Z   1
loop_
 _symmetry_equiv_pos_site_id
 _symmetry_equiv_pos_as_xyz
  1  'x, y, z'
loop_
 _atom_site_type_symbol
 _atom_site_label
 _atom_site_symmetry_multiplicity
 _atom_site_fract_x
 _atom_site_fract_y
 _atom_site_fract_z
 _atom_site_occupancy
  Tm  Tm0  1  0.000000  0.000000  0.500000  1
  Sc  Sc1  1  0.000000  0.000000  0.000000  1
  Nb  Nb2  1  0.000000  0.000000  0.241199  1
  Nb  Nb3  1  0.000000  0.000000  0.758801  1
  Nb  Nb4  1  0.506846  0.013694  0.241510  1
  Nb  Nb5  1  0.986306  0.493154  0.241510  1
  Nb  Nb6  1  0.506846  0.493154  0.241510  1
  Nb  Nb7  1  0.493154  0.986306  0.758490  1
  Nb  Nb8  1  0.013694  0.506846  0.758490  1
  Nb  Nb9  1  0.493154  0.506846  0.758490  1
  Se  Se10  1  0.333333  0.666667  0.882268  1
  Se  Se11  1  0.666667  0.333333  0.117732  1
  Se  Se12  1  0.666667  0.333333  0.365052  1
  Se  Se13  1  0.333333  0.666667  0.634948  1
  Se  Se14  1  0.168633  0.831367  0.361085  1
  Se  Se15  1  0.168633  0.337267  0.361085  1
  Se  Se16  1  0.662733  0.831367  0.361085  1
  Se  Se17  1  0.831367  0.168633  0.638915  1
  Se  Se18  1  0.831367  0.662733  0.638915  1
  Se  Se19  1  0.337267  0.168633  0.638915  1
  Se  Se20  1  0.830469  0.169531  0.877687  1
  Se  Se21  1  0.830469  0.660939  0.877687  1
  Se  Se22  1  0.339061  0.169531  0.877687  1
  Se  Se23  1  0.169531  0.830469  0.122313  1
  Se  Se24  1  0.169531  0.339061  0.122313  1
  Se  Se25  1  0.660939  0.830469  0.122313  1
