# generated using pymatgen
data_La2Pr4Ir11Rh7
_symmetry_space_group_name_H-M   'P 1'
_cell_length_a   5.39010500
_cell_length_b   5.39614245
_cell_length_c   17.76992203
_cell_angle_alpha   90.03323827
_cell_angle_beta   90.00000000
_cell_angle_gamma   119.96297738
_symmetry_Int_Tables_number   1
_chemical_formula_structural   La2Pr4Ir11Rh7
_chemical_formula_sum   'La2 Pr4 Ir11 Rh7'
_cell_volume   447.77370559
_cell_formula_units_Z   1
loop_
 _symmetry_equiv_pos_site_id
 _symmetry_equiv_pos_as_xyz
  1  'x, y, z'
loop_
 _atom_site_type_symbol
 _atom_site_label
 _atom_site_symmetry_multiplicity
 _atom_site_fract_x
 _atom_site_fract_y
 _atom_site_fract_z
 _atom_site_occupancy
  La  La0  1  0.333354  0.666709  0.749967  1
  La  La1  1  0.666707  0.333413  0.249855  1
  Pr  Pr2  1  0.333356  0.666713  0.541701  1
  Pr  Pr3  1  0.666629  0.333258  0.041604  1
  Pr  Pr4  1  0.666319  0.332637  0.458051  1
  Pr  Pr5  1  0.333409  0.666818  0.958358  1
  Ir  Ir6  1  0.166719  0.333438  0.128265  1
  Ir  Ir7  1  0.833161  0.666321  0.627808  1
  Ir  Ir8  1  0.666156  0.833193  0.127988  1
  Ir  Ir9  1  0.167037  0.833193  0.127988  1
  Ir  Ir10  1  0.833194  0.167068  0.627932  1
  Ir  Ir11  1  0.333875  0.167068  0.627932  1
  Ir  Ir12  1  0.833120  0.666239  0.872005  1
  Ir  Ir13  1  0.832985  0.166833  0.872028  1
  Ir  Ir14  1  0.333848  0.166833  0.872028  1
  Ir  Ir15  1  0.666999  0.834577  0.372075  1
  Ir  Ir16  1  0.167579  0.834577  0.372075  1
  Rh  Rh17  1  0.167257  0.334514  0.372495  1
  Rh  Rh18  1  0.999390  0.998779  0.249984  1
  Rh  Rh19  1  0.999965  0.999929  0.749947  1
  Rh  Rh20  1  0.333403  0.666805  0.250080  1
  Rh  Rh21  1  0.666724  0.333447  0.749928  1
  Rh  Rh22  1  0.000102  0.000204  0.999912  1
  Rh  Rh23  1  0.998716  0.997432  0.499994  1
