# generated using pymatgen
data_Ta9AlSi5W
_symmetry_space_group_name_H-M   'P 1'
_cell_length_a   7.56654785
_cell_length_b   7.56654794
_cell_length_c   7.56654738
_cell_angle_alpha   128.49932413
_cell_angle_beta   128.49932727
_cell_angle_gamma   75.81752489
_symmetry_Int_Tables_number   1
_chemical_formula_structural   Ta9AlSi5W
_chemical_formula_sum   'Ta9 Al1 Si5 W1'
_cell_volume   258.05103566
_cell_formula_units_Z   1
loop_
 _symmetry_equiv_pos_site_id
 _symmetry_equiv_pos_as_xyz
  1  'x, y, z'
loop_
 _atom_site_type_symbol
 _atom_site_label
 _atom_site_symmetry_multiplicity
 _atom_site_fract_x
 _atom_site_fract_y
 _atom_site_fract_z
 _atom_site_occupancy
  Ta  Ta0  1  0.018006  0.187844  0.505267  1
  Ta  Ta1  1  0.682576  0.512738  0.494733  1
  Ta  Ta2  1  0.512738  0.018006  0.830162  1
  Ta  Ta3  1  0.187844  0.682576  0.169838  1
  Ta  Ta4  1  0.987223  0.817332  0.505199  1
  Ta  Ta5  1  0.312134  0.482025  0.494801  1
  Ta  Ta6  1  0.482025  0.987223  0.169891  1
  Ta  Ta7  1  0.817332  0.312134  0.830109  1
  Ta  Ta8  1  0.499247  0.499247  0.000000  1
  Al  Al9  1  0.750451  0.750451  0.000000  1
  Si  Si10  1  0.250371  0.250371  0.000000  1
  Si  Si11  1  0.367343  0.128381  0.495779  1
  Si  Si12  1  0.632603  0.871564  0.504221  1
  Si  Si13  1  0.871564  0.367343  0.238961  1
  Si  Si14  1  0.128381  0.632603  0.761039  1
  W  W15  1  0.000165  0.000165  0.000000  1
