# generated using pymatgen
data_HfSc7Si16(MoW)6
_symmetry_space_group_name_H-M   'P 1'
_cell_length_a   6.57411728
_cell_length_b   6.78339397
_cell_length_c   12.68150977
_cell_angle_alpha   90.01695976
_cell_angle_beta   89.97506774
_cell_angle_gamma   90.00135621
_symmetry_Int_Tables_number   1
_chemical_formula_structural   HfSc7Si16(MoW)6
_chemical_formula_sum   'Hf1 Sc7 Si16 Mo6 W6'
_cell_volume   565.52966253
_cell_formula_units_Z   1
loop_
 _symmetry_equiv_pos_site_id
 _symmetry_equiv_pos_as_xyz
  1  'x, y, z'
loop_
 _atom_site_type_symbol
 _atom_site_label
 _atom_site_symmetry_multiplicity
 _atom_site_fract_x
 _atom_site_fract_y
 _atom_site_fract_z
 _atom_site_occupancy
  Hf  Hf0  1  0.505442  0.670218  0.594346  1
  Sc  Sc1  1  0.995546  0.169468  0.093378  1
  Sc  Sc2  1  0.005290  0.830514  0.907481  1
  Sc  Sc3  1  0.504986  0.669710  0.907143  1
  Sc  Sc4  1  0.007088  0.830896  0.592288  1
  Sc  Sc5  1  0.495528  0.330026  0.093367  1
  Sc  Sc6  1  0.994511  0.169610  0.406914  1
  Sc  Sc7  1  0.495447  0.330982  0.407303  1
  Si  Si8  1  0.032545  0.121379  0.749588  1
  Si  Si9  1  0.966053  0.878104  0.249388  1
  Si  Si10  1  0.464880  0.620679  0.248270  1
  Si  Si11  1  0.535482  0.377623  0.751076  1
  Si  Si12  1  0.299219  0.859653  0.751407  1
  Si  Si13  1  0.699375  0.141096  0.249807  1
  Si  Si14  1  0.199381  0.358958  0.250468  1
  Si  Si15  1  0.802411  0.640947  0.750972  1
  Si  Si16  1  0.167734  0.462338  0.543251  1
  Si  Si17  1  0.831988  0.536744  0.456105  1
  Si  Si18  1  0.332616  0.963022  0.456230  1
  Si  Si19  1  0.833911  0.536372  0.045180  1
  Si  Si20  1  0.667779  0.039111  0.543500  1
  Si  Si21  1  0.165502  0.463191  0.955032  1
  Si  Si22  1  0.664177  0.036748  0.954629  1
  Si  Si23  1  0.334938  0.963507  0.045205  1
  Mo  Mo24  1  0.168952  0.665951  0.376001  1
  Mo  Mo25  1  0.669147  0.835576  0.123642  1
  Mo  Mo26  1  0.831347  0.338399  0.624405  1
  Mo  Mo27  1  0.329203  0.165661  0.876154  1
  Mo  Mo28  1  0.831570  0.333736  0.875501  1
  Mo  Mo29  1  0.168158  0.664722  0.124323  1
  W  W30  1  0.167023  0.505655  0.747971  1
  W  W31  1  0.834037  0.495344  0.250869  1
  W  W32  1  0.334904  0.004419  0.250634  1
  W  W33  1  0.664727  0.992357  0.747607  1
  W  W34  1  0.332077  0.164227  0.625000  1
  W  W35  1  0.667027  0.833058  0.375567  1
