# generated using pymatgen
data_MgSn13(Ir2Rh)2
_symmetry_space_group_name_H-M   'P 1'
_cell_length_a   8.22315344
_cell_length_b   8.20059857
_cell_length_c   8.20059900
_cell_angle_alpha   109.59570099
_cell_angle_beta   110.16411472
_cell_angle_gamma   108.54720452
_symmetry_Int_Tables_number   1
_chemical_formula_structural   MgSn13(Ir2Rh)2
_chemical_formula_sum   'Mg1 Sn13 Ir4 Rh2'
_cell_volume   426.19782571
_cell_formula_units_Z   1
loop_
 _symmetry_equiv_pos_site_id
 _symmetry_equiv_pos_as_xyz
  1  'x, y, z'
loop_
 _atom_site_type_symbol
 _atom_site_label
 _atom_site_symmetry_multiplicity
 _atom_site_fract_x
 _atom_site_fract_y
 _atom_site_fract_z
 _atom_site_occupancy
  Mg  Mg0  1  0.249633  0.749934  0.499698  1
  Sn  Sn1  1  0.752045  0.250818  0.501227  1
  Sn  Sn2  1  0.757191  0.504278  0.252912  1
  Sn  Sn3  1  0.252636  0.504521  0.748113  1
  Sn  Sn4  1  0.497966  0.749565  0.253563  1
  Sn  Sn5  1  0.497966  0.244403  0.748402  1
  Sn  Sn6  1  0.000987  0.997176  0.327092  1
  Sn  Sn7  1  0.670332  0.997867  0.995048  1
  Sn  Sn8  1  0.000987  0.673897  0.003811  1
  Sn  Sn9  1  0.326275  0.330329  0.329416  1
  Sn  Sn10  1  0.999753  0.328237  0.001740  1
  Sn  Sn11  1  0.670332  0.675283  0.672463  1
  Sn  Sn12  1  0.326275  0.996859  0.995946  1
  Sn  Sn13  1  0.999753  0.998013  0.671517  1
  Ir  Ir14  1  0.346477  0.006275  0.340202  1
  Ir  Ir15  1  0.994412  0.334997  0.341098  1
  Ir  Ir16  1  0.994412  0.653314  0.659415  1
  Ir  Ir17  1  0.343990  0.343637  0.000353  1
  Rh  Rh18  1  0.653764  0.653378  0.000385  1
  Rh  Rh19  1  0.664819  0.007219  0.657598  1
