# generated using pymatgen
data_Ba2ReNiN4
_symmetry_space_group_name_H-M   'P 1'
_cell_length_a   6.01611000
_cell_length_b   6.56604606
_cell_length_c   7.91306407
_cell_angle_alpha   66.70506793
_cell_angle_beta   90.00000000
_cell_angle_gamma   90.00000000
_symmetry_Int_Tables_number   1
_chemical_formula_structural   Ba2ReNiN4
_chemical_formula_sum   'Ba4 Re2 Ni2 N8'
_cell_volume   287.10101282
_cell_formula_units_Z   2
loop_
 _symmetry_equiv_pos_site_id
 _symmetry_equiv_pos_as_xyz
  1  'x, y, z'
loop_
 _atom_site_type_symbol
 _atom_site_label
 _atom_site_symmetry_multiplicity
 _atom_site_fract_x
 _atom_site_fract_y
 _atom_site_fract_z
 _atom_site_occupancy
  Ba  Ba0  1  0.250000  0.266683  0.048544  1
  Ba  Ba1  1  0.750000  0.733317  0.951456  1
  Ba  Ba2  1  0.750000  0.844134  0.406042  1
  Ba  Ba3  1  0.250000  0.155866  0.593958  1
  Re  Re4  1  0.250000  0.689871  0.222326  1
  Re  Re5  1  0.750000  0.310129  0.777674  1
  Ni  Ni6  1  0.750000  0.360484  0.392287  1
  Ni  Ni7  1  0.250000  0.639516  0.607713  1
  N  N8  1  0.503634  0.492840  0.729544  1
  N  N9  1  0.003634  0.507160  0.270456  1
  N  N10  1  0.496366  0.507160  0.270456  1
  N  N11  1  0.996366  0.492840  0.729544  1
  N  N12  1  0.750000  0.135892  0.633140  1
  N  N13  1  0.250000  0.864108  0.366860  1
  N  N14  1  0.750000  0.123370  0.019916  1
  N  N15  1  0.250000  0.876630  0.980084  1
