# generated using pymatgen
data_PrHo11(Si3Ir)4
_symmetry_space_group_name_H-M   'P 1'
_cell_length_a   4.24519200
_cell_length_b   10.61747624
_cell_length_c   12.29595544
_cell_angle_alpha   90.31494668
_cell_angle_beta   90.00000000
_cell_angle_gamma   90.00000000
_symmetry_Int_Tables_number   1
_chemical_formula_structural   PrHo11(Si3Ir)4
_chemical_formula_sum   'Pr1 Ho11 Si12 Ir4'
_cell_volume   554.20999556
_cell_formula_units_Z   1
loop_
 _symmetry_equiv_pos_site_id
 _symmetry_equiv_pos_as_xyz
  1  'x, y, z'
loop_
 _atom_site_type_symbol
 _atom_site_label
 _atom_site_symmetry_multiplicity
 _atom_site_fract_x
 _atom_site_fract_y
 _atom_site_fract_z
 _atom_site_occupancy
  Pr  Pr0  1  0.750000  0.155288  0.695943  1
  Ho  Ho1  1  0.250000  0.879097  0.022292  1
  Ho  Ho2  1  0.250000  0.620424  0.520549  1
  Ho  Ho3  1  0.750000  0.119751  0.980607  1
  Ho  Ho4  1  0.750000  0.382353  0.477828  1
  Ho  Ho5  1  0.250000  0.916789  0.603656  1
  Ho  Ho6  1  0.250000  0.581337  0.104458  1
  Ho  Ho7  1  0.750000  0.081869  0.394526  1
  Ho  Ho8  1  0.750000  0.420292  0.896803  1
  Ho  Ho9  1  0.250000  0.659879  0.800906  1
  Ho  Ho10  1  0.250000  0.840466  0.301173  1
  Ho  Ho11  1  0.750000  0.340927  0.199255  1
  Si  Si12  1  0.250000  0.005672  0.824264  1
  Si  Si13  1  0.250000  0.490024  0.320748  1
  Si  Si14  1  0.750000  0.989545  0.178316  1
  Si  Si15  1  0.750000  0.510875  0.679048  1
  Si  Si16  1  0.250000  0.248746  0.843138  1
  Si  Si17  1  0.250000  0.254565  0.338905  1
  Si  Si18  1  0.750000  0.753357  0.159748  1
  Si  Si19  1  0.750000  0.746674  0.659382  1
  Si  Si20  1  0.250000  0.204130  0.537165  1
  Si  Si21  1  0.250000  0.300007  0.044666  1
  Si  Si22  1  0.750000  0.799363  0.455733  1
  Si  Si23  1  0.750000  0.699657  0.957254  1
  Ir  Ir24  1  0.250000  0.393233  0.681782  1
  Ir  Ir25  1  0.250000  0.110680  0.180415  1
  Ir  Ir26  1  0.750000  0.610142  0.318479  1
  Ir  Ir27  1  0.750000  0.884858  0.822959  1
