# generated using pymatgen
data_Co(O2F7)2
_symmetry_space_group_name_H-M   'P 1'
_cell_length_a   12.51284000
_cell_length_b   6.47792987
_cell_length_c   8.63421539
_cell_angle_alpha   68.47789741
_cell_angle_beta   90.00000000
_cell_angle_gamma   90.00000000
_symmetry_Int_Tables_number   1
_chemical_formula_structural   Co(O2F7)2
_chemical_formula_sum   'Co2 O8 F28'
_cell_volume   651.06879796
_cell_formula_units_Z   2
loop_
 _symmetry_equiv_pos_site_id
 _symmetry_equiv_pos_as_xyz
  1  'x, y, z'
loop_
 _atom_site_type_symbol
 _atom_site_label
 _atom_site_symmetry_multiplicity
 _atom_site_fract_x
 _atom_site_fract_y
 _atom_site_fract_z
 _atom_site_occupancy
  Co  Co0  1  0.500000  0.500000  0.500000  1
  Co  Co1  1  0.000000  0.500000  0.000000  1
  O  O2  1  0.369304  0.777806  0.909701  1
  O  O3  1  0.630696  0.222194  0.090299  1
  O  O4  1  0.869304  0.222194  0.590299  1
  O  O5  1  0.130696  0.777806  0.409701  1
  O  O6  1  0.736664  0.753506  0.877937  1
  O  O7  1  0.263336  0.246494  0.122063  1
  O  O8  1  0.236664  0.246494  0.622063  1
  O  O9  1  0.763336  0.753506  0.377937  1
  F  F10  1  0.449175  0.853919  0.786981  1
  F  F11  1  0.550825  0.146081  0.213019  1
  F  F12  1  0.949175  0.146081  0.713019  1
  F  F13  1  0.050825  0.853919  0.286981  1
  F  F14  1  0.440209  0.750515  0.489073  1
  F  F15  1  0.559791  0.249485  0.510927  1
  F  F16  1  0.940209  0.249485  0.010927  1
  F  F17  1  0.059791  0.750515  0.989073  1
  F  F18  1  0.428925  0.354941  0.687812  1
  F  F19  1  0.571075  0.645059  0.312188  1
  F  F20  1  0.928925  0.645059  0.812188  1
  F  F21  1  0.071075  0.354941  0.187812  1
  F  F22  1  0.087297  0.801282  0.553686  1
  F  F23  1  0.912703  0.198718  0.446314  1
  F  F24  1  0.587297  0.198718  0.946314  1
  F  F25  1  0.412703  0.801282  0.053686  1
  F  F26  1  0.347785  0.307378  0.004341  1
  F  F27  1  0.652215  0.692622  0.995659  1
  F  F28  1  0.847785  0.692622  0.495659  1
  F  F29  1  0.152215  0.307378  0.504341  1
  F  F30  1  0.107865  0.453384  0.882187  1
  F  F31  1  0.892135  0.546616  0.117813  1
  F  F32  1  0.607865  0.546616  0.617813  1
  F  F33  1  0.392135  0.453384  0.382187  1
  F  F34  1  0.189209  0.104635  0.772346  1
  F  F35  1  0.810791  0.895365  0.227654  1
  F  F36  1  0.689209  0.895365  0.727654  1
  F  F37  1  0.310791  0.104635  0.272346  1
