# generated using pymatgen
data_Y12TlTcNi4
_symmetry_space_group_name_H-M   'P 1'
_cell_length_a   8.36818941
_cell_length_b   8.36830059
_cell_length_c   8.36818900
_cell_angle_alpha   111.33945716
_cell_angle_beta   109.71195667
_cell_angle_gamma   107.38595146
_symmetry_Int_Tables_number   1
_chemical_formula_structural   Y12TlTcNi4
_chemical_formula_sum   'Y12 Tl1 Tc1 Ni4'
_cell_volume   450.56812394
_cell_formula_units_Z   1
loop_
 _symmetry_equiv_pos_site_id
 _symmetry_equiv_pos_as_xyz
  1  'x, y, z'
loop_
 _atom_site_type_symbol
 _atom_site_label
 _atom_site_symmetry_multiplicity
 _atom_site_fract_x
 _atom_site_fract_y
 _atom_site_fract_z
 _atom_site_occupancy
  Y  Y0  1  0.412617  0.221722  0.190896  1
  Y  Y1  1  0.587383  0.778278  0.809104  1
  Y  Y2  1  0.030827  0.221722  0.809105  1
  Y  Y3  1  0.969173  0.778278  0.190895  1
  Y  Y4  1  0.180769  0.281818  0.462586  1
  Y  Y5  1  0.819231  0.718182  0.537414  1
  Y  Y6  1  0.180768  0.718182  0.898952  1
  Y  Y7  1  0.819232  0.281818  0.101048  1
  Y  Y8  1  0.321094  0.625159  0.304066  1
  Y  Y9  1  0.678906  0.374841  0.695934  1
  Y  Y10  1  0.321095  0.017031  0.695936  1
  Y  Y11  1  0.678905  0.982969  0.304064  1
  Tl  Tl12  1  0.500000  0.500000  0.000000  1
  Tc  Tc13  1  0.000000  0.000000  0.000000  1
  Ni  Ni14  1  0.361784  0.000000  0.361784  1
  Ni  Ni15  1  0.638216  0.000000  0.638216  1
  Ni  Ni16  1  0.116937  0.616945  0.500007  1
  Ni  Ni17  1  0.883063  0.383055  0.499993  1
