# generated using pymatgen
data_Y8SiPd23Pt
_symmetry_space_group_name_H-M   'P 1'
_cell_length_a   8.34538900
_cell_length_b   8.35094900
_cell_length_c   8.35094900
_cell_angle_alpha   90.00000000
_cell_angle_beta   90.00000000
_cell_angle_gamma   90.00000000
_symmetry_Int_Tables_number   1
_chemical_formula_structural   Y8SiPd23Pt
_chemical_formula_sum   'Y8 Si1 Pd23 Pt1'
_cell_volume   581.99365230
_cell_formula_units_Z   1
loop_
 _symmetry_equiv_pos_site_id
 _symmetry_equiv_pos_as_xyz
  1  'x, y, z'
loop_
 _atom_site_type_symbol
 _atom_site_label
 _atom_site_symmetry_multiplicity
 _atom_site_fract_x
 _atom_site_fract_y
 _atom_site_fract_z
 _atom_site_occupancy
  Y  Y0  1  0.252936  0.252846  0.252846  1
  Y  Y1  1  0.746738  0.746498  0.746498  1
  Y  Y2  1  0.746738  0.746498  0.253502  1
  Y  Y3  1  0.746738  0.253502  0.746498  1
  Y  Y4  1  0.252936  0.252846  0.747154  1
  Y  Y5  1  0.252936  0.747154  0.252846  1
  Y  Y6  1  0.252936  0.747154  0.747154  1
  Y  Y7  1  0.746738  0.253502  0.253502  1
  Si  Si8  1  0.002445  0.000000  0.000000  1
  Pd  Pd9  1  0.257305  0.500000  0.000000  1
  Pd  Pd10  1  0.742100  0.500000  0.000000  1
  Pd  Pd11  1  0.999945  0.257771  0.500000  1
  Pd  Pd12  1  0.499848  0.257640  0.000000  1
  Pd  Pd13  1  0.999945  0.742229  0.500000  1
  Pd  Pd14  1  0.499848  0.742360  0.000000  1
  Pd  Pd15  1  0.499848  0.000000  0.257640  1
  Pd  Pd16  1  0.257305  0.000000  0.500000  1
  Pd  Pd17  1  0.499848  0.000000  0.742360  1
  Pd  Pd18  1  0.742100  0.000000  0.500000  1
  Pd  Pd19  1  0.999945  0.500000  0.257771  1
  Pd  Pd20  1  0.999945  0.500000  0.742229  1
  Pd  Pd21  1  0.252502  0.500000  0.500000  1
  Pd  Pd22  1  0.747692  0.500000  0.500000  1
  Pd  Pd23  1  0.500055  0.252535  0.500000  1
  Pd  Pd24  1  0.500055  0.747465  0.500000  1
  Pd  Pd25  1  0.500055  0.500000  0.252535  1
  Pd  Pd26  1  0.500055  0.500000  0.747465  1
  Pd  Pd27  1  0.721350  0.000000  0.000000  1
  Pd  Pd28  1  0.999364  0.281182  0.000000  1
  Pd  Pd29  1  0.999364  0.718818  0.000000  1
  Pd  Pd30  1  0.999364  0.000000  0.281182  1
  Pd  Pd31  1  0.999364  0.000000  0.718818  1
  Pt  Pt32  1  0.281662  0.000000  0.000000  1
