# generated using pymatgen
data_Er8ReOs2WC8
_symmetry_space_group_name_H-M   'P 1'
_cell_length_a   5.05867300
_cell_length_b   6.52284039
_cell_length_c   9.78418732
_cell_angle_alpha   89.46038064
_cell_angle_beta   90.00000000
_cell_angle_gamma   90.00000000
_symmetry_Int_Tables_number   1
_chemical_formula_structural   Er8ReOs2WC8
_chemical_formula_sum   'Er8 Re1 Os2 W1 C8'
_cell_volume   322.83369418
_cell_formula_units_Z   1
loop_
 _symmetry_equiv_pos_site_id
 _symmetry_equiv_pos_as_xyz
  1  'x, y, z'
loop_
 _atom_site_type_symbol
 _atom_site_label
 _atom_site_symmetry_multiplicity
 _atom_site_fract_x
 _atom_site_fract_y
 _atom_site_fract_z
 _atom_site_occupancy
  Er  Er0  1  0.250000  0.675652  0.557266  1
  Er  Er1  1  0.750000  0.323701  0.443544  1
  Er  Er2  1  0.750000  0.823563  0.057853  1
  Er  Er3  1  0.250000  0.175828  0.942200  1
  Er  Er4  1  0.250000  0.537441  0.218546  1
  Er  Er5  1  0.750000  0.463168  0.784023  1
  Er  Er6  1  0.750000  0.967605  0.714884  1
  Er  Er7  1  0.250000  0.033217  0.285421  1
  Re  Re8  1  0.250000  0.716042  0.868185  1
  Os  Os9  1  0.750000  0.781336  0.368520  1
  Os  Os10  1  0.250000  0.218732  0.633301  1
  W  W11  1  0.750000  0.284925  0.130143  1
  C  C12  1  0.250000  0.451051  0.758736  1
  C  C13  1  0.750000  0.551942  0.240970  1
  C  C14  1  0.750000  0.048433  0.259384  1
  C  C15  1  0.250000  0.950025  0.741536  1
  C  C16  1  0.250000  0.824687  0.051785  1
  C  C17  1  0.750000  0.172893  0.942370  1
  C  C18  1  0.750000  0.674349  0.552724  1
  C  C19  1  0.250000  0.325409  0.448607  1
