# generated using pymatgen
data_Tb11HoTc3Rh
_symmetry_space_group_name_H-M   'P 1'
_cell_length_a   6.31432148
_cell_length_b   7.43676159
_cell_length_c   9.23132556
_cell_angle_alpha   90.01417387
_cell_angle_beta   89.96250154
_cell_angle_gamma   89.89608604
_symmetry_Int_Tables_number   1
_chemical_formula_structural   Tb11HoTc3Rh
_chemical_formula_sum   'Tb11 Ho1 Tc3 Rh1'
_cell_volume   433.48472156
_cell_formula_units_Z   1
loop_
 _symmetry_equiv_pos_site_id
 _symmetry_equiv_pos_as_xyz
  1  'x, y, z'
loop_
 _atom_site_type_symbol
 _atom_site_label
 _atom_site_symmetry_multiplicity
 _atom_site_fract_x
 _atom_site_fract_y
 _atom_site_fract_z
 _atom_site_occupancy
  Tb  Tb0  1  0.162595  0.176810  0.436194  1
  Tb  Tb1  1  0.663977  0.321516  0.561526  1
  Tb  Tb2  1  0.837904  0.825810  0.938536  1
  Tb  Tb3  1  0.663697  0.321780  0.938688  1
  Tb  Tb4  1  0.837835  0.825899  0.561626  1
  Tb  Tb5  1  0.332803  0.676166  0.433488  1
  Tb  Tb6  1  0.162847  0.176811  0.063759  1
  Tb  Tb7  1  0.873160  0.542314  0.249774  1
  Tb  Tb8  1  0.624267  0.038761  0.249868  1
  Tb  Tb9  1  0.132269  0.457241  0.750195  1
  Tb  Tb10  1  0.370236  0.959015  0.750168  1
  Ho  Ho11  1  0.332834  0.676149  0.066343  1
  Tc  Tc12  1  0.039332  0.883831  0.249746  1
  Tc  Tc13  1  0.462524  0.386779  0.249829  1
  Tc  Tc14  1  0.959239  0.115894  0.749933  1
  Rh  Rh15  1  0.544482  0.615223  0.750329  1
