# generated using pymatgen
data_ErMg2PaRh2
_symmetry_space_group_name_H-M   'P 1'
_cell_length_a   3.79373200
_cell_length_b   7.35715404
_cell_length_c   9.08732489
_cell_angle_alpha   91.29422797
_cell_angle_beta   90.00000000
_cell_angle_gamma   90.00000000
_symmetry_Int_Tables_number   1
_chemical_formula_structural   ErMg2PaRh2
_chemical_formula_sum   'Er2 Mg4 Pa2 Rh4'
_cell_volume   253.57226222
_cell_formula_units_Z   2
loop_
 _symmetry_equiv_pos_site_id
 _symmetry_equiv_pos_as_xyz
  1  'x, y, z'
loop_
 _atom_site_type_symbol
 _atom_site_label
 _atom_site_symmetry_multiplicity
 _atom_site_fract_x
 _atom_site_fract_y
 _atom_site_fract_z
 _atom_site_occupancy
  Er  Er0  1  0.250000  0.529108  0.817337  1
  Er  Er1  1  0.750000  0.470892  0.182663  1
  Mg  Mg2  1  0.750000  0.850926  0.951047  1
  Mg  Mg3  1  0.250000  0.149074  0.048953  1
  Mg  Mg4  1  0.250000  0.637753  0.447065  1
  Mg  Mg5  1  0.750000  0.362247  0.552935  1
  Pa  Pa6  1  0.750000  0.969096  0.313220  1
  Pa  Pa7  1  0.250000  0.030904  0.686780  1
  Rh  Rh8  1  0.750000  0.781196  0.636543  1
  Rh  Rh9  1  0.250000  0.218804  0.363457  1
  Rh  Rh10  1  0.250000  0.771029  0.167701  1
  Rh  Rh11  1  0.750000  0.228971  0.832299  1
