# generated using pymatgen
data_Pr2Dy3ThRh18
_symmetry_space_group_name_H-M   'P 1'
_cell_length_a   5.32290300
_cell_length_b   5.32290206
_cell_length_c   17.62791200
_cell_angle_alpha   90.00000000
_cell_angle_beta   90.00000000
_cell_angle_gamma   119.99998720
_symmetry_Int_Tables_number   1
_chemical_formula_structural   Pr2Dy3ThRh18
_chemical_formula_sum   'Pr2 Dy3 Th1 Rh18'
_cell_volume   432.54230362
_cell_formula_units_Z   1
loop_
 _symmetry_equiv_pos_site_id
 _symmetry_equiv_pos_as_xyz
  1  'x, y, z'
loop_
 _atom_site_type_symbol
 _atom_site_label
 _atom_site_symmetry_multiplicity
 _atom_site_fract_x
 _atom_site_fract_y
 _atom_site_fract_z
 _atom_site_occupancy
  Pr  Pr0  1  0.333334  0.666665  0.541381  1
  Pr  Pr1  1  0.333332  0.666666  0.751257  1
  Dy  Dy2  1  0.666676  0.333338  0.040581  1
  Dy  Dy3  1  0.666673  0.333344  0.457050  1
  Dy  Dy4  1  0.333334  0.666658  0.958296  1
  Th  Th5  1  0.666671  0.333335  0.248925  1
  Rh  Rh6  1  0.167349  0.334692  0.124695  1
  Rh  Rh7  1  0.832991  0.665981  0.627690  1
  Rh  Rh8  1  0.665306  0.832654  0.124696  1
  Rh  Rh9  1  0.167351  0.832666  0.124688  1
  Rh  Rh10  1  0.832989  0.167004  0.627680  1
  Rh  Rh11  1  0.334011  0.166996  0.627694  1
  Rh  Rh12  1  0.832669  0.665330  0.875540  1
  Rh  Rh13  1  0.832659  0.167325  0.875555  1
  Rh  Rh14  1  0.334667  0.167325  0.875537  1
  Rh  Rh15  1  0.666407  0.833212  0.372838  1
  Rh  Rh16  1  0.166797  0.833211  0.372852  1
  Rh  Rh17  1  0.166792  0.333595  0.372839  1
  Rh  Rh18  1  0.000041  0.999959  0.248661  1
  Rh  Rh19  1  0.999961  0.000043  0.751582  1
  Rh  Rh20  1  0.333280  0.666704  0.249123  1
  Rh  Rh21  1  0.666703  0.333302  0.751297  1
  Rh  Rh22  1  0.000012  0.999982  0.000173  1
  Rh  Rh23  1  0.999999  0.000011  0.499373  1
