# generated using pymatgen
data_Tm8In3Pd
_symmetry_space_group_name_H-M   'P 1'
_cell_length_a   10.42140700
_cell_length_b   10.42140794
_cell_length_c   6.83967500
_cell_angle_alpha   90.00000000
_cell_angle_beta   90.00000000
_cell_angle_gamma   120.00000020
_symmetry_Int_Tables_number   1
_chemical_formula_structural   Tm8In3Pd
_chemical_formula_sum   'Tm16 In6 Pd2'
_cell_volume   643.30784915
_cell_formula_units_Z   2
loop_
 _symmetry_equiv_pos_site_id
 _symmetry_equiv_pos_as_xyz
  1  'x, y, z'
loop_
 _atom_site_type_symbol
 _atom_site_label
 _atom_site_symmetry_multiplicity
 _atom_site_fract_x
 _atom_site_fract_y
 _atom_site_fract_z
 _atom_site_occupancy
  Tm  Tm0  1  0.528209  0.056419  0.518182  1
  Tm  Tm1  1  0.943581  0.471791  0.518182  1
  Tm  Tm2  1  0.528209  0.471791  0.518182  1
  Tm  Tm3  1  0.471791  0.943581  0.018182  1
  Tm  Tm4  1  0.056419  0.528209  0.018182  1
  Tm  Tm5  1  0.471791  0.528209  0.018182  1
  Tm  Tm6  1  0.175489  0.350978  0.726015  1
  Tm  Tm7  1  0.649022  0.824511  0.726015  1
  Tm  Tm8  1  0.175489  0.824511  0.726015  1
  Tm  Tm9  1  0.824511  0.649022  0.226015  1
  Tm  Tm10  1  0.350978  0.175489  0.226015  1
  Tm  Tm11  1  0.824511  0.175489  0.226015  1
  Tm  Tm12  1  0.666667  0.333333  0.887786  1
  Tm  Tm13  1  0.333333  0.666667  0.387786  1
  Tm  Tm14  1  0.000000  0.000000  0.495776  1
  Tm  Tm15  1  0.000000  0.000000  0.995776  1
  In  In16  1  0.837484  0.674968  0.757841  1
  In  In17  1  0.325032  0.162516  0.757841  1
  In  In18  1  0.837484  0.162516  0.757841  1
  In  In19  1  0.162516  0.325032  0.257841  1
  In  In20  1  0.674968  0.837484  0.257841  1
  In  In21  1  0.162516  0.837484  0.257841  1
  Pd  Pd22  1  0.666667  0.333333  0.289326  1
  Pd  Pd23  1  0.333333  0.666667  0.789326  1
