# generated using pymatgen
data_Pr3MnCrC6
_symmetry_space_group_name_H-M   'P 1'
_cell_length_a   8.28268800
_cell_length_b   8.28268731
_cell_length_c   5.21869400
_cell_angle_alpha   90.00000000
_cell_angle_beta   90.00000000
_cell_angle_gamma   119.99999477
_symmetry_Int_Tables_number   1
_chemical_formula_structural   Pr3MnCrC6
_chemical_formula_sum   'Pr6 Mn2 Cr2 C12'
_cell_volume   310.05237008
_cell_formula_units_Z   2
loop_
 _symmetry_equiv_pos_site_id
 _symmetry_equiv_pos_as_xyz
  1  'x, y, z'
loop_
 _atom_site_type_symbol
 _atom_site_label
 _atom_site_symmetry_multiplicity
 _atom_site_fract_x
 _atom_site_fract_y
 _atom_site_fract_z
 _atom_site_occupancy
  Pr  Pr0  1  0.612879  0.685439  0.750000  1
  Pr  Pr1  1  0.927441  0.612879  0.250000  1
  Pr  Pr2  1  0.685439  0.072559  0.250000  1
  Pr  Pr3  1  0.314561  0.927441  0.750000  1
  Pr  Pr4  1  0.072559  0.387121  0.750000  1
  Pr  Pr5  1  0.387121  0.314561  0.250000  1
  Mn  Mn6  1  0.666667  0.333333  0.750000  1
  Mn  Mn7  1  0.333333  0.666667  0.250000  1
  Cr  Cr8  1  0.000000  0.000000  0.500000  1
  Cr  Cr9  1  0.000000  0.000000  0.000000  1
  C  C10  1  0.953518  0.769049  0.750000  1
  C  C11  1  0.184469  0.953518  0.250000  1
  C  C12  1  0.769049  0.815531  0.250000  1
  C  C13  1  0.230951  0.184469  0.750000  1
  C  C14  1  0.815531  0.046482  0.750000  1
  C  C15  1  0.046482  0.230951  0.250000  1
  C  C16  1  0.857195  0.577416  0.750000  1
  C  C17  1  0.279779  0.857195  0.250000  1
  C  C18  1  0.577416  0.720221  0.250000  1
  C  C19  1  0.422584  0.279779  0.750000  1
  C  C20  1  0.142805  0.422584  0.250000  1
  C  C21  1  0.720221  0.142805  0.750000  1
