# generated using pymatgen
data_Sr4Os5RuO18
_symmetry_space_group_name_H-M   'P 1'
_cell_length_a   8.02045831
_cell_length_b   8.02772771
_cell_length_c   8.02045890
_cell_angle_alpha   109.56434025
_cell_angle_beta   109.24304955
_cell_angle_gamma   109.56960946
_symmetry_Int_Tables_number   1
_chemical_formula_structural   Sr4Os5RuO18
_chemical_formula_sum   'Sr4 Os5 Ru1 O18'
_cell_volume   397.70589245
_cell_formula_units_Z   1
loop_
 _symmetry_equiv_pos_site_id
 _symmetry_equiv_pos_as_xyz
  1  'x, y, z'
loop_
 _atom_site_type_symbol
 _atom_site_label
 _atom_site_symmetry_multiplicity
 _atom_site_fract_x
 _atom_site_fract_y
 _atom_site_fract_z
 _atom_site_occupancy
  Sr  Sr0  1  0.997787  0.995840  0.398237  1
  Sr  Sr1  1  0.999088  0.400621  0.001015  1
  Sr  Sr2  1  0.600394  0.599379  0.598468  1
  Sr  Sr3  1  0.402397  0.004160  0.001947  1
  Os  Os4  1  0.366636  0.500000  0.866636  1
  Os  Os5  1  0.865060  0.366126  0.498697  1
  Os  Os6  1  0.501766  0.133690  0.636039  1
  Os  Os7  1  0.132571  0.633874  0.498934  1
  Os  Os8  1  0.502349  0.866310  0.368076  1
  Ru  Ru9  1  0.634485  0.500000  0.134485  1
  O  O10  1  0.331663  0.000000  0.331663  1
  O  O11  1  0.326447  0.330871  0.994095  1
  O  O12  1  0.999398  0.670166  0.669561  1
  O  O13  1  0.663224  0.669129  0.995576  1
  O  O14  1  0.999395  0.329834  0.329232  1
  O  O15  1  0.671682  0.000000  0.671682  1
  O  O16  1  0.363478  0.298495  0.637403  1
  O  O17  1  0.065509  0.341079  0.699643  1
  O  O18  1  0.727213  0.362238  0.663115  1
  O  O19  1  0.358565  0.658921  0.724431  1
  O  O20  1  0.273472  0.935583  0.636279  1
  O  O21  1  0.636809  0.363539  0.302972  1
  O  O22  1  0.300878  0.637762  0.364976  1
  O  O23  1  0.700697  0.064417  0.337890  1
  O  O24  1  0.939434  0.636461  0.273270  1
  O  O25  1  0.664211  0.730607  0.367090  1
  O  O26  1  0.636482  0.269393  0.933605  1
  O  O27  1  0.338909  0.701505  0.064982  1
