# generated using pymatgen
data_DyEr4Hf2P12Ir17
_symmetry_space_group_name_H-M   'P 1'
_cell_length_a   12.64414500
_cell_length_b   12.87635766
_cell_length_c   3.96982000
_cell_angle_alpha   90.00000000
_cell_angle_beta   90.00000000
_cell_angle_gamma   119.40520817
_symmetry_Int_Tables_number   1
_chemical_formula_structural   DyEr4Hf2P12Ir17
_chemical_formula_sum   'Dy1 Er4 Hf2 P12 Ir17'
_cell_volume   563.06148210
_cell_formula_units_Z   1
loop_
 _symmetry_equiv_pos_site_id
 _symmetry_equiv_pos_as_xyz
  1  'x, y, z'
loop_
 _atom_site_type_symbol
 _atom_site_label
 _atom_site_symmetry_multiplicity
 _atom_site_fract_x
 _atom_site_fract_y
 _atom_site_fract_z
 _atom_site_occupancy
  Dy  Dy0  1  0.813056  0.000000  0.000000  1
  Er  Er1  1  0.330212  0.661490  0.500000  1
  Er  Er2  1  0.668723  0.338510  0.500000  1
  Er  Er3  1  0.999923  0.815400  0.000000  1
  Er  Er4  1  0.184523  0.184600  0.000000  1
  Hf  Hf5  1  0.997611  0.447175  0.500000  1
  Hf  Hf6  1  0.550436  0.552825  0.500000  1
  P  P7  1  0.005415  0.651541  0.500000  1
  P  P8  1  0.353874  0.348459  0.500000  1
  P  P9  1  0.645416  0.000000  0.500000  1
  P  P10  1  0.514557  0.685913  0.000000  1
  P  P11  1  0.309862  0.824844  0.000000  1
  P  P12  1  0.164995  0.481524  0.000000  1
  P  P13  1  0.485019  0.175156  0.000000  1
  P  P14  1  0.683471  0.518476  0.000000  1
  P  P15  1  0.828644  0.314087  0.000000  1
  P  P16  1  0.999771  0.173779  0.500000  1
  P  P17  1  0.825992  0.826221  0.500000  1
  P  P18  1  0.181308  0.000000  0.500000  1
  Ir  Ir19  1  0.504682  0.864112  0.000000  1
  Ir  Ir20  1  0.127802  0.642761  0.000000  1
  Ir  Ir21  1  0.355917  0.496251  0.000000  1
  Ir  Ir22  1  0.485043  0.357239  0.000000  1
  Ir  Ir23  1  0.859668  0.503749  0.000000  1
  Ir  Ir24  1  0.640572  0.135888  0.000000  1
  Ir  Ir25  1  0.464781  0.000000  0.500000  1
  Ir  Ir26  1  0.997186  0.279404  0.000000  1
  Ir  Ir27  1  0.717783  0.720596  0.000000  1
  Ir  Ir28  1  0.289475  0.000000  0.000000  1
  Ir  Ir29  1  0.623690  0.807311  0.500000  1
  Ir  Ir30  1  0.203326  0.825147  0.500000  1
  Ir  Ir31  1  0.177619  0.366588  0.500000  1
  Ir  Ir32  1  0.378178  0.174853  0.500000  1
  Ir  Ir33  1  0.811031  0.633412  0.500000  1
  Ir  Ir34  1  0.816379  0.192689  0.500000  1
  Ir  Ir35  1  0.004060  0.000000  0.500000  1
