# generated using pymatgen
data_Sn3SbAs3
_symmetry_space_group_name_H-M   'P 1'
_cell_length_a   12.20296821
_cell_length_b   12.20296807
_cell_length_c   12.20296877
_cell_angle_alpha   20.03530489
_cell_angle_beta   20.03530758
_cell_angle_gamma   20.03530927
_symmetry_Int_Tables_number   1
_chemical_formula_structural   Sn3SbAs3
_chemical_formula_sum   'Sn3 Sb1 As3'
_cell_volume   186.59559454
_cell_formula_units_Z   1
loop_
 _symmetry_equiv_pos_site_id
 _symmetry_equiv_pos_as_xyz
  1  'x, y, z'
loop_
 _atom_site_type_symbol
 _atom_site_label
 _atom_site_symmetry_multiplicity
 _atom_site_fract_x
 _atom_site_fract_y
 _atom_site_fract_z
 _atom_site_occupancy
  Sn  Sn0  1  0.632643  0.632643  0.632643  1
  Sn  Sn1  1  0.212159  0.212159  0.212159  1
  Sn  Sn2  1  0.793410  0.793410  0.793410  1
  Sb  Sb3  1  0.365641  0.365641  0.365641  1
  As  As4  1  0.929172  0.929172  0.929172  1
  As  As5  1  0.498811  0.498811  0.498811  1
  As  As6  1  0.068164  0.068164  0.068164  1
