# generated using pymatgen
data_Tb2Dy6Re(B8Os)3
_symmetry_space_group_name_H-M   'P 1'
_cell_length_a   3.66969200
_cell_length_b   9.16819256
_cell_length_c   11.55268502
_cell_angle_alpha   90.09020150
_cell_angle_beta   90.00000000
_cell_angle_gamma   90.00000000
_symmetry_Int_Tables_number   1
_chemical_formula_structural   Tb2Dy6Re(B8Os)3
_chemical_formula_sum   'Tb2 Dy6 Re1 B24 Os3'
_cell_volume   388.68316955
_cell_formula_units_Z   1
loop_
 _symmetry_equiv_pos_site_id
 _symmetry_equiv_pos_as_xyz
  1  'x, y, z'
loop_
 _atom_site_type_symbol
 _atom_site_label
 _atom_site_symmetry_multiplicity
 _atom_site_fract_x
 _atom_site_fract_y
 _atom_site_fract_z
 _atom_site_occupancy
  Tb  Tb0  1  0.000000  0.322849  0.414749  1
  Tb  Tb1  1  0.000000  0.679566  0.588212  1
  Dy  Dy2  1  0.000000  0.823026  0.083756  1
  Dy  Dy3  1  0.000000  0.176032  0.913141  1
  Dy  Dy4  1  0.000000  0.943315  0.371843  1
  Dy  Dy5  1  0.000000  0.055924  0.627688  1
  Dy  Dy6  1  0.000000  0.442990  0.127706  1
  Dy  Dy7  1  0.000000  0.556481  0.872950  1
  Re  Re8  1  0.000000  0.862515  0.821490  1
  B  B9  1  0.500000  0.553989  0.432802  1
  B  B10  1  0.500000  0.446187  0.567560  1
  B  B11  1  0.500000  0.053606  0.067493  1
  B  B12  1  0.500000  0.947115  0.932908  1
  B  B13  1  0.500000  0.747936  0.419176  1
  B  B14  1  0.500000  0.252220  0.580686  1
  B  B15  1  0.500000  0.247560  0.080729  1
  B  B16  1  0.500000  0.752125  0.919286  1
  B  B17  1  0.500000  0.790147  0.266424  1
  B  B18  1  0.500000  0.209336  0.732837  1
  B  B19  1  0.500000  0.290461  0.233414  1
  B  B20  1  0.500000  0.708916  0.766618  1
  B  B21  1  0.500000  0.631422  0.185782  1
  B  B22  1  0.500000  0.368099  0.813876  1
  B  B23  1  0.500000  0.131894  0.314208  1
  B  B24  1  0.500000  0.868444  0.686073  1
  B  B25  1  0.500000  0.983763  0.212624  1
  B  B26  1  0.500000  0.017274  0.787249  1
  B  B27  1  0.500000  0.483696  0.287660  1
  B  B28  1  0.500000  0.516308  0.712927  1
  B  B29  1  0.500000  0.606936  0.030344  1
  B  B30  1  0.500000  0.391516  0.970328  1
  B  B31  1  0.500000  0.107949  0.469702  1
  B  B32  1  0.500000  0.892653  0.529222  1
  Os  Os33  1  0.000000  0.637568  0.321379  1
  Os  Os34  1  0.000000  0.362452  0.678195  1
  Os  Os35  1  0.000000  0.137731  0.178963  1
