# generated using pymatgen
data_MnBe3TlF9
_symmetry_space_group_name_H-M   'P 1'
_cell_length_a   6.86925100
_cell_length_b   6.86925136
_cell_length_c   10.02612500
_cell_angle_alpha   90.00000000
_cell_angle_beta   90.00000000
_cell_angle_gamma   120.00000307
_symmetry_Int_Tables_number   1
_chemical_formula_structural   MnBe3TlF9
_chemical_formula_sum   'Mn2 Be6 Tl2 F18'
_cell_volume   409.71562558
_cell_formula_units_Z   2
loop_
 _symmetry_equiv_pos_site_id
 _symmetry_equiv_pos_as_xyz
  1  'x, y, z'
loop_
 _atom_site_type_symbol
 _atom_site_label
 _atom_site_symmetry_multiplicity
 _atom_site_fract_x
 _atom_site_fract_y
 _atom_site_fract_z
 _atom_site_occupancy
  Mn  Mn0  1  0.000000  0.000000  0.500000  1
  Mn  Mn1  1  0.000000  0.000000  0.000000  1
  Be  Be2  1  0.876670  0.272713  0.250000  1
  Be  Be3  1  0.876670  0.603957  0.750000  1
  Be  Be4  1  0.396043  0.272713  0.750000  1
  Be  Be5  1  0.727287  0.123330  0.750000  1
  Be  Be6  1  0.727287  0.603957  0.250000  1
  Be  Be7  1  0.396043  0.123330  0.250000  1
  Tl  Tl8  1  0.333333  0.666667  0.500000  1
  Tl  Tl9  1  0.333333  0.666667  0.000000  1
  F  F10  1  0.749052  0.009257  0.622267  1
  F  F11  1  0.260204  0.250948  0.622267  1
  F  F12  1  0.990743  0.739796  0.622267  1
  F  F13  1  0.990743  0.250948  0.377733  1
  F  F14  1  0.902358  0.517270  0.250000  1
  F  F15  1  0.614911  0.097642  0.250000  1
  F  F16  1  0.482730  0.385089  0.250000  1
  F  F17  1  0.482730  0.097642  0.750000  1
  F  F18  1  0.614911  0.517270  0.750000  1
  F  F19  1  0.902358  0.385089  0.750000  1
  F  F20  1  0.990743  0.250948  0.122267  1
  F  F21  1  0.260204  0.009257  0.377733  1
  F  F22  1  0.749052  0.739796  0.377733  1
  F  F23  1  0.749052  0.739796  0.122267  1
  F  F24  1  0.260204  0.009257  0.122267  1
  F  F25  1  0.749052  0.009257  0.877733  1
  F  F26  1  0.260204  0.250948  0.877733  1
  F  F27  1  0.990743  0.739796  0.877733  1
