# generated using pymatgen
data_Mg3In9Ir3Ru
_symmetry_space_group_name_H-M   'P 1'
_cell_length_a   7.07614254
_cell_length_b   7.14446888
_cell_length_c   7.16783900
_cell_angle_alpha   90.00000000
_cell_angle_beta   90.00000000
_cell_angle_gamma   89.74791391
_symmetry_Int_Tables_number   1
_chemical_formula_structural   Mg3In9Ir3Ru
_chemical_formula_sum   'Mg3 In9 Ir3 Ru1'
_cell_volume   362.36860148
_cell_formula_units_Z   1
loop_
 _symmetry_equiv_pos_site_id
 _symmetry_equiv_pos_as_xyz
  1  'x, y, z'
loop_
 _atom_site_type_symbol
 _atom_site_label
 _atom_site_symmetry_multiplicity
 _atom_site_fract_x
 _atom_site_fract_y
 _atom_site_fract_z
 _atom_site_occupancy
  Mg  Mg0  1  0.000297  0.500655  0.500000  1
  Mg  Mg1  1  0.501638  0.999087  0.000000  1
  Mg  Mg2  1  0.500216  0.999960  0.500000  1
  In  In3  1  0.999310  0.501876  0.000000  1
  In  In4  1  0.346587  0.665576  0.236988  1
  In  In5  1  0.656336  0.338933  0.238504  1
  In  In6  1  0.162416  0.156281  0.733152  1
  In  In7  1  0.835783  0.842096  0.735892  1
  In  In8  1  0.656336  0.338933  0.761496  1
  In  In9  1  0.346587  0.665576  0.763012  1
  In  In10  1  0.835783  0.842096  0.264108  1
  In  In11  1  0.162416  0.156281  0.266848  1
  Ir  Ir12  1  0.150696  0.846743  0.500000  1
  Ir  Ir13  1  0.847862  0.152415  0.500000  1
  Ir  Ir14  1  0.345748  0.344827  0.000000  1
  Ru  Ru15  1  0.651990  0.648668  0.000000  1
