# generated using pymatgen
data_Ho2ErLu3MnSb2
_symmetry_space_group_name_H-M   'P 1'
_cell_length_a   8.03948800
_cell_length_b   8.04120553
_cell_length_c   4.21251900
_cell_angle_alpha   90.00000000
_cell_angle_beta   90.00000000
_cell_angle_gamma   119.99293473
_symmetry_Int_Tables_number   1
_chemical_formula_structural   Ho2ErLu3MnSb2
_chemical_formula_sum   'Ho2 Er1 Lu3 Mn1 Sb2'
_cell_volume   235.85928253
_cell_formula_units_Z   1
loop_
 _symmetry_equiv_pos_site_id
 _symmetry_equiv_pos_as_xyz
  1  'x, y, z'
loop_
 _atom_site_type_symbol
 _atom_site_label
 _atom_site_symmetry_multiplicity
 _atom_site_fract_x
 _atom_site_fract_y
 _atom_site_fract_z
 _atom_site_occupancy
  Ho  Ho0  1  0.000050  0.605493  0.000000  1
  Ho  Ho1  1  0.394557  0.394507  0.000000  1
  Er  Er2  1  0.605627  0.000000  0.000000  1
  Lu  Lu3  1  0.233900  0.000000  0.500000  1
  Lu  Lu4  1  0.999835  0.233719  0.500000  1
  Lu  Lu5  1  0.766116  0.766281  0.500000  1
  Mn  Mn6  1  0.999760  0.000000  0.000000  1
  Sb  Sb7  1  0.333505  0.666855  0.500000  1
  Sb  Sb8  1  0.666651  0.333145  0.500000  1
