# generated using pymatgen
data_K3Rb(AlI4)4
_symmetry_space_group_name_H-M   'P 1'
_cell_length_a   8.54797200
_cell_length_b   9.07002306
_cell_length_c   16.46953409
_cell_angle_alpha   89.91061423
_cell_angle_beta   90.00000000
_cell_angle_gamma   90.00000000
_symmetry_Int_Tables_number   1
_chemical_formula_structural   K3Rb(AlI4)4
_chemical_formula_sum   'K3 Rb1 Al4 I16'
_cell_volume   1276.88641793
_cell_formula_units_Z   1
loop_
 _symmetry_equiv_pos_site_id
 _symmetry_equiv_pos_as_xyz
  1  'x, y, z'
loop_
 _atom_site_type_symbol
 _atom_site_label
 _atom_site_symmetry_multiplicity
 _atom_site_fract_x
 _atom_site_fract_y
 _atom_site_fract_z
 _atom_site_occupancy
  K  K0  1  0.250000  0.443732  0.149802  1
  K  K1  1  0.750000  0.944369  0.349556  1
  K  K2  1  0.750000  0.556173  0.851822  1
  Rb  Rb3  1  0.250000  0.055662  0.649869  1
  Al  Al4  1  0.250000  0.298470  0.896838  1
  Al  Al5  1  0.750000  0.792496  0.605287  1
  Al  Al6  1  0.750000  0.703057  0.104598  1
  Al  Al7  1  0.250000  0.205963  0.393313  1
  I  I8  1  0.250000  0.132010  0.021525  1
  I  I9  1  0.750000  0.631998  0.478613  1
  I  I10  1  0.750000  0.868700  0.979485  1
  I  I11  1  0.250000  0.373933  0.516878  1
  I  I12  1  0.250000  0.931696  0.432696  1
  I  I13  1  0.750000  0.429797  0.064038  1
  I  I14  1  0.750000  0.067368  0.565926  1
  I  I15  1  0.250000  0.571569  0.937529  1
  I  I16  1  0.991786  0.759073  0.193020  1
  I  I17  1  0.007715  0.260780  0.304937  1
  I  I18  1  0.493153  0.243516  0.809208  1
  I  I19  1  0.509575  0.733134  0.693949  1
  I  I20  1  0.006847  0.243516  0.809208  1
  I  I21  1  0.990425  0.733134  0.693949  1
  I  I22  1  0.508214  0.759073  0.193020  1
  I  I23  1  0.492285  0.260780  0.304937  1
