# generated using pymatgen
data_Sc8Cd4GaAu7
_symmetry_space_group_name_H-M   'P 1'
_cell_length_a   7.72047629
_cell_length_b   7.72047661
_cell_length_c   6.91347262
_cell_angle_alpha   90.00330877
_cell_angle_beta   90.00331244
_cell_angle_gamma   90.42626616
_symmetry_Int_Tables_number   1
_chemical_formula_structural   Sc8Cd4GaAu7
_chemical_formula_sum   'Sc8 Cd4 Ga1 Au7'
_cell_volume   412.07136069
_cell_formula_units_Z   1
loop_
 _symmetry_equiv_pos_site_id
 _symmetry_equiv_pos_as_xyz
  1  'x, y, z'
loop_
 _atom_site_type_symbol
 _atom_site_label
 _atom_site_symmetry_multiplicity
 _atom_site_fract_x
 _atom_site_fract_y
 _atom_site_fract_z
 _atom_site_occupancy
  Sc  Sc0  1  0.152099  0.152099  0.999933  1
  Sc  Sc1  1  0.844458  0.844458  0.002907  1
  Sc  Sc2  1  0.653036  0.346783  0.502911  1
  Sc  Sc3  1  0.346783  0.653036  0.502911  1
  Sc  Sc4  1  0.686740  0.317672  0.996316  1
  Sc  Sc5  1  0.317672  0.686740  0.996316  1
  Sc  Sc6  1  0.817047  0.817047  0.497038  1
  Sc  Sc7  1  0.183520  0.183520  0.501385  1
  Cd  Cd8  1  0.500112  0.001331  0.251828  1
  Cd  Cd9  1  0.500471  0.001010  0.746430  1
  Cd  Cd10  1  0.001331  0.500112  0.251828  1
  Cd  Cd11  1  0.001010  0.500471  0.746430  1
  Ga  Ga12  1  0.369777  0.369777  0.217937  1
  Au  Au13  1  0.632169  0.632169  0.777211  1
  Au  Au14  1  0.623500  0.623500  0.223203  1
  Au  Au15  1  0.869250  0.130231  0.722090  1
  Au  Au16  1  0.868767  0.132487  0.276903  1
  Au  Au17  1  0.369543  0.369543  0.787433  1
  Au  Au18  1  0.132487  0.868767  0.276903  1
  Au  Au19  1  0.130231  0.869250  0.722090  1
