# generated using pymatgen
data_Ho2Ga10Tc3
_symmetry_space_group_name_H-M   'P 1'
_cell_length_a   9.05299400
_cell_length_b   9.05299400
_cell_length_c   6.32555100
_cell_angle_alpha   90.00000000
_cell_angle_beta   90.00000000
_cell_angle_gamma   90.00000000
_symmetry_Int_Tables_number   1
_chemical_formula_structural   Ho2Ga10Tc3
_chemical_formula_sum   'Ho4 Ga20 Tc6'
_cell_volume   518.42128794
_cell_formula_units_Z   2
loop_
 _symmetry_equiv_pos_site_id
 _symmetry_equiv_pos_as_xyz
  1  'x, y, z'
loop_
 _atom_site_type_symbol
 _atom_site_label
 _atom_site_symmetry_multiplicity
 _atom_site_fract_x
 _atom_site_fract_y
 _atom_site_fract_z
 _atom_site_occupancy
  Ho  Ho0  1  0.683029  0.183029  0.000000  1
  Ho  Ho1  1  0.316971  0.816971  0.000000  1
  Ho  Ho2  1  0.816971  0.683029  0.000000  1
  Ho  Ho3  1  0.183029  0.316971  0.000000  1
  Ga  Ga4  1  0.939897  0.205213  0.292084  1
  Ga  Ga5  1  0.705213  0.439897  0.292084  1
  Ga  Ga6  1  0.500000  0.000000  0.288979  1
  Ga  Ga7  1  0.560103  0.705213  0.707916  1
  Ga  Ga8  1  0.294787  0.560103  0.707916  1
  Ga  Ga9  1  0.794787  0.939897  0.292084  1
  Ga  Ga10  1  0.939897  0.205213  0.707916  1
  Ga  Ga11  1  0.294787  0.560103  0.292084  1
  Ga  Ga12  1  0.060103  0.794787  0.292084  1
  Ga  Ga13  1  0.705213  0.439897  0.707916  1
  Ga  Ga14  1  0.439897  0.294787  0.707916  1
  Ga  Ga15  1  0.060103  0.794787  0.707916  1
  Ga  Ga16  1  0.205213  0.060103  0.707916  1
  Ga  Ga17  1  0.794787  0.939897  0.707916  1
  Ga  Ga18  1  0.205213  0.060103  0.292084  1
  Ga  Ga19  1  0.000000  0.500000  0.711021  1
  Ga  Ga20  1  0.000000  0.500000  0.288979  1
  Ga  Ga21  1  0.560103  0.705213  0.292084  1
  Ga  Ga22  1  0.439897  0.294787  0.292084  1
  Ga  Ga23  1  0.500000  0.000000  0.711021  1
  Tc  Tc24  1  0.679194  0.179194  0.500000  1
  Tc  Tc25  1  0.820806  0.679194  0.500000  1
  Tc  Tc26  1  0.179194  0.320806  0.500000  1
  Tc  Tc27  1  0.000000  0.000000  0.000000  1
  Tc  Tc28  1  0.320806  0.820806  0.500000  1
  Tc  Tc29  1  0.500000  0.500000  0.000000  1
