# generated using pymatgen
data_La4TiAl19Pt12
_symmetry_space_group_name_H-M   'P 1'
_cell_length_a   4.20158000
_cell_length_b   7.40683113
_cell_length_c   20.76547510
_cell_angle_alpha   89.62312413
_cell_angle_beta   90.00000000
_cell_angle_gamma   90.00000000
_symmetry_Int_Tables_number   1
_chemical_formula_structural   La4TiAl19Pt12
_chemical_formula_sum   'La4 Ti1 Al19 Pt12'
_cell_volume   646.21577732
_cell_formula_units_Z   1
loop_
 _symmetry_equiv_pos_site_id
 _symmetry_equiv_pos_as_xyz
  1  'x, y, z'
loop_
 _atom_site_type_symbol
 _atom_site_label
 _atom_site_symmetry_multiplicity
 _atom_site_fract_x
 _atom_site_fract_y
 _atom_site_fract_z
 _atom_site_occupancy
  La  La0  1  0.250000  0.114749  0.639812  1
  La  La1  1  0.750000  0.878692  0.358719  1
  La  La2  1  0.250000  0.381904  0.139899  1
  La  La3  1  0.750000  0.615968  0.860113  1
  Ti  Ti4  1  0.750000  0.364118  0.383367  1
  Al  Al5  1  0.750000  0.887623  0.982802  1
  Al  Al6  1  0.750000  0.688108  0.200695  1
  Al  Al7  1  0.250000  0.872056  0.492046  1
  Al  Al8  1  0.250000  0.631293  0.992694  1
  Al  Al9  1  0.250000  0.308995  0.799818  1
  Al  Al10  1  0.750000  0.075471  0.208622  1
  Al  Al11  1  0.250000  0.642270  0.616261  1
  Al  Al12  1  0.250000  0.572716  0.292617  1
  Al  Al13  1  0.250000  0.189451  0.298555  1
  Al  Al14  1  0.750000  0.145909  0.884048  1
  Al  Al15  1  0.250000  0.921491  0.791093  1
  Al  Al16  1  0.750000  0.368681  0.007706  1
  Al  Al17  1  0.750000  0.619149  0.484286  1
  Al  Al18  1  0.750000  0.131394  0.506612  1
  Al  Al19  1  0.250000  0.112764  0.017451  1
  Al  Al20  1  0.250000  0.854794  0.116219  1
  Al  Al21  1  0.250000  0.387465  0.516451  1
  Al  Al22  1  0.750000  0.421931  0.708738  1
  Al  Al23  1  0.750000  0.809866  0.701193  1
  Pt  Pt24  1  0.750000  0.383405  0.261792  1
  Pt  Pt25  1  0.250000  0.883664  0.236959  1
  Pt  Pt26  1  0.250000  0.613471  0.736896  1
  Pt  Pt27  1  0.750000  0.114190  0.763862  1
  Pt  Pt28  1  0.250000  0.166857  0.426728  1
  Pt  Pt29  1  0.750000  0.419883  0.584010  1
  Pt  Pt30  1  0.750000  0.078611  0.083878  1
  Pt  Pt31  1  0.250000  0.922126  0.915970  1
  Pt  Pt32  1  0.750000  0.838241  0.573630  1
  Pt  Pt33  1  0.250000  0.337244  0.928214  1
  Pt  Pt34  1  0.750000  0.662880  0.071774  1
  Pt  Pt35  1  0.250000  0.582571  0.416469  1
