# generated using pymatgen
data_Ho3Tm7(Zn2Bi)2
_symmetry_space_group_name_H-M   'P 1'
_cell_length_a   8.54033951
_cell_length_b   8.54034051
_cell_length_c   8.53874434
_cell_angle_alpha   123.62262524
_cell_angle_beta   123.62263008
_cell_angle_gamma   83.82448569
_symmetry_Int_Tables_number   1
_chemical_formula_structural   Ho3Tm7(Zn2Bi)2
_chemical_formula_sum   'Ho3 Tm7 Zn4 Bi2'
_cell_volume   413.66881411
_cell_formula_units_Z   1
loop_
 _symmetry_equiv_pos_site_id
 _symmetry_equiv_pos_as_xyz
  1  'x, y, z'
loop_
 _atom_site_type_symbol
 _atom_site_label
 _atom_site_symmetry_multiplicity
 _atom_site_fract_x
 _atom_site_fract_y
 _atom_site_fract_z
 _atom_site_occupancy
  Ho  Ho0  1  0.295387  0.795387  0.804529  1
  Ho  Ho1  1  0.490171  0.295444  0.499757  1
  Ho  Ho2  1  0.795444  0.990171  0.499757  1
  Tm  Tm3  1  0.998893  0.999688  0.000258  1
  Tm  Tm4  1  0.499688  0.498893  0.000258  1
  Tm  Tm5  1  0.010620  0.510620  0.804778  1
  Tm  Tm6  1  0.707006  0.207006  0.196751  1
  Tm  Tm7  1  0.510050  0.706560  0.499610  1
  Tm  Tm8  1  0.206560  0.010050  0.499610  1
  Tm  Tm9  1  0.990121  0.490121  0.195557  1
  Zn  Zn10  1  0.639640  0.139640  0.780923  1
  Zn  Zn11  1  0.358924  0.858924  0.219574  1
  Zn  Zn12  1  0.138786  0.359503  0.499542  1
  Zn  Zn13  1  0.859503  0.638786  0.499542  1
  Bi  Bi14  1  0.749971  0.749235  0.999778  1
  Bi  Bi15  1  0.249235  0.249971  0.999778  1
