# generated using pymatgen
data_SmPPt8Pb
_symmetry_space_group_name_H-M   'P 1'
_cell_length_a   9.12079617
_cell_length_b   9.20494105
_cell_length_c   4.30696800
_cell_angle_alpha   90.00000000
_cell_angle_beta   90.00000000
_cell_angle_gamma   145.26965135
_symmetry_Int_Tables_number   1
_chemical_formula_structural   SmPPt8Pb
_chemical_formula_sum   'Sm1 P1 Pt8 Pb1'
_cell_volume   206.00748489
_cell_formula_units_Z   1
loop_
 _symmetry_equiv_pos_site_id
 _symmetry_equiv_pos_as_xyz
  1  'x, y, z'
loop_
 _atom_site_type_symbol
 _atom_site_label
 _atom_site_symmetry_multiplicity
 _atom_site_fract_x
 _atom_site_fract_y
 _atom_site_fract_z
 _atom_site_occupancy
  Sm  Sm0  1  0.621859  0.371966  0.500000  1
  P  P1  1  0.219604  0.215651  0.000000  1
  Pt  Pt2  1  0.102946  0.883672  0.000000  1
  Pt  Pt3  1  0.888403  0.105445  0.000000  1
  Pt  Pt4  1  0.490782  0.995627  0.000000  1
  Pt  Pt5  1  0.976096  0.488594  0.000000  1
  Pt  Pt6  1  0.193798  0.790316  0.500000  1
  Pt  Pt7  1  0.798997  0.197857  0.500000  1
  Pt  Pt8  1  0.006664  0.000284  0.500000  1
  Pt  Pt9  1  0.622042  0.626510  0.000000  1
  Pb  Pb10  1  0.392406  0.637677  0.500000  1
