# generated using pymatgen
data_Li5Er6Zn18P
_symmetry_space_group_name_H-M   'P 1'
_cell_length_a   9.02370026
_cell_length_b   9.02366882
_cell_length_c   9.02369800
_cell_angle_alpha   60.00080456
_cell_angle_beta   60.00026459
_cell_angle_gamma   60.00017434
_symmetry_Int_Tables_number   1
_chemical_formula_structural   Li5Er6Zn18P
_chemical_formula_sum   'Li5 Er6 Zn18 P1'
_cell_volume   519.56686257
_cell_formula_units_Z   1
loop_
 _symmetry_equiv_pos_site_id
 _symmetry_equiv_pos_as_xyz
  1  'x, y, z'
loop_
 _atom_site_type_symbol
 _atom_site_label
 _atom_site_symmetry_multiplicity
 _atom_site_fract_x
 _atom_site_fract_y
 _atom_site_fract_z
 _atom_site_occupancy
  Li  Li0  1  0.627208  0.124256  0.124255  1
  Li  Li1  1  0.124241  0.627247  0.124257  1
  Li  Li2  1  0.124257  0.124251  0.627240  1
  Li  Li3  1  0.124235  0.124243  0.124239  1
  Li  Li4  1  0.999994  0.999989  0.000012  1
  Er  Er5  1  0.711599  0.288413  0.288399  1
  Er  Er6  1  0.711582  0.288415  0.711580  1
  Er  Er7  1  0.711601  0.711567  0.288408  1
  Er  Er8  1  0.288426  0.711593  0.711592  1
  Er  Er9  1  0.288414  0.711596  0.288418  1
  Er  Er10  1  0.288413  0.288424  0.711585  1
  Zn  Zn11  1  0.367208  0.877599  0.877603  1
  Zn  Zn12  1  0.877594  0.367216  0.877595  1
  Zn  Zn13  1  0.877595  0.877598  0.367209  1
  Zn  Zn14  1  0.877598  0.877595  0.877595  1
  Zn  Zn15  1  0.499858  0.000143  0.000142  1
  Zn  Zn16  1  0.499864  0.000143  0.499859  1
  Zn  Zn17  1  0.499857  0.499857  0.000147  1
  Zn  Zn18  1  0.000142  0.499859  0.499860  1
  Zn  Zn19  1  0.000145  0.499859  0.000140  1
  Zn  Zn20  1  0.000144  0.000141  0.499860  1
  Zn  Zn21  1  0.016788  0.327733  0.327739  1
  Zn  Zn22  1  0.327742  0.016784  0.327739  1
  Zn  Zn23  1  0.327738  0.327742  0.016786  1
  Zn  Zn24  1  0.327744  0.327741  0.327737  1
  Zn  Zn25  1  0.985895  0.671369  0.671370  1
  Zn  Zn26  1  0.671372  0.985889  0.671373  1
  Zn  Zn27  1  0.671368  0.671369  0.985889  1
  Zn  Zn28  1  0.671376  0.671371  0.671374  1
  P  P29  1  0.500001  0.500000  0.499996  1
