# generated using pymatgen
data_Lu2Pa3(AlGa4)3
_symmetry_space_group_name_H-M   'P 1'
_cell_length_a   12.58466413
_cell_length_b   12.58466455
_cell_length_c   12.58466500
_cell_angle_alpha   28.20524375
_cell_angle_beta   28.20524021
_cell_angle_gamma   28.20524854
_symmetry_Int_Tables_number   1
_chemical_formula_structural   Lu2Pa3(AlGa4)3
_chemical_formula_sum   'Lu2 Pa3 Al3 Ga12'
_cell_volume   393.34533469
_cell_formula_units_Z   1
loop_
 _symmetry_equiv_pos_site_id
 _symmetry_equiv_pos_as_xyz
  1  'x, y, z'
loop_
 _atom_site_type_symbol
 _atom_site_label
 _atom_site_symmetry_multiplicity
 _atom_site_fract_x
 _atom_site_fract_y
 _atom_site_fract_z
 _atom_site_occupancy
  Lu  Lu0  1  0.999107  0.999107  0.999107  1
  Lu  Lu1  1  0.598615  0.598615  0.598615  1
  Pa  Pa2  1  0.130305  0.130305  0.130305  1
  Pa  Pa3  1  0.870065  0.870065  0.870065  1
  Pa  Pa4  1  0.401917  0.401917  0.401917  1
  Al  Al5  1  0.497449  0.497449  0.003273  1
  Al  Al6  1  0.497449  0.003273  0.497449  1
  Al  Al7  1  0.003273  0.497449  0.497449  1
  Ga  Ga8  1  0.130471  0.637003  0.637003  1
  Ga  Ga9  1  0.637003  0.637003  0.130471  1
  Ga  Ga10  1  0.637003  0.130471  0.637003  1
  Ga  Ga11  1  0.364151  0.873082  0.364151  1
  Ga  Ga12  1  0.364151  0.364151  0.873082  1
  Ga  Ga13  1  0.873082  0.364151  0.364151  1
  Ga  Ga14  1  0.427814  0.882079  0.882079  1
  Ga  Ga15  1  0.882079  0.882079  0.427814  1
  Ga  Ga16  1  0.882079  0.427814  0.882079  1
  Ga  Ga17  1  0.117927  0.568130  0.117927  1
  Ga  Ga18  1  0.117927  0.117927  0.568130  1
  Ga  Ga19  1  0.568130  0.117927  0.117927  1
