# generated using pymatgen
data_Nb12GaPt7N4
_symmetry_space_group_name_H-M   'P 1'
_cell_length_a   7.07837811
_cell_length_b   7.07837800
_cell_length_c   7.07837820
_cell_angle_alpha   89.69011050
_cell_angle_beta   89.69011010
_cell_angle_gamma   89.69011166
_symmetry_Int_Tables_number   1
_chemical_formula_structural   Nb12GaPt7N4
_chemical_formula_sum   'Nb12 Ga1 Pt7 N4'
_cell_volume   354.63556224
_cell_formula_units_Z   1
loop_
 _symmetry_equiv_pos_site_id
 _symmetry_equiv_pos_as_xyz
  1  'x, y, z'
loop_
 _atom_site_type_symbol
 _atom_site_label
 _atom_site_symmetry_multiplicity
 _atom_site_fract_x
 _atom_site_fract_y
 _atom_site_fract_z
 _atom_site_occupancy
  Nb  Nb0  1  0.624640  0.704316  0.953397  1
  Nb  Nb1  1  0.458928  0.870765  0.299651  1
  Nb  Nb2  1  0.704316  0.953397  0.624640  1
  Nb  Nb3  1  0.549872  0.376414  0.205445  1
  Nb  Nb4  1  0.376414  0.205445  0.549872  1
  Nb  Nb5  1  0.205445  0.549872  0.376414  1
  Nb  Nb6  1  0.870765  0.299651  0.458928  1
  Nb  Nb7  1  0.045221  0.120840  0.791688  1
  Nb  Nb8  1  0.299651  0.458928  0.870765  1
  Nb  Nb9  1  0.120840  0.791688  0.045221  1
  Nb  Nb10  1  0.791688  0.045221  0.120840  1
  Nb  Nb11  1  0.953397  0.624640  0.704316  1
  Ga  Ga12  1  0.185859  0.185859  0.185859  1
  Pt  Pt13  1  0.310315  0.816379  0.687815  1
  Pt  Pt14  1  0.425910  0.065833  0.948060  1
  Pt  Pt15  1  0.816379  0.687815  0.310315  1
  Pt  Pt16  1  0.687815  0.310315  0.816379  1
  Pt  Pt17  1  0.562104  0.562104  0.562104  1
  Pt  Pt18  1  0.065833  0.948060  0.425910  1
  Pt  Pt19  1  0.948060  0.425910  0.065833  1
  N  N20  1  0.375488  0.624064  0.124212  1
  N  N21  1  0.872781  0.872781  0.872781  1
  N  N22  1  0.124212  0.375488  0.624064  1
  N  N23  1  0.624064  0.124212  0.375488  1
