# generated using pymatgen
data_Tb2Yb7Pr11Sn16
_symmetry_space_group_name_H-M   'P 1'
_cell_length_a   8.05553613
_cell_length_b   8.51407823
_cell_length_c   16.05838724
_cell_angle_alpha   90.09205576
_cell_angle_beta   89.89155967
_cell_angle_gamma   90.04471899
_symmetry_Int_Tables_number   1
_chemical_formula_structural   Tb2Yb7Pr11Sn16
_chemical_formula_sum   'Tb2 Yb7 Pr11 Sn16'
_cell_volume   1101.36822586
_cell_formula_units_Z   1
loop_
 _symmetry_equiv_pos_site_id
 _symmetry_equiv_pos_as_xyz
  1  'x, y, z'
loop_
 _atom_site_type_symbol
 _atom_site_label
 _atom_site_symmetry_multiplicity
 _atom_site_fract_x
 _atom_site_fract_y
 _atom_site_fract_z
 _atom_site_occupancy
  Tb  Tb0  1  0.329575  0.829715  0.876536  1
  Tb  Tb1  1  0.829636  0.671496  0.624712  1
  Yb  Yb2  1  0.669124  0.171599  0.376155  1
  Yb  Yb3  1  0.170206  0.329231  0.123577  1
  Yb  Yb4  1  0.668156  0.171243  0.123785  1
  Yb  Yb5  1  0.160307  0.498519  0.751111  1
  Yb  Yb6  1  0.660218  0.001135  0.749811  1
  Yb  Yb7  1  0.839548  0.497876  0.248697  1
  Yb  Yb8  1  0.340893  0.001437  0.248115  1
  Pr  Pr9  1  0.166665  0.325252  0.374358  1
  Pr  Pr10  1  0.332145  0.828047  0.624745  1
  Pr  Pr11  1  0.831983  0.672029  0.876180  1
  Pr  Pr12  1  0.491190  0.315065  0.904682  1
  Pr  Pr13  1  0.989536  0.184317  0.596777  1
  Pr  Pr14  1  0.511297  0.685410  0.403118  1
  Pr  Pr15  1  0.009791  0.814859  0.096941  1
  Pr  Pr16  1  0.509974  0.684872  0.095742  1
  Pr  Pr17  1  0.007842  0.816544  0.403445  1
  Pr  Pr18  1  0.490980  0.316481  0.596175  1
  Pr  Pr19  1  0.990955  0.184240  0.904293  1
  Sn  Sn20  1  0.328221  0.035453  0.038569  1
  Sn  Sn21  1  0.826439  0.465270  0.462034  1
  Sn  Sn22  1  0.674570  0.962696  0.538710  1
  Sn  Sn23  1  0.173948  0.536790  0.961444  1
  Sn  Sn24  1  0.666291  0.964530  0.961634  1
  Sn  Sn25  1  0.166864  0.537153  0.538385  1
  Sn  Sn26  1  0.329868  0.036264  0.460890  1
  Sn  Sn27  1  0.830999  0.461826  0.040040  1
  Sn  Sn28  1  0.528424  0.606982  0.750094  1
  Sn  Sn29  1  0.028336  0.894006  0.751389  1
  Sn  Sn30  1  0.470429  0.396231  0.249111  1
  Sn  Sn31  1  0.967657  0.103902  0.248836  1
  Sn  Sn32  1  0.290890  0.141006  0.750509  1
  Sn  Sn33  1  0.789615  0.359107  0.749777  1
  Sn  Sn34  1  0.713090  0.859307  0.249396  1
  Sn  Sn35  1  0.214338  0.640109  0.250224  1
