# generated using pymatgen
data_Ta7B8OsRu5
_symmetry_space_group_name_H-M   'P 1'
_cell_length_a   9.60003003
_cell_length_b   9.62000835
_cell_length_c   3.11651800
_cell_angle_alpha   90.00000000
_cell_angle_beta   90.00000000
_cell_angle_gamma   119.94084313
_symmetry_Int_Tables_number   1
_chemical_formula_structural   Ta7B8OsRu5
_chemical_formula_sum   'Ta7 B8 Os1 Ru5'
_cell_volume   249.40599466
_cell_formula_units_Z   1
loop_
 _symmetry_equiv_pos_site_id
 _symmetry_equiv_pos_as_xyz
  1  'x, y, z'
loop_
 _atom_site_type_symbol
 _atom_site_label
 _atom_site_symmetry_multiplicity
 _atom_site_fract_x
 _atom_site_fract_y
 _atom_site_fract_z
 _atom_site_occupancy
  Ta  Ta0  1  0.000755  0.000091  0.000000  1
  Ta  Ta1  1  0.725060  0.638676  0.000000  1
  Ta  Ta2  1  0.361974  0.087453  0.000000  1
  Ta  Ta3  1  0.913992  0.275212  0.000000  1
  Ta  Ta4  1  0.274496  0.361415  0.000000  1
  Ta  Ta5  1  0.638997  0.913724  0.000000  1
  Ta  Ta6  1  0.084541  0.724107  0.000000  1
  B  B7  1  0.666819  0.333630  0.000000  1
  B  B8  1  0.333431  0.666955  0.000000  1
  B  B9  1  0.153375  0.933848  0.500000  1
  B  B10  1  0.064342  0.216482  0.500000  1
  B  B11  1  0.782666  0.846674  0.500000  1
  B  B12  1  0.848115  0.065841  0.500000  1
  B  B13  1  0.934628  0.782799  0.500000  1
  B  B14  1  0.218585  0.154618  0.500000  1
  Os  Os15  1  0.360149  0.847167  0.500000  1
  Ru  Ru16  1  0.153186  0.513771  0.500000  1
  Ru  Ru17  1  0.485719  0.639148  0.500000  1
  Ru  Ru18  1  0.638467  0.152476  0.500000  1
  Ru  Ru19  1  0.846668  0.484728  0.500000  1
  Ru  Ru20  1  0.514036  0.361185  0.500000  1
