# generated using pymatgen
data_LaGa2Pt2Rh
_symmetry_space_group_name_H-M   'P 1'
_cell_length_a   5.65057200
_cell_length_b   5.70106951
_cell_length_c   3.95412400
_cell_angle_alpha   90.00000000
_cell_angle_beta   90.00000000
_cell_angle_gamma   119.70743619
_symmetry_Int_Tables_number   1
_chemical_formula_structural   LaGa2Pt2Rh
_chemical_formula_sum   'La1 Ga2 Pt2 Rh1'
_cell_volume   110.63752715
_cell_formula_units_Z   1
loop_
 _symmetry_equiv_pos_site_id
 _symmetry_equiv_pos_as_xyz
  1  'x, y, z'
loop_
 _atom_site_type_symbol
 _atom_site_label
 _atom_site_symmetry_multiplicity
 _atom_site_fract_x
 _atom_site_fract_y
 _atom_site_fract_z
 _atom_site_occupancy
  La  La0  1  0.000000  0.000000  0.000000  1
  Ga  Ga1  1  0.337946  0.675893  0.000000  1
  Ga  Ga2  1  0.662054  0.324107  0.000000  1
  Pt  Pt3  1  0.000000  0.500000  0.500000  1
  Pt  Pt4  1  0.500000  0.500000  0.500000  1
  Rh  Rh5  1  0.500000  0.000000  0.500000  1
