# generated using pymatgen
data_Tm2ScBe2Ir5
_symmetry_space_group_name_H-M   'P 1'
_cell_length_a   3.28877500
_cell_length_b   9.68515000
_cell_length_c   9.68515000
_cell_angle_alpha   90.00000000
_cell_angle_beta   90.00000000
_cell_angle_gamma   90.00000000
_symmetry_Int_Tables_number   1
_chemical_formula_structural   Tm2ScBe2Ir5
_chemical_formula_sum   'Tm4 Sc2 Be4 Ir10'
_cell_volume   308.49410181
_cell_formula_units_Z   2
loop_
 _symmetry_equiv_pos_site_id
 _symmetry_equiv_pos_as_xyz
  1  'x, y, z'
loop_
 _atom_site_type_symbol
 _atom_site_label
 _atom_site_symmetry_multiplicity
 _atom_site_fract_x
 _atom_site_fract_y
 _atom_site_fract_z
 _atom_site_occupancy
  Tm  Tm0  1  0.000000  0.177161  0.677161  1
  Tm  Tm1  1  0.000000  0.822839  0.322839  1
  Tm  Tm2  1  0.000000  0.322839  0.177161  1
  Tm  Tm3  1  0.000000  0.677161  0.822839  1
  Sc  Sc4  1  0.000000  0.000000  0.000000  1
  Sc  Sc5  1  0.000000  0.500000  0.500000  1
  Be  Be6  1  0.000000  0.620777  0.120777  1
  Be  Be7  1  0.000000  0.379223  0.879223  1
  Be  Be8  1  0.000000  0.879223  0.620777  1
  Be  Be9  1  0.000000  0.120777  0.379223  1
  Ir  Ir10  1  0.500000  0.068014  0.217704  1
  Ir  Ir11  1  0.500000  0.931986  0.782296  1
  Ir  Ir12  1  0.500000  0.782296  0.068014  1
  Ir  Ir13  1  0.500000  0.431986  0.717704  1
  Ir  Ir14  1  0.500000  0.217704  0.931986  1
  Ir  Ir15  1  0.500000  0.568014  0.282296  1
  Ir  Ir16  1  0.500000  0.717704  0.568014  1
  Ir  Ir17  1  0.500000  0.282296  0.431986  1
  Ir  Ir18  1  0.500000  0.000000  0.500000  1
  Ir  Ir19  1  0.500000  0.500000  0.000000  1
