# generated using pymatgen
data_La4DyP12Ir9Ru10
_symmetry_space_group_name_H-M   'P 1'
_cell_length_a   12.74497218
_cell_length_b   12.71069618
_cell_length_c   4.01698100
_cell_angle_alpha   90.00000000
_cell_angle_beta   90.00000000
_cell_angle_gamma   119.84816909
_symmetry_Int_Tables_number   1
_chemical_formula_structural   La4DyP12Ir9Ru10
_chemical_formula_sum   'La4 Dy1 P12 Ir9 Ru10'
_cell_volume   564.41826137
_cell_formula_units_Z   1
loop_
 _symmetry_equiv_pos_site_id
 _symmetry_equiv_pos_as_xyz
  1  'x, y, z'
loop_
 _atom_site_type_symbol
 _atom_site_label
 _atom_site_symmetry_multiplicity
 _atom_site_fract_x
 _atom_site_fract_y
 _atom_site_fract_z
 _atom_site_occupancy
  La  La0  1  0.667563  0.332340  0.000000  1
  La  La1  1  0.813451  0.000923  0.500000  1
  La  La2  1  0.184830  0.186814  0.500000  1
  La  La3  1  0.000245  0.814338  0.500000  1
  Dy  Dy4  1  0.333466  0.666778  0.000000  1
  P  P5  1  0.627580  0.997081  0.000000  1
  P  P6  1  0.368199  0.374461  0.000000  1
  P  P7  1  0.006443  0.631917  0.000000  1
  P  P8  1  0.690311  0.521207  0.500000  1
  P  P9  1  0.830693  0.305796  0.500000  1
  P  P10  1  0.311666  0.827555  0.500000  1
  P  P11  1  0.516002  0.688122  0.500000  1
  P  P12  1  0.184896  0.000334  0.000000  1
  P  P13  1  0.813667  0.814911  0.000000  1
  P  P14  1  0.998126  0.187131  0.000000  1
  P  P15  1  0.478123  0.167000  0.500000  1
  P  P16  1  0.172930  0.484773  0.500000  1
  Ir  Ir17  1  0.619015  0.800171  0.000000  1
  Ir  Ir18  1  0.182325  0.381887  0.000000  1
  Ir  Ir19  1  0.377342  0.183293  0.000000  1
  Ir  Ir20  1  0.199525  0.819665  0.000000  1
  Ir  Ir21  1  0.805900  0.622422  0.000000  1
  Ir  Ir22  1  0.872628  0.507811  0.500000  1
  Ir  Ir23  1  0.491407  0.362716  0.500000  1
  Ir  Ir24  1  0.634782  0.124200  0.500000  1
  Ir  Ir25  1  0.999380  0.000204  0.000000  1
  Ru  Ru26  1  0.128297  0.638414  0.500000  1
  Ru  Ru27  1  0.363135  0.490684  0.500000  1
  Ru  Ru28  1  0.508267  0.870194  0.500000  1
  Ru  Ru29  1  0.710453  0.710570  0.500000  1
  Ru  Ru30  1  0.002410  0.290981  0.500000  1
  Ru  Ru31  1  0.449908  0.000545  0.000000  1
  Ru  Ru32  1  0.551188  0.547858  0.000000  1
  Ru  Ru33  1  0.999651  0.450262  0.000000  1
  Ru  Ru34  1  0.817357  0.196639  0.000000  1
  Ru  Ru35  1  0.288834  0.000003  0.500000  1
