# generated using pymatgen
data_Gd4Cd2PdPt3
_symmetry_space_group_name_H-M   'P 1'
_cell_length_a   7.94793200
_cell_length_b   7.94793149
_cell_length_c   3.68367400
_cell_angle_alpha   90.00000000
_cell_angle_beta   90.00000000
_cell_angle_gamma   89.95467769
_symmetry_Int_Tables_number   1
_chemical_formula_structural   Gd4Cd2PdPt3
_chemical_formula_sum   'Gd4 Cd2 Pd1 Pt3'
_cell_volume   232.69621028
_cell_formula_units_Z   1
loop_
 _symmetry_equiv_pos_site_id
 _symmetry_equiv_pos_as_xyz
  1  'x, y, z'
loop_
 _atom_site_type_symbol
 _atom_site_label
 _atom_site_symmetry_multiplicity
 _atom_site_fract_x
 _atom_site_fract_y
 _atom_site_fract_z
 _atom_site_occupancy
  Gd  Gd0  1  0.671253  0.165439  0.500000  1
  Gd  Gd1  1  0.334561  0.828747  0.500000  1
  Gd  Gd2  1  0.162866  0.337134  0.500000  1
  Gd  Gd3  1  0.832292  0.667708  0.500000  1
  Cd  Cd4  1  0.002553  0.999733  0.000000  1
  Cd  Cd5  1  0.500267  0.497447  0.000000  1
  Pd  Pd6  1  0.366803  0.133197  0.000000  1
  Pt  Pt7  1  0.132082  0.632123  0.000000  1
  Pt  Pt8  1  0.867877  0.367918  0.000000  1
  Pt  Pt9  1  0.629446  0.870554  0.000000  1
