# generated using pymatgen
data_NdYIr5Rh
_symmetry_space_group_name_H-M   'P 1'
_cell_length_a   5.34846100
_cell_length_b   5.34846129
_cell_length_c   17.51652200
_cell_angle_alpha   90.00000096
_cell_angle_beta   90.00009191
_cell_angle_gamma   119.99950398
_symmetry_Int_Tables_number   1
_chemical_formula_structural   NdYIr5Rh
_chemical_formula_sum   'Nd3 Y3 Ir15 Rh3'
_cell_volume   433.94867991
_cell_formula_units_Z   3
loop_
 _symmetry_equiv_pos_site_id
 _symmetry_equiv_pos_as_xyz
  1  'x, y, z'
loop_
 _atom_site_type_symbol
 _atom_site_label
 _atom_site_symmetry_multiplicity
 _atom_site_fract_x
 _atom_site_fract_y
 _atom_site_fract_z
 _atom_site_occupancy
  Nd  Nd0  1  0.333333  0.666667  0.960094  1
  Nd  Nd1  1  0.333330  0.666664  0.749461  1
  Nd  Nd2  1  0.666668  0.333331  0.250180  1
  Y  Y3  1  0.333330  0.666667  0.540811  1
  Y  Y4  1  0.666669  0.333336  0.041910  1
  Y  Y5  1  0.666669  0.333336  0.459127  1
  Ir  Ir6  1  0.167047  0.334087  0.126763  1
  Ir  Ir7  1  0.832427  0.664863  0.625050  1
  Ir  Ir8  1  0.665911  0.832954  0.126764  1
  Ir  Ir9  1  0.167044  0.832953  0.126760  1
  Ir  Ir10  1  0.832428  0.167572  0.625045  1
  Ir  Ir11  1  0.335140  0.167573  0.625049  1
  Ir  Ir12  1  0.832695  0.665390  0.873274  1
  Ir  Ir13  1  0.832696  0.167311  0.873278  1
  Ir  Ir14  1  0.334616  0.167311  0.873275  1
  Ir  Ir15  1  0.664958  0.832475  0.374439  1
  Ir  Ir16  1  0.167527  0.832481  0.374444  1
  Ir  Ir17  1  0.167525  0.335044  0.374443  1
  Ir  Ir18  1  0.000021  0.999998  0.250753  1
  Ir  Ir19  1  0.999996  0.999995  0.000166  1
  Ir  Ir20  1  0.999998  0.999999  0.499985  1
  Rh  Rh21  1  0.999995  0.000012  0.749190  1
  Rh  Rh22  1  0.333305  0.666665  0.250338  1
  Rh  Rh23  1  0.666674  0.333320  0.749401  1
