# generated using pymatgen
data_Li2In3PdPt6
_symmetry_space_group_name_H-M   'P 1'
_cell_length_a   4.11704600
_cell_length_b   7.63906500
_cell_length_c   12.34621200
_cell_angle_alpha   90.00000000
_cell_angle_beta   89.99994433
_cell_angle_gamma   90.00000000
_symmetry_Int_Tables_number   1
_chemical_formula_structural   Li2In3PdPt6
_chemical_formula_sum   'Li4 In6 Pd2 Pt12'
_cell_volume   388.29308368
_cell_formula_units_Z   2
loop_
 _symmetry_equiv_pos_site_id
 _symmetry_equiv_pos_as_xyz
  1  'x, y, z'
loop_
 _atom_site_type_symbol
 _atom_site_label
 _atom_site_symmetry_multiplicity
 _atom_site_fract_x
 _atom_site_fract_y
 _atom_site_fract_z
 _atom_site_occupancy
  Li  Li0  1  0.000000  0.500000  0.333864  1
  Li  Li1  1  0.500000  0.000000  0.500207  1
  Li  Li2  1  0.000000  0.500000  0.666454  1
  Li  Li3  1  0.500001  0.000000  0.832797  1
  In  In4  1  0.000000  0.000000  0.001693  1
  In  In5  1  0.500000  0.500000  0.164992  1
  In  In6  1  0.000000  0.000000  0.333043  1
  In  In7  1  0.500000  0.500000  0.500005  1
  In  In8  1  0.000000  0.000000  0.666686  1
  In  In9  1  0.499999  0.500000  0.833656  1
  Pd  Pd10  1  0.000000  0.500000  0.999428  1
  Pd  Pd11  1  0.500000  0.000000  0.167194  1
  Pt  Pt12  1  0.500000  0.243642  0.995398  1
  Pt  Pt13  1  0.500000  0.756358  0.995398  1
  Pt  Pt14  1  0.000000  0.256274  0.171292  1
  Pt  Pt15  1  0.000000  0.743725  0.171292  1
  Pt  Pt16  1  0.500000  0.253505  0.336791  1
  Pt  Pt17  1  0.500000  0.746495  0.336791  1
  Pt  Pt18  1  0.000000  0.248762  0.501093  1
  Pt  Pt19  1  0.000000  0.751238  0.501093  1
  Pt  Pt20  1  0.500002  0.251261  0.665576  1
  Pt  Pt21  1  0.500002  0.748739  0.665576  1
  Pt  Pt22  1  0.000000  0.246434  0.829841  1
  Pt  Pt23  1  0.000000  0.753565  0.829841  1
