# generated using pymatgen
data_Ca8ThPt6
_symmetry_space_group_name_H-M   'P 1'
_cell_length_a   7.60578826
_cell_length_b   7.64073066
_cell_length_c   7.71981402
_cell_angle_alpha   70.98020915
_cell_angle_beta   70.65998194
_cell_angle_gamma   70.70440715
_symmetry_Int_Tables_number   1
_chemical_formula_structural   Ca8ThPt6
_chemical_formula_sum   'Ca8 Th1 Pt6'
_cell_volume   387.55102321
_cell_formula_units_Z   1
loop_
 _symmetry_equiv_pos_site_id
 _symmetry_equiv_pos_as_xyz
  1  'x, y, z'
loop_
 _atom_site_type_symbol
 _atom_site_label
 _atom_site_symmetry_multiplicity
 _atom_site_fract_x
 _atom_site_fract_y
 _atom_site_fract_z
 _atom_site_occupancy
  Ca  Ca0  1  0.988213  0.010013  0.997675  1
  Ca  Ca1  1  0.199837  0.199910  0.200812  1
  Ca  Ca2  1  0.852518  0.598112  0.335152  1
  Ca  Ca3  1  0.666960  0.154195  0.399259  1
  Ca  Ca4  1  0.333673  0.848372  0.602523  1
  Ca  Ca5  1  0.152141  0.395665  0.671062  1
  Ca  Ca6  1  0.812304  0.804838  0.789291  1
  Ca  Ca7  1  0.599482  0.329807  0.842341  1
  Th  Th8  1  0.401949  0.677527  0.140355  1
  Pt  Pt9  1  0.805570  0.434361  0.052354  1
  Pt  Pt10  1  0.584228  0.939071  0.171815  1
  Pt  Pt11  1  0.066205  0.828540  0.400214  1
  Pt  Pt12  1  0.953429  0.160055  0.585859  1
  Pt  Pt13  1  0.407704  0.033244  0.849454  1
  Pt  Pt14  1  0.175787  0.586291  0.961833  1
