# generated using pymatgen
data_Y4HoRu2
_symmetry_space_group_name_H-M   'P 1'
_cell_length_a   6.35902145
_cell_length_b   7.31524009
_cell_length_c   8.50799560
_cell_angle_alpha   96.70189924
_cell_angle_beta   111.94451863
_cell_angle_gamma   89.99999517
_symmetry_Int_Tables_number   1
_chemical_formula_structural   Y4HoRu2
_chemical_formula_sum   'Y8 Ho2 Ru4'
_cell_volume   364.18041949
_cell_formula_units_Z   2
loop_
 _symmetry_equiv_pos_site_id
 _symmetry_equiv_pos_as_xyz
  1  'x, y, z'
loop_
 _atom_site_type_symbol
 _atom_site_label
 _atom_site_symmetry_multiplicity
 _atom_site_fract_x
 _atom_site_fract_y
 _atom_site_fract_z
 _atom_site_occupancy
  Y  Y0  1  0.977578  0.915629  0.186402  1
  Y  Y1  1  0.791176  0.584371  0.813598  1
  Y  Y2  1  0.022422  0.084371  0.813598  1
  Y  Y3  1  0.208824  0.415629  0.186402  1
  Y  Y4  1  0.640767  0.814709  0.434830  1
  Y  Y5  1  0.205937  0.685291  0.565170  1
  Y  Y6  1  0.359233  0.185291  0.565170  1
  Y  Y7  1  0.794063  0.314709  0.434830  1
  Ho  Ho8  1  0.419596  0.750000  0.000000  1
  Ho  Ho9  1  0.580404  0.250000  0.000000  1
  Ru  Ru10  1  0.821411  0.575540  0.219185  1
  Ru  Ru11  1  0.602226  0.924460  0.780815  1
  Ru  Ru12  1  0.178589  0.424460  0.780815  1
  Ru  Ru13  1  0.397774  0.075540  0.219185  1
