# generated using pymatgen
data_Tb2Dy3Y3(B6Ru)4
_symmetry_space_group_name_H-M   'P 1'
_cell_length_a   3.66759600
_cell_length_b   9.15849800
_cell_length_c   11.53098003
_cell_angle_alpha   90.00612739
_cell_angle_beta   90.00000000
_cell_angle_gamma   90.00000000
_symmetry_Int_Tables_number   1
_chemical_formula_structural   Tb2Dy3Y3(B6Ru)4
_chemical_formula_sum   'Tb2 Dy3 Y3 B24 Ru4'
_cell_volume   387.32181932
_cell_formula_units_Z   1
loop_
 _symmetry_equiv_pos_site_id
 _symmetry_equiv_pos_as_xyz
  1  'x, y, z'
loop_
 _atom_site_type_symbol
 _atom_site_label
 _atom_site_symmetry_multiplicity
 _atom_site_fract_x
 _atom_site_fract_y
 _atom_site_fract_z
 _atom_site_occupancy
  Tb  Tb0  1  0.000000  0.323031  0.413890  1
  Tb  Tb1  1  0.000000  0.676967  0.586116  1
  Dy  Dy2  1  0.000000  0.056337  0.628041  1
  Dy  Dy3  1  0.000000  0.443748  0.127699  1
  Dy  Dy4  1  0.000000  0.556237  0.872280  1
  Y  Y5  1  0.000000  0.822743  0.085929  1
  Y  Y6  1  0.000000  0.177248  0.914084  1
  Y  Y7  1  0.000000  0.943833  0.372284  1
  B  B8  1  0.500000  0.554372  0.432642  1
  B  B9  1  0.500000  0.445607  0.567388  1
  B  B10  1  0.500000  0.054181  0.067072  1
  B  B11  1  0.500000  0.945798  0.932862  1
  B  B12  1  0.500000  0.747736  0.419518  1
  B  B13  1  0.500000  0.252154  0.580564  1
  B  B14  1  0.500000  0.247674  0.080259  1
  B  B15  1  0.500000  0.752354  0.919701  1
  B  B16  1  0.500000  0.790882  0.266229  1
  B  B17  1  0.500000  0.209122  0.733671  1
  B  B18  1  0.500000  0.290745  0.233362  1
  B  B19  1  0.500000  0.709305  0.766645  1
  B  B20  1  0.500000  0.631936  0.185175  1
  B  B21  1  0.500000  0.368012  0.814778  1
  B  B22  1  0.500000  0.131958  0.314538  1
  B  B23  1  0.500000  0.868164  0.685483  1
  B  B24  1  0.500000  0.983883  0.212637  1
  B  B25  1  0.500000  0.016075  0.787270  1
  B  B26  1  0.500000  0.484067  0.286939  1
  B  B27  1  0.500000  0.515869  0.713027  1
  B  B28  1  0.500000  0.609272  0.030131  1
  B  B29  1  0.500000  0.390731  0.969840  1
  B  B30  1  0.500000  0.108645  0.470071  1
  B  B31  1  0.500000  0.891400  0.530028  1
  Ru  Ru32  1  0.000000  0.637937  0.321005  1
  Ru  Ru33  1  0.000000  0.361919  0.678972  1
  Ru  Ru34  1  0.000000  0.137967  0.178689  1
  Ru  Ru35  1  0.000000  0.862090  0.821179  1
