# generated using pymatgen
data_Ac5SnRhO12
_symmetry_space_group_name_H-M   'P 1'
_cell_length_a   7.34678458
_cell_length_b   7.34678463
_cell_length_c   7.89210700
_cell_angle_alpha   74.46782576
_cell_angle_beta   74.46783374
_cell_angle_gamma   51.03474558
_symmetry_Int_Tables_number   1
_chemical_formula_structural   Ac5SnRhO12
_chemical_formula_sum   'Ac5 Sn1 Rh1 O12'
_cell_volume   316.29336045
_cell_formula_units_Z   1
loop_
 _symmetry_equiv_pos_site_id
 _symmetry_equiv_pos_as_xyz
  1  'x, y, z'
loop_
 _atom_site_type_symbol
 _atom_site_label
 _atom_site_symmetry_multiplicity
 _atom_site_fract_x
 _atom_site_fract_y
 _atom_site_fract_z
 _atom_site_occupancy
  Ac  Ac0  1  0.307313  0.310192  0.357048  1
  Ac  Ac1  1  0.689808  0.692687  0.642952  1
  Ac  Ac2  1  0.688638  0.697332  0.166146  1
  Ac  Ac3  1  0.302668  0.311362  0.833854  1
  Ac  Ac4  1  0.003692  0.996308  0.500000  1
  Sn  Sn5  1  0.765031  0.234969  0.000000  1
  Rh  Rh6  1  0.249116  0.750884  0.000000  1
  O  O7  1  0.092150  0.598604  0.577210  1
  O  O8  1  0.013291  0.984556  0.174279  1
  O  O9  1  0.401396  0.907850  0.422790  1
  O  O10  1  0.495296  0.506686  0.171311  1
  O  O11  1  0.104303  0.590284  0.076277  1
  O  O12  1  0.904024  0.404951  0.420809  1
  O  O13  1  0.015444  0.986709  0.825721  1
  O  O14  1  0.595049  0.095975  0.579191  1
  O  O15  1  0.493314  0.504704  0.828689  1
  O  O16  1  0.573100  0.103350  0.078284  1
  O  O17  1  0.409716  0.895697  0.923723  1
  O  O18  1  0.896650  0.426900  0.921716  1
