# generated using pymatgen
data_Ho7Er9Cd4Pd3Ru
_symmetry_space_group_name_H-M   'P 1'
_cell_length_a   9.63460782
_cell_length_b   9.63460640
_cell_length_c   9.63248303
_cell_angle_alpha   59.62723206
_cell_angle_beta   59.62723689
_cell_angle_gamma   59.64563360
_symmetry_Int_Tables_number   1
_chemical_formula_structural   Ho7Er9Cd4Pd3Ru
_chemical_formula_sum   'Ho7 Er9 Cd4 Pd3 Ru1'
_cell_volume   626.98592630
_cell_formula_units_Z   1
loop_
 _symmetry_equiv_pos_site_id
 _symmetry_equiv_pos_as_xyz
  1  'x, y, z'
loop_
 _atom_site_type_symbol
 _atom_site_label
 _atom_site_symmetry_multiplicity
 _atom_site_fract_x
 _atom_site_fract_y
 _atom_site_fract_z
 _atom_site_occupancy
  Ho  Ho0  1  0.810855  0.810855  0.188179  1
  Ho  Ho1  1  0.934410  0.566192  0.566461  1
  Ho  Ho2  1  0.560594  0.936115  0.936023  1
  Ho  Ho3  1  0.566192  0.934410  0.566461  1
  Ho  Ho4  1  0.936115  0.560594  0.936023  1
  Ho  Ho5  1  0.566344  0.566344  0.934312  1
  Ho  Ho6  1  0.935985  0.935985  0.560763  1
  Er  Er7  1  0.353146  0.353146  0.353210  1
  Er  Er8  1  0.350187  0.350187  0.945149  1
  Er  Er9  1  0.350022  0.945282  0.350292  1
  Er  Er10  1  0.945282  0.350022  0.350292  1
  Er  Er11  1  0.816977  0.188162  0.187981  1
  Er  Er12  1  0.188290  0.810894  0.810735  1
  Er  Er13  1  0.188162  0.816977  0.187981  1
  Er  Er14  1  0.810894  0.188290  0.810735  1
  Er  Er15  1  0.187973  0.187973  0.816993  1
  Cd  Cd16  1  0.580423  0.580423  0.580534  1
  Cd  Cd17  1  0.581235  0.581235  0.253794  1
  Cd  Cd18  1  0.581344  0.253707  0.581264  1
  Cd  Cd19  1  0.253707  0.581344  0.581264  1
  Pd  Pd20  1  0.144388  0.144388  0.569022  1
  Pd  Pd21  1  0.144959  0.568586  0.144285  1
  Pd  Pd22  1  0.568586  0.144959  0.144285  1
  Ru  Ru23  1  0.143928  0.143928  0.143963  1
