# generated using pymatgen
data_Y3Tm2TlBi2
_symmetry_space_group_name_H-M   'P 1'
_cell_length_a   6.44982700
_cell_length_b   9.08731295
_cell_length_c   9.09607400
_cell_angle_alpha   119.96814254
_cell_angle_beta   89.99995558
_cell_angle_gamma   90.00008524
_symmetry_Int_Tables_number   1
_chemical_formula_structural   Y3Tm2TlBi2
_chemical_formula_sum   'Y6 Tm4 Tl2 Bi4'
_cell_volume   461.85696069
_cell_formula_units_Z   2
loop_
 _symmetry_equiv_pos_site_id
 _symmetry_equiv_pos_as_xyz
  1  'x, y, z'
loop_
 _atom_site_type_symbol
 _atom_site_label
 _atom_site_symmetry_multiplicity
 _atom_site_fract_x
 _atom_site_fract_y
 _atom_site_fract_z
 _atom_site_occupancy
  Y  Y0  1  0.749994  0.240251  0.000000  1
  Y  Y1  1  0.749998  0.761160  0.759602  1
  Y  Y2  1  0.749998  0.001556  0.240398  1
  Y  Y3  1  0.249996  0.763374  0.000000  1
  Y  Y4  1  0.250002  0.237353  0.245133  1
  Y  Y5  1  0.250002  0.992221  0.754867  1
  Tm  Tm6  1  0.496330  0.330925  0.659863  1
  Tm  Tm7  1  0.496330  0.671062  0.340137  1
  Tm  Tm8  1  0.003672  0.671063  0.340135  1
  Tm  Tm9  1  0.003672  0.330928  0.659865  1
  Tl  Tl10  1  0.250001  0.605061  0.606923  1
  Tl  Tl11  1  0.250001  0.998137  0.393077  1
  Bi  Bi12  1  0.749997  0.606148  0.000000  1
  Bi  Bi13  1  0.750004  0.396232  0.393670  1
  Bi  Bi14  1  0.750004  0.002562  0.606330  1
  Bi  Bi15  1  0.249998  0.391966  0.000000  1
