# generated using pymatgen
data_Tb3SmMn4F28
_symmetry_space_group_name_H-M   'P 1'
_cell_length_a   5.45974934
_cell_length_b   8.79231201
_cell_length_c   11.79071628
_cell_angle_alpha   62.20822116
_cell_angle_beta   89.95969908
_cell_angle_gamma   89.98301920
_symmetry_Int_Tables_number   1
_chemical_formula_structural   Tb3SmMn4F28
_chemical_formula_sum   'Tb3 Sm1 Mn4 F28'
_cell_volume   500.71006474
_cell_formula_units_Z   1
loop_
 _symmetry_equiv_pos_site_id
 _symmetry_equiv_pos_as_xyz
  1  'x, y, z'
loop_
 _atom_site_type_symbol
 _atom_site_label
 _atom_site_symmetry_multiplicity
 _atom_site_fract_x
 _atom_site_fract_y
 _atom_site_fract_z
 _atom_site_occupancy
  Tb  Tb0  1  0.738433  0.189406  0.736113  1
  Tb  Tb1  1  0.761931  0.191461  0.235825  1
  Tb  Tb2  1  0.238458  0.811082  0.764025  1
  Sm  Sm3  1  0.260731  0.810948  0.264185  1
  Mn  Mn4  1  0.757774  0.725277  0.041031  1
  Mn  Mn5  1  0.240920  0.275692  0.956165  1
  Mn  Mn6  1  0.258698  0.272452  0.458109  1
  Mn  Mn7  1  0.741254  0.725335  0.544765  1
  F  F8  1  0.929868  0.706612  0.423099  1
  F  F9  1  0.067674  0.292209  0.578659  1
  F  F10  1  0.432044  0.293650  0.077313  1
  F  F11  1  0.568581  0.706682  0.919707  1
  F  F12  1  0.480071  0.727472  0.128651  1
  F  F13  1  0.517237  0.271855  0.867429  1
  F  F14  1  0.981723  0.270971  0.369134  1
  F  F15  1  0.018563  0.728891  0.632472  1
  F  F16  1  0.942826  0.739320  0.167345  1
  F  F17  1  0.051387  0.259560  0.831379  1
  F  F18  1  0.448317  0.257544  0.332781  1
  F  F19  1  0.553238  0.740961  0.669903  1
  F  F20  1  0.769630  0.488542  0.135655  1
  F  F21  1  0.229756  0.511949  0.862088  1
  F  F22  1  0.270927  0.508260  0.363828  1
  F  F23  1  0.730934  0.488526  0.638580  1
  F  F24  1  0.957667  0.282806  0.040016  1
  F  F25  1  0.042906  0.717842  0.958667  1
  F  F26  1  0.457510  0.716743  0.462620  1
  F  F27  1  0.542169  0.280847  0.541352  1
  F  F28  1  0.739193  0.960565  0.453511  1
  F  F29  1  0.260091  0.037167  0.548114  1
  F  F30  1  0.239471  0.040374  0.045990  1
  F  F31  1  0.759665  0.960677  0.951847  1
  F  F32  1  0.602361  0.970600  0.226857  1
  F  F33  1  0.405795  0.031159  0.772127  1
  F  F34  1  0.096324  0.037119  0.272704  1
  F  F35  1  0.905874  0.969443  0.727956  1
