# generated using pymatgen
data_Yb12Ho7ErGe16
_symmetry_space_group_name_H-M   'P 1'
_cell_length_a   7.40970901
_cell_length_b   7.87306100
_cell_length_c   15.15375101
_cell_angle_alpha   90.00049692
_cell_angle_beta   89.99655154
_cell_angle_gamma   89.99599599
_symmetry_Int_Tables_number   1
_chemical_formula_structural   Yb12Ho7ErGe16
_chemical_formula_sum   'Yb12 Ho7 Er1 Ge16'
_cell_volume   884.02574841
_cell_formula_units_Z   1
loop_
 _symmetry_equiv_pos_site_id
 _symmetry_equiv_pos_as_xyz
  1  'x, y, z'
loop_
 _atom_site_type_symbol
 _atom_site_label
 _atom_site_symmetry_multiplicity
 _atom_site_fract_x
 _atom_site_fract_y
 _atom_site_fract_z
 _atom_site_occupancy
  Yb  Yb0  1  0.980376  0.813737  0.405273  1
  Yb  Yb1  1  0.480387  0.686268  0.094719  1
  Yb  Yb2  1  0.519629  0.313738  0.594731  1
  Yb  Yb3  1  0.019610  0.186247  0.905269  1
  Yb  Yb4  1  0.019626  0.186256  0.594732  1
  Yb  Yb5  1  0.519643  0.313726  0.905273  1
  Yb  Yb6  1  0.480372  0.686261  0.405273  1
  Yb  Yb7  1  0.980360  0.813743  0.094722  1
  Yb  Yb8  1  0.344516  0.019577  0.750010  1
  Yb  Yb9  1  0.844484  0.480431  0.750013  1
  Yb  Yb10  1  0.155508  0.519589  0.250003  1
  Yb  Yb11  1  0.655513  0.980403  0.250000  1
  Ho  Ho12  1  0.318250  0.172151  0.121308  1
  Ho  Ho13  1  0.818240  0.327842  0.378686  1
  Ho  Ho14  1  0.181763  0.672185  0.878677  1
  Ho  Ho15  1  0.681755  0.827831  0.621334  1
  Ho  Ho16  1  0.318237  0.172155  0.378686  1
  Ho  Ho17  1  0.818240  0.327845  0.121314  1
  Ho  Ho18  1  0.181768  0.672164  0.621323  1
  Er  Er19  1  0.681725  0.827921  0.878643  1
  Ge  Ge20  1  0.845645  0.533571  0.540276  1
  Ge  Ge21  1  0.345732  0.966385  0.959700  1
  Ge  Ge22  1  0.654361  0.033576  0.459726  1
  Ge  Ge23  1  0.154356  0.466436  0.040275  1
  Ge  Ge24  1  0.154360  0.466424  0.459726  1
  Ge  Ge25  1  0.654384  0.033514  0.040225  1
  Ge  Ge26  1  0.345635  0.966422  0.540275  1
  Ge  Ge27  1  0.845551  0.533637  0.959694  1
  Ge  Ge28  1  0.976607  0.878416  0.750043  1
  Ge  Ge29  1  0.476734  0.621624  0.750023  1
  Ge  Ge30  1  0.523331  0.378440  0.250000  1
  Ge  Ge31  1  0.023330  0.121553  0.250002  1
  Ge  Ge32  1  0.235705  0.385654  0.750008  1
  Ge  Ge33  1  0.735667  0.114282  0.750038  1
  Ge  Ge34  1  0.264301  0.885653  0.250000  1
  Ge  Ge35  1  0.764299  0.614342  0.249999  1
