# generated using pymatgen
data_Dy2ErTm13(Ga3Co)2
_symmetry_space_group_name_H-M   'P 1'
_cell_length_a   9.85696800
_cell_length_b   9.85758762
_cell_length_c   6.83187600
_cell_angle_alpha   89.99822461
_cell_angle_beta   90.00000000
_cell_angle_gamma   119.99793416
_symmetry_Int_Tables_number   1
_chemical_formula_structural   Dy2ErTm13(Ga3Co)2
_chemical_formula_sum   'Dy2 Er1 Tm13 Ga6 Co2'
_cell_volume   574.90176166
_cell_formula_units_Z   1
loop_
 _symmetry_equiv_pos_site_id
 _symmetry_equiv_pos_as_xyz
  1  'x, y, z'
loop_
 _atom_site_type_symbol
 _atom_site_label
 _atom_site_symmetry_multiplicity
 _atom_site_fract_x
 _atom_site_fract_y
 _atom_site_fract_z
 _atom_site_occupancy
  Dy  Dy0  1  0.000009  0.000017  0.270263  1
  Dy  Dy1  1  0.000002  0.000004  0.770256  1
  Er  Er2  1  0.536225  0.072450  0.793229  1
  Tm  Tm3  1  0.173598  0.826284  0.990699  1
  Tm  Tm4  1  0.826410  0.173672  0.490590  1
  Tm  Tm5  1  0.173667  0.347335  0.990659  1
  Tm  Tm6  1  0.652686  0.826284  0.990699  1
  Tm  Tm7  1  0.347263  0.173672  0.490590  1
  Tm  Tm8  1  0.826332  0.652663  0.490655  1
  Tm  Tm9  1  0.333306  0.666614  0.672544  1
  Tm  Tm10  1  0.666702  0.333402  0.172617  1
  Tm  Tm11  1  0.463720  0.536282  0.293259  1
  Tm  Tm12  1  0.536276  0.463768  0.793283  1
  Tm  Tm13  1  0.463696  0.927392  0.293253  1
  Tm  Tm14  1  0.072562  0.536282  0.293259  1
  Tm  Tm15  1  0.927492  0.463768  0.793283  1
  Ga  Ga16  1  0.163795  0.836203  0.540326  1
  Ga  Ga17  1  0.836254  0.163808  0.040387  1
  Ga  Ga18  1  0.163793  0.327585  0.540352  1
  Ga  Ga19  1  0.672408  0.836203  0.540326  1
  Ga  Ga20  1  0.327554  0.163808  0.040387  1
  Ga  Ga21  1  0.836205  0.672411  0.040334  1
  Co  Co22  1  0.333332  0.666666  0.057459  1
  Co  Co23  1  0.666714  0.333426  0.557403  1
