# generated using pymatgen
data_Tm8AlRe(B12Mo)2
_symmetry_space_group_name_H-M   'P 1'
_cell_length_a   3.62798500
_cell_length_b   9.16842181
_cell_length_c   11.52071302
_cell_angle_alpha   90.22728274
_cell_angle_beta   90.00000000
_cell_angle_gamma   90.00000000
_symmetry_Int_Tables_number   1
_chemical_formula_structural   Tm8AlRe(B12Mo)2
_chemical_formula_sum   'Tm8 Al1 Re1 B24 Mo2'
_cell_volume   383.20927342
_cell_formula_units_Z   1
loop_
 _symmetry_equiv_pos_site_id
 _symmetry_equiv_pos_as_xyz
  1  'x, y, z'
loop_
 _atom_site_type_symbol
 _atom_site_label
 _atom_site_symmetry_multiplicity
 _atom_site_fract_x
 _atom_site_fract_y
 _atom_site_fract_z
 _atom_site_occupancy
  Tm  Tm0  1  0.000000  0.317134  0.415224  1
  Tm  Tm1  1  0.000000  0.679548  0.591267  1
  Tm  Tm2  1  0.000000  0.825643  0.080792  1
  Tm  Tm3  1  0.000000  0.177240  0.912424  1
  Tm  Tm4  1  0.000000  0.943547  0.370420  1
  Tm  Tm5  1  0.000000  0.054623  0.629211  1
  Tm  Tm6  1  0.000000  0.441475  0.128325  1
  Tm  Tm7  1  0.000000  0.558277  0.871956  1
  Al  Al8  1  0.000000  0.637819  0.322760  1
  Re  Re9  1  0.000000  0.860726  0.820103  1
  B  B10  1  0.500000  0.553220  0.434644  1
  B  B11  1  0.500000  0.449100  0.563950  1
  B  B12  1  0.500000  0.052685  0.064464  1
  B  B13  1  0.500000  0.947241  0.931979  1
  B  B14  1  0.500000  0.750082  0.421037  1
  B  B15  1  0.500000  0.248061  0.578746  1
  B  B16  1  0.500000  0.252304  0.079649  1
  B  B17  1  0.500000  0.751635  0.919021  1
  B  B18  1  0.500000  0.793795  0.262692  1
  B  B19  1  0.500000  0.205525  0.735629  1
  B  B20  1  0.500000  0.295446  0.237741  1
  B  B21  1  0.500000  0.707802  0.765980  1
  B  B22  1  0.500000  0.632330  0.182214  1
  B  B23  1  0.500000  0.369865  0.816440  1
  B  B24  1  0.500000  0.130830  0.316922  1
  B  B25  1  0.500000  0.868592  0.685253  1
  B  B26  1  0.500000  0.977776  0.211388  1
  B  B27  1  0.500000  0.017628  0.787261  1
  B  B28  1  0.500000  0.481243  0.288768  1
  B  B29  1  0.500000  0.521835  0.712709  1
  B  B30  1  0.500000  0.603379  0.030017  1
  B  B31  1  0.500000  0.400582  0.972911  1
  B  B32  1  0.500000  0.097898  0.471856  1
  B  B33  1  0.500000  0.895350  0.527343  1
  Mo  Mo34  1  0.000000  0.360847  0.679258  1
  Mo  Mo35  1  0.000000  0.138915  0.179644  1
