# generated using pymatgen
data_CaPr8Nd11Sn16
_symmetry_space_group_name_H-M   'P 1'
_cell_length_a   8.22982361
_cell_length_b   8.51761905
_cell_length_c   16.09916100
_cell_angle_alpha   90.00000000
_cell_angle_beta   90.00000000
_cell_angle_gamma   89.85367575
_symmetry_Int_Tables_number   1
_chemical_formula_structural   CaPr8Nd11Sn16
_chemical_formula_sum   'Ca1 Pr8 Nd11 Sn16'
_cell_volume   1128.52339487
_cell_formula_units_Z   1
loop_
 _symmetry_equiv_pos_site_id
 _symmetry_equiv_pos_as_xyz
  1  'x, y, z'
loop_
 _atom_site_type_symbol
 _atom_site_label
 _atom_site_symmetry_multiplicity
 _atom_site_fract_x
 _atom_site_fract_y
 _atom_site_fract_z
 _atom_site_occupancy
  Ca  Ca0  1  0.333045  0.996662  0.250000  1
  Pr  Pr1  1  0.494919  0.318961  0.902161  1
  Pr  Pr2  1  0.993843  0.181386  0.597834  1
  Pr  Pr3  1  0.504683  0.682905  0.402445  1
  Pr  Pr4  1  0.007776  0.818916  0.096522  1
  Pr  Pr5  1  0.504683  0.682905  0.097555  1
  Pr  Pr6  1  0.007776  0.818916  0.403478  1
  Pr  Pr7  1  0.494919  0.318961  0.597839  1
  Pr  Pr8  1  0.993843  0.181386  0.902166  1
  Nd  Nd9  1  0.336977  0.828421  0.875972  1
  Nd  Nd10  1  0.836016  0.668532  0.623475  1
  Nd  Nd11  1  0.661031  0.170690  0.376493  1
  Nd  Nd12  1  0.164381  0.329643  0.123471  1
  Nd  Nd13  1  0.661031  0.170690  0.123507  1
  Nd  Nd14  1  0.164381  0.329643  0.376529  1
  Nd  Nd15  1  0.336977  0.828421  0.624028  1
  Nd  Nd16  1  0.836016  0.668532  0.876525  1
  Nd  Nd17  1  0.166972  0.498405  0.750000  1
  Nd  Nd18  1  0.665799  0.000916  0.750000  1
  Nd  Nd19  1  0.832135  0.504583  0.250000  1
  Sn  Sn20  1  0.323521  0.037232  0.038400  1
  Sn  Sn21  1  0.823728  0.464088  0.458465  1
  Sn  Sn22  1  0.676017  0.962517  0.539983  1
  Sn  Sn23  1  0.177605  0.535245  0.959180  1
  Sn  Sn24  1  0.676017  0.962517  0.960017  1
  Sn  Sn25  1  0.177605  0.535245  0.540820  1
  Sn  Sn26  1  0.323521  0.037232  0.461600  1
  Sn  Sn27  1  0.823728  0.464088  0.041535  1
  Sn  Sn28  1  0.534894  0.611718  0.750000  1
  Sn  Sn29  1  0.033541  0.887516  0.750000  1
  Sn  Sn30  1  0.464423  0.392717  0.250000  1
  Sn  Sn31  1  0.965084  0.112354  0.250000  1
  Sn  Sn32  1  0.295087  0.143212  0.750000  1
  Sn  Sn33  1  0.795788  0.355451  0.750000  1
  Sn  Sn34  1  0.708953  0.859137  0.250000  1
  Sn  Sn35  1  0.203279  0.640258  0.250000  1
