# generated using pymatgen
data_Nd2Ho2Cu3Sb8
_symmetry_space_group_name_H-M   'P 1'
_cell_length_a   10.75081909
_cell_length_b   10.75081840
_cell_length_c   10.74415494
_cell_angle_alpha   146.75230621
_cell_angle_beta   146.75229861
_cell_angle_gamma   47.81090327
_symmetry_Int_Tables_number   1
_chemical_formula_structural   Nd2Ho2Cu3Sb8
_chemical_formula_sum   'Nd2 Ho2 Cu3 Sb8'
_cell_volume   371.67061133
_cell_formula_units_Z   1
loop_
 _symmetry_equiv_pos_site_id
 _symmetry_equiv_pos_as_xyz
  1  'x, y, z'
loop_
 _atom_site_type_symbol
 _atom_site_label
 _atom_site_symmetry_multiplicity
 _atom_site_fract_x
 _atom_site_fract_y
 _atom_site_fract_z
 _atom_site_occupancy
  Nd  Nd0  1  0.631699  0.631699  0.505769  1
  Nd  Nd1  1  0.125928  0.125928  0.494231  1
  Ho  Ho2  1  0.364637  0.873762  0.000000  1
  Ho  Ho3  1  0.873762  0.364637  0.000000  1
  Cu  Cu4  1  0.003412  0.003412  0.000000  1
  Cu  Cu5  1  0.003012  0.503012  0.500000  1
  Cu  Cu6  1  0.503012  0.003012  0.500000  1
  Sb  Sb7  1  0.335078  0.335078  0.516722  1
  Sb  Sb8  1  0.818356  0.818356  0.483278  1
  Sb  Sb9  1  0.672079  0.183409  0.000000  1
  Sb  Sb10  1  0.183409  0.672079  0.000000  1
  Sb  Sb11  1  0.246833  0.246833  0.000000  1
  Sb  Sb12  1  0.746447  0.746447  0.000000  1
  Sb  Sb13  1  0.746167  0.246167  0.500000  1
  Sb  Sb14  1  0.246167  0.746167  0.500000  1
