# generated using pymatgen
data_Al2Tl3(AsO4)3
_symmetry_space_group_name_H-M   'P 1'
_cell_length_a   8.84571100
_cell_length_b   9.00781000
_cell_length_c   17.74218700
_cell_angle_alpha   90.00000000
_cell_angle_beta   90.00000000
_cell_angle_gamma   90.00000000
_symmetry_Int_Tables_number   1
_chemical_formula_structural   Al2Tl3(AsO4)3
_chemical_formula_sum   'Al8 Tl12 As12 O48'
_cell_volume   1413.70604743
_cell_formula_units_Z   4
loop_
 _symmetry_equiv_pos_site_id
 _symmetry_equiv_pos_as_xyz
  1  'x, y, z'
loop_
 _atom_site_type_symbol
 _atom_site_label
 _atom_site_symmetry_multiplicity
 _atom_site_fract_x
 _atom_site_fract_y
 _atom_site_fract_z
 _atom_site_occupancy
  Al  Al0  1  0.146987  0.849526  0.161915  1
  Al  Al1  1  0.646987  0.150474  0.838085  1
  Al  Al2  1  0.646987  0.650474  0.661915  1
  Al  Al3  1  0.146987  0.349526  0.338085  1
  Al  Al4  1  0.655824  0.631286  0.331635  1
  Al  Al5  1  0.155824  0.368714  0.668365  1
  Al  Al6  1  0.155824  0.868714  0.831635  1
  Al  Al7  1  0.655824  0.131286  0.168365  1
  Tl  Tl8  1  0.837847  0.509475  0.097384  1
  Tl  Tl9  1  0.337847  0.490525  0.902616  1
  Tl  Tl10  1  0.337847  0.990525  0.597384  1
  Tl  Tl11  1  0.837847  0.009475  0.402616  1
  Tl  Tl12  1  0.311210  0.453115  0.141348  1
  Tl  Tl13  1  0.811210  0.546885  0.858652  1
  Tl  Tl14  1  0.811210  0.046885  0.641348  1
  Tl  Tl15  1  0.311210  0.953115  0.358652  1
  Tl  Tl16  1  0.117207  0.177471  0.010049  1
  Tl  Tl17  1  0.617207  0.822529  0.989951  1
  Tl  Tl18  1  0.617207  0.322529  0.510049  1
  Tl  Tl19  1  0.117207  0.677471  0.489951  1
  As  As20  1  0.000860  0.657309  0.285619  1
  As  As21  1  0.500860  0.342691  0.714381  1
  As  As22  1  0.500860  0.842691  0.785619  1
  As  As23  1  0.000860  0.157309  0.214381  1
  As  As24  1  0.511561  0.795734  0.187411  1
  As  As25  1  0.011561  0.204266  0.812589  1
  As  As26  1  0.011561  0.704266  0.687411  1
  As  As27  1  0.511561  0.295734  0.312589  1
  As  As28  1  0.085031  0.738630  0.997194  1
  As  As29  1  0.585031  0.261370  0.002806  1
  As  As30  1  0.585031  0.761370  0.497194  1
  As  As31  1  0.085031  0.238630  0.502806  1
  O  O32  1  0.033011  0.790797  0.350112  1
  O  O33  1  0.533011  0.209203  0.649888  1
  O  O34  1  0.533011  0.709203  0.850112  1
  O  O35  1  0.033011  0.290797  0.149888  1
  O  O36  1  0.136676  0.521035  0.291644  1
  O  O37  1  0.636676  0.478965  0.708356  1
  O  O38  1  0.636676  0.978965  0.791644  1
  O  O39  1  0.136676  0.021035  0.208356  1
  O  O40  1  0.008702  0.721185  0.193692  1
  O  O41  1  0.508702  0.278815  0.806308  1
  O  O42  1  0.508702  0.778815  0.693692  1
  O  O43  1  0.008702  0.221185  0.306308  1
  O  O44  1  0.827692  0.570025  0.291532  1
  O  O45  1  0.327692  0.429975  0.708468  1
  O  O46  1  0.327692  0.929975  0.791532  1
  O  O47  1  0.827692  0.070025  0.208468  1
  O  O48  1  0.585957  0.673127  0.126751  1
  O  O49  1  0.085957  0.326873  0.873249  1
  O  O50  1  0.085957  0.826873  0.626751  1
  O  O51  1  0.585957  0.173127  0.373249  1
  O  O52  1  0.533925  0.977901  0.160561  1
  O  O53  1  0.033925  0.022099  0.839439  1
  O  O54  1  0.033925  0.522099  0.660561  1
  O  O55  1  0.533925  0.477901  0.339439  1
  O  O56  1  0.574597  0.778856  0.279203  1
  O  O57  1  0.074597  0.221144  0.720797  1
  O  O58  1  0.074597  0.721144  0.779203  1
  O  O59  1  0.574597  0.278856  0.220797  1
  O  O60  1  0.318496  0.769477  0.191865  1
  O  O61  1  0.818496  0.230523  0.808135  1
  O  O62  1  0.818496  0.730523  0.691865  1
  O  O63  1  0.318496  0.269477  0.308135  1
  O  O64  1  0.152826  0.573584  0.028210  1
  O  O65  1  0.652826  0.426416  0.971790  1
  O  O66  1  0.652826  0.926416  0.528210  1
  O  O67  1  0.152826  0.073584  0.471790  1
  O  O68  1  0.195920  0.797356  0.921630  1
  O  O69  1  0.695920  0.202644  0.078370  1
  O  O70  1  0.695920  0.702644  0.421630  1
  O  O71  1  0.195920  0.297356  0.578370  1
  O  O72  1  0.898833  0.736696  0.973928  1
  O  O73  1  0.398833  0.263304  0.026072  1
  O  O74  1  0.398833  0.763304  0.473928  1
  O  O75  1  0.898833  0.236696  0.526072  1
  O  O76  1  0.120839  0.877117  0.064665  1
  O  O77  1  0.620839  0.122883  0.935335  1
  O  O78  1  0.620839  0.622883  0.564665  1
  O  O79  1  0.120839  0.377117  0.435335  1
