# generated using pymatgen
data_YbY3(SiPt2)4
_symmetry_space_group_name_H-M   'P 1'
_cell_length_a   5.52978703
_cell_length_b   6.96714400
_cell_length_c   7.34677404
_cell_angle_alpha   90.00000000
_cell_angle_beta   89.98830069
_cell_angle_gamma   90.00000000
_symmetry_Int_Tables_number   1
_chemical_formula_structural   YbY3(SiPt2)4
_chemical_formula_sum   'Yb1 Y3 Si4 Pt8'
_cell_volume   283.04785357
_cell_formula_units_Z   1
loop_
 _symmetry_equiv_pos_site_id
 _symmetry_equiv_pos_as_xyz
  1  'x, y, z'
loop_
 _atom_site_type_symbol
 _atom_site_label
 _atom_site_symmetry_multiplicity
 _atom_site_fract_x
 _atom_site_fract_y
 _atom_site_fract_z
 _atom_site_occupancy
  Yb  Yb0  1  0.865604  0.250000  0.523314  1
  Y  Y1  1  0.132368  0.750000  0.474754  1
  Y  Y2  1  0.367054  0.750000  0.975354  1
  Y  Y3  1  0.633792  0.250000  0.025930  1
  Si  Si4  1  0.133934  0.250000  0.876335  1
  Si  Si5  1  0.365919  0.250000  0.381334  1
  Si  Si6  1  0.633129  0.750000  0.621043  1
  Si  Si7  1  0.866314  0.750000  0.121425  1
  Pt  Pt8  1  0.097302  0.051823  0.179750  1
  Pt  Pt9  1  0.097302  0.448177  0.179750  1
  Pt  Pt10  1  0.406258  0.051016  0.679021  1
  Pt  Pt11  1  0.406258  0.448984  0.679021  1
  Pt  Pt12  1  0.592671  0.551100  0.319142  1
  Pt  Pt13  1  0.592671  0.948900  0.319142  1
  Pt  Pt14  1  0.904712  0.551627  0.822342  1
  Pt  Pt15  1  0.904712  0.948373  0.822342  1
