# generated using pymatgen
data_Tb4Th6SiGe5C2
_symmetry_space_group_name_H-M   'P 1'
_cell_length_a   8.83048865
_cell_length_b   8.82461149
_cell_length_c   6.41341400
_cell_angle_alpha   90.00000000
_cell_angle_beta   90.00000000
_cell_angle_gamma   119.97799427
_symmetry_Int_Tables_number   1
_chemical_formula_structural   Tb4Th6SiGe5C2
_chemical_formula_sum   'Tb4 Th6 Si1 Ge5 C2'
_cell_volume   432.90888341
_cell_formula_units_Z   1
loop_
 _symmetry_equiv_pos_site_id
 _symmetry_equiv_pos_as_xyz
  1  'x, y, z'
loop_
 _atom_site_type_symbol
 _atom_site_label
 _atom_site_symmetry_multiplicity
 _atom_site_fract_x
 _atom_site_fract_y
 _atom_site_fract_z
 _atom_site_occupancy
  Tb  Tb0  1  0.667682  0.333597  0.000644  1
  Tb  Tb1  1  0.332318  0.665915  0.000644  1
  Tb  Tb2  1  0.332318  0.665915  0.499356  1
  Tb  Tb3  1  0.667682  0.333597  0.499356  1
  Th  Th4  1  0.769057  0.769186  0.750000  1
  Th  Th5  1  0.230943  0.000129  0.750000  1
  Th  Th6  1  0.000000  0.231625  0.750000  1
  Th  Th7  1  0.229985  0.231574  0.250000  1
  Th  Th8  1  0.770015  0.001589  0.250000  1
  Th  Th9  1  0.000000  0.768375  0.250000  1
  Si  Si10  1  0.000000  0.400739  0.250000  1
  Ge  Ge11  1  0.401615  0.401536  0.750000  1
  Ge  Ge12  1  0.598385  0.999921  0.750000  1
  Ge  Ge13  1  0.000000  0.598239  0.750000  1
  Ge  Ge14  1  0.598571  0.598525  0.250000  1
  Ge  Ge15  1  0.401429  0.999954  0.250000  1
  C  C16  1  0.000000  0.999792  0.999804  1
  C  C17  1  0.000000  0.999792  0.500196  1
