# generated using pymatgen
data_Ho5Co2Pd
_symmetry_space_group_name_H-M   'P 1'
_cell_length_a   8.47990462
_cell_length_b   8.47990514
_cell_length_c   8.47990533
_cell_angle_alpha   129.13033344
_cell_angle_beta   129.13033829
_cell_angle_gamma   74.80094501
_symmetry_Int_Tables_number   1
_chemical_formula_structural   Ho5Co2Pd
_chemical_formula_sum   'Ho10 Co4 Pd2'
_cell_volume   357.41425967
_cell_formula_units_Z   2
loop_
 _symmetry_equiv_pos_site_id
 _symmetry_equiv_pos_as_xyz
  1  'x, y, z'
loop_
 _atom_site_type_symbol
 _atom_site_label
 _atom_site_symmetry_multiplicity
 _atom_site_fract_x
 _atom_site_fract_y
 _atom_site_fract_z
 _atom_site_occupancy
  Ho  Ho0  1  0.695394  0.530690  0.500000  1
  Ho  Ho1  1  0.469310  0.969310  0.164704  1
  Ho  Ho2  1  0.804606  0.304606  0.835296  1
  Ho  Ho3  1  0.530690  0.030690  0.835296  1
  Ho  Ho4  1  0.000000  0.000000  0.000000  1
  Ho  Ho5  1  0.030690  0.195394  0.500000  1
  Ho  Ho6  1  0.304606  0.469310  0.500000  1
  Ho  Ho7  1  0.195394  0.695394  0.164704  1
  Ho  Ho8  1  0.969310  0.804606  0.500000  1
  Ho  Ho9  1  0.500000  0.500000  0.000000  1
  Co  Co10  1  0.126554  0.626554  0.753107  1
  Co  Co11  1  0.873446  0.373446  0.246893  1
  Co  Co12  1  0.626554  0.873446  0.500000  1
  Co  Co13  1  0.373446  0.126554  0.500000  1
  Pd  Pd14  1  0.250000  0.250000  0.000000  1
  Pd  Pd15  1  0.750000  0.750000  0.000000  1
