# generated using pymatgen
data_Tb3Co8P6Ru
_symmetry_space_group_name_H-M   'P 1'
_cell_length_a   3.72673600
_cell_length_b   10.57215600
_cell_length_c   12.30813400
_cell_angle_alpha   90.00000000
_cell_angle_beta   90.00000000
_cell_angle_gamma   90.00000000
_symmetry_Int_Tables_number   1
_chemical_formula_structural   Tb3Co8P6Ru
_chemical_formula_sum   'Tb6 Co16 P12 Ru2'
_cell_volume   484.93597929
_cell_formula_units_Z   2
loop_
 _symmetry_equiv_pos_site_id
 _symmetry_equiv_pos_as_xyz
  1  'x, y, z'
loop_
 _atom_site_type_symbol
 _atom_site_label
 _atom_site_symmetry_multiplicity
 _atom_site_fract_x
 _atom_site_fract_y
 _atom_site_fract_z
 _atom_site_occupancy
  Tb  Tb0  1  0.000000  0.500000  0.524262  1
  Tb  Tb1  1  0.500000  0.000000  0.475738  1
  Tb  Tb2  1  0.500000  0.817262  0.206642  1
  Tb  Tb3  1  0.500000  0.182738  0.206642  1
  Tb  Tb4  1  0.000000  0.682738  0.793358  1
  Tb  Tb5  1  0.000000  0.317262  0.793358  1
  Co  Co6  1  0.500000  0.500000  0.704080  1
  Co  Co7  1  0.000000  0.000000  0.295920  1
  Co  Co8  1  0.000000  0.500000  0.986458  1
  Co  Co9  1  0.500000  0.000000  0.013542  1
  Co  Co10  1  0.500000  0.332626  0.990650  1
  Co  Co11  1  0.500000  0.667374  0.990650  1
  Co  Co12  1  0.000000  0.167374  0.009350  1
  Co  Co13  1  0.000000  0.832626  0.009350  1
  Co  Co14  1  0.500000  0.296902  0.430809  1
  Co  Co15  1  0.500000  0.703098  0.430809  1
  Co  Co16  1  0.000000  0.203098  0.569191  1
  Co  Co17  1  0.000000  0.796902  0.569191  1
  Co  Co18  1  0.500000  0.879331  0.708348  1
  Co  Co19  1  0.500000  0.120669  0.708348  1
  Co  Co20  1  0.000000  0.620669  0.291652  1
  Co  Co21  1  0.000000  0.379331  0.291652  1
  P  P22  1  0.500000  0.500000  0.882489  1
  P  P23  1  0.000000  0.000000  0.117511  1
  P  P24  1  0.500000  0.500000  0.349266  1
  P  P25  1  0.000000  0.000000  0.650734  1
  P  P26  1  0.500000  0.310909  0.615909  1
  P  P27  1  0.500000  0.689091  0.615909  1
  P  P28  1  0.000000  0.189091  0.384091  1
  P  P29  1  0.000000  0.810909  0.384091  1
  P  P30  1  0.500000  0.846637  0.893989  1
  P  P31  1  0.500000  0.153363  0.893989  1
  P  P32  1  0.000000  0.653363  0.106011  1
  P  P33  1  0.000000  0.346637  0.106011  1
  Ru  Ru34  1  0.500000  0.500000  0.159039  1
  Ru  Ru35  1  0.000000  0.000000  0.840961  1
