# generated using pymatgen
data_Pr13NdIrPd5
_symmetry_space_group_name_H-M   'P 1'
_cell_length_a   10.27673200
_cell_length_b   10.27692087
_cell_length_c   6.52442602
_cell_angle_alpha   89.97960864
_cell_angle_beta   90.00000000
_cell_angle_gamma   119.99939848
_symmetry_Int_Tables_number   1
_chemical_formula_structural   Pr13NdIrPd5
_chemical_formula_sum   'Pr13 Nd1 Ir1 Pd5'
_cell_volume   596.75158635
_cell_formula_units_Z   1
loop_
 _symmetry_equiv_pos_site_id
 _symmetry_equiv_pos_as_xyz
  1  'x, y, z'
loop_
 _atom_site_type_symbol
 _atom_site_label
 _atom_site_symmetry_multiplicity
 _atom_site_fract_x
 _atom_site_fract_y
 _atom_site_fract_z
 _atom_site_occupancy
  Pr  Pr0  1  0.666532  0.333063  0.951960  1
  Pr  Pr1  1  0.126136  0.872851  0.242583  1
  Pr  Pr2  1  0.746716  0.872851  0.242583  1
  Pr  Pr3  1  0.128031  0.256061  0.251422  1
  Pr  Pr4  1  0.880817  0.131422  0.740356  1
  Pr  Pr5  1  0.250604  0.131422  0.740356  1
  Pr  Pr6  1  0.872467  0.744933  0.738924  1
  Pr  Pr7  1  0.536193  0.459906  0.445123  1
  Pr  Pr8  1  0.923713  0.459906  0.445123  1
  Pr  Pr9  1  0.537685  0.075370  0.448664  1
  Pr  Pr10  1  0.456037  0.535738  0.943168  1
  Pr  Pr11  1  0.079701  0.535738  0.943168  1
  Pr  Pr12  1  0.462408  0.924815  0.949051  1
  Nd  Nd13  1  0.331279  0.662560  0.462464  1
  Ir  Ir14  1  0.189383  0.378765  0.689669  1
  Pd  Pd15  1  0.810145  0.187742  0.193055  1
  Pd  Pd16  1  0.377597  0.187742  0.193055  1
  Pd  Pd17  1  0.811264  0.622530  0.193161  1
  Pd  Pd18  1  0.189100  0.813294  0.694102  1
  Pd  Pd19  1  0.624194  0.813294  0.694102  1
