# generated using pymatgen
data_Tm16Al4OsRh3
_symmetry_space_group_name_H-M   'P 1'
_cell_length_a   9.39335023
_cell_length_b   9.39335027
_cell_length_c   9.42978375
_cell_angle_alpha   60.12773065
_cell_angle_beta   60.12772806
_cell_angle_gamma   60.00000130
_symmetry_Int_Tables_number   1
_chemical_formula_structural   Tm16Al4OsRh3
_chemical_formula_sum   'Tm16 Al4 Os1 Rh3'
_cell_volume   589.47248875
_cell_formula_units_Z   1
loop_
 _symmetry_equiv_pos_site_id
 _symmetry_equiv_pos_as_xyz
  1  'x, y, z'
loop_
 _atom_site_type_symbol
 _atom_site_label
 _atom_site_symmetry_multiplicity
 _atom_site_fract_x
 _atom_site_fract_y
 _atom_site_fract_z
 _atom_site_occupancy
  Tm  Tm0  1  0.060707  0.060707  0.435687  1
  Tm  Tm1  1  0.442901  0.060707  0.435687  1
  Tm  Tm2  1  0.063834  0.436579  0.063009  1
  Tm  Tm3  1  0.057033  0.647750  0.647468  1
  Tm  Tm4  1  0.436579  0.436579  0.063009  1
  Tm  Tm5  1  0.647750  0.057033  0.647468  1
  Tm  Tm6  1  0.192866  0.805694  0.195745  1
  Tm  Tm7  1  0.194565  0.194565  0.804812  1
  Tm  Tm8  1  0.805694  0.805694  0.195745  1
  Tm  Tm9  1  0.436579  0.063834  0.063009  1
  Tm  Tm10  1  0.805694  0.192866  0.195745  1
  Tm  Tm11  1  0.060707  0.442901  0.435687  1
  Tm  Tm12  1  0.806058  0.194565  0.804812  1
  Tm  Tm13  1  0.194565  0.806058  0.804812  1
  Tm  Tm14  1  0.647296  0.647296  0.058114  1
  Tm  Tm15  1  0.647750  0.647750  0.647468  1
  Al  Al16  1  0.421927  0.421927  0.420753  1
  Al  Al17  1  0.735392  0.421927  0.420753  1
  Al  Al18  1  0.421927  0.735392  0.420753  1
  Al  Al19  1  0.421704  0.421704  0.734888  1
  Os  Os20  1  0.857533  0.857533  0.427399  1
  Rh  Rh21  1  0.857807  0.857807  0.859061  1
  Rh  Rh22  1  0.425327  0.857807  0.859061  1
  Rh  Rh23  1  0.857807  0.425327  0.859061  1
