# generated using pymatgen
data_Y2Ho3AlSb2
_symmetry_space_group_name_H-M   'P 1'
_cell_length_a   8.87610438
_cell_length_b   8.87554352
_cell_length_c   6.39545700
_cell_angle_alpha   90.00000000
_cell_angle_beta   90.00000000
_cell_angle_gamma   119.99790834
_symmetry_Int_Tables_number   1
_chemical_formula_structural   Y2Ho3AlSb2
_chemical_formula_sum   'Y4 Ho6 Al2 Sb4'
_cell_volume   436.34371725
_cell_formula_units_Z   2
loop_
 _symmetry_equiv_pos_site_id
 _symmetry_equiv_pos_as_xyz
  1  'x, y, z'
loop_
 _atom_site_type_symbol
 _atom_site_label
 _atom_site_symmetry_multiplicity
 _atom_site_fract_x
 _atom_site_fract_y
 _atom_site_fract_z
 _atom_site_occupancy
  Y  Y0  1  0.755805  0.998984  0.750000  1
  Y  Y1  1  0.755805  0.756820  0.250000  1
  Y  Y2  1  0.008524  0.242896  0.250000  1
  Y  Y3  1  0.008524  0.765628  0.750000  1
  Ho  Ho4  1  0.335643  0.667822  0.000000  1
  Ho  Ho5  1  0.655697  0.327848  0.500000  1
  Ho  Ho6  1  0.655697  0.327848  0.000000  1
  Ho  Ho7  1  0.335643  0.667822  0.500000  1
  Ho  Ho8  1  0.241859  0.232321  0.750000  1
  Ho  Ho9  1  0.241859  0.009537  0.250000  1
  Al  Al10  1  0.398042  0.997134  0.750000  1
  Al  Al11  1  0.398042  0.400908  0.250000  1
  Sb  Sb12  1  0.998841  0.606675  0.250000  1
  Sb  Sb13  1  0.998841  0.392166  0.750000  1
  Sb  Sb14  1  0.605590  0.604770  0.750000  1
  Sb  Sb15  1  0.605590  0.000820  0.250000  1
