# generated using pymatgen
data_CaPr2(TmSi2)2
_symmetry_space_group_name_H-M   'P 1'
_cell_length_a   7.45643400
_cell_length_b   7.84117700
_cell_length_c   14.84716400
_cell_angle_alpha   90.00000000
_cell_angle_beta   90.00000000
_cell_angle_gamma   90.00000000
_symmetry_Int_Tables_number   1
_chemical_formula_structural   CaPr2(TmSi2)2
_chemical_formula_sum   'Ca4 Pr8 Tm8 Si16'
_cell_volume   868.07238589
_cell_formula_units_Z   4
loop_
 _symmetry_equiv_pos_site_id
 _symmetry_equiv_pos_as_xyz
  1  'x, y, z'
loop_
 _atom_site_type_symbol
 _atom_site_label
 _atom_site_symmetry_multiplicity
 _atom_site_fract_x
 _atom_site_fract_y
 _atom_site_fract_z
 _atom_site_occupancy
  Ca  Ca0  1  0.655699  0.989705  0.750000  1
  Ca  Ca1  1  0.844301  0.489705  0.250000  1
  Ca  Ca2  1  0.344301  0.010295  0.250000  1
  Ca  Ca3  1  0.155699  0.510295  0.750000  1
  Pr  Pr4  1  0.021389  0.178882  0.402150  1
  Pr  Pr5  1  0.521389  0.321118  0.402150  1
  Pr  Pr6  1  0.478611  0.678882  0.902150  1
  Pr  Pr7  1  0.478611  0.678882  0.597850  1
  Pr  Pr8  1  0.978611  0.821118  0.597850  1
  Pr  Pr9  1  0.978611  0.821118  0.902150  1
  Pr  Pr10  1  0.521389  0.321118  0.097850  1
  Pr  Pr11  1  0.021389  0.178882  0.097850  1
  Tm  Tm12  1  0.323837  0.180910  0.622697  1
  Tm  Tm13  1  0.676163  0.819090  0.377303  1
  Tm  Tm14  1  0.176163  0.680910  0.377303  1
  Tm  Tm15  1  0.823837  0.319090  0.877303  1
  Tm  Tm16  1  0.823837  0.319090  0.622697  1
  Tm  Tm17  1  0.323837  0.180910  0.877303  1
  Tm  Tm18  1  0.176163  0.680910  0.122697  1
  Tm  Tm19  1  0.676163  0.819090  0.122697  1
  Si  Si20  1  0.269099  0.890752  0.750000  1
  Si  Si21  1  0.466103  0.611737  0.250000  1
  Si  Si22  1  0.033897  0.111737  0.750000  1
  Si  Si23  1  0.533897  0.388263  0.750000  1
  Si  Si24  1  0.149667  0.466239  0.535120  1
  Si  Si25  1  0.966103  0.888263  0.250000  1
  Si  Si26  1  0.730901  0.109248  0.250000  1
  Si  Si27  1  0.850333  0.533761  0.035120  1
  Si  Si28  1  0.350333  0.966239  0.035120  1
  Si  Si29  1  0.149667  0.466239  0.964880  1
  Si  Si30  1  0.649667  0.033761  0.535120  1
  Si  Si31  1  0.350333  0.966239  0.464880  1
  Si  Si32  1  0.850333  0.533761  0.464880  1
  Si  Si33  1  0.769099  0.609248  0.750000  1
  Si  Si34  1  0.230901  0.390752  0.250000  1
  Si  Si35  1  0.649667  0.033761  0.964880  1
