# generated using pymatgen
data_Tm2Lu6Tc(B8Ru)3
_symmetry_space_group_name_H-M   'P 1'
_cell_length_a   3.60536700
_cell_length_b   9.03578606
_cell_length_c   11.41051508
_cell_angle_alpha   89.92583296
_cell_angle_beta   90.00000000
_cell_angle_gamma   90.00000000
_symmetry_Int_Tables_number   1
_chemical_formula_structural   Tm2Lu6Tc(B8Ru)3
_chemical_formula_sum   'Tm2 Lu6 Tc1 B24 Ru3'
_cell_volume   371.72374541
_cell_formula_units_Z   1
loop_
 _symmetry_equiv_pos_site_id
 _symmetry_equiv_pos_as_xyz
  1  'x, y, z'
loop_
 _atom_site_type_symbol
 _atom_site_label
 _atom_site_symmetry_multiplicity
 _atom_site_fract_x
 _atom_site_fract_y
 _atom_site_fract_z
 _atom_site_occupancy
  Tm  Tm0  1  0.000000  0.323374  0.413189  1
  Tm  Tm1  1  0.000000  0.677924  0.583432  1
  Lu  Lu2  1  0.000000  0.819406  0.088043  1
  Lu  Lu3  1  0.000000  0.178190  0.915100  1
  Lu  Lu4  1  0.000000  0.943315  0.372368  1
  Lu  Lu5  1  0.000000  0.056977  0.628017  1
  Lu  Lu6  1  0.000000  0.444407  0.127849  1
  Lu  Lu7  1  0.000000  0.556590  0.871931  1
  Tc  Tc8  1  0.000000  0.638043  0.320652  1
  B  B9  1  0.500000  0.552861  0.433647  1
  B  B10  1  0.500000  0.446340  0.567051  1
  B  B11  1  0.500000  0.053443  0.066236  1
  B  B12  1  0.500000  0.946425  0.933936  1
  B  B13  1  0.500000  0.749653  0.419827  1
  B  B14  1  0.500000  0.250784  0.580221  1
  B  B15  1  0.500000  0.249156  0.079560  1
  B  B16  1  0.500000  0.750764  0.920306  1
  B  B17  1  0.500000  0.792679  0.265257  1
  B  B18  1  0.500000  0.207903  0.734758  1
  B  B19  1  0.500000  0.291676  0.233550  1
  B  B20  1  0.500000  0.708528  0.765663  1
  B  B21  1  0.500000  0.631060  0.184445  1
  B  B22  1  0.500000  0.368597  0.815921  1
  B  B23  1  0.500000  0.130913  0.315023  1
  B  B24  1  0.500000  0.869499  0.684544  1
  B  B25  1  0.500000  0.981810  0.212566  1
  B  B26  1  0.500000  0.018254  0.787761  1
  B  B27  1  0.500000  0.481132  0.286962  1
  B  B28  1  0.500000  0.517765  0.713046  1
  B  B29  1  0.500000  0.605438  0.028544  1
  B  B30  1  0.500000  0.394100  0.970521  1
  B  B31  1  0.500000  0.105586  0.471123  1
  B  B32  1  0.500000  0.895933  0.529392  1
  Ru  Ru33  1  0.000000  0.361464  0.680074  1
  Ru  Ru34  1  0.000000  0.137705  0.178391  1
  Ru  Ru35  1  0.000000  0.862304  0.821090  1
