# generated using pymatgen
data_Ho8ErSi4AgB16
_symmetry_space_group_name_H-M   'P 1'
_cell_length_a   7.16830300
_cell_length_b   7.16830300
_cell_length_c   7.88298400
_cell_angle_alpha   90.00000000
_cell_angle_beta   90.00000000
_cell_angle_gamma   90.00000000
_symmetry_Int_Tables_number   1
_chemical_formula_structural   Ho8ErSi4AgB16
_chemical_formula_sum   'Ho8 Er1 Si4 Ag1 B16'
_cell_volume   405.06372660
_cell_formula_units_Z   1
loop_
 _symmetry_equiv_pos_site_id
 _symmetry_equiv_pos_as_xyz
  1  'x, y, z'
loop_
 _atom_site_type_symbol
 _atom_site_label
 _atom_site_symmetry_multiplicity
 _atom_site_fract_x
 _atom_site_fract_y
 _atom_site_fract_z
 _atom_site_occupancy
  Ho  Ho0  1  0.681653  0.180306  0.230692  1
  Ho  Ho1  1  0.318347  0.819694  0.769308  1
  Ho  Ho2  1  0.318347  0.819694  0.230692  1
  Ho  Ho3  1  0.819694  0.681653  0.230692  1
  Ho  Ho4  1  0.819694  0.681653  0.769308  1
  Ho  Ho5  1  0.681653  0.180306  0.769308  1
  Ho  Ho6  1  0.180306  0.318347  0.769308  1
  Ho  Ho7  1  0.180306  0.318347  0.230692  1
  Er  Er8  1  0.500000  0.500000  0.500000  1
  Si  Si9  1  0.116399  0.614913  0.500000  1
  Si  Si10  1  0.883601  0.385087  0.500000  1
  Si  Si11  1  0.385087  0.116399  0.500000  1
  Si  Si12  1  0.614913  0.883601  0.500000  1
  Ag  Ag13  1  0.000000  0.000000  0.500000  1
  B  B14  1  0.175133  0.038488  0.000000  1
  B  B15  1  0.824867  0.961512  0.000000  1
  B  B16  1  0.961512  0.175133  0.000000  1
  B  B17  1  0.327264  0.540265  0.000000  1
  B  B18  1  0.038488  0.824867  0.000000  1
  B  B19  1  0.672736  0.459735  0.000000  1
  B  B20  1  0.540265  0.672736  0.000000  1
  B  B21  1  0.459735  0.327264  0.000000  1
  B  B22  1  0.089376  0.588643  0.000000  1
  B  B23  1  0.910624  0.411357  0.000000  1
  B  B24  1  0.411357  0.089376  0.000000  1
  B  B25  1  0.588643  0.910624  0.000000  1
  B  B26  1  0.000000  0.000000  0.159156  1
  B  B27  1  0.000000  0.000000  0.840844  1
  B  B28  1  0.500000  0.500000  0.834656  1
  B  B29  1  0.500000  0.500000  0.165344  1
