# generated using pymatgen
data_Sr12Cd5AgPb6
_symmetry_space_group_name_H-M   'P 1'
_cell_length_a   5.78392700
_cell_length_b   8.11618100
_cell_length_c   17.41065704
_cell_angle_alpha   90.00000000
_cell_angle_beta   90.00289645
_cell_angle_gamma   90.00000000
_symmetry_Int_Tables_number   1
_chemical_formula_structural   Sr12Cd5AgPb6
_chemical_formula_sum   'Sr12 Cd5 Ag1 Pb6'
_cell_volume   817.31540911
_cell_formula_units_Z   1
loop_
 _symmetry_equiv_pos_site_id
 _symmetry_equiv_pos_as_xyz
  1  'x, y, z'
loop_
 _atom_site_type_symbol
 _atom_site_label
 _atom_site_symmetry_multiplicity
 _atom_site_fract_x
 _atom_site_fract_y
 _atom_site_fract_z
 _atom_site_occupancy
  Sr  Sr0  1  0.500000  0.244353  0.000000  1
  Sr  Sr1  1  0.500000  0.755648  0.000000  1
  Sr  Sr2  1  0.000053  0.246551  0.163954  1
  Sr  Sr3  1  0.000053  0.753449  0.163954  1
  Sr  Sr4  1  0.500097  0.249402  0.333159  1
  Sr  Sr5  1  0.500097  0.750600  0.333159  1
  Sr  Sr6  1  0.000000  0.249234  0.500000  1
  Sr  Sr7  1  0.000000  0.750767  0.500000  1
  Sr  Sr8  1  0.499902  0.249402  0.666840  1
  Sr  Sr9  1  0.499902  0.750600  0.666840  1
  Sr  Sr10  1  0.999947  0.246551  0.836045  1
  Sr  Sr11  1  0.999947  0.753449  0.836045  1
  Cd  Cd12  1  0.500118  0.500000  0.166125  1
  Cd  Cd13  1  0.000178  0.000000  0.332453  1
  Cd  Cd14  1  0.500000  0.500000  0.500000  1
  Cd  Cd15  1  0.999822  0.000000  0.667547  1
  Cd  Cd16  1  0.499882  0.500000  0.833875  1
  Ag  Ag17  1  0.000000  0.000000  0.000000  1
  Pb  Pb18  1  0.000000  0.500000  0.000000  1
  Pb  Pb19  1  0.500054  0.000000  0.168678  1
  Pb  Pb20  1  0.000116  0.500000  0.332846  1
  Pb  Pb21  1  0.500000  0.000000  0.500000  1
  Pb  Pb22  1  0.999884  0.500000  0.667154  1
  Pb  Pb23  1  0.499945  0.000000  0.831322  1
