# generated using pymatgen
data_Li4Ca7YSi11Ge
_symmetry_space_group_name_H-M   'P 1'
_cell_length_a   4.35700600
_cell_length_b   10.53569231
_cell_length_c   11.18062452
_cell_angle_alpha   90.20963832
_cell_angle_beta   90.00000000
_cell_angle_gamma   90.00000000
_symmetry_Int_Tables_number   1
_chemical_formula_structural   Li4Ca7YSi11Ge
_chemical_formula_sum   'Li4 Ca7 Y1 Si11 Ge1'
_cell_volume   513.23278673
_cell_formula_units_Z   1
loop_
 _symmetry_equiv_pos_site_id
 _symmetry_equiv_pos_as_xyz
  1  'x, y, z'
loop_
 _atom_site_type_symbol
 _atom_site_label
 _atom_site_symmetry_multiplicity
 _atom_site_fract_x
 _atom_site_fract_y
 _atom_site_fract_z
 _atom_site_occupancy
  Li  Li0  1  0.500000  0.860182  0.285358  1
  Li  Li1  1  0.500000  0.140290  0.716469  1
  Li  Li2  1  0.000000  0.363667  0.217539  1
  Li  Li3  1  0.000000  0.637896  0.781781  1
  Ca  Ca4  1  0.500000  0.447488  0.651535  1
  Ca  Ca5  1  0.000000  0.054292  0.151429  1
  Ca  Ca6  1  0.000000  0.949523  0.849056  1
  Ca  Ca7  1  0.500000  0.822406  0.573047  1
  Ca  Ca8  1  0.500000  0.175509  0.425769  1
  Ca  Ca9  1  0.000000  0.322813  0.925387  1
  Ca  Ca10  1  0.000000  0.676256  0.075725  1
  Y  Y11  1  0.500000  0.550514  0.352446  1
  Si  Si12  1  0.500000  0.113012  0.959321  1
  Si  Si13  1  0.000000  0.393352  0.454571  1
  Si  Si14  1  0.000000  0.607146  0.538836  1
  Si  Si15  1  0.000000  0.964078  0.399446  1
  Si  Si16  1  0.000000  0.033791  0.598140  1
  Si  Si17  1  0.500000  0.468250  0.103274  1
  Si  Si18  1  0.500000  0.534100  0.903068  1
  Si  Si19  1  0.000000  0.255241  0.630421  1
  Si  Si20  1  0.000000  0.739726  0.363280  1
  Si  Si21  1  0.500000  0.753436  0.863811  1
  Si  Si22  1  0.500000  0.246713  0.135323  1
  Ge  Ge23  1  0.500000  0.890323  0.044972  1
