# generated using pymatgen
data_CoBi6IrRhO18
_symmetry_space_group_name_H-M   'P 1'
_cell_length_a   9.14330700
_cell_length_b   9.14330617
_cell_length_c   5.17400200
_cell_angle_alpha   90.00000000
_cell_angle_beta   90.00000000
_cell_angle_gamma   119.99999894
_symmetry_Int_Tables_number   1
_chemical_formula_structural   CoBi6IrRhO18
_chemical_formula_sum   'Co1 Bi6 Ir1 Rh1 O18'
_cell_volume   374.59656723
_cell_formula_units_Z   1
loop_
 _symmetry_equiv_pos_site_id
 _symmetry_equiv_pos_as_xyz
  1  'x, y, z'
loop_
 _atom_site_type_symbol
 _atom_site_label
 _atom_site_symmetry_multiplicity
 _atom_site_fract_x
 _atom_site_fract_y
 _atom_site_fract_z
 _atom_site_occupancy
  Co  Co0  1  0.666667  0.333333  0.997290  1
  Bi  Bi1  1  0.984505  0.369491  0.498763  1
  Bi  Bi2  1  0.297001  0.287593  0.000608  1
  Bi  Bi3  1  0.990591  0.702999  0.000608  1
  Bi  Bi4  1  0.630509  0.615014  0.498763  1
  Bi  Bi5  1  0.384986  0.015495  0.498763  1
  Bi  Bi6  1  0.712407  0.009409  0.000608  1
  Ir  Ir7  1  0.333333  0.666667  0.999635  1
  Rh  Rh8  1  0.000000  0.000000  0.509071  1
  O  O9  1  0.082458  0.202848  0.722153  1
  O  O10  1  0.233893  0.465442  0.217676  1
  O  O11  1  0.134914  0.597290  0.783751  1
  O  O12  1  0.402710  0.537623  0.783751  1
  O  O13  1  0.231550  0.766107  0.217676  1
  O  O14  1  0.120389  0.917542  0.722153  1
  O  O15  1  0.534558  0.768450  0.217676  1
  O  O16  1  0.204250  0.081292  0.284202  1
  O  O17  1  0.462377  0.865086  0.783751  1
  O  O18  1  0.797152  0.879611  0.722153  1
  O  O19  1  0.467157  0.231979  0.780641  1
  O  O20  1  0.596503  0.137836  0.210206  1
  O  O21  1  0.541333  0.403497  0.210206  1
  O  O22  1  0.768021  0.235178  0.780641  1
  O  O23  1  0.918708  0.122958  0.284202  1
  O  O24  1  0.764822  0.532843  0.780641  1
  O  O25  1  0.862164  0.458667  0.210206  1
  O  O26  1  0.877042  0.795750  0.284202  1
