# generated using pymatgen
data_PrNd11Ir3RhBr12
_symmetry_space_group_name_H-M   'P 1'
_cell_length_a   10.49807807
_cell_length_b   10.49807791
_cell_length_c   10.50967037
_cell_angle_alpha   109.47525731
_cell_angle_beta   109.47525759
_cell_angle_gamma   109.42366923
_symmetry_Int_Tables_number   1
_chemical_formula_structural   PrNd11Ir3RhBr12
_chemical_formula_sum   'Pr1 Nd11 Ir3 Rh1 Br12'
_cell_volume   892.06832175
_cell_formula_units_Z   1
loop_
 _symmetry_equiv_pos_site_id
 _symmetry_equiv_pos_as_xyz
  1  'x, y, z'
loop_
 _atom_site_type_symbol
 _atom_site_label
 _atom_site_symmetry_multiplicity
 _atom_site_fract_x
 _atom_site_fract_y
 _atom_site_fract_z
 _atom_site_occupancy
  Pr  Pr0  1  0.234467  0.265533  0.750000  1
  Nd  Nd1  1  0.467944  0.484563  0.234037  1
  Nd  Nd2  1  0.750329  0.233968  0.266495  1
  Nd  Nd3  1  0.749572  0.016135  0.483416  1
  Nd  Nd4  1  0.233476  0.467984  0.484138  1
  Nd  Nd5  1  0.266032  0.749671  0.233505  1
  Nd  Nd6  1  0.032016  0.266524  0.015862  1
  Nd  Nd7  1  0.015437  0.032056  0.265963  1
  Nd  Nd8  1  0.483865  0.750428  0.016584  1
  Nd  Nd9  1  0.484402  0.233494  0.467703  1
  Nd  Nd10  1  0.016228  0.483772  0.750000  1
  Nd  Nd11  1  0.266506  0.015598  0.032297  1
  Ir  Ir12  1  0.499472  0.000528  0.250000  1
  Ir  Ir13  1  0.000047  0.249941  0.499048  1
  Ir  Ir14  1  0.250059  0.499953  0.000952  1
  Rh  Rh15  1  0.249989  0.250011  0.250000  1
  Br  Br16  1  0.250020  0.754213  0.746047  1
  Br  Br17  1  0.509155  0.505885  0.753483  1
  Br  Br18  1  0.992050  0.746363  0.995979  1
  Br  Br19  1  0.745787  0.249980  0.753953  1
  Br  Br20  1  0.994115  0.990845  0.746517  1
  Br  Br21  1  0.249755  0.994673  0.502368  1
  Br  Br22  1  0.753637  0.507950  0.504021  1
  Br  Br23  1  0.505327  0.250245  0.997632  1
  Br  Br24  1  0.754073  0.745927  0.250000  1
  Br  Br25  1  0.746333  0.996091  0.992094  1
  Br  Br26  1  0.996000  0.504000  0.250000  1
  Br  Br27  1  0.503909  0.753667  0.507906  1
