# generated using pymatgen
data_Na12Ge3As5Pt8
_symmetry_space_group_name_H-M   'P 1'
_cell_length_a   5.92454900
_cell_length_b   7.74315862
_cell_length_c   13.15492947
_cell_angle_alpha   89.77591794
_cell_angle_beta   90.00000000
_cell_angle_gamma   90.00000000
_symmetry_Int_Tables_number   1
_chemical_formula_structural   Na12Ge3As5Pt8
_chemical_formula_sum   'Na12 Ge3 As5 Pt8'
_cell_volume   603.47412561
_cell_formula_units_Z   1
loop_
 _symmetry_equiv_pos_site_id
 _symmetry_equiv_pos_as_xyz
  1  'x, y, z'
loop_
 _atom_site_type_symbol
 _atom_site_label
 _atom_site_symmetry_multiplicity
 _atom_site_fract_x
 _atom_site_fract_y
 _atom_site_fract_z
 _atom_site_occupancy
  Na  Na0  1  0.647840  0.221510  0.249672  1
  Na  Na1  1  0.352659  0.778081  0.750953  1
  Na  Na2  1  0.352659  0.721919  0.249047  1
  Na  Na3  1  0.647840  0.278490  0.750328  1
  Na  Na4  1  0.126276  0.384621  0.102969  1
  Na  Na5  1  0.873072  0.615980  0.898399  1
  Na  Na6  1  0.872452  0.613894  0.602499  1
  Na  Na7  1  0.872452  0.886106  0.397501  1
  Na  Na8  1  0.125975  0.384926  0.396885  1
  Na  Na9  1  0.125975  0.115074  0.603115  1
  Na  Na10  1  0.126276  0.115379  0.897031  1
  Na  Na11  1  0.873072  0.884020  0.101601  1
  Ge  Ge12  1  0.394282  0.750000  0.000000  1
  Ge  Ge13  1  0.413039  0.750000  0.500000  1
  Ge  Ge14  1  0.587281  0.250000  0.500000  1
  As  As15  1  0.160121  0.071630  0.248739  1
  As  As16  1  0.840384  0.921179  0.749963  1
  As  As17  1  0.840384  0.578821  0.250037  1
  As  As18  1  0.160121  0.428370  0.751261  1
  As  As19  1  0.612859  0.250000  0.000000  1
  Pt  Pt20  1  0.375836  0.033805  0.091229  1
  Pt  Pt21  1  0.624275  0.968820  0.905222  1
  Pt  Pt22  1  0.628995  0.974558  0.593962  1
  Pt  Pt23  1  0.628995  0.525442  0.406038  1
  Pt  Pt24  1  0.368384  0.025356  0.406051  1
  Pt  Pt25  1  0.368384  0.474644  0.593949  1
  Pt  Pt26  1  0.375836  0.466195  0.908771  1
  Pt  Pt27  1  0.624275  0.531180  0.094778  1
