# generated using pymatgen
data_DyZn6AgAu5
_symmetry_space_group_name_H-M   'P 1'
_cell_length_a   7.10274108
_cell_length_b   7.10273783
_cell_length_c   7.10274100
_cell_angle_alpha   96.14979096
_cell_angle_beta   99.31579202
_cell_angle_gamma   136.96997260
_symmetry_Int_Tables_number   1
_chemical_formula_structural   DyZn6AgAu5
_chemical_formula_sum   'Dy1 Zn6 Ag1 Au5'
_cell_volume   227.36348860
_cell_formula_units_Z   1
loop_
 _symmetry_equiv_pos_site_id
 _symmetry_equiv_pos_as_xyz
  1  'x, y, z'
loop_
 _atom_site_type_symbol
 _atom_site_label
 _atom_site_symmetry_multiplicity
 _atom_site_fract_x
 _atom_site_fract_y
 _atom_site_fract_z
 _atom_site_occupancy
  Dy  Dy0  1  0.999995  0.999474  0.999480  1
  Zn  Zn1  1  0.002802  0.999357  0.498559  1
  Zn  Zn2  1  0.499209  0.495761  0.498564  1
  Zn  Zn3  1  0.500797  0.999357  0.996555  1
  Zn  Zn4  1  0.997196  0.495761  0.996552  1
  Zn  Zn5  1  0.735001  0.500769  0.235770  1
  Zn  Zn6  1  0.265000  0.500769  0.765768  1
  Ag  Ag7  1  0.999999  0.348448  0.348450  1
  Au  Au8  1  0.000001  0.659295  0.659294  1
  Au  Au9  1  0.665288  0.996106  0.661392  1
  Au  Au10  1  0.334715  0.996106  0.330818  1
  Au  Au11  1  0.500001  0.324427  0.824426  1
  Au  Au12  1  0.499997  0.684369  0.184372  1
