# generated using pymatgen
data_Ba(S8I)3
_symmetry_space_group_name_H-M   'P 1'
_cell_length_a   15.25672777
_cell_length_b   15.25672817
_cell_length_c   15.25672808
_cell_angle_alpha   118.81169152
_cell_angle_beta   118.81169139
_cell_angle_gamma   118.81169522
_symmetry_Int_Tables_number   1
_chemical_formula_structural   Ba(S8I)3
_chemical_formula_sum   'Ba1 S24 I3'
_cell_volume   1000.40693368
_cell_formula_units_Z   1
loop_
 _symmetry_equiv_pos_site_id
 _symmetry_equiv_pos_as_xyz
  1  'x, y, z'
loop_
 _atom_site_type_symbol
 _atom_site_label
 _atom_site_symmetry_multiplicity
 _atom_site_fract_x
 _atom_site_fract_y
 _atom_site_fract_z
 _atom_site_occupancy
  Ba  Ba0  1  0.457159  0.457159  0.457159  1
  S  S1  1  0.011786  0.603933  0.603933  1
  S  S2  1  0.603933  0.603933  0.011786  1
  S  S3  1  0.603933  0.011786  0.603933  1
  S  S4  1  0.235015  0.843412  0.715865  1
  S  S5  1  0.843412  0.715865  0.235015  1
  S  S6  1  0.715865  0.235015  0.843412  1
  S  S7  1  0.843412  0.235015  0.715865  1
  S  S8  1  0.235015  0.715865  0.843412  1
  S  S9  1  0.715865  0.843412  0.235015  1
  S  S10  1  0.101576  0.628019  0.447284  1
  S  S11  1  0.628019  0.447284  0.101576  1
  S  S12  1  0.447284  0.101576  0.628019  1
  S  S13  1  0.628019  0.101576  0.447284  1
  S  S14  1  0.101576  0.447284  0.628019  1
  S  S15  1  0.447284  0.628019  0.101576  1
  S  S16  1  0.358429  0.745621  0.617490  1
  S  S17  1  0.745621  0.617490  0.358429  1
  S  S18  1  0.617490  0.358429  0.745621  1
  S  S19  1  0.745621  0.358429  0.617490  1
  S  S20  1  0.358429  0.617490  0.745621  1
  S  S21  1  0.617490  0.745621  0.358429  1
  S  S22  1  0.186335  0.466329  0.466329  1
  S  S23  1  0.466329  0.466329  0.186335  1
  S  S24  1  0.466329  0.186335  0.466329  1
  I  I25  1  0.062248  0.901813  0.901813  1
  I  I26  1  0.901813  0.901813  0.062248  1
  I  I27  1  0.901813  0.062248  0.901813  1
