# generated using pymatgen
data_Dy4Ga4PdRu3
_symmetry_space_group_name_H-M   'P 1'
_cell_length_a   4.36488900
_cell_length_b   6.90859978
_cell_length_c   7.70612217
_cell_angle_alpha   89.81557070
_cell_angle_beta   90.00000000
_cell_angle_gamma   90.00000000
_symmetry_Int_Tables_number   1
_chemical_formula_structural   Dy4Ga4PdRu3
_chemical_formula_sum   'Dy4 Ga4 Pd1 Ru3'
_cell_volume   232.37899993
_cell_formula_units_Z   1
loop_
 _symmetry_equiv_pos_site_id
 _symmetry_equiv_pos_as_xyz
  1  'x, y, z'
loop_
 _atom_site_type_symbol
 _atom_site_label
 _atom_site_symmetry_multiplicity
 _atom_site_fract_x
 _atom_site_fract_y
 _atom_site_fract_z
 _atom_site_occupancy
  Dy  Dy0  1  0.750000  0.010384  0.698031  1
  Dy  Dy1  1  0.750000  0.514361  0.807844  1
  Dy  Dy2  1  0.250000  0.979349  0.307466  1
  Dy  Dy3  1  0.250000  0.487889  0.186909  1
  Ga  Ga4  1  0.250000  0.827816  0.923215  1
  Ga  Ga5  1  0.250000  0.333954  0.582392  1
  Ga  Ga6  1  0.750000  0.168915  0.073311  1
  Ga  Ga7  1  0.750000  0.677706  0.422394  1
  Pd  Pd8  1  0.750000  0.287490  0.401316  1
  Ru  Ru9  1  0.750000  0.781648  0.099416  1
  Ru  Ru10  1  0.250000  0.718996  0.598123  1
  Ru  Ru11  1  0.250000  0.211492  0.899582  1
