# generated using pymatgen
data_Zr4Sn3MoN
_symmetry_space_group_name_H-M   'P 1'
_cell_length_a   8.36852800
_cell_length_b   8.36852764
_cell_length_c   5.69172000
_cell_angle_alpha   90.00000000
_cell_angle_beta   90.00000000
_cell_angle_gamma   119.99999352
_symmetry_Int_Tables_number   1
_chemical_formula_structural   Zr4Sn3MoN
_chemical_formula_sum   'Zr8 Sn6 Mo2 N2'
_cell_volume   345.20121492
_cell_formula_units_Z   2
loop_
 _symmetry_equiv_pos_site_id
 _symmetry_equiv_pos_as_xyz
  1  'x, y, z'
loop_
 _atom_site_type_symbol
 _atom_site_label
 _atom_site_symmetry_multiplicity
 _atom_site_fract_x
 _atom_site_fract_y
 _atom_site_fract_z
 _atom_site_occupancy
  Zr  Zr0  1  0.333333  0.666667  0.500000  1
  Zr  Zr1  1  0.666667  0.333333  0.500000  1
  Zr  Zr2  1  0.778658  0.778658  0.751449  1
  Zr  Zr3  1  0.221342  0.000000  0.751449  1
  Zr  Zr4  1  0.000000  0.221342  0.751449  1
  Zr  Zr5  1  0.221342  0.221342  0.248551  1
  Zr  Zr6  1  0.778658  0.000000  0.248551  1
  Zr  Zr7  1  0.000000  0.778658  0.248551  1
  Sn  Sn8  1  0.408622  0.408622  0.762734  1
  Sn  Sn9  1  0.591378  0.000000  0.762734  1
  Sn  Sn10  1  0.000000  0.591378  0.762734  1
  Sn  Sn11  1  0.591378  0.591378  0.237266  1
  Sn  Sn12  1  0.408622  0.000000  0.237266  1
  Sn  Sn13  1  0.000000  0.408622  0.237266  1
  Mo  Mo14  1  0.666667  0.333333  0.000000  1
  Mo  Mo15  1  0.333333  0.666667  0.000000  1
  N  N16  1  0.000000  0.000000  0.000000  1
  N  N17  1  0.000000  0.000000  0.500000  1
