# generated using pymatgen
data_LiTb4Dy4InIr2
_symmetry_space_group_name_H-M   'P 1'
_cell_length_a   9.70017661
_cell_length_b   9.66180569
_cell_length_c   9.66063375
_cell_angle_alpha   59.90086175
_cell_angle_beta   60.07102522
_cell_angle_gamma   60.03867207
_symmetry_Int_Tables_number   1
_chemical_formula_structural   LiTb4Dy4InIr2
_chemical_formula_sum   'Li2 Tb8 Dy8 In2 Ir4'
_cell_volume   640.26690876
_cell_formula_units_Z   2
loop_
 _symmetry_equiv_pos_site_id
 _symmetry_equiv_pos_as_xyz
  1  'x, y, z'
loop_
 _atom_site_type_symbol
 _atom_site_label
 _atom_site_symmetry_multiplicity
 _atom_site_fract_x
 _atom_site_fract_y
 _atom_site_fract_z
 _atom_site_occupancy
  Li  Li0  1  0.325143  0.322330  0.322013  1
  Li  Li1  1  0.028842  0.322453  0.322204  1
  Tb  Tb2  1  0.098376  0.097362  0.708751  1
  Tb  Tb3  1  0.688588  0.310797  0.688584  1
  Tb  Tb4  1  0.689149  0.688528  0.310306  1
  Tb  Tb5  1  0.689142  0.310135  0.309953  1
  Tb  Tb6  1  0.311998  0.687191  0.687320  1
  Tb  Tb7  1  0.559526  0.937769  0.562213  1
  Tb  Tb8  1  0.701275  0.099757  0.098921  1
  Tb  Tb9  1  0.556963  0.941937  0.942452  1
  Dy  Dy10  1  0.098798  0.709176  0.096794  1
  Dy  Dy11  1  0.940307  0.938550  0.560763  1
  Dy  Dy12  1  0.940276  0.560785  0.938665  1
  Dy  Dy13  1  0.311053  0.689163  0.312105  1
  Dy  Dy14  1  0.932227  0.566252  0.566416  1
  Dy  Dy15  1  0.311059  0.312518  0.689268  1
  Dy  Dy16  1  0.099831  0.098159  0.098140  1
  Dy  Dy17  1  0.559559  0.561841  0.937910  1
  In  In18  1  0.329165  0.006094  0.333931  1
  In  In19  1  0.329079  0.334237  0.006242  1
  Ir  Ir20  1  0.889795  0.892262  0.893242  1
  Ir  Ir21  1  0.892794  0.893476  0.325575  1
  Ir  Ir22  1  0.325176  0.892864  0.894361  1
  Ir  Ir23  1  0.891875  0.326365  0.893873  1
