# generated using pymatgen
data_LaTb(Yb5Ru2)2
_symmetry_space_group_name_H-M   'P 1'
_cell_length_a   6.25105751
_cell_length_b   7.61366208
_cell_length_c   9.31210905
_cell_angle_alpha   90.04062753
_cell_angle_beta   89.59120143
_cell_angle_gamma   88.74857748
_symmetry_Int_Tables_number   1
_chemical_formula_structural   LaTb(Yb5Ru2)2
_chemical_formula_sum   'La1 Tb1 Yb10 Ru4'
_cell_volume   443.07814624
_cell_formula_units_Z   1
loop_
 _symmetry_equiv_pos_site_id
 _symmetry_equiv_pos_as_xyz
  1  'x, y, z'
loop_
 _atom_site_type_symbol
 _atom_site_label
 _atom_site_symmetry_multiplicity
 _atom_site_fract_x
 _atom_site_fract_y
 _atom_site_fract_z
 _atom_site_occupancy
  La  La0  1  0.356684  0.952349  0.752091  1
  Tb  Tb1  1  0.343705  0.664751  0.073051  1
  Yb  Yb2  1  0.156191  0.168944  0.429441  1
  Yb  Yb3  1  0.653788  0.332904  0.565288  1
  Yb  Yb4  1  0.844890  0.832349  0.937154  1
  Yb  Yb5  1  0.657112  0.330539  0.936531  1
  Yb  Yb6  1  0.843823  0.833619  0.564035  1
  Yb  Yb7  1  0.342125  0.666655  0.431692  1
  Yb  Yb8  1  0.158048  0.169025  0.069216  1
  Yb  Yb9  1  0.870578  0.539523  0.248694  1
  Yb  Yb10  1  0.630727  0.035164  0.248567  1
  Yb  Yb11  1  0.129041  0.459597  0.751760  1
  Ru  Ru12  1  0.055569  0.871576  0.245123  1
  Ru  Ru13  1  0.456355  0.382687  0.243065  1
  Ru  Ru14  1  0.984843  0.117574  0.745838  1
  Ru  Ru15  1  0.516522  0.642744  0.758454  1
