# generated using pymatgen
data_Th7TcRu2
_symmetry_space_group_name_H-M   'P 1'
_cell_length_a   9.94368606
_cell_length_b   9.96751371
_cell_length_c   6.34617609
_cell_angle_alpha   89.99999617
_cell_angle_beta   89.85083743
_cell_angle_gamma   120.07929841
_symmetry_Int_Tables_number   1
_chemical_formula_structural   Th7TcRu2
_chemical_formula_sum   'Th14 Tc2 Ru4'
_cell_volume   544.28635522
_cell_formula_units_Z   2
loop_
 _symmetry_equiv_pos_site_id
 _symmetry_equiv_pos_as_xyz
  1  'x, y, z'
loop_
 _atom_site_type_symbol
 _atom_site_label
 _atom_site_symmetry_multiplicity
 _atom_site_fract_x
 _atom_site_fract_y
 _atom_site_fract_z
 _atom_site_occupancy
  Th  Th0  1  0.460564  0.540838  0.298614  1
  Th  Th1  1  0.079422  0.539711  0.298245  1
  Th  Th2  1  0.918849  0.459424  0.800364  1
  Th  Th3  1  0.252190  0.126096  0.503457  1
  Th  Th4  1  0.540895  0.081417  0.799713  1
  Th  Th5  1  0.750648  0.875323  0.004021  1
  Th  Th6  1  0.665999  0.332999  0.287297  1
  Th  Th7  1  0.124992  0.873808  0.002875  1
  Th  Th8  1  0.460564  0.919726  0.298614  1
  Th  Th9  1  0.540895  0.459478  0.799713  1
  Th  Th10  1  0.874135  0.126375  0.504042  1
  Th  Th11  1  0.124992  0.251183  0.002875  1
  Th  Th12  1  0.874135  0.747761  0.504042  1
  Th  Th13  1  0.333758  0.666880  0.790901  1
  Tc  Tc14  1  0.813256  0.629162  0.047972  1
  Tc  Tc15  1  0.813256  0.184095  0.047972  1
  Ru  Ru16  1  0.625615  0.812807  0.549144  1
  Ru  Ru17  1  0.370038  0.185020  0.047807  1
  Ru  Ru18  1  0.187898  0.373845  0.548163  1
  Ru  Ru19  1  0.187898  0.814053  0.548163  1
