# generated using pymatgen
data_Cs(BaTe11)2
_symmetry_space_group_name_H-M   'P 1'
_cell_length_a   9.60044768
_cell_length_b   9.62437788
_cell_length_c   12.07171070
_cell_angle_alpha   113.29366862
_cell_angle_beta   113.19767062
_cell_angle_gamma   90.51052270
_symmetry_Int_Tables_number   1
_chemical_formula_structural   Cs(BaTe11)2
_chemical_formula_sum   'Cs1 Ba2 Te22'
_cell_volume   923.57233946
_cell_formula_units_Z   1
loop_
 _symmetry_equiv_pos_site_id
 _symmetry_equiv_pos_as_xyz
  1  'x, y, z'
loop_
 _atom_site_type_symbol
 _atom_site_label
 _atom_site_symmetry_multiplicity
 _atom_site_fract_x
 _atom_site_fract_y
 _atom_site_fract_z
 _atom_site_occupancy
  Cs  Cs0  1  0.176176  0.175308  0.350100  1
  Ba  Ba1  1  0.817527  0.820012  0.635016  1
  Ba  Ba2  1  0.500541  0.501364  0.001580  1
  Te  Te3  1  0.890750  0.797273  0.996681  1
  Te  Te4  1  0.101268  0.528317  0.776333  1
  Te  Te5  1  0.247005  0.099595  0.775841  1
  Te  Te6  1  0.005741  0.196417  0.607405  1
  Te  Te7  1  0.328125  0.749154  0.222423  1
  Te  Te8  1  0.987554  0.800654  0.399842  1
  Te  Te9  1  0.676114  0.249831  0.777066  1
  Te  Te10  1  0.471807  0.325991  0.223246  1
  Te  Te11  1  0.801063  0.110306  0.995722  1
  Te  Te12  1  0.529516  0.677606  0.776234  1
  Te  Te13  1  0.751194  0.898374  0.223473  1
  Te  Te14  1  0.893883  0.473723  0.221936  1
  Te  Te15  1  0.411436  0.004385  0.610215  1
  Te  Te16  1  0.599622  0.990540  0.398087  1
  Te  Te17  1  0.199508  0.606875  0.609863  1
  Te  Te18  1  0.194465  0.885756  0.995432  1
  Te  Te19  1  0.603097  0.412594  0.608284  1
  Te  Te20  1  0.001261  0.501432  0.002009  1
  Te  Te21  1  0.797855  0.409538  0.398009  1
  Te  Te22  1  0.105155  0.199058  0.995918  1
  Te  Te23  1  0.502910  0.003929  0.006072  1
  Te  Te24  1  0.412469  0.600452  0.400263  1
