# generated using pymatgen
data_Lu4Sn5SbRh7
_symmetry_space_group_name_H-M   'P 1'
_cell_length_a   7.54334127
_cell_length_b   7.54334358
_cell_length_c   7.54334225
_cell_angle_alpha   109.39655039
_cell_angle_beta   109.39655448
_cell_angle_gamma   109.62066039
_symmetry_Int_Tables_number   1
_chemical_formula_structural   Lu4Sn5SbRh7
_chemical_formula_sum   'Lu4 Sn5 Sb1 Rh7'
_cell_volume   330.42077969
_cell_formula_units_Z   1
loop_
 _symmetry_equiv_pos_site_id
 _symmetry_equiv_pos_as_xyz
  1  'x, y, z'
loop_
 _atom_site_type_symbol
 _atom_site_label
 _atom_site_symmetry_multiplicity
 _atom_site_fract_x
 _atom_site_fract_y
 _atom_site_fract_z
 _atom_site_occupancy
  Lu  Lu0  1  0.495998  0.998539  0.000000  1
  Lu  Lu1  1  0.998539  0.495998  0.000000  1
  Lu  Lu2  1  0.998539  0.998539  0.502541  1
  Lu  Lu3  1  0.495998  0.495998  0.497459  1
  Sn  Sn4  1  0.997278  0.312010  0.314732  1
  Sn  Sn5  1  0.682546  0.997278  0.685268  1
  Sn  Sn6  1  0.692483  0.692483  0.000000  1
  Sn  Sn7  1  0.997278  0.682546  0.685268  1
  Sn  Sn8  1  0.312010  0.997278  0.314732  1
  Sb  Sb9  1  0.319360  0.319360  0.000000  1
  Rh  Rh10  1  0.008214  0.008214  0.000000  1
  Rh  Rh11  1  0.501377  0.750133  0.248756  1
  Rh  Rh12  1  0.750133  0.501377  0.248756  1
  Rh  Rh13  1  0.248124  0.748124  0.500000  1
  Rh  Rh14  1  0.252623  0.501377  0.751244  1
  Rh  Rh15  1  0.501377  0.252623  0.751244  1
  Rh  Rh16  1  0.748124  0.248124  0.500000  1
