# generated using pymatgen
data_NiOsBr6
_symmetry_space_group_name_H-M   'P 1'
_cell_length_a   6.44741609
_cell_length_b   6.44741739
_cell_length_c   6.63031565
_cell_angle_alpha   81.31937548
_cell_angle_beta   81.31938220
_cell_angle_gamma   119.97112520
_symmetry_Int_Tables_number   1
_chemical_formula_structural   NiOsBr6
_chemical_formula_sum   'Ni1 Os1 Br6'
_cell_volume   227.63341612
_cell_formula_units_Z   1
loop_
 _symmetry_equiv_pos_site_id
 _symmetry_equiv_pos_as_xyz
  1  'x, y, z'
loop_
 _atom_site_type_symbol
 _atom_site_label
 _atom_site_symmetry_multiplicity
 _atom_site_fract_x
 _atom_site_fract_y
 _atom_site_fract_z
 _atom_site_occupancy
  Ni  Ni0  1  0.166364  0.833636  0.000000  1
  Os  Os1  1  0.833422  0.166578  0.000000  1
  Br  Br2  1  0.435579  0.077153  0.223641  1
  Br  Br3  1  0.922847  0.564421  0.776359  1
  Br  Br4  1  0.211028  0.215255  0.775931  1
  Br  Br5  1  0.784745  0.788972  0.224069  1
  Br  Br6  1  0.072967  0.426952  0.222984  1
  Br  Br7  1  0.573048  0.927033  0.777016  1
