# generated using pymatgen
data_Tm6Lu6Ru3Rh
_symmetry_space_group_name_H-M   'P 1'
_cell_length_a   6.20722376
_cell_length_b   7.21159918
_cell_length_c   8.96797903
_cell_angle_alpha   89.99814848
_cell_angle_beta   90.05477706
_cell_angle_gamma   89.97439063
_symmetry_Int_Tables_number   1
_chemical_formula_structural   Tm6Lu6Ru3Rh
_chemical_formula_sum   'Tm6 Lu6 Ru3 Rh1'
_cell_volume   401.44247664
_cell_formula_units_Z   1
loop_
 _symmetry_equiv_pos_site_id
 _symmetry_equiv_pos_as_xyz
  1  'x, y, z'
loop_
 _atom_site_type_symbol
 _atom_site_label
 _atom_site_symmetry_multiplicity
 _atom_site_fract_x
 _atom_site_fract_y
 _atom_site_fract_z
 _atom_site_occupancy
  Tm  Tm0  1  0.332457  0.674607  0.061347  1
  Tm  Tm1  1  0.170090  0.179654  0.438508  1
  Tm  Tm2  1  0.871435  0.538590  0.250089  1
  Tm  Tm3  1  0.629180  0.038746  0.249922  1
  Tm  Tm4  1  0.126660  0.460696  0.749954  1
  Tm  Tm5  1  0.370671  0.961658  0.750029  1
  Lu  Lu6  1  0.669716  0.323470  0.563338  1
  Lu  Lu7  1  0.827942  0.822539  0.934319  1
  Lu  Lu8  1  0.669842  0.323269  0.936709  1
  Lu  Lu9  1  0.827889  0.822309  0.565623  1
  Lu  Lu10  1  0.332587  0.674391  0.438652  1
  Lu  Lu11  1  0.170001  0.179392  0.061527  1
  Ru  Ru12  1  0.463106  0.385116  0.250040  1
  Ru  Ru13  1  0.962531  0.114077  0.750252  1
  Ru  Ru14  1  0.534218  0.614934  0.749728  1
  Rh  Rh15  1  0.041674  0.886550  0.249963  1
