# generated using pymatgen
data_Sc(Cu2P)2
_symmetry_space_group_name_H-M   'P 1'
_cell_length_a   7.12873400
_cell_length_b   7.12873400
_cell_length_c   3.69331000
_cell_angle_alpha   90.00000000
_cell_angle_beta   90.00000000
_cell_angle_gamma   90.00000000
_symmetry_Int_Tables_number   1
_chemical_formula_structural   Sc(Cu2P)2
_chemical_formula_sum   'Sc2 Cu8 P4'
_cell_volume   187.68976114
_cell_formula_units_Z   2
loop_
 _symmetry_equiv_pos_site_id
 _symmetry_equiv_pos_as_xyz
  1  'x, y, z'
loop_
 _atom_site_type_symbol
 _atom_site_label
 _atom_site_symmetry_multiplicity
 _atom_site_fract_x
 _atom_site_fract_y
 _atom_site_fract_z
 _atom_site_occupancy
  Sc  Sc0  1  0.000000  0.000000  0.500000  1
  Sc  Sc1  1  0.500000  0.500000  0.000000  1
  Cu  Cu2  1  0.334306  0.085968  0.000000  1
  Cu  Cu3  1  0.585968  0.165694  0.500000  1
  Cu  Cu4  1  0.414032  0.834306  0.500000  1
  Cu  Cu5  1  0.665694  0.914032  0.000000  1
  Cu  Cu6  1  0.165694  0.585968  0.500000  1
  Cu  Cu7  1  0.834306  0.414032  0.500000  1
  Cu  Cu8  1  0.085968  0.334306  0.000000  1
  Cu  Cu9  1  0.914032  0.665694  0.000000  1
  P  P10  1  0.791460  0.208540  0.000000  1
  P  P11  1  0.708540  0.708540  0.500000  1
  P  P12  1  0.291460  0.291460  0.500000  1
  P  P13  1  0.208540  0.791460  0.000000  1
