# generated using pymatgen
data_Cr20Co(PtC3)2
_symmetry_space_group_name_H-M   'P 1'
_cell_length_a   7.51885164
_cell_length_b   7.51885084
_cell_length_c   7.51885100
_cell_angle_alpha   60.00000368
_cell_angle_beta   60.00000721
_cell_angle_gamma   59.99999873
_symmetry_Int_Tables_number   1
_chemical_formula_structural   Cr20Co(PtC3)2
_chemical_formula_sum   'Cr20 Co1 Pt2 C6'
_cell_volume   300.56575443
_cell_formula_units_Z   1
loop_
 _symmetry_equiv_pos_site_id
 _symmetry_equiv_pos_as_xyz
  1  'x, y, z'
loop_
 _atom_site_type_symbol
 _atom_site_label
 _atom_site_symmetry_multiplicity
 _atom_site_fract_x
 _atom_site_fract_y
 _atom_site_fract_z
 _atom_site_occupancy
  Cr  Cr0  1  0.614017  0.614017  0.157949  1
  Cr  Cr1  1  0.614017  0.157949  0.614017  1
  Cr  Cr2  1  0.157949  0.614017  0.614017  1
  Cr  Cr3  1  0.614017  0.614017  0.614017  1
  Cr  Cr4  1  0.385983  0.385983  0.842051  1
  Cr  Cr5  1  0.385983  0.842051  0.385983  1
  Cr  Cr6  1  0.842051  0.385983  0.385983  1
  Cr  Cr7  1  0.385983  0.385983  0.385983  1
  Cr  Cr8  1  0.000000  0.000000  0.330827  1
  Cr  Cr9  1  0.669173  0.000000  0.330827  1
  Cr  Cr10  1  0.000000  0.669173  0.330827  1
  Cr  Cr11  1  0.669173  0.330827  0.000000  1
  Cr  Cr12  1  0.000000  0.330827  0.000000  1
  Cr  Cr13  1  0.000000  0.330827  0.669173  1
  Cr  Cr14  1  0.330827  0.669173  0.000000  1
  Cr  Cr15  1  0.330827  0.000000  0.669173  1
  Cr  Cr16  1  0.330827  0.000000  0.000000  1
  Cr  Cr17  1  0.000000  0.000000  0.669173  1
  Cr  Cr18  1  0.000000  0.669173  0.000000  1
  Cr  Cr19  1  0.669173  0.000000  0.000000  1
  Co  Co20  1  0.000000  0.000000  0.000000  1
  Pt  Pt21  1  0.750000  0.750000  0.750000  1
  Pt  Pt22  1  0.250000  0.250000  0.250000  1
  C  C23  1  0.722930  0.722930  0.277070  1
  C  C24  1  0.277070  0.722930  0.277070  1
  C  C25  1  0.722930  0.277070  0.277070  1
  C  C26  1  0.277070  0.277070  0.722930  1
  C  C27  1  0.722930  0.277070  0.722930  1
  C  C28  1  0.277070  0.722930  0.722930  1
