# generated using pymatgen
data_Dy3Ho3(Zr2Sn3)2
_symmetry_space_group_name_H-M   'P 1'
_cell_length_a   8.83501816
_cell_length_b   8.82918091
_cell_length_c   6.11225900
_cell_angle_alpha   90.00000000
_cell_angle_beta   90.00000000
_cell_angle_gamma   119.99994011
_symmetry_Int_Tables_number   1
_chemical_formula_structural   Dy3Ho3(Zr2Sn3)2
_chemical_formula_sum   'Dy3 Ho3 Zr4 Sn6'
_cell_volume   412.91485266
_cell_formula_units_Z   1
loop_
 _symmetry_equiv_pos_site_id
 _symmetry_equiv_pos_as_xyz
  1  'x, y, z'
loop_
 _atom_site_type_symbol
 _atom_site_label
 _atom_site_symmetry_multiplicity
 _atom_site_fract_x
 _atom_site_fract_y
 _atom_site_fract_z
 _atom_site_occupancy
  Dy  Dy0  1  0.000063  0.759952  0.750000  1
  Dy  Dy1  1  0.000052  0.240110  0.250000  1
  Dy  Dy2  1  0.759814  0.759825  0.250000  1
  Ho  Ho3  1  0.759725  0.000048  0.750000  1
  Ho  Ho4  1  0.240209  0.240199  0.750000  1
  Ho  Ho5  1  0.240336  0.000057  0.250000  1
  Zr  Zr6  1  0.333293  0.666628  0.500016  1
  Zr  Zr7  1  0.666682  0.333347  0.999981  1
  Zr  Zr8  1  0.666682  0.333347  0.500019  1
  Zr  Zr9  1  0.333293  0.666628  0.999984  1
  Sn  Sn10  1  0.400210  0.000121  0.750000  1
  Sn  Sn11  1  0.400071  0.399952  0.250000  1
  Sn  Sn12  1  0.000110  0.600008  0.250000  1
  Sn  Sn13  1  0.999994  0.399909  0.750000  1
  Sn  Sn14  1  0.599754  0.599871  0.750000  1
  Sn  Sn15  1  0.599711  0.999994  0.250000  1
