# generated using pymatgen
data_Ti8VGe6MoC2
_symmetry_space_group_name_H-M   'P 1'
_cell_length_a   7.53020100
_cell_length_b   7.53020180
_cell_length_c   5.21252200
_cell_angle_alpha   90.00000000
_cell_angle_beta   90.00000000
_cell_angle_gamma   120.00000087
_symmetry_Int_Tables_number   1
_chemical_formula_structural   Ti8VGe6MoC2
_chemical_formula_sum   'Ti8 V1 Ge6 Mo1 C2'
_cell_volume   255.97155852
_cell_formula_units_Z   1
loop_
 _symmetry_equiv_pos_site_id
 _symmetry_equiv_pos_as_xyz
  1  'x, y, z'
loop_
 _atom_site_type_symbol
 _atom_site_label
 _atom_site_symmetry_multiplicity
 _atom_site_fract_x
 _atom_site_fract_y
 _atom_site_fract_z
 _atom_site_occupancy
  Ti  Ti0  1  0.333333  0.666667  0.500000  1
  Ti  Ti1  1  0.666667  0.333333  0.500000  1
  Ti  Ti2  1  0.771692  0.999662  0.749889  1
  Ti  Ti3  1  0.771692  0.772031  0.250111  1
  Ti  Ti4  1  0.000338  0.228308  0.250111  1
  Ti  Ti5  1  0.000338  0.772031  0.749889  1
  Ti  Ti6  1  0.227969  0.228308  0.749889  1
  Ti  Ti7  1  0.227969  0.999662  0.250111  1
  V  V8  1  0.666667  0.333333  0.000000  1
  Ge  Ge9  1  0.407064  0.003579  0.754444  1
  Ge  Ge10  1  0.407064  0.403484  0.245556  1
  Ge  Ge11  1  0.996421  0.592936  0.245556  1
  Ge  Ge12  1  0.996421  0.403484  0.754444  1
  Ge  Ge13  1  0.596516  0.592936  0.754444  1
  Ge  Ge14  1  0.596516  0.003579  0.245556  1
  Mo  Mo15  1  0.333333  0.666667  0.000000  1
  C  C16  1  0.000000  0.000000  0.500000  1
  C  C17  1  0.000000  0.000000  0.000000  1
