# generated using pymatgen
data_Tb10PdPt17
_symmetry_space_group_name_H-M   'P 1'
_cell_length_a   9.82673147
_cell_length_b   9.82673147
_cell_length_c   5.79460873
_cell_angle_alpha   90.06263688
_cell_angle_beta   89.93736312
_cell_angle_gamma   89.99922413
_symmetry_Int_Tables_number   1
_chemical_formula_structural   Tb10PdPt17
_chemical_formula_sum   'Tb10 Pd1 Pt17'
_cell_volume   559.55370305
_cell_formula_units_Z   1
loop_
 _symmetry_equiv_pos_site_id
 _symmetry_equiv_pos_as_xyz
  1  'x, y, z'
loop_
 _atom_site_type_symbol
 _atom_site_label
 _atom_site_symmetry_multiplicity
 _atom_site_fract_x
 _atom_site_fract_y
 _atom_site_fract_z
 _atom_site_occupancy
  Tb  Tb0  1  0.453353  0.808730  0.999553  1
  Tb  Tb1  1  0.546912  0.191377  0.000002  1
  Tb  Tb2  1  0.191270  0.546647  0.999553  1
  Tb  Tb3  1  0.808623  0.453088  0.000002  1
  Tb  Tb4  1  0.499909  0.500091  0.499978  1
  Tb  Tb5  1  0.308545  0.046858  0.500214  1
  Tb  Tb6  1  0.691433  0.953098  0.499968  1
  Tb  Tb7  1  0.953142  0.691455  0.500214  1
  Tb  Tb8  1  0.046902  0.308567  0.499968  1
  Tb  Tb9  1  0.000059  0.999941  0.999974  1
  Pd  Pd10  1  0.191656  0.808344  0.250561  1
  Pt  Pt11  1  0.807764  0.192236  0.749629  1
  Pt  Pt12  1  0.807818  0.192182  0.250567  1
  Pt  Pt13  1  0.192803  0.807197  0.749566  1
  Pt  Pt14  1  0.439695  0.781648  0.500449  1
  Pt  Pt15  1  0.559841  0.218350  0.500007  1
  Pt  Pt16  1  0.218352  0.560305  0.500449  1
  Pt  Pt17  1  0.781650  0.440159  0.500007  1
  Pt  Pt18  1  0.307806  0.307792  0.249537  1
  Pt  Pt19  1  0.692131  0.691938  0.750308  1
  Pt  Pt20  1  0.692208  0.692194  0.249537  1
  Pt  Pt21  1  0.308062  0.307869  0.750308  1
  Pt  Pt22  1  0.281669  0.059697  0.999887  1
  Pt  Pt23  1  0.718258  0.940091  0.999964  1
  Pt  Pt24  1  0.940303  0.718331  0.999887  1
  Pt  Pt25  1  0.059909  0.281742  0.999964  1
  Pt  Pt26  1  0.000105  0.999895  0.499962  1
  Pt  Pt27  1  0.499823  0.500177  0.999982  1
