# generated using pymatgen
data_CeTh3(B10Ir)2
_symmetry_space_group_name_H-M   'P 1'
_cell_length_a   4.20485900
_cell_length_b   5.72543393
_cell_length_c   11.44816601
_cell_angle_alpha   90.00896629
_cell_angle_beta   90.00000000
_cell_angle_gamma   90.00000000
_symmetry_Int_Tables_number   1
_chemical_formula_structural   CeTh3(B10Ir)2
_chemical_formula_sum   'Ce1 Th3 B20 Ir2'
_cell_volume   275.61049932
_cell_formula_units_Z   1
loop_
 _symmetry_equiv_pos_site_id
 _symmetry_equiv_pos_as_xyz
  1  'x, y, z'
loop_
 _atom_site_type_symbol
 _atom_site_label
 _atom_site_symmetry_multiplicity
 _atom_site_fract_x
 _atom_site_fract_y
 _atom_site_fract_z
 _atom_site_occupancy
  Ce  Ce0  1  0.500000  0.204109  0.364126  1
  Th  Th1  1  0.500000  0.295175  0.864588  1
  Th  Th2  1  0.500000  0.704872  0.136875  1
  Th  Th3  1  0.500000  0.794101  0.633354  1
  B  B4  1  0.000000  0.118576  0.542477  1
  B  B5  1  0.000000  0.883804  0.456223  1
  B  B6  1  0.000000  0.617462  0.956967  1
  B  B7  1  0.000000  0.382581  0.043465  1
  B  B8  1  0.000000  0.135911  0.696903  1
  B  B9  1  0.000000  0.863494  0.302778  1
  B  B10  1  0.302203  0.217971  0.119734  1
  B  B11  1  0.302101  0.782079  0.880596  1
  B  B12  1  0.697813  0.718310  0.381416  1
  B  B13  1  0.697898  0.282406  0.618753  1
  B  B14  1  0.697899  0.782079  0.880596  1
  B  B15  1  0.697797  0.217971  0.119734  1
  B  B16  1  0.302102  0.282406  0.618753  1
  B  B17  1  0.302187  0.718310  0.381416  1
  B  B18  1  0.000000  0.054753  0.193701  1
  B  B19  1  0.000000  0.944892  0.806301  1
  B  B20  1  0.000000  0.554355  0.307295  1
  B  B21  1  0.000000  0.444505  0.693400  1
  B  B22  1  0.000000  0.363273  0.197925  1
  B  B23  1  0.000000  0.635808  0.802622  1
  Ir  Ir24  1  0.000000  0.500488  0.500021  1
  Ir  Ir25  1  0.000000  0.000307  0.999982  1
