# generated using pymatgen
data_TbGa5Cu6
_symmetry_space_group_name_H-M   'P 1'
_cell_length_a   10.34977078
_cell_length_b   8.19268198
_cell_length_c   7.85834302
_cell_angle_alpha   80.27253846
_cell_angle_beta   51.27890443
_cell_angle_gamma   48.44855856
_symmetry_Int_Tables_number   1
_chemical_formula_structural   TbGa5Cu6
_chemical_formula_sum   'Tb2 Ga10 Cu12'
_cell_volume   352.84876417
_cell_formula_units_Z   2
loop_
 _symmetry_equiv_pos_site_id
 _symmetry_equiv_pos_as_xyz
  1  'x, y, z'
loop_
 _atom_site_type_symbol
 _atom_site_label
 _atom_site_symmetry_multiplicity
 _atom_site_fract_x
 _atom_site_fract_y
 _atom_site_fract_z
 _atom_site_occupancy
  Tb  Tb0  1  0.000000  0.000000  0.000000  1
  Tb  Tb1  1  0.250000  0.250000  0.250000  1
  Ga  Ga2  1  0.500000  0.500000  0.500000  1
  Ga  Ga3  1  0.750000  0.750000  0.750000  1
  Ga  Ga4  1  0.752922  0.073051  0.838237  1
  Ga  Ga5  1  0.838237  0.335790  0.752922  1
  Ga  Ga6  1  0.073051  0.752922  0.335790  1
  Ga  Ga7  1  0.335790  0.838237  0.073051  1
  Ga  Ga8  1  0.497078  0.176949  0.411763  1
  Ga  Ga9  1  0.411763  0.914210  0.497078  1
  Ga  Ga10  1  0.176949  0.497078  0.914210  1
  Ga  Ga11  1  0.914210  0.411763  0.176949  1
  Cu  Cu12  1  0.625000  0.125000  0.625000  1
  Cu  Cu13  1  0.625000  0.625000  0.625000  1
  Cu  Cu14  1  0.125000  0.625000  0.625000  1
  Cu  Cu15  1  0.625000  0.625000  0.125000  1
  Cu  Cu16  1  0.490065  0.434979  0.185093  1
  Cu  Cu17  1  0.185093  0.889862  0.490065  1
  Cu  Cu18  1  0.434979  0.490065  0.889862  1
  Cu  Cu19  1  0.889862  0.185093  0.434979  1
  Cu  Cu20  1  0.759935  0.815021  0.064907  1
  Cu  Cu21  1  0.064907  0.360138  0.759935  1
  Cu  Cu22  1  0.815021  0.759935  0.360138  1
  Cu  Cu23  1  0.360138  0.064907  0.815021  1
