# generated using pymatgen
data_Zr6Sc4Al12Ir4Pt3
_symmetry_space_group_name_H-M   'P 1'
_cell_length_a   8.93843904
_cell_length_b   8.94512462
_cell_length_c   8.93619429
_cell_angle_alpha   60.00471245
_cell_angle_beta   59.99168768
_cell_angle_gamma   60.02471765
_symmetry_Int_Tables_number   1
_chemical_formula_structural   Zr6Sc4Al12Ir4Pt3
_chemical_formula_sum   'Zr6 Sc4 Al12 Ir4 Pt3'
_cell_volume   505.30653326
_cell_formula_units_Z   1
loop_
 _symmetry_equiv_pos_site_id
 _symmetry_equiv_pos_as_xyz
  1  'x, y, z'
loop_
 _atom_site_type_symbol
 _atom_site_label
 _atom_site_symmetry_multiplicity
 _atom_site_fract_x
 _atom_site_fract_y
 _atom_site_fract_z
 _atom_site_occupancy
  Zr  Zr0  1  0.684308  0.682471  0.315911  1
  Zr  Zr1  1  0.317310  0.682471  0.315911  1
  Zr  Zr2  1  0.684943  0.316456  0.313658  1
  Zr  Zr3  1  0.315236  0.316582  0.684875  1
  Zr  Zr4  1  0.683307  0.316582  0.684875  1
  Zr  Zr5  1  0.315144  0.683227  0.686484  1
  Sc  Sc6  1  0.881683  0.877259  0.359376  1
  Sc  Sc7  1  0.879426  0.360855  0.880292  1
  Sc  Sc8  1  0.360042  0.877854  0.883287  1
  Sc  Sc9  1  0.878817  0.877854  0.883287  1
  Al  Al10  1  0.119581  0.125803  0.635035  1
  Al  Al11  1  0.122495  0.633419  0.121592  1
  Al  Al12  1  0.634140  0.124512  0.117632  1
  Al  Al13  1  0.123716  0.124512  0.117632  1
  Al  Al14  1  0.662474  0.662014  0.013037  1
  Al  Al15  1  0.659760  0.016898  0.663583  1
  Al  Al16  1  0.014949  0.658978  0.663264  1
  Al  Al17  1  0.662808  0.658978  0.663264  1
  Al  Al18  1  0.336422  0.336757  0.990399  1
  Al  Al19  1  0.338424  0.987582  0.335569  1
  Al  Al20  1  0.988987  0.338940  0.335818  1
  Al  Al21  1  0.336255  0.338940  0.335818  1
  Ir  Ir22  1  0.001086  0.499390  0.498437  1
  Ir  Ir23  1  0.498690  0.499071  0.001115  1
  Ir  Ir24  1  0.001124  0.499071  0.001115  1
  Ir  Ir25  1  0.498899  0.001067  0.001136  1
  Pt  Pt26  1  0.999930  0.000432  0.999708  1
  Pt  Pt27  1  0.001157  0.001013  0.498944  1
  Pt  Pt28  1  0.498886  0.001013  0.498944  1
