# generated using pymatgen
data_Gd5CuSn2Sb
_symmetry_space_group_name_H-M   'P 1'
_cell_length_a   9.34065100
_cell_length_b   9.34065136
_cell_length_c   6.28786200
_cell_angle_alpha   90.00000000
_cell_angle_beta   90.00000000
_cell_angle_gamma   120.09008886
_symmetry_Int_Tables_number   1
_chemical_formula_structural   Gd5CuSn2Sb
_chemical_formula_sum   'Gd10 Cu2 Sn4 Sb2'
_cell_volume   474.67130117
_cell_formula_units_Z   2
loop_
 _symmetry_equiv_pos_site_id
 _symmetry_equiv_pos_as_xyz
  1  'x, y, z'
loop_
 _atom_site_type_symbol
 _atom_site_label
 _atom_site_symmetry_multiplicity
 _atom_site_fract_x
 _atom_site_fract_y
 _atom_site_fract_z
 _atom_site_occupancy
  Gd  Gd0  1  0.667705  0.333811  0.999392  1
  Gd  Gd1  1  0.333811  0.667705  0.999392  1
  Gd  Gd2  1  0.333811  0.667705  0.500608  1
  Gd  Gd3  1  0.667705  0.333811  0.500608  1
  Gd  Gd4  1  0.733893  0.733893  0.750000  1
  Gd  Gd5  1  0.266999  0.001337  0.750000  1
  Gd  Gd6  1  0.001337  0.266999  0.750000  1
  Gd  Gd7  1  0.261941  0.261941  0.250000  1
  Gd  Gd8  1  0.735576  0.999984  0.250000  1
  Gd  Gd9  1  0.999984  0.735576  0.250000  1
  Cu  Cu10  1  0.997451  0.997451  0.506473  1
  Cu  Cu11  1  0.997451  0.997451  0.993527  1
  Sn  Sn12  1  0.382001  0.382001  0.750000  1
  Sn  Sn13  1  0.618856  0.000828  0.750000  1
  Sn  Sn14  1  0.000828  0.618856  0.750000  1
  Sn  Sn15  1  0.615716  0.615716  0.250000  1
  Sb  Sb16  1  0.382939  0.001998  0.250000  1
  Sb  Sb17  1  0.001998  0.382939  0.250000  1
