# generated using pymatgen
data_EuAlGeO5
_symmetry_space_group_name_H-M   'P 1'
_cell_length_a   5.74592400
_cell_length_b   7.47925100
_cell_length_c   8.47256300
_cell_angle_alpha   90.00000000
_cell_angle_beta   90.00000000
_cell_angle_gamma   90.00000000
_symmetry_Int_Tables_number   1
_chemical_formula_structural   EuAlGeO5
_chemical_formula_sum   'Eu4 Al4 Ge4 O20'
_cell_volume   364.11015572
_cell_formula_units_Z   4
loop_
 _symmetry_equiv_pos_site_id
 _symmetry_equiv_pos_as_xyz
  1  'x, y, z'
loop_
 _atom_site_type_symbol
 _atom_site_label
 _atom_site_symmetry_multiplicity
 _atom_site_fract_x
 _atom_site_fract_y
 _atom_site_fract_z
 _atom_site_occupancy
  Eu  Eu0  1  0.000000  0.351972  0.326603  1
  Eu  Eu1  1  0.000000  0.648028  0.673397  1
  Eu  Eu2  1  0.000000  0.851972  0.173397  1
  Eu  Eu3  1  0.000000  0.148028  0.826603  1
  Al  Al4  1  0.254643  0.500000  0.000000  1
  Al  Al5  1  0.745357  0.000000  0.500000  1
  Al  Al6  1  0.745357  0.500000  0.000000  1
  Al  Al7  1  0.254643  0.000000  0.500000  1
  Ge  Ge8  1  0.500000  0.119269  0.142968  1
  Ge  Ge9  1  0.500000  0.880731  0.857032  1
  Ge  Ge10  1  0.500000  0.619269  0.357032  1
  Ge  Ge11  1  0.500000  0.380731  0.642968  1
  O  O12  1  0.000000  0.346634  0.052166  1
  O  O13  1  0.000000  0.653366  0.947834  1
  O  O14  1  0.000000  0.846634  0.447834  1
  O  O15  1  0.000000  0.153366  0.552166  1
  O  O16  1  0.500000  0.344782  0.068744  1
  O  O17  1  0.500000  0.655218  0.931256  1
  O  O18  1  0.500000  0.844782  0.431256  1
  O  O19  1  0.500000  0.155218  0.568744  1
  O  O20  1  0.259721  0.103252  0.288538  1
  O  O21  1  0.259721  0.896748  0.711462  1
  O  O22  1  0.740279  0.603252  0.211462  1
  O  O23  1  0.740279  0.396748  0.788538  1
  O  O24  1  0.740279  0.896748  0.711462  1
  O  O25  1  0.740279  0.103252  0.288538  1
  O  O26  1  0.259721  0.396748  0.788538  1
  O  O27  1  0.259721  0.603252  0.211462  1
  O  O28  1  0.289668  0.000000  0.000000  1
  O  O29  1  0.710332  0.500000  0.500000  1
  O  O30  1  0.710332  0.000000  0.000000  1
  O  O31  1  0.289668  0.500000  0.500000  1
