# generated using pymatgen
data_La8Nd2Ga4IrRu5
_symmetry_space_group_name_H-M   'P 1'
_cell_length_a   8.60887292
_cell_length_b   8.64282595
_cell_length_c   8.65531924
_cell_angle_alpha   109.62713725
_cell_angle_beta   109.65970735
_cell_angle_gamma   109.26294234
_symmetry_Int_Tables_number   1
_chemical_formula_structural   La8Nd2Ga4IrRu5
_chemical_formula_sum   'La8 Nd2 Ga4 Ir1 Ru5'
_cell_volume   494.91054460
_cell_formula_units_Z   1
loop_
 _symmetry_equiv_pos_site_id
 _symmetry_equiv_pos_as_xyz
  1  'x, y, z'
loop_
 _atom_site_type_symbol
 _atom_site_label
 _atom_site_symmetry_multiplicity
 _atom_site_fract_x
 _atom_site_fract_y
 _atom_site_fract_z
 _atom_site_occupancy
  La  La0  1  0.247972  0.688925  0.440243  1
  La  La1  1  0.748430  0.807568  0.059481  1
  La  La2  1  0.443701  0.253337  0.689997  1
  La  La3  1  0.688473  0.439706  0.248694  1
  La  La4  1  0.055245  0.741890  0.806429  1
  La  La5  1  0.811377  0.059880  0.751071  1
  La  La6  1  0.211103  0.213013  0.213720  1
  La  La7  1  0.501040  0.000420  0.289684  1
  Nd  Nd8  1  0.283907  0.502427  0.001437  1
  Nd  Nd9  1  0.000520  0.283684  0.499316  1
  Ga  Ga10  1  0.586645  0.588216  0.586530  1
  Ga  Ga11  1  0.500144  0.998656  0.911958  1
  Ga  Ga12  1  0.914004  0.500609  0.000683  1
  Ga  Ga13  1  0.001226  0.913103  0.499226  1
  Ir  Ir14  1  0.251007  0.119386  0.868012  1
  Ru  Ru15  1  0.750011  0.382002  0.631364  1
  Ru  Ru16  1  0.868296  0.250039  0.115962  1
  Ru  Ru17  1  0.120911  0.871696  0.250713  1
  Ru  Ru18  1  0.634318  0.753310  0.384809  1
  Ru  Ru19  1  0.381671  0.632128  0.750669  1
