# generated using pymatgen
data_SrPrScPtO6
_symmetry_space_group_name_H-M   'P 1'
_cell_length_a   5.74548415
_cell_length_b   5.68996639
_cell_length_c   9.86349016
_cell_angle_alpha   54.52318840
_cell_angle_beta   89.92816439
_cell_angle_gamma   89.94325658
_symmetry_Int_Tables_number   1
_chemical_formula_structural   SrPrScPtO6
_chemical_formula_sum   'Sr2 Pr2 Sc2 Pt2 O12'
_cell_volume   262.58984976
_cell_formula_units_Z   2
loop_
 _symmetry_equiv_pos_site_id
 _symmetry_equiv_pos_as_xyz
  1  'x, y, z'
loop_
 _atom_site_type_symbol
 _atom_site_label
 _atom_site_symmetry_multiplicity
 _atom_site_fract_x
 _atom_site_fract_y
 _atom_site_fract_z
 _atom_site_occupancy
  Sr  Sr0  1  0.964209  0.241660  0.248653  1
  Sr  Sr1  1  0.035791  0.758340  0.751347  1
  Pr  Pr2  1  0.455363  0.761557  0.250057  1
  Pr  Pr3  1  0.544637  0.238443  0.749943  1
  Sc  Sc4  1  0.000000  0.000000  0.000000  1
  Sc  Sc5  1  0.500000  0.000000  0.500000  1
  Pt  Pt6  1  0.000000  0.500000  0.500000  1
  Pt  Pt7  1  0.500000  0.500000  0.000000  1
  O  O8  1  0.703784  0.166798  0.043864  1
  O  O9  1  0.296216  0.833202  0.956136  1
  O  O10  1  0.222602  0.820448  0.452893  1
  O  O11  1  0.777398  0.179552  0.547107  1
  O  O12  1  0.030491  0.670312  0.252933  1
  O  O13  1  0.969509  0.329688  0.747067  1
  O  O14  1  0.513080  0.345267  0.246279  1
  O  O15  1  0.486920  0.654733  0.753721  1
  O  O16  1  0.227208  0.233199  0.045307  1
  O  O17  1  0.772792  0.766801  0.954693  1
  O  O18  1  0.710441  0.746008  0.455453  1
  O  O19  1  0.289559  0.253992  0.544547  1
