# generated using pymatgen
data_Ba2Au9
_symmetry_space_group_name_H-M   'P 1'
_cell_length_a   9.39496980
_cell_length_b   9.39496920
_cell_length_c   9.39496858
_cell_angle_alpha   55.75595939
_cell_angle_beta   55.75596373
_cell_angle_gamma   55.75595904
_symmetry_Int_Tables_number   1
_chemical_formula_structural   Ba2Au9
_chemical_formula_sum   'Ba4 Au18'
_cell_volume   528.65331924
_cell_formula_units_Z   2
loop_
 _symmetry_equiv_pos_site_id
 _symmetry_equiv_pos_as_xyz
  1  'x, y, z'
loop_
 _atom_site_type_symbol
 _atom_site_label
 _atom_site_symmetry_multiplicity
 _atom_site_fract_x
 _atom_site_fract_y
 _atom_site_fract_z
 _atom_site_occupancy
  Ba  Ba0  1  0.905963  0.905963  0.905963  1
  Ba  Ba1  1  0.405963  0.405963  0.405963  1
  Ba  Ba2  1  0.094037  0.094037  0.094037  1
  Ba  Ba3  1  0.594037  0.594037  0.594037  1
  Au  Au4  1  0.555538  0.750000  0.944462  1
  Au  Au5  1  0.944462  0.555538  0.750000  1
  Au  Au6  1  0.750000  0.944462  0.555538  1
  Au  Au7  1  0.444462  0.250000  0.055538  1
  Au  Au8  1  0.055538  0.444462  0.250000  1
  Au  Au9  1  0.250000  0.055538  0.444462  1
  Au  Au10  1  0.473419  0.855942  0.214728  1
  Au  Au11  1  0.214728  0.473419  0.855942  1
  Au  Au12  1  0.855942  0.214728  0.473419  1
  Au  Au13  1  0.714728  0.355942  0.973419  1
  Au  Au14  1  0.973419  0.714728  0.355942  1
  Au  Au15  1  0.355942  0.973419  0.714728  1
  Au  Au16  1  0.526581  0.144058  0.785272  1
  Au  Au17  1  0.785272  0.526581  0.144058  1
  Au  Au18  1  0.144058  0.785272  0.526581  1
  Au  Au19  1  0.285272  0.644058  0.026581  1
  Au  Au20  1  0.026581  0.285272  0.644058  1
  Au  Au21  1  0.644058  0.026581  0.285272  1
