# generated using pymatgen
data_La3Ho2Er3(CdIr)2
_symmetry_space_group_name_H-M   'P 1'
_cell_length_a   9.78199510
_cell_length_b   9.78199576
_cell_length_c   9.78199500
_cell_angle_alpha   59.99999919
_cell_angle_beta   59.99999697
_cell_angle_gamma   59.99999825
_symmetry_Int_Tables_number   1
_chemical_formula_structural   La3Ho2Er3(CdIr)2
_chemical_formula_sum   'La6 Ho4 Er6 Cd4 Ir4'
_cell_volume   661.86182375
_cell_formula_units_Z   2
loop_
 _symmetry_equiv_pos_site_id
 _symmetry_equiv_pos_as_xyz
  1  'x, y, z'
loop_
 _atom_site_type_symbol
 _atom_site_label
 _atom_site_symmetry_multiplicity
 _atom_site_fract_x
 _atom_site_fract_y
 _atom_site_fract_z
 _atom_site_occupancy
  La  La0  1  0.192585  0.807415  0.807415  1
  La  La1  1  0.807415  0.192585  0.192585  1
  La  La2  1  0.807415  0.192585  0.807415  1
  La  La3  1  0.192585  0.807415  0.192585  1
  La  La4  1  0.807415  0.807415  0.192585  1
  La  La5  1  0.192585  0.192585  0.807415  1
  Ho  Ho6  1  0.596638  0.596638  0.596638  1
  Ho  Ho7  1  0.596638  0.596638  0.210085  1
  Ho  Ho8  1  0.596638  0.210085  0.596638  1
  Ho  Ho9  1  0.210085  0.596638  0.596638  1
  Er  Er10  1  0.063659  0.436341  0.436341  1
  Er  Er11  1  0.436341  0.063659  0.063659  1
  Er  Er12  1  0.436341  0.063659  0.436341  1
  Er  Er13  1  0.063659  0.436341  0.063659  1
  Er  Er14  1  0.436341  0.436341  0.063659  1
  Er  Er15  1  0.063659  0.063659  0.436341  1
  Cd  Cd16  1  0.828648  0.828648  0.828648  1
  Cd  Cd17  1  0.828648  0.828648  0.514053  1
  Cd  Cd18  1  0.828648  0.514053  0.828648  1
  Cd  Cd19  1  0.514053  0.828648  0.828648  1
  Ir  Ir20  1  0.390644  0.390644  0.390644  1
  Ir  Ir21  1  0.390644  0.390644  0.828067  1
  Ir  Ir22  1  0.390644  0.828067  0.390644  1
  Ir  Ir23  1  0.828067  0.390644  0.390644  1
