# generated using pymatgen
data_Ba2Cu2I
_symmetry_space_group_name_H-M   'P 1'
_cell_length_a   4.46145100
_cell_length_b   4.46829208
_cell_length_c   9.54421600
_cell_angle_alpha   90.00000000
_cell_angle_beta   90.00000000
_cell_angle_gamma   119.94937431
_symmetry_Int_Tables_number   1
_chemical_formula_structural   Ba2Cu2I
_chemical_formula_sum   'Ba2 Cu2 I1'
_cell_volume   164.85795068
_cell_formula_units_Z   1
loop_
 _symmetry_equiv_pos_site_id
 _symmetry_equiv_pos_as_xyz
  1  'x, y, z'
loop_
 _atom_site_type_symbol
 _atom_site_label
 _atom_site_symmetry_multiplicity
 _atom_site_fract_x
 _atom_site_fract_y
 _atom_site_fract_z
 _atom_site_occupancy
  Ba  Ba0  1  0.999779  0.999559  0.275479  1
  Ba  Ba1  1  0.999779  0.999559  0.724520  1
  Cu  Cu2  1  0.667303  0.334604  0.500000  1
  Cu  Cu3  1  0.333499  0.666996  0.500000  1
  I  I4  1  0.332940  0.665881  0.000000  1
