# generated using pymatgen
data_Ti10As6C
_symmetry_space_group_name_H-M   'P 1'
_cell_length_a   7.49986200
_cell_length_b   7.49986285
_cell_length_c   5.22590100
_cell_angle_alpha   90.00000000
_cell_angle_beta   90.00000000
_cell_angle_gamma   119.99999624
_symmetry_Int_Tables_number   1
_chemical_formula_structural   Ti10As6C
_chemical_formula_sum   'Ti10 As6 C1'
_cell_volume   254.56484037
_cell_formula_units_Z   1
loop_
 _symmetry_equiv_pos_site_id
 _symmetry_equiv_pos_as_xyz
  1  'x, y, z'
loop_
 _atom_site_type_symbol
 _atom_site_label
 _atom_site_symmetry_multiplicity
 _atom_site_fract_x
 _atom_site_fract_y
 _atom_site_fract_z
 _atom_site_occupancy
  Ti  Ti0  1  0.000000  0.761992  0.262368  1
  Ti  Ti1  1  0.238008  0.238008  0.262368  1
  Ti  Ti2  1  0.761992  0.000000  0.262368  1
  Ti  Ti3  1  0.000000  0.238008  0.737632  1
  Ti  Ti4  1  0.761992  0.761992  0.737632  1
  Ti  Ti5  1  0.238008  0.000000  0.737632  1
  Ti  Ti6  1  0.333333  0.666667  0.000000  1
  Ti  Ti7  1  0.666667  0.333333  0.000000  1
  Ti  Ti8  1  0.666667  0.333333  0.500000  1
  Ti  Ti9  1  0.333333  0.666667  0.500000  1
  As  As10  1  0.000000  0.395024  0.245248  1
  As  As11  1  0.604976  0.604976  0.245248  1
  As  As12  1  0.395024  0.000000  0.245248  1
  As  As13  1  0.000000  0.604976  0.754752  1
  As  As14  1  0.395024  0.395024  0.754752  1
  As  As15  1  0.604976  0.000000  0.754752  1
  C  C16  1  0.000000  0.000000  0.500000  1
