# generated using pymatgen
data_Hf6Ta4Al12Ir3Ru4
_symmetry_space_group_name_H-M   'P 1'
_cell_length_a   8.80451069
_cell_length_b   8.80451225
_cell_length_c   8.81093700
_cell_angle_alpha   60.02411783
_cell_angle_beta   60.02412179
_cell_angle_gamma   60.00000275
_symmetry_Int_Tables_number   1
_chemical_formula_structural   Hf6Ta4Al12Ir3Ru4
_chemical_formula_sum   'Hf6 Ta4 Al12 Ir3 Ru4'
_cell_volume   483.14319750
_cell_formula_units_Z   1
loop_
 _symmetry_equiv_pos_site_id
 _symmetry_equiv_pos_as_xyz
  1  'x, y, z'
loop_
 _atom_site_type_symbol
 _atom_site_label
 _atom_site_symmetry_multiplicity
 _atom_site_fract_x
 _atom_site_fract_y
 _atom_site_fract_z
 _atom_site_occupancy
  Hf  Hf0  1  0.690457  0.690457  0.310381  1
  Hf  Hf1  1  0.308705  0.690457  0.310381  1
  Hf  Hf2  1  0.690457  0.308705  0.310381  1
  Hf  Hf3  1  0.310699  0.310699  0.689331  1
  Hf  Hf4  1  0.689270  0.310699  0.689331  1
  Hf  Hf5  1  0.310699  0.689270  0.689331  1
  Ta  Ta6  1  0.879401  0.879401  0.361800  1
  Ta  Ta7  1  0.880874  0.361163  0.877091  1
  Ta  Ta8  1  0.361163  0.880874  0.877091  1
  Ta  Ta9  1  0.880874  0.880874  0.877091  1
  Al  Al10  1  0.121168  0.121168  0.636493  1
  Al  Al11  1  0.119834  0.637068  0.123263  1
  Al  Al12  1  0.637068  0.119834  0.123263  1
  Al  Al13  1  0.119834  0.119834  0.123263  1
  Al  Al14  1  0.658681  0.658681  0.023958  1
  Al  Al15  1  0.661100  0.019390  0.658411  1
  Al  Al16  1  0.019390  0.661100  0.658411  1
  Al  Al17  1  0.661100  0.661100  0.658411  1
  Al  Al18  1  0.337655  0.337655  0.987037  1
  Al  Al19  1  0.335746  0.990330  0.338180  1
  Al  Al20  1  0.990330  0.335746  0.338180  1
  Al  Al21  1  0.335746  0.335746  0.338180  1
  Ir  Ir22  1  0.502725  0.502725  0.997026  1
  Ir  Ir23  1  0.997524  0.502725  0.997026  1
  Ir  Ir24  1  0.502725  0.997524  0.997026  1
  Ru  Ru25  1  0.000339  0.000339  0.998982  1
  Ru  Ru26  1  0.996693  0.996693  0.503560  1
  Ru  Ru27  1  0.503055  0.996693  0.503560  1
  Ru  Ru28  1  0.996693  0.503055  0.503560  1
