# generated using pymatgen
data_LiHo8InCo2
_symmetry_space_group_name_H-M   'P 1'
_cell_length_a   9.48907005
_cell_length_b   9.50077517
_cell_length_c   9.48906956
_cell_angle_alpha   59.95919120
_cell_angle_beta   60.02607181
_cell_angle_gamma   59.95919193
_symmetry_Int_Tables_number   1
_chemical_formula_structural   LiHo8InCo2
_chemical_formula_sum   'Li2 Ho16 In2 Co4'
_cell_volume   604.65627337
_cell_formula_units_Z   2
loop_
 _symmetry_equiv_pos_site_id
 _symmetry_equiv_pos_as_xyz
  1  'x, y, z'
loop_
 _atom_site_type_symbol
 _atom_site_label
 _atom_site_symmetry_multiplicity
 _atom_site_fract_x
 _atom_site_fract_y
 _atom_site_fract_z
 _atom_site_occupancy
  Li  Li0  1  0.574700  0.572331  0.280641  1
  Li  Li1  1  0.280641  0.572331  0.574700  1
  Ho  Ho2  1  0.938821  0.937555  0.561442  1
  Ho  Ho3  1  0.810957  0.188463  0.186422  1
  Ho  Ho4  1  0.938821  0.562182  0.561442  1
  Ho  Ho5  1  0.940301  0.559699  0.940301  1
  Ho  Ho6  1  0.810957  0.814158  0.186422  1
  Ho  Ho7  1  0.345289  0.340399  0.345289  1
  Ho  Ho8  1  0.561442  0.937555  0.938821  1
  Ho  Ho9  1  0.563542  0.936458  0.563542  1
  Ho  Ho10  1  0.186422  0.814158  0.810957  1
  Ho  Ho11  1  0.186422  0.188463  0.810957  1
  Ho  Ho12  1  0.348691  0.344929  0.961452  1
  Ho  Ho13  1  0.345289  0.969026  0.345289  1
  Ho  Ho14  1  0.809015  0.190985  0.809015  1
  Ho  Ho15  1  0.561442  0.562182  0.938821  1
  Ho  Ho16  1  0.182937  0.817063  0.182937  1
  Ho  Ho17  1  0.961452  0.344929  0.348691  1
  In  In18  1  0.578743  0.584731  0.578743  1
  In  In19  1  0.578743  0.257786  0.578743  1
  Co  Co20  1  0.578010  0.141590  0.138812  1
  Co  Co21  1  0.139278  0.143716  0.139278  1
  Co  Co22  1  0.139278  0.577730  0.139278  1
  Co  Co23  1  0.138812  0.141590  0.578010  1
