# generated using pymatgen
data_DyWF7
_symmetry_space_group_name_H-M   'P 1'
_cell_length_a   5.75156300
_cell_length_b   6.05766440
_cell_length_c   8.32306103
_cell_angle_alpha   102.77745588
_cell_angle_beta   90.00000000
_cell_angle_gamma   90.00000000
_symmetry_Int_Tables_number   1
_chemical_formula_structural   DyWF7
_chemical_formula_sum   'Dy2 W2 F14'
_cell_volume   282.80305429
_cell_formula_units_Z   2
loop_
 _symmetry_equiv_pos_site_id
 _symmetry_equiv_pos_as_xyz
  1  'x, y, z'
loop_
 _atom_site_type_symbol
 _atom_site_label
 _atom_site_symmetry_multiplicity
 _atom_site_fract_x
 _atom_site_fract_y
 _atom_site_fract_z
 _atom_site_occupancy
  Dy  Dy0  1  0.701882  0.654899  0.687896  1
  Dy  Dy1  1  0.201882  0.345101  0.312104  1
  W  W2  1  0.706553  0.812038  0.224246  1
  W  W3  1  0.206553  0.187962  0.775754  1
  F  F4  1  0.920205  0.476605  0.485534  1
  F  F5  1  0.420205  0.523395  0.514466  1
  F  F6  1  0.432695  0.922247  0.763180  1
  F  F7  1  0.932695  0.077753  0.236820  1
  F  F8  1  0.944752  0.964290  0.758297  1
  F  F9  1  0.444752  0.035710  0.241703  1
  F  F10  1  0.977207  0.454645  0.794652  1
  F  F11  1  0.477207  0.545355  0.205348  1
  F  F12  1  0.699672  0.768783  0.980066  1
  F  F13  1  0.199672  0.231217  0.019934  1
  F  F14  1  0.711762  0.865501  0.469677  1
  F  F15  1  0.211762  0.134499  0.530323  1
  F  F16  1  0.481633  0.394833  0.791496  1
  F  F17  1  0.981633  0.605167  0.208504  1
