# generated using pymatgen
data_La3Nd13Cd4RuPt3
_symmetry_space_group_name_H-M   'P 1'
_cell_length_a   10.05409713
_cell_length_b   10.07731995
_cell_length_c   10.07732011
_cell_angle_alpha   59.66415619
_cell_angle_beta   59.72342181
_cell_angle_gamma   59.72343081
_symmetry_Int_Tables_number   1
_chemical_formula_structural   La3Nd13Cd4RuPt3
_chemical_formula_sum   'La3 Nd13 Cd4 Ru1 Pt3'
_cell_volume   717.10832780
_cell_formula_units_Z   1
loop_
 _symmetry_equiv_pos_site_id
 _symmetry_equiv_pos_as_xyz
  1  'x, y, z'
loop_
 _atom_site_type_symbol
 _atom_site_label
 _atom_site_symmetry_multiplicity
 _atom_site_fract_x
 _atom_site_fract_y
 _atom_site_fract_z
 _atom_site_occupancy
  La  La0  1  0.350308  0.351004  0.351004  1
  La  La1  1  0.345883  0.346574  0.952706  1
  La  La2  1  0.345883  0.952706  0.346574  1
  Nd  Nd3  1  0.949501  0.348600  0.348600  1
  Nd  Nd4  1  0.817247  0.188764  0.188764  1
  Nd  Nd5  1  0.189581  0.809440  0.809440  1
  Nd  Nd6  1  0.188602  0.816708  0.188427  1
  Nd  Nd7  1  0.809631  0.189658  0.808690  1
  Nd  Nd8  1  0.188602  0.188427  0.816708  1
  Nd  Nd9  1  0.809631  0.808690  0.189658  1
  Nd  Nd10  1  0.936808  0.564305  0.564305  1
  Nd  Nd11  1  0.560245  0.936323  0.936323  1
  Nd  Nd12  1  0.564589  0.936359  0.564750  1
  Nd  Nd13  1  0.936542  0.559915  0.937010  1
  Nd  Nd14  1  0.564589  0.564750  0.936359  1
  Nd  Nd15  1  0.936542  0.937010  0.559915  1
  Cd  Cd16  1  0.580765  0.579617  0.579617  1
  Cd  Cd17  1  0.581292  0.579898  0.257624  1
  Cd  Cd18  1  0.581292  0.257624  0.579898  1
  Cd  Cd19  1  0.257272  0.580432  0.580432  1
  Ru  Ru20  1  0.144745  0.142406  0.142406  1
  Pt  Pt21  1  0.143467  0.144178  0.572759  1
  Pt  Pt22  1  0.143467  0.572759  0.144178  1
  Pt  Pt23  1  0.573516  0.143852  0.143852  1
