# generated using pymatgen
data_Zr10Sn2Bi5Au
_symmetry_space_group_name_H-M   'P 1'
_cell_length_a   8.90770109
_cell_length_b   8.95217039
_cell_length_c   6.02251805
_cell_angle_alpha   89.99222474
_cell_angle_beta   90.01563459
_cell_angle_gamma   119.83581057
_symmetry_Int_Tables_number   1
_chemical_formula_structural   Zr10Sn2Bi5Au
_chemical_formula_sum   'Zr10 Sn2 Bi5 Au1'
_cell_volume   416.59960895
_cell_formula_units_Z   1
loop_
 _symmetry_equiv_pos_site_id
 _symmetry_equiv_pos_as_xyz
  1  'x, y, z'
loop_
 _atom_site_type_symbol
 _atom_site_label
 _atom_site_symmetry_multiplicity
 _atom_site_fract_x
 _atom_site_fract_y
 _atom_site_fract_z
 _atom_site_occupancy
  Zr  Zr0  1  0.334200  0.670914  0.998533  1
  Zr  Zr1  1  0.662911  0.328461  0.501692  1
  Zr  Zr2  1  0.663287  0.329086  0.998533  1
  Zr  Zr3  1  0.334449  0.671539  0.501692  1
  Zr  Zr4  1  0.276516  0.000000  0.245973  1
  Zr  Zr5  1  0.278813  0.272237  0.752883  1
  Zr  Zr6  1  0.006576  0.727763  0.752883  1
  Zr  Zr7  1  0.999095  0.275223  0.247674  1
  Zr  Zr8  1  0.723872  0.724777  0.247674  1
  Zr  Zr9  1  0.720710  0.000000  0.752529  1
  Sn  Sn10  1  0.999885  0.000000  0.500797  1
  Sn  Sn11  1  0.384359  0.000000  0.749929  1
  Bi  Bi12  1  0.614889  0.000000  0.249109  1
  Bi  Bi13  1  0.617056  0.615963  0.750088  1
  Bi  Bi14  1  0.001092  0.384037  0.750088  1
  Bi  Bi15  1  0.998479  0.614778  0.250513  1
  Bi  Bi16  1  0.383701  0.385222  0.250513  1
  Au  Au17  1  0.000108  0.000000  0.998899  1
