# generated using pymatgen
data_Ho4ErTmGa10
_symmetry_space_group_name_H-M   'P 1'
_cell_length_a   6.07754100
_cell_length_b   9.59727400
_cell_length_c   11.49045500
_cell_angle_alpha   90.00000000
_cell_angle_beta   90.00000000
_cell_angle_gamma   90.00000000
_symmetry_Int_Tables_number   1
_chemical_formula_structural   Ho4ErTmGa10
_chemical_formula_sum   'Ho8 Er2 Tm2 Ga20'
_cell_volume   670.21326247
_cell_formula_units_Z   2
loop_
 _symmetry_equiv_pos_site_id
 _symmetry_equiv_pos_as_xyz
  1  'x, y, z'
loop_
 _atom_site_type_symbol
 _atom_site_label
 _atom_site_symmetry_multiplicity
 _atom_site_fract_x
 _atom_site_fract_y
 _atom_site_fract_z
 _atom_site_occupancy
  Ho  Ho0  1  0.890591  0.509859  0.351691  1
  Ho  Ho1  1  0.609409  0.990141  0.851691  1
  Ho  Ho2  1  0.109245  0.009673  0.648372  1
  Ho  Ho3  1  0.390755  0.490327  0.148372  1
  Ho  Ho4  1  0.109245  0.490327  0.648372  1
  Ho  Ho5  1  0.390755  0.009673  0.148372  1
  Ho  Ho6  1  0.890591  0.990141  0.351691  1
  Ho  Ho7  1  0.609409  0.509859  0.851691  1
  Er  Er8  1  0.151293  0.250000  0.925616  1
  Er  Er9  1  0.348707  0.250000  0.425616  1
  Tm  Tm10  1  0.848563  0.750000  0.074440  1
  Tm  Tm11  1  0.651437  0.750000  0.574440  1
  Ga  Ga12  1  0.875135  0.052680  0.090340  1
  Ga  Ga13  1  0.624865  0.447320  0.590340  1
  Ga  Ga14  1  0.124850  0.552952  0.909655  1
  Ga  Ga15  1  0.375150  0.947048  0.409655  1
  Ga  Ga16  1  0.124850  0.947048  0.909655  1
  Ga  Ga17  1  0.375150  0.552952  0.409655  1
  Ga  Ga18  1  0.875135  0.447320  0.090340  1
  Ga  Ga19  1  0.624865  0.052680  0.590340  1
  Ga  Ga20  1  0.172431  0.750000  0.251470  1
  Ga  Ga21  1  0.327569  0.750000  0.751470  1
  Ga  Ga22  1  0.827201  0.250000  0.748412  1
  Ga  Ga23  1  0.672799  0.250000  0.248412  1
  Ga  Ga24  1  0.373471  0.750000  0.005085  1
  Ga  Ga25  1  0.126529  0.750000  0.505085  1
  Ga  Ga26  1  0.626874  0.250000  0.994960  1
  Ga  Ga27  1  0.873126  0.250000  0.494960  1
  Ga  Ga28  1  0.603658  0.750000  0.299161  1
  Ga  Ga29  1  0.896342  0.750000  0.799161  1
  Ga  Ga30  1  0.396465  0.250000  0.700739  1
  Ga  Ga31  1  0.103535  0.250000  0.200739  1
