# generated using pymatgen
data_YbCdSnO4
_symmetry_space_group_name_H-M   'P 1'
_cell_length_a   3.27673800
_cell_length_b   5.67917076
_cell_length_c   9.85338191
_cell_angle_alpha   89.64505631
_cell_angle_beta   90.00000000
_cell_angle_gamma   90.00000000
_symmetry_Int_Tables_number   1
_chemical_formula_structural   YbCdSnO4
_chemical_formula_sum   'Yb2 Cd2 Sn2 O8'
_cell_volume   183.35958928
_cell_formula_units_Z   2
loop_
 _symmetry_equiv_pos_site_id
 _symmetry_equiv_pos_as_xyz
  1  'x, y, z'
loop_
 _atom_site_type_symbol
 _atom_site_label
 _atom_site_symmetry_multiplicity
 _atom_site_fract_x
 _atom_site_fract_y
 _atom_site_fract_z
 _atom_site_occupancy
  Yb  Yb0  1  0.500000  0.068303  0.318017  1
  Yb  Yb1  1  0.500000  0.931697  0.681983  1
  Cd  Cd2  1  0.500000  0.432994  0.820702  1
  Cd  Cd3  1  0.500000  0.567006  0.179298  1
  Sn  Sn4  1  0.000000  0.000000  0.000000  1
  Sn  Sn5  1  0.000000  0.500000  0.500000  1
  O  O6  1  0.000000  0.133898  0.804800  1
  O  O7  1  0.000000  0.866102  0.195200  1
  O  O8  1  0.000000  0.638059  0.694077  1
  O  O9  1  0.000000  0.361941  0.305923  1
  O  O10  1  0.500000  0.261104  0.539281  1
  O  O11  1  0.500000  0.738896  0.460719  1
  O  O12  1  0.500000  0.228864  0.048630  1
  O  O13  1  0.500000  0.771136  0.951370  1
