# generated using pymatgen
data_Sc5Nb3V12Si15Ge
_symmetry_space_group_name_H-M   'P 1'
_cell_length_a   6.59034880
_cell_length_b   6.59425762
_cell_length_c   12.19908756
_cell_angle_alpha   90.05495300
_cell_angle_beta   89.95215896
_cell_angle_gamma   90.00195040
_symmetry_Int_Tables_number   1
_chemical_formula_structural   Sc5Nb3V12Si15Ge
_chemical_formula_sum   'Sc5 Nb3 V12 Si15 Ge1'
_cell_volume   530.15310341
_cell_formula_units_Z   1
loop_
 _symmetry_equiv_pos_site_id
 _symmetry_equiv_pos_as_xyz
  1  'x, y, z'
loop_
 _atom_site_type_symbol
 _atom_site_label
 _atom_site_symmetry_multiplicity
 _atom_site_fract_x
 _atom_site_fract_y
 _atom_site_fract_z
 _atom_site_occupancy
  Sc  Sc0  1  0.500252  0.835417  0.721170  1
  Sc  Sc1  1  0.503010  0.166759  0.221558  1
  Sc  Sc2  1  0.998513  0.337353  0.529096  1
  Sc  Sc3  1  0.666724  0.998876  0.969961  1
  Sc  Sc4  1  0.337594  0.998717  0.469585  1
  Nb  Nb5  1  0.005470  0.656919  0.030131  1
  Nb  Nb6  1  0.840643  0.507632  0.281609  1
  Nb  Nb7  1  0.157766  0.492016  0.781288  1
  V  V8  1  0.329744  0.339088  0.998972  1
  V  V9  1  0.162428  0.827150  0.250011  1
  V  V10  1  0.836134  0.169485  0.749592  1
  V  V11  1  0.667632  0.666653  0.499693  1
  V  V12  1  0.998299  0.160333  0.126874  1
  V  V13  1  0.340604  0.503804  0.375861  1
  V  V14  1  0.659053  0.497471  0.877312  1
  V  V15  1  0.510075  0.345266  0.624089  1
  V  V16  1  0.491680  0.653397  0.122744  1
  V  V17  1  0.996008  0.844205  0.628029  1
  V  V18  1  0.156983  0.009127  0.871722  1
  V  V19  1  0.840574  0.990326  0.372176  1
  Si  Si20  1  0.537687  0.791708  0.313749  1
  Si  Si21  1  0.462706  0.207545  0.814989  1
  Si  Si22  1  0.796438  0.541786  0.685257  1
  Si  Si23  1  0.204095  0.457722  0.185554  1
  Si  Si24  1  0.706258  0.038840  0.564276  1
  Si  Si25  1  0.957307  0.293918  0.935253  1
  Si  Si26  1  0.039990  0.706052  0.436286  1
  Si  Si27  1  0.707285  0.374215  0.073134  1
  Si  Si28  1  0.125746  0.204295  0.320223  1
  Si  Si29  1  0.874644  0.792106  0.822941  1
  Si  Si30  1  0.207718  0.132257  0.678853  1
  Si  Si31  1  0.794119  0.866359  0.176907  1
  Si  Si32  1  0.294432  0.628580  0.572701  1
  Si  Si33  1  0.367131  0.703176  0.925014  1
  Si  Si34  1  0.630900  0.296813  0.427475  1
  Ge  Ge35  1  0.294356  0.964635  0.065909  1
