# generated using pymatgen
data_TcIr4RuW2
_symmetry_space_group_name_H-M   'P 1'
_cell_length_a   5.56135915
_cell_length_b   5.50995832
_cell_length_c   4.41736100
_cell_angle_alpha   90.00000000
_cell_angle_beta   90.00000000
_cell_angle_gamma   119.69472705
_symmetry_Int_Tables_number   1
_chemical_formula_structural   TcIr4RuW2
_chemical_formula_sum   'Tc1 Ir4 Ru1 W2'
_cell_volume   117.58462161
_cell_formula_units_Z   1
loop_
 _symmetry_equiv_pos_site_id
 _symmetry_equiv_pos_as_xyz
  1  'x, y, z'
loop_
 _atom_site_type_symbol
 _atom_site_label
 _atom_site_symmetry_multiplicity
 _atom_site_fract_x
 _atom_site_fract_y
 _atom_site_fract_z
 _atom_site_occupancy
  Tc  Tc0  1  0.667966  0.833983  0.750000  1
  Ir  Ir1  1  0.833645  0.165933  0.250000  1
  Ir  Ir2  1  0.168299  0.330661  0.750000  1
  Ir  Ir3  1  0.168299  0.837638  0.750000  1
  Ir  Ir4  1  0.833645  0.667713  0.250000  1
  Ru  Ru5  1  0.330870  0.165436  0.250000  1
  W  W6  1  0.662694  0.331347  0.750000  1
  W  W7  1  0.334581  0.667291  0.250000  1
