# generated using pymatgen
data_Mn27TcMo
_symmetry_space_group_name_H-M   'P 1'
_cell_length_a   7.50723711
_cell_length_b   7.51679295
_cell_length_c   7.51679400
_cell_angle_alpha   109.49695924
_cell_angle_beta   109.44546939
_cell_angle_gamma   109.44547478
_symmetry_Int_Tables_number   1
_chemical_formula_structural   Mn27TcMo
_chemical_formula_sum   'Mn27 Tc1 Mo1'
_cell_volume   326.63398823
_cell_formula_units_Z   1
loop_
 _symmetry_equiv_pos_site_id
 _symmetry_equiv_pos_as_xyz
  1  'x, y, z'
loop_
 _atom_site_type_symbol
 _atom_site_label
 _atom_site_symmetry_multiplicity
 _atom_site_fract_x
 _atom_site_fract_y
 _atom_site_fract_z
 _atom_site_occupancy
  Mn  Mn0  1  0.001864  0.637417  0.000000  1
  Mn  Mn1  1  0.001864  0.000000  0.637417  1
  Mn  Mn2  1  0.364447  0.362583  0.362583  1
  Mn  Mn3  1  0.387110  0.676278  0.000000  1
  Mn  Mn4  1  0.710832  0.323722  0.323722  1
  Mn  Mn5  1  0.387110  0.000000  0.676278  1
  Mn  Mn6  1  0.680411  0.393787  0.000000  1
  Mn  Mn7  1  0.000329  0.391782  0.679045  1
  Mn  Mn8  1  0.321283  0.712737  0.320955  1
  Mn  Mn9  1  0.321283  0.320955  0.712737  1
  Mn  Mn10  1  0.000329  0.679045  0.391782  1
  Mn  Mn11  1  0.680411  0.000000  0.393787  1
  Mn  Mn12  1  0.608547  0.608218  0.287263  1
  Mn  Mn13  1  0.286625  0.606213  0.606213  1
  Mn  Mn14  1  0.608547  0.287263  0.608218  1
  Mn  Mn15  1  0.373507  0.194986  0.000000  1
  Mn  Mn16  1  0.178522  0.805014  0.805014  1
  Mn  Mn17  1  0.373507  0.000000  0.194986  1
  Mn  Mn18  1  0.192034  0.373187  0.000000  1
  Mn  Mn19  1  0.004789  0.379079  0.197920  1
  Mn  Mn20  1  0.806868  0.181160  0.802080  1
  Mn  Mn21  1  0.806868  0.802080  0.181160  1
  Mn  Mn22  1  0.004789  0.197920  0.379079  1
  Mn  Mn23  1  0.192034  0.000000  0.373187  1
  Mn  Mn24  1  0.625710  0.620921  0.818840  1
  Mn  Mn25  1  0.818845  0.626813  0.626813  1
  Mn  Mn26  1  0.625710  0.818840  0.620921  1
  Tc  Tc27  1  0.001869  0.000000  0.000000  1
  Mo  Mo28  1  0.633960  0.000000  0.000000  1
