# generated using pymatgen
data_SrLa5YCoBr12
_symmetry_space_group_name_H-M   'P 1'
_cell_length_a   9.79320293
_cell_length_b   9.70633800
_cell_length_c   9.36309000
_cell_angle_alpha   105.85648332
_cell_angle_beta   106.55538883
_cell_angle_gamma   106.27956224
_symmetry_Int_Tables_number   1
_chemical_formula_structural   SrLa5YCoBr12
_chemical_formula_sum   'Sr1 La5 Y1 Co1 Br12'
_cell_volume   756.21436527
_cell_formula_units_Z   1
loop_
 _symmetry_equiv_pos_site_id
 _symmetry_equiv_pos_as_xyz
  1  'x, y, z'
loop_
 _atom_site_type_symbol
 _atom_site_label
 _atom_site_symmetry_multiplicity
 _atom_site_fract_x
 _atom_site_fract_y
 _atom_site_fract_z
 _atom_site_occupancy
  Sr  Sr0  1  0.498298  0.501441  0.496154  1
  La  La1  1  0.313015  0.015079  0.109874  1
  La  La2  1  0.021818  0.102574  0.298712  1
  La  La3  1  0.980145  0.903713  0.704837  1
  La  La4  1  0.687028  0.983005  0.890619  1
  La  La5  1  0.894004  0.683646  0.984499  1
  Y  Y6  1  0.103407  0.300508  0.018407  1
  Co  Co7  1  0.000529  0.999598  0.001892  1
  Br  Br8  1  0.211849  0.669388  0.068066  1
  Br  Br9  1  0.434951  0.361756  0.137260  1
  Br  Br10  1  0.682239  0.074230  0.221641  1
  Br  Br11  1  0.933125  0.787884  0.331380  1
  Br  Br12  1  0.154561  0.449639  0.355502  1
  Br  Br13  1  0.370632  0.161042  0.462322  1
  Br  Br14  1  0.629937  0.842676  0.538068  1
  Br  Br15  1  0.840991  0.550624  0.628675  1
  Br  Br16  1  0.073438  0.226446  0.689013  1
  Br  Br17  1  0.318099  0.927375  0.779019  1
  Br  Br18  1  0.551153  0.637451  0.852503  1
  Br  Br19  1  0.800778  0.321926  0.931557  1
