# generated using pymatgen
data_Dy10Er6MgCo4Hg3
_symmetry_space_group_name_H-M   'P 1'
_cell_length_a   9.45290016
_cell_length_b   9.45040038
_cell_length_c   9.45040000
_cell_angle_alpha   60.00000132
_cell_angle_beta   60.00874875
_cell_angle_gamma   60.00873839
_symmetry_Int_Tables_number   1
_chemical_formula_structural   Dy10Er6MgCo4Hg3
_chemical_formula_sum   'Dy10 Er6 Mg1 Co4 Hg3'
_cell_volume   597.04609196
_cell_formula_units_Z   1
loop_
 _symmetry_equiv_pos_site_id
 _symmetry_equiv_pos_as_xyz
  1  'x, y, z'
loop_
 _atom_site_type_symbol
 _atom_site_label
 _atom_site_symmetry_multiplicity
 _atom_site_fract_x
 _atom_site_fract_y
 _atom_site_fract_z
 _atom_site_occupancy
  Dy  Dy0  1  0.937105  0.562309  0.562309  1
  Dy  Dy1  1  0.561456  0.937767  0.937767  1
  Dy  Dy2  1  0.561456  0.937767  0.563010  1
  Dy  Dy3  1  0.937105  0.562309  0.938275  1
  Dy  Dy4  1  0.561456  0.563010  0.937767  1
  Dy  Dy5  1  0.937105  0.938275  0.562309  1
  Dy  Dy6  1  0.347811  0.345933  0.345933  1
  Dy  Dy7  1  0.347811  0.345933  0.960322  1
  Dy  Dy8  1  0.347811  0.960322  0.345933  1
  Dy  Dy9  1  0.951835  0.349388  0.349388  1
  Er  Er10  1  0.811060  0.188384  0.188384  1
  Er  Er11  1  0.184536  0.814565  0.814565  1
  Er  Er12  1  0.184536  0.814565  0.186336  1
  Er  Er13  1  0.811060  0.188384  0.812172  1
  Er  Er14  1  0.184536  0.186336  0.814565  1
  Er  Er15  1  0.811060  0.812172  0.188384  1
  Mg  Mg16  1  0.285661  0.571447  0.571447  1
  Co  Co17  1  0.138628  0.141899  0.141899  1
  Co  Co18  1  0.138628  0.141899  0.577574  1
  Co  Co19  1  0.138628  0.577574  0.141899  1
  Co  Co20  1  0.576406  0.141198  0.141198  1
  Hg  Hg21  1  0.581435  0.585215  0.585215  1
  Hg  Hg22  1  0.581435  0.585215  0.248134  1
  Hg  Hg23  1  0.581435  0.248134  0.585215  1
