# generated using pymatgen
data_LiPr8(Si4Rh)3
_symmetry_space_group_name_H-M   'P 1'
_cell_length_a   8.30058600
_cell_length_b   8.30058707
_cell_length_c   8.52072800
_cell_angle_alpha   90.00000000
_cell_angle_beta   90.00000000
_cell_angle_gamma   120.00000371
_symmetry_Int_Tables_number   1
_chemical_formula_structural   LiPr8(Si4Rh)3
_chemical_formula_sum   'Li1 Pr8 Si12 Rh3'
_cell_volume   508.42263884
_cell_formula_units_Z   1
loop_
 _symmetry_equiv_pos_site_id
 _symmetry_equiv_pos_as_xyz
  1  'x, y, z'
loop_
 _atom_site_type_symbol
 _atom_site_label
 _atom_site_symmetry_multiplicity
 _atom_site_fract_x
 _atom_site_fract_y
 _atom_site_fract_z
 _atom_site_occupancy
  Li  Li0  1  0.666667  0.333333  0.506472  1
  Pr  Pr1  1  0.495612  0.504388  0.753664  1
  Pr  Pr2  1  0.497904  0.502096  0.246685  1
  Pr  Pr3  1  0.008778  0.504388  0.753664  1
  Pr  Pr4  1  0.004193  0.502096  0.246685  1
  Pr  Pr5  1  0.495612  0.991222  0.753664  1
  Pr  Pr6  1  0.497904  0.995807  0.246685  1
  Pr  Pr7  1  0.000000  0.000000  0.749170  1
  Pr  Pr8  1  0.000000  0.000000  0.250066  1
  Si  Si9  1  0.832367  0.167633  0.001048  1
  Si  Si10  1  0.166213  0.833787  0.998730  1
  Si  Si11  1  0.335266  0.167633  0.001048  1
  Si  Si12  1  0.167379  0.832621  0.500897  1
  Si  Si13  1  0.667574  0.833787  0.998730  1
  Si  Si14  1  0.836987  0.163013  0.498400  1
  Si  Si15  1  0.832367  0.664734  0.001048  1
  Si  Si16  1  0.665243  0.832621  0.500897  1
  Si  Si17  1  0.166213  0.332426  0.998730  1
  Si  Si18  1  0.326027  0.163013  0.498400  1
  Si  Si19  1  0.167379  0.334757  0.500897  1
  Si  Si20  1  0.836987  0.673973  0.498400  1
  Rh  Rh21  1  0.666667  0.333333  0.993769  1
  Rh  Rh22  1  0.333333  0.666667  0.005432  1
  Rh  Rh23  1  0.333333  0.666667  0.496818  1
