# generated using pymatgen
data_Tm2UAlGa2Ru3
_symmetry_space_group_name_H-M   'P 1'
_cell_length_a   6.85925824
_cell_length_b   6.85926050
_cell_length_c   3.98074700
_cell_angle_alpha   90.00000000
_cell_angle_beta   90.00000000
_cell_angle_gamma   116.91104298
_symmetry_Int_Tables_number   1
_chemical_formula_structural   Tm2UAlGa2Ru3
_chemical_formula_sum   'Tm2 U1 Al1 Ga2 Ru3'
_cell_volume   167.01013064
_cell_formula_units_Z   1
loop_
 _symmetry_equiv_pos_site_id
 _symmetry_equiv_pos_as_xyz
  1  'x, y, z'
loop_
 _atom_site_type_symbol
 _atom_site_label
 _atom_site_symmetry_multiplicity
 _atom_site_fract_x
 _atom_site_fract_y
 _atom_site_fract_z
 _atom_site_occupancy
  Tm  Tm0  1  0.416168  0.006036  0.500000  1
  Tm  Tm1  1  0.006036  0.416168  0.500000  1
  U  U2  1  0.612313  0.612313  0.500000  1
  Al  Al3  1  0.207664  0.207664  0.000000  1
  Ga  Ga4  1  0.747435  0.034382  0.000000  1
  Ga  Ga5  1  0.034382  0.747435  0.000000  1
  Ru  Ru6  1  0.377618  0.635094  0.000000  1
  Ru  Ru7  1  0.635094  0.377618  0.000000  1
  Ru  Ru8  1  0.963290  0.963290  0.500000  1
