# generated using pymatgen
data_Dy6Tm2Os3WC8
_symmetry_space_group_name_H-M   'P 1'
_cell_length_a   5.09966200
_cell_length_b   6.53581555
_cell_length_c   9.78700041
_cell_angle_alpha   89.70053382
_cell_angle_beta   90.00000000
_cell_angle_gamma   90.00000000
_symmetry_Int_Tables_number   1
_chemical_formula_structural   Dy6Tm2Os3WC8
_chemical_formula_sum   'Dy6 Tm2 Os3 W1 C8'
_cell_volume   326.20067429
_cell_formula_units_Z   1
loop_
 _symmetry_equiv_pos_site_id
 _symmetry_equiv_pos_as_xyz
  1  'x, y, z'
loop_
 _atom_site_type_symbol
 _atom_site_label
 _atom_site_symmetry_multiplicity
 _atom_site_fract_x
 _atom_site_fract_y
 _atom_site_fract_z
 _atom_site_occupancy
  Dy  Dy0  1  0.250000  0.679522  0.553499  1
  Dy  Dy1  1  0.250000  0.181301  0.944886  1
  Dy  Dy2  1  0.250000  0.531284  0.212387  1
  Dy  Dy3  1  0.750000  0.466597  0.781183  1
  Dy  Dy4  1  0.750000  0.970347  0.715917  1
  Dy  Dy5  1  0.250000  0.029506  0.286432  1
  Tm  Tm6  1  0.750000  0.324510  0.443543  1
  Tm  Tm7  1  0.750000  0.825806  0.056403  1
  Os  Os8  1  0.750000  0.278219  0.136070  1
  Os  Os9  1  0.750000  0.776905  0.363393  1
  Os  Os10  1  0.250000  0.223801  0.632018  1
  W  W11  1  0.250000  0.721323  0.868058  1
  C  C12  1  0.250000  0.453417  0.759262  1
  C  C13  1  0.750000  0.542923  0.241421  1
  C  C14  1  0.750000  0.043985  0.259928  1
  C  C15  1  0.250000  0.958135  0.740032  1
  C  C16  1  0.250000  0.825359  0.057670  1
  C  C17  1  0.750000  0.171980  0.951231  1
  C  C18  1  0.750000  0.670854  0.549551  1
  C  C19  1  0.250000  0.324224  0.447115  1
