# generated using pymatgen
data_Er5RhSeO12
_symmetry_space_group_name_H-M   'P 1'
_cell_length_a   6.80372883
_cell_length_b   6.80372902
_cell_length_c   7.12477974
_cell_angle_alpha   74.54640317
_cell_angle_beta   74.54641317
_cell_angle_gamma   50.77962343
_symmetry_Int_Tables_number   1
_chemical_formula_structural   Er5RhSeO12
_chemical_formula_sum   'Er5 Rh1 Se1 O12'
_cell_volume   244.14454417
_cell_formula_units_Z   1
loop_
 _symmetry_equiv_pos_site_id
 _symmetry_equiv_pos_as_xyz
  1  'x, y, z'
loop_
 _atom_site_type_symbol
 _atom_site_label
 _atom_site_symmetry_multiplicity
 _atom_site_fract_x
 _atom_site_fract_y
 _atom_site_fract_z
 _atom_site_occupancy
  Er  Er0  1  0.311406  0.287412  0.359619  1
  Er  Er1  1  0.712588  0.688594  0.640381  1
  Er  Er2  1  0.307735  0.304333  0.833267  1
  Er  Er3  1  0.695667  0.692265  0.166733  1
  Er  Er4  1  0.015121  0.984879  0.500000  1
  Rh  Rh5  1  0.742792  0.257208  0.000000  1
  Se  Se6  1  0.235374  0.764626  0.000000  1
  O  O7  1  0.906729  0.442013  0.915985  1
  O  O8  1  0.410808  0.898711  0.918405  1
  O  O9  1  0.101289  0.589192  0.081595  1
  O  O10  1  0.557987  0.093271  0.084015  1
  O  O11  1  0.107184  0.593279  0.567739  1
  O  O12  1  0.605217  0.088688  0.576988  1
  O  O13  1  0.911312  0.394783  0.423012  1
  O  O14  1  0.406721  0.892816  0.432261  1
  O  O15  1  0.012559  0.985464  0.822283  1
  O  O16  1  0.014536  0.987441  0.177717  1
  O  O17  1  0.472288  0.527315  0.819100  1
  O  O18  1  0.472685  0.527712  0.180900  1
