# generated using pymatgen
data_Er7Zr(CdCo)2
_symmetry_space_group_name_H-M   'P 1'
_cell_length_a   9.32863625
_cell_length_b   9.32863642
_cell_length_c   9.38058200
_cell_angle_alpha   59.81562011
_cell_angle_beta   59.81561949
_cell_angle_gamma   59.67858179
_symmetry_Int_Tables_number   1
_chemical_formula_structural   Er7Zr(CdCo)2
_chemical_formula_sum   'Er14 Zr2 Cd4 Co4'
_cell_volume   574.21555572
_cell_formula_units_Z   2
loop_
 _symmetry_equiv_pos_site_id
 _symmetry_equiv_pos_as_xyz
  1  'x, y, z'
loop_
 _atom_site_type_symbol
 _atom_site_label
 _atom_site_symmetry_multiplicity
 _atom_site_fract_x
 _atom_site_fract_y
 _atom_site_fract_z
 _atom_site_occupancy
  Er  Er0  1  0.346729  0.961650  0.345811  1
  Er  Er1  1  0.961650  0.346729  0.345811  1
  Er  Er2  1  0.809057  0.189419  0.189195  1
  Er  Er3  1  0.189419  0.809057  0.812329  1
  Er  Er4  1  0.189419  0.809057  0.189195  1
  Er  Er5  1  0.809057  0.189419  0.812329  1
  Er  Er6  1  0.190322  0.190322  0.809678  1
  Er  Er7  1  0.810951  0.810951  0.189049  1
  Er  Er8  1  0.942590  0.559573  0.560323  1
  Er  Er9  1  0.559573  0.942590  0.937515  1
  Er  Er10  1  0.559573  0.942590  0.560323  1
  Er  Er11  1  0.942590  0.559573  0.937515  1
  Er  Er12  1  0.557960  0.557960  0.942040  1
  Er  Er13  1  0.937972  0.937972  0.562028  1
  Zr  Zr14  1  0.344619  0.344619  0.344216  1
  Zr  Zr15  1  0.344619  0.344619  0.966546  1
  Cd  Cd16  1  0.578671  0.578671  0.585161  1
  Cd  Cd17  1  0.578671  0.578671  0.257495  1
  Cd  Cd18  1  0.576794  0.258850  0.582177  1
  Cd  Cd19  1  0.258850  0.576794  0.582177  1
  Co  Co20  1  0.147022  0.147022  0.135136  1
  Co  Co21  1  0.147022  0.147022  0.570820  1
  Co  Co22  1  0.152416  0.564453  0.141565  1
  Co  Co23  1  0.564453  0.152416  0.141565  1
