# generated using pymatgen
data_Er4As6Ir5Ru2
_symmetry_space_group_name_H-M   'P 1'
_cell_length_a   7.24273173
_cell_length_b   7.24273121
_cell_length_c   7.24273166
_cell_angle_alpha   109.45809115
_cell_angle_beta   109.49746831
_cell_angle_gamma   109.45809091
_symmetry_Int_Tables_number   1
_chemical_formula_structural   Er4As6Ir5Ru2
_chemical_formula_sum   'Er4 As6 Ir5 Ru2'
_cell_volume   292.47266516
_cell_formula_units_Z   1
loop_
 _symmetry_equiv_pos_site_id
 _symmetry_equiv_pos_as_xyz
  1  'x, y, z'
loop_
 _atom_site_type_symbol
 _atom_site_label
 _atom_site_symmetry_multiplicity
 _atom_site_fract_x
 _atom_site_fract_y
 _atom_site_fract_z
 _atom_site_occupancy
  Er  Er0  1  0.000089  0.000177  0.500089  1
  Er  Er1  1  0.499911  0.999823  0.999911  1
  Er  Er2  1  0.000089  0.500000  0.999911  1
  Er  Er3  1  0.499911  0.500000  0.500089  1
  As  As4  1  0.680395  0.683260  0.997134  1
  As  As5  1  0.313874  0.316740  0.997134  1
  As  As6  1  0.002866  0.683260  0.686126  1
  As  As7  1  0.002866  0.316740  0.319605  1
  As  As8  1  0.685060  0.000000  0.685060  1
  As  As9  1  0.314940  0.000000  0.314940  1
  Ir  Ir10  1  0.749280  0.249275  0.500004  1
  Ir  Ir11  1  0.499996  0.249275  0.749271  1
  Ir  Ir12  1  0.499996  0.750725  0.250720  1
  Ir  Ir13  1  0.750000  0.500000  0.250000  1
  Ir  Ir14  1  0.250729  0.750725  0.500004  1
  Ru  Ru15  1  0.000000  0.000000  0.000000  1
  Ru  Ru16  1  0.250000  0.500000  0.750000  1
