# generated using pymatgen
data_K4Si12SbP11
_symmetry_space_group_name_H-M   'P 1'
_cell_length_a   3.57797100
_cell_length_b   10.10063565
_cell_length_c   19.32180227
_cell_angle_alpha   89.91863226
_cell_angle_beta   90.00000000
_cell_angle_gamma   90.00000000
_symmetry_Int_Tables_number   1
_chemical_formula_structural   K4Si12SbP11
_chemical_formula_sum   'K4 Si12 Sb1 P11'
_cell_volume   698.28500695
_cell_formula_units_Z   1
loop_
 _symmetry_equiv_pos_site_id
 _symmetry_equiv_pos_as_xyz
  1  'x, y, z'
loop_
 _atom_site_type_symbol
 _atom_site_label
 _atom_site_symmetry_multiplicity
 _atom_site_fract_x
 _atom_site_fract_y
 _atom_site_fract_z
 _atom_site_occupancy
  K  K0  1  0.000000  0.324613  0.301510  1
  K  K1  1  0.000000  0.674736  0.696930  1
  K  K2  1  0.000000  0.175684  0.802896  1
  K  K3  1  0.000000  0.846716  0.217264  1
  Si  Si4  1  0.500000  0.398843  0.028713  1
  Si  Si5  1  0.500000  0.587678  0.959199  1
  Si  Si6  1  0.500000  0.097205  0.534212  1
  Si  Si7  1  0.500000  0.901449  0.467205  1
  Si  Si8  1  0.000000  0.115617  0.010697  1
  Si  Si9  1  0.000000  0.893960  0.980869  1
  Si  Si10  1  0.000000  0.384594  0.515695  1
  Si  Si11  1  0.000000  0.612445  0.488448  1
  Si  Si12  1  0.000000  0.184904  0.127517  1
  Si  Si13  1  0.000000  0.818141  0.865815  1
  Si  Si14  1  0.000000  0.315814  0.631985  1
  Si  Si15  1  0.000000  0.676624  0.371741  1
  Sb  Sb16  1  0.500000  0.778048  0.051904  1
  P  P17  1  0.500000  0.126739  0.191259  1
  P  P18  1  0.500000  0.880473  0.802897  1
  P  P19  1  0.500000  0.378729  0.694075  1
  P  P20  1  0.500000  0.616615  0.308727  1
  P  P21  1  0.500000  0.283562  0.462577  1
  P  P22  1  0.500000  0.716511  0.539753  1
  P  P23  1  0.500000  0.216240  0.958061  1
  P  P24  1  0.000000  0.408779  0.102289  1
  P  P25  1  0.000000  0.591447  0.886208  1
  P  P26  1  0.000000  0.090834  0.607602  1
  P  P27  1  0.000000  0.902999  0.393954  1
