# generated using pymatgen
data_Sc8Ti12Si15P
_symmetry_space_group_name_H-M   'P 1'
_cell_length_a   6.86904975
_cell_length_b   6.86111551
_cell_length_c   12.55566973
_cell_angle_alpha   89.93256091
_cell_angle_beta   89.97913733
_cell_angle_gamma   89.99888816
_symmetry_Int_Tables_number   1
_chemical_formula_structural   Sc8Ti12Si15P
_chemical_formula_sum   'Sc8 Ti12 Si15 P1'
_cell_volume   591.74002569
_cell_formula_units_Z   1
loop_
 _symmetry_equiv_pos_site_id
 _symmetry_equiv_pos_as_xyz
  1  'x, y, z'
loop_
 _atom_site_type_symbol
 _atom_site_label
 _atom_site_symmetry_multiplicity
 _atom_site_fract_x
 _atom_site_fract_y
 _atom_site_fract_z
 _atom_site_occupancy
  Sc  Sc0  1  0.002274  0.661845  0.032330  1
  Sc  Sc1  1  0.839462  0.500043  0.282535  1
  Sc  Sc2  1  0.159061  0.499369  0.782833  1
  Sc  Sc3  1  0.499773  0.839775  0.717801  1
  Sc  Sc4  1  0.498672  0.158399  0.215604  1
  Sc  Sc5  1  0.000232  0.339316  0.532859  1
  Sc  Sc6  1  0.655674  0.999817  0.968375  1
  Sc  Sc7  1  0.339720  0.000121  0.466989  1
  Ti  Ti8  1  0.330145  0.327791  0.000872  1
  Ti  Ti9  1  0.171358  0.831071  0.247803  1
  Ti  Ti10  1  0.830025  0.169780  0.750424  1
  Ti  Ti11  1  0.669956  0.669935  0.499822  1
  Ti  Ti12  1  0.009502  0.149436  0.124236  1
  Ti  Ti13  1  0.348032  0.505621  0.375438  1
  Ti  Ti14  1  0.653219  0.493688  0.876190  1
  Ti  Ti15  1  0.505652  0.347807  0.624432  1
  Ti  Ti16  1  0.491326  0.656982  0.123014  1
  Ti  Ti17  1  0.993984  0.848379  0.625485  1
  Ti  Ti18  1  0.153845  0.005221  0.878083  1
  Ti  Ti19  1  0.848325  0.993984  0.374214  1
  Si  Si20  1  0.543628  0.797496  0.314144  1
  Si  Si21  1  0.456927  0.202397  0.814505  1
  Si  Si22  1  0.797305  0.543553  0.685648  1
  Si  Si23  1  0.202208  0.457229  0.185574  1
  Si  Si24  1  0.702228  0.043080  0.564509  1
  Si  Si25  1  0.956079  0.297468  0.935843  1
  Si  Si26  1  0.043818  0.702689  0.435017  1
  Si  Si27  1  0.706219  0.366703  0.071977  1
  Si  Si28  1  0.134485  0.206350  0.320890  1
  Si  Si29  1  0.864841  0.796026  0.821632  1
  Si  Si30  1  0.205479  0.134447  0.680099  1
  Si  Si31  1  0.794955  0.864590  0.179044  1
  Si  Si32  1  0.294148  0.635157  0.571154  1
  Si  Si33  1  0.365416  0.701660  0.926833  1
  Si  Si34  1  0.635041  0.294109  0.428675  1
  P  P35  1  0.296985  0.958670  0.065121  1
