# generated using pymatgen
data_Dy4GaSn5Ir7
_symmetry_space_group_name_H-M   'P 1'
_cell_length_a   7.55531134
_cell_length_b   7.55531124
_cell_length_c   7.55531080
_cell_angle_alpha   109.07336637
_cell_angle_beta   109.67052184
_cell_angle_gamma   109.67051174
_symmetry_Int_Tables_number   1
_chemical_formula_structural   Dy4GaSn5Ir7
_chemical_formula_sum   'Dy4 Ga1 Sn5 Ir7'
_cell_volume   331.98574717
_cell_formula_units_Z   1
loop_
 _symmetry_equiv_pos_site_id
 _symmetry_equiv_pos_as_xyz
  1  'x, y, z'
loop_
 _atom_site_type_symbol
 _atom_site_label
 _atom_site_symmetry_multiplicity
 _atom_site_fract_x
 _atom_site_fract_y
 _atom_site_fract_z
 _atom_site_occupancy
  Dy  Dy0  1  0.000000  0.987974  0.527023  1
  Dy  Dy1  1  0.000000  0.527023  0.987974  1
  Dy  Dy2  1  0.460951  0.987974  0.987974  1
  Dy  Dy3  1  0.539049  0.527023  0.527023  1
  Ga  Ga4  1  0.000000  0.659837  0.659837  1
  Sn  Sn5  1  0.686221  0.700898  0.014676  1
  Sn  Sn6  1  0.313779  0.014676  0.328456  1
  Sn  Sn7  1  0.000000  0.294058  0.294058  1
  Sn  Sn8  1  0.313779  0.328456  0.014676  1
  Sn  Sn9  1  0.686221  0.014676  0.700898  1
  Ir  Ir10  1  0.754352  0.246252  0.491900  1
  Ir  Ir11  1  0.754352  0.491900  0.246252  1
  Ir  Ir12  1  0.500000  0.260874  0.760874  1
  Ir  Ir13  1  0.245648  0.491900  0.737548  1
  Ir  Ir14  1  0.245648  0.737548  0.491900  1
  Ir  Ir15  1  0.500000  0.760874  0.260874  1
  Ir  Ir16  1  0.000000  0.968057  0.968057  1
