# generated using pymatgen
data_La13NdNi6
_symmetry_space_group_name_H-M   'P 1'
_cell_length_a   10.12486200
_cell_length_b   10.12486176
_cell_length_c   6.42997700
_cell_angle_alpha   90.00000000
_cell_angle_beta   90.00000000
_cell_angle_gamma   119.99999426
_symmetry_Int_Tables_number   1
_chemical_formula_structural   La13NdNi6
_chemical_formula_sum   'La13 Nd1 Ni6'
_cell_volume   570.84511780
_cell_formula_units_Z   1
loop_
 _symmetry_equiv_pos_site_id
 _symmetry_equiv_pos_as_xyz
  1  'x, y, z'
loop_
 _atom_site_type_symbol
 _atom_site_label
 _atom_site_symmetry_multiplicity
 _atom_site_fract_x
 _atom_site_fract_y
 _atom_site_fract_z
 _atom_site_occupancy
  La  La0  1  0.666667  0.333333  0.964472  1
  La  La1  1  0.127376  0.872624  0.249099  1
  La  La2  1  0.745250  0.872624  0.249099  1
  La  La3  1  0.127376  0.254750  0.249099  1
  La  La4  1  0.873550  0.126450  0.747751  1
  La  La5  1  0.252901  0.126450  0.747751  1
  La  La6  1  0.873550  0.747099  0.747751  1
  La  La7  1  0.538553  0.461447  0.432293  1
  La  La8  1  0.922894  0.461447  0.432293  1
  La  La9  1  0.538553  0.077106  0.432293  1
  La  La10  1  0.460746  0.539254  0.933454  1
  La  La11  1  0.078509  0.539254  0.933454  1
  La  La12  1  0.460746  0.921491  0.933454  1
  Nd  Nd13  1  0.333333  0.666667  0.463079  1
  Ni  Ni14  1  0.812883  0.187117  0.193272  1
  Ni  Ni15  1  0.374232  0.187117  0.193272  1
  Ni  Ni16  1  0.812883  0.625768  0.193272  1
  Ni  Ni17  1  0.187161  0.812839  0.696877  1
  Ni  Ni18  1  0.625678  0.812839  0.696877  1
  Ni  Ni19  1  0.187161  0.374322  0.696877  1
