# generated using pymatgen
data_BaMn2Se2O
_symmetry_space_group_name_H-M   'P 1'
_cell_length_a   4.29178580
_cell_length_b   6.93461013
_cell_length_c   10.46752156
_cell_angle_alpha   89.90057195
_cell_angle_beta   89.93873242
_cell_angle_gamma   90.00667677
_symmetry_Int_Tables_number   1
_chemical_formula_structural   BaMn2Se2O
_chemical_formula_sum   'Ba2 Mn4 Se4 O2'
_cell_volume   311.53227530
_cell_formula_units_Z   2
loop_
 _symmetry_equiv_pos_site_id
 _symmetry_equiv_pos_as_xyz
  1  'x, y, z'
loop_
 _atom_site_type_symbol
 _atom_site_label
 _atom_site_symmetry_multiplicity
 _atom_site_fract_x
 _atom_site_fract_y
 _atom_site_fract_z
 _atom_site_occupancy
  Ba  Ba0  1  0.500796  0.001804  0.499440  1
  Ba  Ba1  1  0.000242  0.998218  0.000327  1
  Mn  Mn2  1  0.499529  0.367065  0.165833  1
  Mn  Mn3  1  0.000702  0.634580  0.667349  1
  Mn  Mn4  1  0.499757  0.364794  0.832595  1
  Mn  Mn5  1  0.999073  0.633495  0.334147  1
  Se  Se6  1  0.500322  0.742123  0.798334  1
  Se  Se7  1  0.499301  0.743408  0.203287  1
  Se  Se8  1  0.999096  0.257330  0.296872  1
  Se  Se9  1  0.000091  0.257081  0.701621  1
  O  O10  1  0.500310  0.226458  0.999821  1
  O  O11  1  0.000781  0.773642  0.500373  1
