# generated using pymatgen
data_TiTcIr6
_symmetry_space_group_name_H-M   'P 1'
_cell_length_a   5.50984400
_cell_length_b   5.50984461
_cell_length_c   4.42430700
_cell_angle_alpha   90.00000000
_cell_angle_beta   90.00000000
_cell_angle_gamma   120.00000836
_symmetry_Int_Tables_number   1
_chemical_formula_structural   TiTcIr6
_chemical_formula_sum   'Ti1 Tc1 Ir6'
_cell_volume   116.32002948
_cell_formula_units_Z   1
loop_
 _symmetry_equiv_pos_site_id
 _symmetry_equiv_pos_as_xyz
  1  'x, y, z'
loop_
 _atom_site_type_symbol
 _atom_site_label
 _atom_site_symmetry_multiplicity
 _atom_site_fract_x
 _atom_site_fract_y
 _atom_site_fract_z
 _atom_site_occupancy
  Ti  Ti0  1  0.333333  0.666667  0.750000  1
  Tc  Tc1  1  0.666667  0.333333  0.250000  1
  Ir  Ir2  1  0.164473  0.328945  0.250000  1
  Ir  Ir3  1  0.671055  0.835527  0.250000  1
  Ir  Ir4  1  0.164473  0.835527  0.250000  1
  Ir  Ir5  1  0.831290  0.662582  0.750000  1
  Ir  Ir6  1  0.337418  0.168710  0.750000  1
  Ir  Ir7  1  0.831290  0.168710  0.750000  1
