# generated using pymatgen
data_La2Dy4TcSb2
_symmetry_space_group_name_H-M   'P 1'
_cell_length_a   8.28550229
_cell_length_b   8.44641925
_cell_length_c   4.33737100
_cell_angle_alpha   90.00000000
_cell_angle_beta   90.00000000
_cell_angle_gamma   120.64455925
_symmetry_Int_Tables_number   1
_chemical_formula_structural   La2Dy4TcSb2
_chemical_formula_sum   'La2 Dy4 Tc1 Sb2'
_cell_volume   261.15066250
_cell_formula_units_Z   1
loop_
 _symmetry_equiv_pos_site_id
 _symmetry_equiv_pos_as_xyz
  1  'x, y, z'
loop_
 _atom_site_type_symbol
 _atom_site_label
 _atom_site_symmetry_multiplicity
 _atom_site_fract_x
 _atom_site_fract_y
 _atom_site_fract_z
 _atom_site_occupancy
  La  La0  1  0.599925  0.005411  0.500000  1
  La  La1  1  0.400075  0.405486  0.500000  1
  Dy  Dy2  1  0.239358  0.002961  0.000000  1
  Dy  Dy3  1  0.760642  0.763603  0.000000  1
  Dy  Dy4  1  0.000000  0.224122  0.000000  1
  Dy  Dy5  1  0.000000  0.606188  0.500000  1
  Tc  Tc6  1  0.000000  0.982103  0.500000  1
  Sb  Sb7  1  0.318324  0.664226  0.000000  1
  Sb  Sb8  1  0.681676  0.345900  0.000000  1
