# generated using pymatgen
data_CsRb11Na6(GaBi4)2
_symmetry_space_group_name_H-M   'P 1'
_cell_length_a   10.84765581
_cell_length_b   10.88480333
_cell_length_c   11.14670433
_cell_angle_alpha   89.99999764
_cell_angle_beta   89.89457070
_cell_angle_gamma   120.11334739
_symmetry_Int_Tables_number   1
_chemical_formula_structural   CsRb11Na6(GaBi4)2
_chemical_formula_sum   'Cs1 Rb11 Na6 Ga2 Bi8'
_cell_volume   1138.50631568
_cell_formula_units_Z   1
loop_
 _symmetry_equiv_pos_site_id
 _symmetry_equiv_pos_as_xyz
  1  'x, y, z'
loop_
 _atom_site_type_symbol
 _atom_site_label
 _atom_site_symmetry_multiplicity
 _atom_site_fract_x
 _atom_site_fract_y
 _atom_site_fract_z
 _atom_site_occupancy
  Cs  Cs0  1  0.418701  0.209351  0.459561  1
  Rb  Rb1  1  0.792344  0.585022  0.039211  1
  Rb  Rb2  1  0.207351  0.415414  0.539227  1
  Rb  Rb3  1  0.585042  0.792520  0.961023  1
  Rb  Rb4  1  0.207732  0.415200  0.960912  1
  Rb  Rb5  1  0.207732  0.792531  0.960912  1
  Rb  Rb6  1  0.792859  0.585521  0.460801  1
  Rb  Rb7  1  0.207351  0.791936  0.539227  1
  Rb  Rb8  1  0.792344  0.207324  0.039211  1
  Rb  Rb9  1  0.584761  0.792380  0.539401  1
  Rb  Rb10  1  0.415136  0.207569  0.038608  1
  Rb  Rb11  1  0.792859  0.207339  0.460801  1
  Na  Na12  1  0.228875  0.114438  0.751187  1
  Na  Na13  1  0.884965  0.770276  0.750035  1
  Na  Na14  1  0.114265  0.884500  0.249554  1
  Na  Na15  1  0.770012  0.885005  0.249892  1
  Na  Na16  1  0.884965  0.114690  0.750035  1
  Na  Na17  1  0.114265  0.229765  0.249554  1
  Ga  Ga18  1  0.333504  0.666752  0.248837  1
  Ga  Ga19  1  0.666513  0.333256  0.750678  1
  Bi  Bi20  1  0.478033  0.955730  0.248929  1
  Bi  Bi21  1  0.522231  0.479427  0.751661  1
  Bi  Bi22  1  0.957647  0.478823  0.749875  1
  Bi  Bi23  1  0.042430  0.521215  0.249973  1
  Bi  Bi24  1  0.478033  0.522303  0.248929  1
  Bi  Bi25  1  0.522231  0.042804  0.751661  1
  Bi  Bi26  1  0.000236  0.000118  0.000154  1
  Bi  Bi27  1  0.997582  0.998791  0.500153  1
