# generated using pymatgen
data_Er2Sc3Co19(Si2P)4
_symmetry_space_group_name_H-M   'P 1'
_cell_length_a   12.02321502
_cell_length_b   12.01678820
_cell_length_c   3.64381500
_cell_angle_alpha   90.00000000
_cell_angle_beta   90.00000000
_cell_angle_gamma   119.98044985
_symmetry_Int_Tables_number   1
_chemical_formula_structural   Er2Sc3Co19(Si2P)4
_chemical_formula_sum   'Er2 Sc3 Co19 Si8 P4'
_cell_volume   456.01748374
_cell_formula_units_Z   1
loop_
 _symmetry_equiv_pos_site_id
 _symmetry_equiv_pos_as_xyz
  1  'x, y, z'
loop_
 _atom_site_type_symbol
 _atom_site_label
 _atom_site_symmetry_multiplicity
 _atom_site_fract_x
 _atom_site_fract_y
 _atom_site_fract_z
 _atom_site_occupancy
  Er  Er0  1  0.332555  0.665786  0.000000  1
  Er  Er1  1  0.667064  0.331848  0.000000  1
  Sc  Sc2  1  0.001279  0.181718  0.500000  1
  Sc  Sc3  1  0.817756  0.818838  0.500000  1
  Sc  Sc4  1  0.182873  0.999921  0.500000  1
  Co  Co5  1  0.631274  0.827263  0.000000  1
  Co  Co6  1  0.174177  0.804880  0.000000  1
  Co  Co7  1  0.194586  0.367899  0.000000  1
  Co  Co8  1  0.370982  0.194819  0.000000  1
  Co  Co9  1  0.825723  0.630729  0.000000  1
  Co  Co10  1  0.799982  0.174530  0.000000  1
  Co  Co11  1  0.999163  0.554108  0.000000  1
  Co  Co12  1  0.444476  0.444414  0.000000  1
  Co  Co13  1  0.553590  0.998363  0.000000  1
  Co  Co14  1  0.523498  0.647934  0.500000  1
  Co  Co15  1  0.352173  0.875388  0.500000  1
  Co  Co16  1  0.123310  0.475381  0.500000  1
  Co  Co17  1  0.483570  0.124921  0.500000  1
  Co  Co18  1  0.647565  0.523373  0.500000  1
  Co  Co19  1  0.874028  0.350808  0.500000  1
  Co  Co20  1  0.999910  0.726320  0.500000  1
  Co  Co21  1  0.274544  0.273109  0.500000  1
  Co  Co22  1  0.724439  0.004709  0.500000  1
  Co  Co23  1  0.998675  0.000021  0.000000  1
  Si  Si24  1  0.999570  0.363216  0.000000  1
  Si  Si25  1  0.635975  0.636355  0.000000  1
  Si  Si26  1  0.364352  0.000253  0.000000  1
  Si  Si27  1  0.522030  0.842172  0.500000  1
  Si  Si28  1  0.156176  0.678650  0.500000  1
  Si  Si29  1  0.320183  0.476821  0.500000  1
  Si  Si30  1  0.478342  0.319949  0.500000  1
  Si  Si31  1  0.842635  0.522558  0.500000  1
  P  P32  1  0.683587  0.162297  0.500000  1
  P  P33  1  0.999839  0.823591  0.000000  1
  P  P34  1  0.177368  0.175572  0.000000  1
  P  P35  1  0.822750  0.001487  0.000000  1
