# generated using pymatgen
data_DyHo4P12Ru19
_symmetry_space_group_name_H-M   'P 1'
_cell_length_a   12.53229813
_cell_length_b   12.52922240
_cell_length_c   3.97709200
_cell_angle_alpha   90.00000000
_cell_angle_beta   90.00000000
_cell_angle_gamma   119.99187935
_symmetry_Int_Tables_number   1
_chemical_formula_structural   DyHo4P12Ru19
_chemical_formula_sum   'Dy1 Ho4 P12 Ru19'
_cell_volume   540.86220821
_cell_formula_units_Z   1
loop_
 _symmetry_equiv_pos_site_id
 _symmetry_equiv_pos_as_xyz
  1  'x, y, z'
loop_
 _atom_site_type_symbol
 _atom_site_label
 _atom_site_symmetry_multiplicity
 _atom_site_fract_x
 _atom_site_fract_y
 _atom_site_fract_z
 _atom_site_occupancy
  Dy  Dy0  1  0.000000  0.183672  0.500000  1
  Ho  Ho1  1  0.816352  0.816340  0.500000  1
  Ho  Ho2  1  0.183648  0.999988  0.500000  1
  Ho  Ho3  1  0.666718  0.333391  0.000000  1
  Ho  Ho4  1  0.333282  0.666674  0.000000  1
  P  P5  1  0.000000  0.815821  0.000000  1
  P  P6  1  0.184234  0.184075  0.000000  1
  P  P7  1  0.815766  0.999841  0.000000  1
  P  P8  1  0.693121  0.171093  0.500000  1
  P  P9  1  0.828886  0.522088  0.500000  1
  P  P10  1  0.478015  0.306880  0.500000  1
  P  P11  1  0.171114  0.693202  0.500000  1
  P  P12  1  0.521985  0.828865  0.500000  1
  P  P13  1  0.306879  0.477972  0.500000  1
  P  P14  1  0.000000  0.372564  0.000000  1
  P  P15  1  0.627549  0.627525  0.000000  1
  P  P16  1  0.372451  0.999975  0.000000  1
  Ru  Ru17  1  0.000000  0.554563  0.000000  1
  Ru  Ru18  1  0.445465  0.445444  0.000000  1
  Ru  Ru19  1  0.554535  0.999979  0.000000  1
  Ru  Ru20  1  0.000000  0.717218  0.500000  1
  Ru  Ru21  1  0.283012  0.282898  0.500000  1
  Ru  Ru22  1  0.716988  0.999885  0.500000  1
  Ru  Ru23  1  0.807537  0.184672  0.000000  1
  Ru  Ru24  1  0.815263  0.623074  0.000000  1
  Ru  Ru25  1  0.376960  0.192200  0.000000  1
  Ru  Ru26  1  0.184737  0.807811  0.000000  1
  Ru  Ru27  1  0.623040  0.815239  0.000000  1
  Ru  Ru28  1  0.192463  0.377135  0.000000  1
  Ru  Ru29  1  0.873801  0.365539  0.500000  1
  Ru  Ru30  1  0.634512  0.508348  0.500000  1
  Ru  Ru31  1  0.491691  0.126186  0.500000  1
  Ru  Ru32  1  0.365488  0.873836  0.500000  1
  Ru  Ru33  1  0.508309  0.634494  0.500000  1
  Ru  Ru34  1  0.126199  0.491739  0.500000  1
  Ru  Ru35  1  0.000000  0.999774  0.000000  1
