# generated using pymatgen
data_Dy16ErLu3Pb16
_symmetry_space_group_name_H-M   'P 1'
_cell_length_a   8.17330906
_cell_length_b   8.26057606
_cell_length_c   15.62989800
_cell_angle_alpha   90.00000000
_cell_angle_beta   90.00000000
_cell_angle_gamma   90.01412008
_symmetry_Int_Tables_number   1
_chemical_formula_structural   Dy16ErLu3Pb16
_chemical_formula_sum   'Dy16 Er1 Lu3 Pb16'
_cell_volume   1055.27193112
_cell_formula_units_Z   1
loop_
 _symmetry_equiv_pos_site_id
 _symmetry_equiv_pos_as_xyz
  1  'x, y, z'
loop_
 _atom_site_type_symbol
 _atom_site_label
 _atom_site_symmetry_multiplicity
 _atom_site_fract_x
 _atom_site_fract_y
 _atom_site_fract_z
 _atom_site_occupancy
  Dy  Dy0  1  0.376731  0.841589  0.879147  1
  Dy  Dy1  1  0.876477  0.658586  0.620842  1
  Dy  Dy2  1  0.623372  0.158493  0.379148  1
  Dy  Dy3  1  0.123349  0.341514  0.120873  1
  Dy  Dy4  1  0.623372  0.158493  0.120852  1
  Dy  Dy5  1  0.123349  0.341514  0.379127  1
  Dy  Dy6  1  0.376731  0.841589  0.620853  1
  Dy  Dy7  1  0.876477  0.658586  0.879158  1
  Dy  Dy8  1  0.536012  0.323478  0.900137  1
  Dy  Dy9  1  0.035891  0.176398  0.599876  1
  Dy  Dy10  1  0.464043  0.676469  0.400110  1
  Dy  Dy11  1  0.964063  0.823532  0.099869  1
  Dy  Dy12  1  0.464043  0.676469  0.099890  1
  Dy  Dy13  1  0.964063  0.823532  0.400131  1
  Dy  Dy14  1  0.536012  0.323478  0.599863  1
  Dy  Dy15  1  0.035891  0.176398  0.900124  1
  Er  Er16  1  0.208436  0.504295  0.750000  1
  Lu  Lu17  1  0.708556  0.995619  0.750000  1
  Lu  Lu18  1  0.791466  0.495630  0.250000  1
  Lu  Lu19  1  0.291459  0.004327  0.250000  1
  Pb  Pb20  1  0.281186  0.032770  0.043601  1
  Pb  Pb21  1  0.781190  0.467234  0.456399  1
  Pb  Pb22  1  0.718813  0.967219  0.543570  1
  Pb  Pb23  1  0.218822  0.532788  0.956556  1
  Pb  Pb24  1  0.718813  0.967219  0.956430  1
  Pb  Pb25  1  0.218822  0.532788  0.543444  1
  Pb  Pb26  1  0.281186  0.032770  0.456399  1
  Pb  Pb27  1  0.781190  0.467234  0.043601  1
  Pb  Pb28  1  0.571370  0.626282  0.750000  1
  Pb  Pb29  1  0.071019  0.874004  0.750000  1
  Pb  Pb30  1  0.428937  0.373856  0.250000  1
  Pb  Pb31  1  0.928930  0.126126  0.250000  1
  Pb  Pb32  1  0.347808  0.154667  0.750000  1
  Pb  Pb33  1  0.847728  0.344965  0.750000  1
  Pb  Pb34  1  0.652196  0.845025  0.250000  1
  Pb  Pb35  1  0.152198  0.655065  0.250000  1
