# generated using pymatgen
data_Na2HgF6
_symmetry_space_group_name_H-M   'P 1'
_cell_length_a   9.68342700
_cell_length_b   9.68342781
_cell_length_c   5.38377600
_cell_angle_alpha   90.00000000
_cell_angle_beta   90.00000000
_cell_angle_gamma   119.99999382
_symmetry_Int_Tables_number   1
_chemical_formula_structural   Na2HgF6
_chemical_formula_sum   'Na6 Hg3 F18'
_cell_volume   437.19566084
_cell_formula_units_Z   3
loop_
 _symmetry_equiv_pos_site_id
 _symmetry_equiv_pos_as_xyz
  1  'x, y, z'
loop_
 _atom_site_type_symbol
 _atom_site_label
 _atom_site_symmetry_multiplicity
 _atom_site_fract_x
 _atom_site_fract_y
 _atom_site_fract_z
 _atom_site_occupancy
  Na  Na0  1  0.293961  0.000000  0.500000  1
  Na  Na1  1  0.000000  0.293961  0.500000  1
  Na  Na2  1  0.706039  0.706039  0.500000  1
  Na  Na3  1  0.627769  0.000000  0.000000  1
  Na  Na4  1  0.000000  0.627769  0.000000  1
  Na  Na5  1  0.372231  0.372231  0.000000  1
  Hg  Hg6  1  0.333333  0.666667  0.494023  1
  Hg  Hg7  1  0.666667  0.333333  0.505977  1
  Hg  Hg8  1  0.000000  0.000000  0.000000  1
  F  F9  1  0.455401  0.242278  0.289136  1
  F  F10  1  0.757722  0.213123  0.289136  1
  F  F11  1  0.242278  0.455401  0.710864  1
  F  F12  1  0.786877  0.544599  0.289136  1
  F  F13  1  0.213123  0.757722  0.710864  1
  F  F14  1  0.544599  0.786877  0.710864  1
  F  F15  1  0.116715  0.212117  0.213614  1
  F  F16  1  0.787883  0.904598  0.213614  1
  F  F17  1  0.212117  0.116715  0.786386  1
  F  F18  1  0.095402  0.883285  0.213614  1
  F  F19  1  0.904598  0.787883  0.786386  1
  F  F20  1  0.883285  0.095402  0.786386  1
  F  F21  1  0.124132  0.536155  0.275604  1
  F  F22  1  0.463845  0.587979  0.275604  1
  F  F23  1  0.536155  0.124132  0.724396  1
  F  F24  1  0.412021  0.875868  0.275604  1
  F  F25  1  0.587979  0.463845  0.724396  1
  F  F26  1  0.875868  0.412021  0.724396  1
