# generated using pymatgen
data_Li7Pr8Ag(Sn3Bi)2
_symmetry_space_group_name_H-M   'P 1'
_cell_length_a   9.65273833
_cell_length_b   9.64627945
_cell_length_c   7.70966913
_cell_angle_alpha   89.98413605
_cell_angle_beta   90.05866216
_cell_angle_gamma   119.96404647
_symmetry_Int_Tables_number   1
_chemical_formula_structural   Li7Pr8Ag(Sn3Bi)2
_chemical_formula_sum   'Li7 Pr8 Ag1 Sn6 Bi2'
_cell_volume   621.91886101
_cell_formula_units_Z   1
loop_
 _symmetry_equiv_pos_site_id
 _symmetry_equiv_pos_as_xyz
  1  'x, y, z'
loop_
 _atom_site_type_symbol
 _atom_site_label
 _atom_site_symmetry_multiplicity
 _atom_site_fract_x
 _atom_site_fract_y
 _atom_site_fract_z
 _atom_site_occupancy
  Li  Li0  1  0.833539  0.666746  0.720701  1
  Li  Li1  1  0.333929  0.166051  0.715552  1
  Li  Li2  1  0.170668  0.835199  0.214739  1
  Li  Li3  1  0.170718  0.335507  0.215154  1
  Li  Li4  1  0.662408  0.830774  0.208959  1
  Li  Li5  1  0.662937  0.331991  0.329518  1
  Li  Li6  1  0.333275  0.667668  0.825167  1
  Pr  Pr7  1  0.484087  0.509328  0.505087  1
  Pr  Pr8  1  0.486201  0.976328  0.508655  1
  Pr  Pr9  1  0.025251  0.511479  0.510899  1
  Pr  Pr10  1  0.506579  0.485816  0.004663  1
  Pr  Pr11  1  0.509090  0.021607  0.000988  1
  Pr  Pr12  1  0.981846  0.489031  0.999009  1
  Pr  Pr13  1  0.003846  0.002263  0.506223  1
  Pr  Pr14  1  0.002918  0.003683  0.995181  1
  Ag  Ag15  1  0.832410  0.166416  0.723475  1
  Sn  Sn16  1  0.332987  0.166246  0.268299  1
  Sn  Sn17  1  0.165869  0.832978  0.767849  1
  Sn  Sn18  1  0.172042  0.336074  0.768334  1
  Sn  Sn19  1  0.663891  0.827701  0.769989  1
  Sn  Sn20  1  0.664498  0.336880  0.735046  1
  Sn  Sn21  1  0.332354  0.666347  0.235043  1
  Bi  Bi22  1  0.833690  0.166822  0.264177  1
  Bi  Bi23  1  0.834966  0.667065  0.265300  1
