# generated using pymatgen
data_Tb9Pr7Cd4RuPt3
_symmetry_space_group_name_H-M   'P 1'
_cell_length_a   9.87372693
_cell_length_b   9.87368340
_cell_length_c   9.86149612
_cell_angle_alpha   59.70133580
_cell_angle_beta   59.70418971
_cell_angle_gamma   60.16276530
_symmetry_Int_Tables_number   1
_chemical_formula_structural   Tb9Pr7Cd4RuPt3
_chemical_formula_sum   'Tb9 Pr7 Cd4 Ru1 Pt3'
_cell_volume   677.56157833
_cell_formula_units_Z   1
loop_
 _symmetry_equiv_pos_site_id
 _symmetry_equiv_pos_as_xyz
  1  'x, y, z'
loop_
 _atom_site_type_symbol
 _atom_site_label
 _atom_site_symmetry_multiplicity
 _atom_site_fract_x
 _atom_site_fract_y
 _atom_site_fract_z
 _atom_site_occupancy
  Tb  Tb0  1  0.350207  0.350202  0.352914  1
  Tb  Tb1  1  0.346408  0.346405  0.954447  1
  Tb  Tb2  1  0.345001  0.955261  0.347874  1
  Tb  Tb3  1  0.955230  0.345021  0.347895  1
  Tb  Tb4  1  0.817136  0.189659  0.185733  1
  Tb  Tb5  1  0.188708  0.811385  0.809135  1
  Tb  Tb6  1  0.189664  0.817140  0.185719  1
  Tb  Tb7  1  0.811405  0.188707  0.809131  1
  Tb  Tb8  1  0.186808  0.186793  0.817518  1
  Pr  Pr9  1  0.810840  0.810831  0.185440  1
  Pr  Pr10  1  0.940113  0.560769  0.563449  1
  Pr  Pr11  1  0.555289  0.941089  0.938680  1
  Pr  Pr12  1  0.560754  0.940096  0.563458  1
  Pr  Pr13  1  0.941087  0.555287  0.938657  1
  Pr  Pr14  1  0.561287  0.561297  0.938429  1
  Pr  Pr15  1  0.938792  0.938786  0.557566  1
  Cd  Cd16  1  0.578239  0.578232  0.580994  1
  Cd  Cd17  1  0.578584  0.578584  0.260960  1
  Cd  Cd18  1  0.579956  0.260368  0.579345  1
  Cd  Cd19  1  0.260368  0.579948  0.579349  1
  Ru  Ru20  1  0.141815  0.141850  0.143060  1
  Pt  Pt21  1  0.143192  0.143193  0.573723  1
  Pt  Pt22  1  0.149297  0.569808  0.143262  1
  Pt  Pt23  1  0.569818  0.149291  0.143255  1
