# generated using pymatgen
data_Ca2DyHo(NiB4)4
_symmetry_space_group_name_H-M   'P 1'
_cell_length_a   6.83770874
_cell_length_b   6.83770919
_cell_length_c   6.83771000
_cell_angle_alpha   112.90625567
_cell_angle_beta   112.90625604
_cell_angle_gamma   102.80014841
_symmetry_Int_Tables_number   1
_chemical_formula_structural   Ca2DyHo(NiB4)4
_chemical_formula_sum   'Ca2 Dy1 Ho1 Ni4 B16'
_cell_volume   243.63717952
_cell_formula_units_Z   1
loop_
 _symmetry_equiv_pos_site_id
 _symmetry_equiv_pos_as_xyz
  1  'x, y, z'
loop_
 _atom_site_type_symbol
 _atom_site_label
 _atom_site_symmetry_multiplicity
 _atom_site_fract_x
 _atom_site_fract_y
 _atom_site_fract_z
 _atom_site_occupancy
  Ca  Ca0  1  0.797825  0.797825  0.000000  1
  Ca  Ca1  1  0.202175  0.202175  0.000000  1
  Dy  Dy2  1  0.750000  0.250000  0.500000  1
  Ho  Ho3  1  0.250000  0.750000  0.500000  1
  Ni  Ni4  1  0.272249  0.500019  0.772230  1
  Ni  Ni5  1  0.727788  0.500019  0.227770  1
  Ni  Ni6  1  0.499981  0.727751  0.227770  1
  Ni  Ni7  1  0.499981  0.272212  0.772230  1
  B  B8  1  0.276961  0.112312  0.389281  1
  B  B9  1  0.723032  0.887681  0.610719  1
  B  B10  1  0.276961  0.887681  0.164649  1
  B  B11  1  0.723032  0.112312  0.835351  1
  B  B12  1  0.112319  0.723039  0.835351  1
  B  B13  1  0.887688  0.276968  0.164649  1
  B  B14  1  0.112319  0.276968  0.389281  1
  B  B15  1  0.887688  0.723039  0.610719  1
  B  B16  1  0.113282  0.113258  0.530482  1
  B  B17  1  0.582777  0.582801  0.469518  1
  B  B18  1  0.113282  0.582801  0.000024  1
  B  B19  1  0.582777  0.113258  0.999976  1
  B  B20  1  0.886742  0.886718  0.469518  1
  B  B21  1  0.417199  0.417223  0.530482  1
  B  B22  1  0.886742  0.417223  0.000024  1
  B  B23  1  0.417199  0.886718  0.999976  1
