# generated using pymatgen
data_YbErTiSbO7
_symmetry_space_group_name_H-M   'P 1'
_cell_length_a   7.26895400
_cell_length_b   7.26895400
_cell_length_c   10.25363800
_cell_angle_alpha   90.00000000
_cell_angle_beta   90.00000000
_cell_angle_gamma   90.00000000
_symmetry_Int_Tables_number   1
_chemical_formula_structural   YbErTiSbO7
_chemical_formula_sum   'Yb4 Er4 Ti4 Sb4 O28'
_cell_volume   541.77856913
_cell_formula_units_Z   4
loop_
 _symmetry_equiv_pos_site_id
 _symmetry_equiv_pos_as_xyz
  1  'x, y, z'
loop_
 _atom_site_type_symbol
 _atom_site_label
 _atom_site_symmetry_multiplicity
 _atom_site_fract_x
 _atom_site_fract_y
 _atom_site_fract_z
 _atom_site_occupancy
  Yb  Yb0  1  0.000000  0.752234  0.000000  1
  Yb  Yb1  1  0.752234  0.000000  0.750000  1
  Yb  Yb2  1  0.000000  0.247766  0.500000  1
  Yb  Yb3  1  0.247766  0.000000  0.250000  1
  Er  Er4  1  0.500000  0.235939  0.500000  1
  Er  Er5  1  0.500000  0.764061  0.000000  1
  Er  Er6  1  0.764061  0.500000  0.750000  1
  Er  Er7  1  0.235939  0.500000  0.250000  1
  Ti  Ti8  1  0.760068  0.000000  0.250000  1
  Ti  Ti9  1  0.000000  0.760068  0.500000  1
  Ti  Ti10  1  0.000000  0.239932  0.000000  1
  Ti  Ti11  1  0.239932  0.000000  0.750000  1
  Sb  Sb12  1  0.245027  0.500000  0.750000  1
  Sb  Sb13  1  0.500000  0.754973  0.500000  1
  Sb  Sb14  1  0.500000  0.245027  0.000000  1
  Sb  Sb15  1  0.754973  0.500000  0.250000  1
  O  O16  1  0.257226  0.742774  0.125000  1
  O  O17  1  0.548711  0.958591  0.376429  1
  O  O18  1  0.751138  0.742607  0.577546  1
  O  O19  1  0.742774  0.257226  0.625000  1
  O  O20  1  0.742607  0.751138  0.172454  1
  O  O21  1  0.944546  0.944546  0.375000  1
  O  O22  1  0.055454  0.055454  0.875000  1
  O  O23  1  0.055454  0.944546  0.625000  1
  O  O24  1  0.041409  0.451289  0.873571  1
  O  O25  1  0.248862  0.257393  0.077546  1
  O  O26  1  0.248862  0.742607  0.422454  1
  O  O27  1  0.257393  0.751138  0.827546  1
  O  O28  1  0.257393  0.248862  0.672454  1
  O  O29  1  0.451289  0.041409  0.876429  1
  O  O30  1  0.451289  0.958591  0.623571  1
  O  O31  1  0.455657  0.455657  0.875000  1
  O  O32  1  0.544343  0.544343  0.375000  1
  O  O33  1  0.548711  0.041409  0.123571  1
  O  O34  1  0.544343  0.455657  0.125000  1
  O  O35  1  0.742607  0.248862  0.327546  1
  O  O36  1  0.751138  0.257393  0.922454  1
  O  O37  1  0.944546  0.055454  0.125000  1
  O  O38  1  0.958591  0.548711  0.373571  1
  O  O39  1  0.958591  0.451289  0.126429  1
  O  O40  1  0.041409  0.548711  0.626429  1
  O  O41  1  0.257226  0.257226  0.375000  1
  O  O42  1  0.455657  0.544343  0.625000  1
  O  O43  1  0.742774  0.742774  0.875000  1
