# generated using pymatgen
data_CeNd(SiIr2)2
_symmetry_space_group_name_H-M   'P 1'
_cell_length_a   18.06278592
_cell_length_b   4.09715758
_cell_length_c   4.09715700
_cell_angle_alpha   90.00000000
_cell_angle_beta   96.51217523
_cell_angle_gamma   96.51217486
_symmetry_Int_Tables_number   1
_chemical_formula_structural   CeNd(SiIr2)2
_chemical_formula_sum   'Ce2 Nd2 Si4 Ir8'
_cell_volume   299.28892635
_cell_formula_units_Z   2
loop_
 _symmetry_equiv_pos_site_id
 _symmetry_equiv_pos_as_xyz
  1  'x, y, z'
loop_
 _atom_site_type_symbol
 _atom_site_label
 _atom_site_symmetry_multiplicity
 _atom_site_fract_x
 _atom_site_fract_y
 _atom_site_fract_z
 _atom_site_occupancy
  Ce  Ce0  1  0.599010  0.799506  0.549504  1
  Ce  Ce1  1  0.099010  0.549506  0.799505  1
  Nd  Nd2  1  0.897725  0.448863  0.198864  1
  Nd  Nd3  1  0.397726  0.198863  0.448863  1
  Si  Si4  1  0.678051  0.339025  0.089026  1
  Si  Si5  1  0.178051  0.089025  0.339025  1
  Si  Si6  1  0.822944  0.911473  0.661471  1
  Si  Si7  1  0.322944  0.661473  0.911472  1
  Ir  Ir8  1  0.545474  0.272738  0.022738  1
  Ir  Ir9  1  0.749695  0.874849  0.124849  1
  Ir  Ir10  1  0.045474  0.022738  0.272737  1
  Ir  Ir11  1  0.249818  0.624910  0.374908  1
  Ir  Ir12  1  0.749818  0.374909  0.624908  1
  Ir  Ir13  1  0.957283  0.978643  0.728641  1
  Ir  Ir14  1  0.249695  0.124848  0.874849  1
  Ir  Ir15  1  0.457283  0.728643  0.978642  1
