# generated using pymatgen
data_Th8Ga(Si4Ru)3
_symmetry_space_group_name_H-M   'P 1'
_cell_length_a   8.28131400
_cell_length_b   8.28131547
_cell_length_c   8.39261100
_cell_angle_alpha   90.00000000
_cell_angle_beta   90.00000000
_cell_angle_gamma   119.99999412
_symmetry_Int_Tables_number   1
_chemical_formula_structural   Th8Ga(Si4Ru)3
_chemical_formula_sum   'Th8 Ga1 Si12 Ru3'
_cell_volume   498.45543116
_cell_formula_units_Z   1
loop_
 _symmetry_equiv_pos_site_id
 _symmetry_equiv_pos_as_xyz
  1  'x, y, z'
loop_
 _atom_site_type_symbol
 _atom_site_label
 _atom_site_symmetry_multiplicity
 _atom_site_fract_x
 _atom_site_fract_y
 _atom_site_fract_z
 _atom_site_occupancy
  Th  Th0  1  0.496335  0.503665  0.751967  1
  Th  Th1  1  0.496513  0.503487  0.248002  1
  Th  Th2  1  0.007328  0.503665  0.751967  1
  Th  Th3  1  0.006973  0.503487  0.248002  1
  Th  Th4  1  0.496335  0.992672  0.751967  1
  Th  Th5  1  0.496513  0.993027  0.248002  1
  Th  Th6  1  0.000000  0.000000  0.749539  1
  Th  Th7  1  0.000000  0.000000  0.250434  1
  Ga  Ga8  1  0.666667  0.333333  0.500355  1
  Si  Si9  1  0.832666  0.167334  0.999868  1
  Si  Si10  1  0.165575  0.834425  0.000102  1
  Si  Si11  1  0.334669  0.167334  0.999868  1
  Si  Si12  1  0.166908  0.833092  0.499844  1
  Si  Si13  1  0.668850  0.834425  0.000102  1
  Si  Si14  1  0.835434  0.164566  0.500067  1
  Si  Si15  1  0.832666  0.665331  0.999868  1
  Si  Si16  1  0.666184  0.833092  0.499844  1
  Si  Si17  1  0.165575  0.331150  0.000102  1
  Si  Si18  1  0.329133  0.164566  0.500067  1
  Si  Si19  1  0.166908  0.333816  0.499844  1
  Si  Si20  1  0.835434  0.670867  0.500067  1
  Ru  Ru21  1  0.666667  0.333333  0.999952  1
  Ru  Ru22  1  0.333333  0.666667  0.000224  1
  Ru  Ru23  1  0.333333  0.666667  0.499947  1
