# generated using pymatgen
data_TbY2Mg3PdRu2
_symmetry_space_group_name_H-M   'P 1'
_cell_length_a   7.28813818
_cell_length_b   7.28813837
_cell_length_c   4.09092300
_cell_angle_alpha   90.00000000
_cell_angle_beta   90.00000000
_cell_angle_gamma   119.83912601
_symmetry_Int_Tables_number   1
_chemical_formula_structural   TbY2Mg3PdRu2
_chemical_formula_sum   'Tb1 Y2 Mg3 Pd1 Ru2'
_cell_volume   188.48938073
_cell_formula_units_Z   1
loop_
 _symmetry_equiv_pos_site_id
 _symmetry_equiv_pos_as_xyz
  1  'x, y, z'
loop_
 _atom_site_type_symbol
 _atom_site_label
 _atom_site_symmetry_multiplicity
 _atom_site_fract_x
 _atom_site_fract_y
 _atom_site_fract_z
 _atom_site_occupancy
  Tb  Tb0  1  0.418280  0.418280  0.500000  1
  Y  Y1  1  0.000230  0.582206  0.500000  1
  Y  Y2  1  0.582206  0.000230  0.500000  1
  Mg  Mg3  1  0.753487  0.753487  0.000000  1
  Mg  Mg4  1  0.246910  0.999671  0.000000  1
  Mg  Mg5  1  0.999671  0.246910  0.000000  1
  Pd  Pd6  1  0.000205  0.000205  0.500000  1
  Ru  Ru7  1  0.665731  0.333281  0.000000  1
  Ru  Ru8  1  0.333281  0.665731  0.000000  1
