# generated using pymatgen
data_Yb2DyTm(NiB4)4
_symmetry_space_group_name_H-M   'P 1'
_cell_length_a   6.81007838
_cell_length_b   6.81007986
_cell_length_c   6.81007950
_cell_angle_alpha   112.85990866
_cell_angle_beta   112.85990750
_cell_angle_gamma   102.88774274
_symmetry_Int_Tables_number   1
_chemical_formula_structural   Yb2DyTm(NiB4)4
_chemical_formula_sum   'Yb2 Dy1 Tm1 Ni4 B16'
_cell_volume   240.75846633
_cell_formula_units_Z   1
loop_
 _symmetry_equiv_pos_site_id
 _symmetry_equiv_pos_as_xyz
  1  'x, y, z'
loop_
 _atom_site_type_symbol
 _atom_site_label
 _atom_site_symmetry_multiplicity
 _atom_site_fract_x
 _atom_site_fract_y
 _atom_site_fract_z
 _atom_site_occupancy
  Yb  Yb0  1  0.796270  0.796270  0.000000  1
  Yb  Yb1  1  0.203730  0.203730  0.000000  1
  Dy  Dy2  1  0.250000  0.750000  0.500000  1
  Tm  Tm3  1  0.750000  0.250000  0.500000  1
  Ni  Ni4  1  0.272082  0.499435  0.772647  1
  Ni  Ni5  1  0.726789  0.499435  0.227353  1
  Ni  Ni6  1  0.500565  0.727918  0.227353  1
  Ni  Ni7  1  0.500565  0.273211  0.772647  1
  B  B8  1  0.276102  0.111883  0.388296  1
  B  B9  1  0.723586  0.887806  0.611704  1
  B  B10  1  0.276102  0.887806  0.164220  1
  B  B11  1  0.723586  0.111883  0.835780  1
  B  B12  1  0.112194  0.723898  0.835780  1
  B  B13  1  0.888117  0.276414  0.164220  1
  B  B14  1  0.112194  0.276414  0.388296  1
  B  B15  1  0.888117  0.723898  0.611704  1
  B  B16  1  0.113078  0.113998  0.531024  1
  B  B17  1  0.582973  0.582053  0.468976  1
  B  B18  1  0.113078  0.582053  0.999080  1
  B  B19  1  0.582973  0.113998  0.000920  1
  B  B20  1  0.886002  0.886922  0.468976  1
  B  B21  1  0.417947  0.417027  0.531024  1
  B  B22  1  0.886002  0.417027  0.999080  1
  B  B23  1  0.417947  0.886922  0.000920  1
