# generated using pymatgen
data_K5BaTe6
_symmetry_space_group_name_H-M   'P 1'
_cell_length_a   9.59800100
_cell_length_b   9.60284387
_cell_length_c   6.45967600
_cell_angle_alpha   90.00000000
_cell_angle_beta   90.00000000
_cell_angle_gamma   119.98332219
_symmetry_Int_Tables_number   1
_chemical_formula_structural   K5BaTe6
_chemical_formula_sum   'K5 Ba1 Te6'
_cell_volume   515.69745426
_cell_formula_units_Z   1
loop_
 _symmetry_equiv_pos_site_id
 _symmetry_equiv_pos_as_xyz
  1  'x, y, z'
loop_
 _atom_site_type_symbol
 _atom_site_label
 _atom_site_symmetry_multiplicity
 _atom_site_fract_x
 _atom_site_fract_y
 _atom_site_fract_z
 _atom_site_occupancy
  K  K0  1  0.674203  0.000000  0.000000  1
  K  K1  1  0.338533  0.350604  0.000000  1
  K  K2  1  0.987929  0.649396  0.000000  1
  K  K3  1  0.671555  0.672160  0.500000  1
  K  K4  1  0.999395  0.327840  0.500000  1
  Ba  Ba5  1  0.329878  0.000000  0.500000  1
  Te  Te6  1  0.010218  0.000000  0.236867  1
  Te  Te7  1  0.010218  0.000000  0.763133  1
  Te  Te8  1  0.332764  0.676493  0.261581  1
  Te  Te9  1  0.332764  0.676493  0.738419  1
  Te  Te10  1  0.656272  0.323507  0.738419  1
  Te  Te11  1  0.656272  0.323507  0.261581  1
