# generated using pymatgen
data_Er3Al12Fe2CuRu
_symmetry_space_group_name_H-M   'P 1'
_cell_length_a   8.71027197
_cell_length_b   8.69253323
_cell_length_c   9.33242900
_cell_angle_alpha   90.00000000
_cell_angle_beta   90.00000000
_cell_angle_gamma   119.41591909
_symmetry_Int_Tables_number   1
_chemical_formula_structural   Er3Al12Fe2CuRu
_chemical_formula_sum   'Er6 Al24 Fe4 Cu2 Ru2'
_cell_volume   615.50205602
_cell_formula_units_Z   2
loop_
 _symmetry_equiv_pos_site_id
 _symmetry_equiv_pos_as_xyz
  1  'x, y, z'
loop_
 _atom_site_type_symbol
 _atom_site_label
 _atom_site_symmetry_multiplicity
 _atom_site_fract_x
 _atom_site_fract_y
 _atom_site_fract_z
 _atom_site_occupancy
  Er  Er0  1  0.188499  0.385921  0.250000  1
  Er  Er1  1  0.811501  0.614079  0.750000  1
  Er  Er2  1  0.614710  0.811864  0.250000  1
  Er  Er3  1  0.385290  0.188136  0.750000  1
  Er  Er4  1  0.195697  0.804645  0.250000  1
  Er  Er5  1  0.804303  0.195355  0.750000  1
  Al  Al6  1  0.335111  0.673917  0.018495  1
  Al  Al7  1  0.664889  0.326083  0.981505  1
  Al  Al8  1  0.664889  0.326083  0.518495  1
  Al  Al9  1  0.335111  0.673917  0.481505  1
  Al  Al10  1  0.154477  0.317759  0.577463  1
  Al  Al11  1  0.845523  0.682241  0.422537  1
  Al  Al12  1  0.680543  0.848120  0.576611  1
  Al  Al13  1  0.845523  0.682241  0.077463  1
  Al  Al14  1  0.319457  0.151880  0.423389  1
  Al  Al15  1  0.154477  0.317759  0.922537  1
  Al  Al16  1  0.164471  0.841267  0.576757  1
  Al  Al17  1  0.319457  0.151880  0.076611  1
  Al  Al18  1  0.835529  0.158733  0.423243  1
  Al  Al19  1  0.680543  0.848120  0.923389  1
  Al  Al20  1  0.835529  0.158733  0.076757  1
  Al  Al21  1  0.164471  0.841267  0.923243  1
  Al  Al22  1  0.558203  0.117592  0.250000  1
  Al  Al23  1  0.441797  0.882408  0.750000  1
  Al  Al24  1  0.876283  0.438628  0.250000  1
  Al  Al25  1  0.123717  0.561372  0.750000  1
  Al  Al26  1  0.560593  0.438659  0.250000  1
  Al  Al27  1  0.439407  0.561341  0.750000  1
  Al  Al28  1  0.998311  0.001218  0.250000  1
  Al  Al29  1  0.001689  0.998782  0.750000  1
  Fe  Fe30  1  0.500000  0.000000  0.000000  1
  Fe  Fe31  1  0.500000  0.000000  0.500000  1
  Fe  Fe32  1  0.000000  0.000000  0.000000  1
  Fe  Fe33  1  0.000000  0.000000  0.500000  1
  Cu  Cu34  1  0.500000  0.500000  0.000000  1
  Cu  Cu35  1  0.500000  0.500000  0.500000  1
  Ru  Ru36  1  0.000000  0.500000  0.000000  1
  Ru  Ru37  1  0.000000  0.500000  0.500000  1
