# generated using pymatgen
data_Ho2As3Rh4
_symmetry_space_group_name_H-M   'P 1'
_cell_length_a   13.46148900
_cell_length_b   13.46148973
_cell_length_c   4.04851600
_cell_angle_alpha   90.00000000
_cell_angle_beta   90.00000000
_cell_angle_gamma   120.00000067
_symmetry_Int_Tables_number   1
_chemical_formula_structural   Ho2As3Rh4
_chemical_formula_sum   'Ho8 As12 Rh16'
_cell_volume   635.34953088
_cell_formula_units_Z   4
loop_
 _symmetry_equiv_pos_site_id
 _symmetry_equiv_pos_as_xyz
  1  'x, y, z'
loop_
 _atom_site_type_symbol
 _atom_site_label
 _atom_site_symmetry_multiplicity
 _atom_site_fract_x
 _atom_site_fract_y
 _atom_site_fract_z
 _atom_site_occupancy
  Ho  Ho0  1  0.188392  0.188392  0.500000  1
  Ho  Ho1  1  0.811608  0.000000  0.500000  1
  Ho  Ho2  1  0.000000  0.811608  0.500000  1
  Ho  Ho3  1  0.333333  0.666667  0.000000  1
  Ho  Ho4  1  0.666667  0.333333  0.000000  1
  Ho  Ho5  1  0.558212  0.558212  0.000000  1
  Ho  Ho6  1  0.441788  0.000000  0.000000  1
  Ho  Ho7  1  0.000000  0.441788  0.000000  1
  As  As8  1  0.824525  0.824525  0.000000  1
  As  As9  1  0.175475  0.000000  0.000000  1
  As  As10  1  0.000000  0.175475  0.000000  1
  As  As11  1  0.174742  0.486504  0.500000  1
  As  As12  1  0.513496  0.688239  0.500000  1
  As  As13  1  0.311761  0.825258  0.500000  1
  As  As14  1  0.688239  0.513496  0.500000  1
  As  As15  1  0.825258  0.311761  0.500000  1
  As  As16  1  0.486504  0.174742  0.500000  1
  As  As17  1  0.349334  0.349334  0.000000  1
  As  As18  1  0.650666  0.000000  0.000000  1
  As  As19  1  0.000000  0.650666  0.000000  1
  Rh  Rh20  1  0.723672  0.723672  0.500000  1
  Rh  Rh21  1  0.276328  0.000000  0.500000  1
  Rh  Rh22  1  0.000000  0.276328  0.500000  1
  Rh  Rh23  1  0.176984  0.373953  0.000000  1
  Rh  Rh24  1  0.626047  0.803032  0.000000  1
  Rh  Rh25  1  0.196968  0.823016  0.000000  1
  Rh  Rh26  1  0.803032  0.626047  0.000000  1
  Rh  Rh27  1  0.823016  0.196968  0.000000  1
  Rh  Rh28  1  0.373953  0.176984  0.000000  1
  Rh  Rh29  1  0.354223  0.480725  0.500000  1
  Rh  Rh30  1  0.519275  0.873499  0.500000  1
  Rh  Rh31  1  0.126501  0.645777  0.500000  1
  Rh  Rh32  1  0.873499  0.519275  0.500000  1
  Rh  Rh33  1  0.645777  0.126501  0.500000  1
  Rh  Rh34  1  0.480725  0.354223  0.500000  1
  Rh  Rh35  1  0.000000  0.000000  0.000000  1
