# generated using pymatgen
data_Sr5Yb(TmSn2)4
_symmetry_space_group_name_H-M   'P 1'
_cell_length_a   8.05819243
_cell_length_b   8.59630921
_cell_length_c   16.35660518
_cell_angle_alpha   90.01252202
_cell_angle_beta   90.03125098
_cell_angle_gamma   90.28171984
_symmetry_Int_Tables_number   1
_chemical_formula_structural   Sr5Yb(TmSn2)4
_chemical_formula_sum   'Sr10 Yb2 Tm8 Sn16'
_cell_volume   1133.01982360
_cell_formula_units_Z   2
loop_
 _symmetry_equiv_pos_site_id
 _symmetry_equiv_pos_as_xyz
  1  'x, y, z'
loop_
 _atom_site_type_symbol
 _atom_site_label
 _atom_site_symmetry_multiplicity
 _atom_site_fract_x
 _atom_site_fract_y
 _atom_site_fract_z
 _atom_site_occupancy
  Sr  Sr0  1  0.177944  0.330615  0.618712  1
  Sr  Sr1  1  0.503374  0.681633  0.593200  1
  Sr  Sr2  1  0.001993  0.819263  0.910489  1
  Sr  Sr3  1  0.494405  0.317479  0.093609  1
  Sr  Sr4  1  0.996104  0.183945  0.404770  1
  Sr  Sr5  1  0.495898  0.317320  0.405471  1
  Sr  Sr6  1  0.995633  0.182988  0.093612  1
  Sr  Sr7  1  0.503515  0.681698  0.908739  1
  Sr  Sr8  1  0.003272  0.817477  0.590692  1
  Sr  Sr9  1  0.332421  0.989901  0.750209  1
  Yb  Yb10  1  0.163459  0.492949  0.248924  1
  Yb  Yb11  1  0.665380  0.006100  0.250219  1
  Tm  Tm12  1  0.674468  0.165392  0.621840  1
  Tm  Tm13  1  0.171704  0.333833  0.879672  1
  Tm  Tm14  1  0.326878  0.833004  0.122993  1
  Tm  Tm15  1  0.827783  0.666349  0.375682  1
  Tm  Tm16  1  0.328028  0.833682  0.374731  1
  Tm  Tm17  1  0.827636  0.666816  0.122585  1
  Tm  Tm18  1  0.671920  0.165867  0.880834  1
  Tm  Tm19  1  0.838685  0.507063  0.750041  1
  Sn  Sn20  1  0.670267  0.957162  0.457681  1
  Sn  Sn21  1  0.162946  0.540272  0.041318  1
  Sn  Sn22  1  0.335750  0.041424  0.961727  1
  Sn  Sn23  1  0.825466  0.464927  0.541244  1
  Sn  Sn24  1  0.348253  0.031899  0.536086  1
  Sn  Sn25  1  0.835485  0.462184  0.956001  1
  Sn  Sn26  1  0.664070  0.959368  0.042194  1
  Sn  Sn27  1  0.158762  0.546822  0.452292  1
  Sn  Sn28  1  0.483019  0.381173  0.756978  1
  Sn  Sn29  1  0.956526  0.136720  0.754309  1
  Sn  Sn30  1  0.530079  0.632702  0.249260  1
  Sn  Sn31  1  0.029587  0.867369  0.248078  1
  Sn  Sn32  1  0.725684  0.870554  0.751384  1
  Sn  Sn33  1  0.207771  0.614054  0.756136  1
  Sn  Sn34  1  0.284146  0.115701  0.249212  1
  Sn  Sn35  1  0.781691  0.384296  0.249078  1
