# generated using pymatgen
data_Ce2Al20Os3Rh
_symmetry_space_group_name_H-M   'P 1'
_cell_length_a   6.88307564
_cell_length_b   6.87385187
_cell_length_c   9.18102556
_cell_angle_alpha   90.12382903
_cell_angle_beta   90.25331262
_cell_angle_gamma   97.27587447
_symmetry_Int_Tables_number   1
_chemical_formula_structural   Ce2Al20Os3Rh
_chemical_formula_sum   'Ce2 Al20 Os3 Rh1'
_cell_volume   430.88053252
_cell_formula_units_Z   1
loop_
 _symmetry_equiv_pos_site_id
 _symmetry_equiv_pos_as_xyz
  1  'x, y, z'
loop_
 _atom_site_type_symbol
 _atom_site_label
 _atom_site_symmetry_multiplicity
 _atom_site_fract_x
 _atom_site_fract_y
 _atom_site_fract_z
 _atom_site_occupancy
  Ce  Ce0  1  0.877776  0.128084  0.749522  1
  Ce  Ce1  1  0.122224  0.871916  0.250478  1
  Al  Al2  1  0.589433  0.857853  0.250001  1
  Al  Al3  1  0.778438  0.518064  0.249756  1
  Al  Al4  1  0.158356  0.841389  0.896582  1
  Al  Al5  1  0.410567  0.142147  0.749999  1
  Al  Al6  1  0.623414  0.378898  0.948082  1
  Al  Al7  1  0.841697  0.157600  0.397839  1
  Al  Al8  1  0.777493  0.777783  0.000126  1
  Al  Al9  1  0.858816  0.591883  0.749664  1
  Al  Al10  1  0.841644  0.158611  0.103418  1
  Al  Al11  1  0.221562  0.481936  0.750244  1
  Al  Al12  1  0.158303  0.842400  0.602161  1
  Al  Al13  1  0.779258  0.779357  0.498979  1
  Al  Al14  1  0.480553  0.223231  0.252832  1
  Al  Al15  1  0.623254  0.377341  0.549696  1
  Al  Al16  1  0.220742  0.220643  0.501021  1
  Al  Al17  1  0.376746  0.622659  0.450304  1
  Al  Al18  1  0.141184  0.408117  0.250336  1
  Al  Al19  1  0.519447  0.776769  0.747168  1
  Al  Al20  1  0.376586  0.621102  0.051918  1
  Al  Al21  1  0.222507  0.222217  0.999874  1
  Os  Os22  1  0.500000  0.000000  0.500000  1
  Os  Os23  1  0.000000  0.500000  0.000000  1
  Os  Os24  1  0.000000  0.500000  0.500000  1
  Rh  Rh25  1  0.500000  0.000000  0.000000  1
