# generated using pymatgen
data_Li4NdPu3Ge8
_symmetry_space_group_name_H-M   'P 1'
_cell_length_a   3.92712800
_cell_length_b   7.86395192
_cell_length_c   10.51281416
_cell_angle_alpha   90.10039296
_cell_angle_beta   90.00000000
_cell_angle_gamma   90.00000000
_symmetry_Int_Tables_number   1
_chemical_formula_structural   Li4NdPu3Ge8
_chemical_formula_sum   'Li4 Nd1 Pu3 Ge8'
_cell_volume   324.66406893
_cell_formula_units_Z   1
loop_
 _symmetry_equiv_pos_site_id
 _symmetry_equiv_pos_as_xyz
  1  'x, y, z'
loop_
 _atom_site_type_symbol
 _atom_site_label
 _atom_site_symmetry_multiplicity
 _atom_site_fract_x
 _atom_site_fract_y
 _atom_site_fract_z
 _atom_site_occupancy
  Li  Li0  1  0.250000  0.485354  0.393838  1
  Li  Li1  1  0.250000  0.988055  0.106120  1
  Li  Li2  1  0.750000  0.514355  0.605962  1
  Li  Li3  1  0.750000  0.013158  0.893119  1
  Nd  Nd4  1  0.750000  0.365222  0.135098  1
  Pu  Pu5  1  0.250000  0.132804  0.635063  1
  Pu  Pu6  1  0.250000  0.636663  0.862930  1
  Pu  Pu7  1  0.750000  0.863708  0.366460  1
  Ge  Ge8  1  0.250000  0.228674  0.932970  1
  Ge  Ge9  1  0.250000  0.730985  0.562890  1
  Ge  Ge10  1  0.750000  0.767389  0.060815  1
  Ge  Ge11  1  0.750000  0.267878  0.440418  1
  Ge  Ge12  1  0.250000  0.150125  0.316307  1
  Ge  Ge13  1  0.250000  0.660654  0.189486  1
  Ge  Ge14  1  0.750000  0.847304  0.686842  1
  Ge  Ge15  1  0.750000  0.347671  0.811683  1
