# generated using pymatgen
data_TlZnIn(SeO3)4
_symmetry_space_group_name_H-M   'P 1'
_cell_length_a   5.00279200
_cell_length_b   8.76865908
_cell_length_c   15.85947997
_cell_angle_alpha   68.26536396
_cell_angle_beta   90.00000000
_cell_angle_gamma   90.00000000
_symmetry_Int_Tables_number   1
_chemical_formula_structural   TlZnIn(SeO3)4
_chemical_formula_sum   'Tl2 Zn2 In2 Se8 O24'
_cell_volume   646.26061815
_cell_formula_units_Z   2
loop_
 _symmetry_equiv_pos_site_id
 _symmetry_equiv_pos_as_xyz
  1  'x, y, z'
loop_
 _atom_site_type_symbol
 _atom_site_label
 _atom_site_symmetry_multiplicity
 _atom_site_fract_x
 _atom_site_fract_y
 _atom_site_fract_z
 _atom_site_occupancy
  Tl  Tl0  1  0.531626  0.160023  0.785116  1
  Tl  Tl1  1  0.968374  0.160023  0.285116  1
  Zn  Zn2  1  0.992435  0.998506  0.000790  1
  Zn  Zn3  1  0.507565  0.998506  0.500790  1
  In  In4  1  0.465772  0.844645  0.213581  1
  In  In5  1  0.034228  0.844645  0.713581  1
  Se  Se6  1  0.572750  0.774520  0.888931  1
  Se  Se7  1  0.927250  0.774520  0.388931  1
  Se  Se8  1  0.421007  0.218781  0.107042  1
  Se  Se9  1  0.078993  0.218781  0.607042  1
  Se  Se10  1  0.998303  0.343189  0.874882  1
  Se  Se11  1  0.501697  0.343189  0.374882  1
  Se  Se12  1  0.995669  0.658893  0.130024  1
  Se  Se13  1  0.504331  0.658893  0.630024  1
  O  O14  1  0.775020  0.370163  0.787039  1
  O  O15  1  0.724980  0.370163  0.287039  1
  O  O16  1  0.230803  0.642745  0.213011  1
  O  O17  1  0.269197  0.642745  0.713011  1
  O  O18  1  0.823713  0.708556  0.836717  1
  O  O19  1  0.676287  0.708556  0.336717  1
  O  O20  1  0.177288  0.299427  0.155149  1
  O  O21  1  0.322712  0.299427  0.655149  1
  O  O22  1  0.194087  0.172507  0.879577  1
  O  O23  1  0.305913  0.172507  0.379577  1
  O  O24  1  0.791134  0.827288  0.125246  1
  O  O25  1  0.708866  0.827288  0.625246  1
  O  O26  1  0.703985  0.945410  0.905883  1
  O  O27  1  0.796015  0.945410  0.405883  1
  O  O28  1  0.280715  0.044669  0.096311  1
  O  O29  1  0.219285  0.044669  0.596311  1
  O  O30  1  0.366791  0.896324  0.799645  1
  O  O31  1  0.133209  0.896324  0.299645  1
  O  O32  1  0.616356  0.096003  0.199354  1
  O  O33  1  0.883644  0.096003  0.699354  1
  O  O34  1  0.827983  0.227579  0.971561  1
  O  O35  1  0.672017  0.227579  0.471561  1
  O  O36  1  0.153804  0.770772  0.030141  1
  O  O37  1  0.346196  0.770772  0.530141  1
