# generated using pymatgen
data_Sc2FeSn(BIr2)2
_symmetry_space_group_name_H-M   'P 1'
_cell_length_a   9.44706500
_cell_length_b   9.44706500
_cell_length_c   3.09190000
_cell_angle_alpha   90.00000000
_cell_angle_beta   90.00000000
_cell_angle_gamma   90.00000000
_symmetry_Int_Tables_number   1
_chemical_formula_structural   Sc2FeSn(BIr2)2
_chemical_formula_sum   'Sc4 Fe2 Sn2 B4 Ir8'
_cell_volume   275.94291405
_cell_formula_units_Z   2
loop_
 _symmetry_equiv_pos_site_id
 _symmetry_equiv_pos_as_xyz
  1  'x, y, z'
loop_
 _atom_site_type_symbol
 _atom_site_label
 _atom_site_symmetry_multiplicity
 _atom_site_fract_x
 _atom_site_fract_y
 _atom_site_fract_z
 _atom_site_occupancy
  Sc  Sc0  1  0.672248  0.172248  0.000000  1
  Sc  Sc1  1  0.327752  0.827752  0.000000  1
  Sc  Sc2  1  0.172248  0.327752  0.000000  1
  Sc  Sc3  1  0.827752  0.672248  0.000000  1
  Fe  Fe4  1  0.500000  0.000000  0.500000  1
  Fe  Fe5  1  0.000000  0.500000  0.500000  1
  Sn  Sn6  1  0.000000  0.000000  0.000000  1
  Sn  Sn7  1  0.500000  0.500000  0.000000  1
  B  B8  1  0.109685  0.609685  0.000000  1
  B  B9  1  0.890315  0.390315  0.000000  1
  B  B10  1  0.609685  0.890315  0.000000  1
  B  B11  1  0.390315  0.109685  0.000000  1
  Ir  Ir12  1  0.228275  0.066651  0.500000  1
  Ir  Ir13  1  0.771725  0.933349  0.500000  1
  Ir  Ir14  1  0.066651  0.771725  0.500000  1
  Ir  Ir15  1  0.728275  0.433349  0.500000  1
  Ir  Ir16  1  0.933349  0.228275  0.500000  1
  Ir  Ir17  1  0.271725  0.566651  0.500000  1
  Ir  Ir18  1  0.566651  0.728275  0.500000  1
  Ir  Ir19  1  0.433349  0.271725  0.500000  1
