# generated using pymatgen
data_La3Sm5(SiBr6)2
_symmetry_space_group_name_H-M   'P 1'
_cell_length_a   4.20744600
_cell_length_b   13.66996193
_cell_length_c   14.53595615
_cell_angle_alpha   90.42509023
_cell_angle_beta   90.00000000
_cell_angle_gamma   90.00000000
_symmetry_Int_Tables_number   1
_chemical_formula_structural   La3Sm5(SiBr6)2
_chemical_formula_sum   'La3 Sm5 Si2 Br12'
_cell_volume   836.02161704
_cell_formula_units_Z   1
loop_
 _symmetry_equiv_pos_site_id
 _symmetry_equiv_pos_as_xyz
  1  'x, y, z'
loop_
 _atom_site_type_symbol
 _atom_site_label
 _atom_site_symmetry_multiplicity
 _atom_site_fract_x
 _atom_site_fract_y
 _atom_site_fract_z
 _atom_site_occupancy
  La  La0  1  0.500000  0.121433  0.338031  1
  La  La1  1  0.500000  0.879005  0.662396  1
  La  La2  1  0.500000  0.621209  0.162054  1
  Sm  Sm3  1  0.500000  0.380850  0.840448  1
  Sm  Sm4  1  0.000000  0.119236  0.578912  1
  Sm  Sm5  1  0.000000  0.883185  0.423045  1
  Sm  Sm6  1  0.000000  0.615775  0.921505  1
  Sm  Sm7  1  0.000000  0.381842  0.075266  1
  Si  Si8  1  0.500000  0.001085  0.500768  1
  Si  Si9  1  0.500000  0.499416  0.999188  1
  Br  Br10  1  0.500000  0.247784  0.157998  1
  Br  Br11  1  0.500000  0.751421  0.841029  1
  Br  Br12  1  0.500000  0.747401  0.341093  1
  Br  Br13  1  0.500000  0.254114  0.663280  1
  Br  Br14  1  0.000000  0.258112  0.417189  1
  Br  Br15  1  0.000000  0.742086  0.583171  1
  Br  Br16  1  0.000000  0.757158  0.083172  1
  Br  Br17  1  0.000000  0.247625  0.909522  1
  Br  Br18  1  0.000000  0.995019  0.243946  1
  Br  Br19  1  0.000000  0.004873  0.756584  1
  Br  Br20  1  0.000000  0.495365  0.255242  1
  Br  Br21  1  0.000000  0.496006  0.746160  1
