# generated using pymatgen
data_Ho4Ga18Ir3Pd2Ru
_symmetry_space_group_name_H-M   'P 1'
_cell_length_a   7.60562453
_cell_length_b   7.60562457
_cell_length_c   9.50800967
_cell_angle_alpha   90.14353773
_cell_angle_beta   90.14353556
_cell_angle_gamma   119.75922622
_symmetry_Int_Tables_number   1
_chemical_formula_structural   Ho4Ga18Ir3Pd2Ru
_chemical_formula_sum   'Ho4 Ga18 Ir3 Pd2 Ru1'
_cell_volume   477.45580620
_cell_formula_units_Z   1
loop_
 _symmetry_equiv_pos_site_id
 _symmetry_equiv_pos_as_xyz
  1  'x, y, z'
loop_
 _atom_site_type_symbol
 _atom_site_label
 _atom_site_symmetry_multiplicity
 _atom_site_fract_x
 _atom_site_fract_y
 _atom_site_fract_z
 _atom_site_occupancy
  Ho  Ho0  1  0.996519  0.670527  0.249782  1
  Ho  Ho1  1  0.004497  0.330301  0.750018  1
  Ho  Ho2  1  0.669699  0.995503  0.249982  1
  Ho  Ho3  1  0.329473  0.003481  0.750218  1
  Ga  Ga4  1  0.129726  0.130632  0.249842  1
  Ga  Ga5  1  0.869368  0.870274  0.750158  1
  Ga  Ga6  1  0.996941  0.337794  0.080094  1
  Ga  Ga7  1  0.998313  0.660145  0.920028  1
  Ga  Ga8  1  0.000225  0.662892  0.581571  1
  Ga  Ga9  1  0.337108  0.999775  0.418429  1
  Ga  Ga10  1  0.999247  0.337483  0.418807  1
  Ga  Ga11  1  0.662517  0.000753  0.581193  1
  Ga  Ga12  1  0.662206  0.003059  0.919906  1
  Ga  Ga13  1  0.339855  0.001687  0.079972  1
  Ga  Ga14  1  0.335722  0.335965  0.568711  1
  Ga  Ga15  1  0.664035  0.664278  0.431289  1
  Ga  Ga16  1  0.664438  0.661835  0.066369  1
  Ga  Ga17  1  0.338165  0.335562  0.933631  1
  Ga  Ga18  1  0.335988  0.545240  0.249690  1
  Ga  Ga19  1  0.663397  0.451236  0.751791  1
  Ga  Ga20  1  0.548764  0.336603  0.248209  1
  Ga  Ga21  1  0.454760  0.664012  0.750310  1
  Ir  Ir22  1  0.328016  0.671984  0.000000  1
  Ir  Ir23  1  0.328069  0.671931  0.500000  1
  Ir  Ir24  1  0.671425  0.328575  0.500000  1
  Pd  Pd25  1  0.999609  0.000391  0.000000  1
  Pd  Pd26  1  0.999999  0.000001  0.500000  1
  Ru  Ru27  1  0.671920  0.328080  0.000000  1
