# generated using pymatgen
data_Gd3Cd3Au2
_symmetry_space_group_name_H-M   'P 1'
_cell_length_a   7.87228800
_cell_length_b   7.87228629
_cell_length_c   3.82128700
_cell_angle_alpha   90.00000000
_cell_angle_beta   90.00000000
_cell_angle_gamma   119.99999877
_symmetry_Int_Tables_number   1
_chemical_formula_structural   Gd3Cd3Au2
_chemical_formula_sum   'Gd3 Cd3 Au2'
_cell_volume   205.08889619
_cell_formula_units_Z   1
loop_
 _symmetry_equiv_pos_site_id
 _symmetry_equiv_pos_as_xyz
  1  'x, y, z'
loop_
 _atom_site_type_symbol
 _atom_site_label
 _atom_site_symmetry_multiplicity
 _atom_site_fract_x
 _atom_site_fract_y
 _atom_site_fract_z
 _atom_site_occupancy
  Gd  Gd0  1  0.586065  0.000000  0.500001  1
  Gd  Gd1  1  0.413935  0.413935  0.500001  1
  Gd  Gd2  1  0.000000  0.586065  0.500001  1
  Cd  Cd3  1  0.227557  0.000000  0.000000  1
  Cd  Cd4  1  0.000000  0.227558  0.000000  1
  Cd  Cd5  1  0.772443  0.772443  0.000000  1
  Au  Au6  1  0.666667  0.333334  0.000000  1
  Au  Au7  1  0.333334  0.666667  0.000000  1
