# generated using pymatgen
data_Ta3V5Si4
_symmetry_space_group_name_H-M   'P 1'
_cell_length_a   3.32993200
_cell_length_b   6.50253347
_cell_length_c   7.87378700
_cell_angle_alpha   90.21190346
_cell_angle_beta   90.00000000
_cell_angle_gamma   90.00000000
_symmetry_Int_Tables_number   1
_chemical_formula_structural   Ta3V5Si4
_chemical_formula_sum   'Ta3 V5 Si4'
_cell_volume   170.48989893
_cell_formula_units_Z   1
loop_
 _symmetry_equiv_pos_site_id
 _symmetry_equiv_pos_as_xyz
  1  'x, y, z'
loop_
 _atom_site_type_symbol
 _atom_site_label
 _atom_site_symmetry_multiplicity
 _atom_site_fract_x
 _atom_site_fract_y
 _atom_site_fract_z
 _atom_site_occupancy
  Ta  Ta0  1  0.250000  0.545752  0.168125  1
  Ta  Ta1  1  0.750000  0.451404  0.833820  1
  Ta  Ta2  1  0.750000  0.953467  0.666408  1
  V  V3  1  0.250000  0.047031  0.332372  1
  V  V4  1  0.250000  0.629407  0.559650  1
  V  V5  1  0.750000  0.370598  0.436973  1
  V  V6  1  0.750000  0.869952  0.061935  1
  V  V7  1  0.250000  0.129948  0.938868  1
  Si  Si8  1  0.250000  0.752259  0.861706  1
  Si  Si9  1  0.750000  0.239040  0.144421  1
  Si  Si10  1  0.750000  0.759962  0.361432  1
  Si  Si11  1  0.250000  0.251179  0.634289  1
