# generated using pymatgen
data_Ba5Er2Al2VO13
_symmetry_space_group_name_H-M   'P 1'
_cell_length_a   5.94058400
_cell_length_b   5.94058430
_cell_length_c   24.76305500
_cell_angle_alpha   90.00000000
_cell_angle_beta   90.00000000
_cell_angle_gamma   119.99999835
_symmetry_Int_Tables_number   1
_chemical_formula_structural   Ba5Er2Al2VO13
_chemical_formula_sum   'Ba10 Er4 Al4 V2 O26'
_cell_volume   756.82098440
_cell_formula_units_Z   2
loop_
 _symmetry_equiv_pos_site_id
 _symmetry_equiv_pos_as_xyz
  1  'x, y, z'
loop_
 _atom_site_type_symbol
 _atom_site_label
 _atom_site_symmetry_multiplicity
 _atom_site_fract_x
 _atom_site_fract_y
 _atom_site_fract_z
 _atom_site_occupancy
  Ba  Ba0  1  0.000000  0.000000  0.365144  1
  Ba  Ba1  1  0.666667  0.333333  0.958872  1
  Ba  Ba2  1  0.000000  0.000000  0.634856  1
  Ba  Ba3  1  0.000000  0.000000  0.865144  1
  Ba  Ba4  1  0.666667  0.333333  0.541128  1
  Ba  Ba5  1  0.333333  0.666667  0.458872  1
  Ba  Ba6  1  0.000000  0.000000  0.134856  1
  Ba  Ba7  1  0.333333  0.666667  0.041128  1
  Ba  Ba8  1  0.666667  0.333333  0.250000  1
  Ba  Ba9  1  0.333333  0.666667  0.750000  1
  Er  Er10  1  0.666667  0.333333  0.100390  1
  Er  Er11  1  0.333333  0.666667  0.899610  1
  Er  Er12  1  0.333333  0.666667  0.600390  1
  Er  Er13  1  0.666667  0.333333  0.399610  1
  Al  Al14  1  0.666667  0.333333  0.820230  1
  Al  Al15  1  0.333333  0.666667  0.179770  1
  Al  Al16  1  0.666667  0.333333  0.679770  1
  Al  Al17  1  0.333333  0.666667  0.320230  1
  V  V18  1  0.000000  0.000000  0.500000  1
  V  V19  1  0.000000  0.000000  0.000000  1
  O  O20  1  0.842019  0.684037  0.046718  1
  O  O21  1  0.842019  0.684037  0.453282  1
  O  O22  1  0.157981  0.842019  0.953282  1
  O  O23  1  0.157981  0.315963  0.546718  1
  O  O24  1  0.504063  0.495937  0.843750  1
  O  O25  1  0.842019  0.157981  0.046718  1
  O  O26  1  0.495937  0.991873  0.156250  1
  O  O27  1  0.008127  0.504063  0.156250  1
  O  O28  1  0.842019  0.157981  0.453282  1
  O  O29  1  0.315963  0.157981  0.046718  1
  O  O30  1  0.991873  0.495937  0.656250  1
  O  O31  1  0.504063  0.008127  0.656250  1
  O  O32  1  0.008127  0.504063  0.343750  1
  O  O33  1  0.684037  0.842019  0.546718  1
  O  O34  1  0.666667  0.333333  0.750000  1
  O  O35  1  0.495937  0.504063  0.343750  1
  O  O36  1  0.684037  0.842019  0.953282  1
  O  O37  1  0.504063  0.008127  0.843750  1
  O  O38  1  0.991873  0.495937  0.843750  1
  O  O39  1  0.504063  0.495937  0.656250  1
  O  O40  1  0.157981  0.842019  0.546718  1
  O  O41  1  0.157981  0.315963  0.953282  1
  O  O42  1  0.495937  0.504063  0.156250  1
  O  O43  1  0.315963  0.157981  0.453282  1
  O  O44  1  0.333333  0.666667  0.250000  1
  O  O45  1  0.495937  0.991873  0.343750  1
