# generated using pymatgen
data_Dy12FeIrI17
_symmetry_space_group_name_H-M   'P 1'
_cell_length_a   9.75834288
_cell_length_b   11.68845832
_cell_length_c   11.71048218
_cell_angle_alpha   93.36031953
_cell_angle_beta   104.83900705
_cell_angle_gamma   114.34336794
_symmetry_Int_Tables_number   1
_chemical_formula_structural   Dy12FeIrI17
_chemical_formula_sum   'Dy12 Fe1 Ir1 I17'
_cell_volume   1155.73507165
_cell_formula_units_Z   1
loop_
 _symmetry_equiv_pos_site_id
 _symmetry_equiv_pos_as_xyz
  1  'x, y, z'
loop_
 _atom_site_type_symbol
 _atom_site_label
 _atom_site_symmetry_multiplicity
 _atom_site_fract_x
 _atom_site_fract_y
 _atom_site_fract_z
 _atom_site_occupancy
  Dy  Dy0  1  0.049858  0.499838  0.318609  1
  Dy  Dy1  1  0.991818  0.812040  0.582557  1
  Dy  Dy2  1  0.655329  0.241817  0.281399  1
  Dy  Dy3  1  0.006545  0.192408  0.409365  1
  Dy  Dy4  1  0.222104  0.669004  0.988761  1
  Dy  Dy5  1  0.259200  0.985083  0.891605  1
  Dy  Dy6  1  0.354290  0.759213  0.715390  1
  Dy  Dy7  1  0.942494  0.489893  0.676911  1
  Dy  Dy8  1  0.748002  0.026051  0.112992  1
  Dy  Dy9  1  0.141269  0.285983  0.154393  1
  Dy  Dy10  1  0.782406  0.327753  0.019906  1
  Dy  Dy11  1  0.848418  0.711903  0.847968  1
  Fe  Fe12  1  0.895740  0.262178  0.214716  1
  Ir  Ir13  1  0.104281  0.737896  0.785252  1
  I  I14  1  0.783992  0.529390  0.418132  1
  I  I15  1  0.641586  0.417979  0.760522  1
  I  I16  1  0.843582  0.894155  0.327154  1
  I  I17  1  0.327424  0.212777  0.369033  1
  I  I18  1  0.156007  0.105715  0.673647  1
  I  I19  1  0.586857  0.053390  0.842566  1
  I  I20  1  0.755810  0.184881  0.539568  1
  I  I21  1  0.551992  0.708374  0.954045  1
  I  I22  1  0.358535  0.581755  0.240027  1
  I  I23  1  0.215866  0.470911  0.582757  1
  I  I24  1  0.056051  0.367307  0.896509  1
  I  I25  1  0.448293  0.291016  0.045457  1
  I  I26  1  0.999499  0.999218  0.999405  1
  I  I27  1  0.244427  0.814992  0.460232  1
  I  I28  1  0.412628  0.946039  0.156822  1
  I  I29  1  0.670596  0.787629  0.630502  1
  I  I30  1  0.945101  0.633415  0.103800  1
