# generated using pymatgen
data_Ho8Tm2Cd3Ru
_symmetry_space_group_name_H-M   'P 1'
_cell_length_a   9.52843018
_cell_length_b   9.52843071
_cell_length_c   9.78619604
_cell_angle_alpha   90.00840367
_cell_angle_beta   89.99159868
_cell_angle_gamma   120.02056393
_symmetry_Int_Tables_number   1
_chemical_formula_structural   Ho8Tm2Cd3Ru
_chemical_formula_sum   'Ho16 Tm4 Cd6 Ru2'
_cell_volume   769.30267581
_cell_formula_units_Z   2
loop_
 _symmetry_equiv_pos_site_id
 _symmetry_equiv_pos_as_xyz
  1  'x, y, z'
loop_
 _atom_site_type_symbol
 _atom_site_label
 _atom_site_symmetry_multiplicity
 _atom_site_fract_x
 _atom_site_fract_y
 _atom_site_fract_z
 _atom_site_occupancy
  Ho  Ho0  1  0.209676  0.790324  0.440589  1
  Ho  Ho1  1  0.209778  0.419459  0.440391  1
  Ho  Ho2  1  0.580541  0.790222  0.440391  1
  Ho  Ho3  1  0.790364  0.209636  0.559387  1
  Ho  Ho4  1  0.790366  0.580729  0.559361  1
  Ho  Ho5  1  0.419271  0.209634  0.559361  1
  Ho  Ho6  1  0.790428  0.209572  0.940769  1
  Ho  Ho7  1  0.790289  0.580811  0.940706  1
  Ho  Ho8  1  0.419189  0.209711  0.940706  1
  Ho  Ho9  1  0.209976  0.790024  0.059471  1
  Ho  Ho10  1  0.540779  0.459221  0.249764  1
  Ho  Ho11  1  0.541012  0.081820  0.249905  1
  Ho  Ho12  1  0.918180  0.458988  0.249905  1
  Ho  Ho13  1  0.458928  0.541072  0.750297  1
  Ho  Ho14  1  0.459086  0.917955  0.750174  1
  Ho  Ho15  1  0.082045  0.540914  0.750174  1
  Tm  Tm16  1  0.999998  0.000002  0.500112  1
  Tm  Tm17  1  0.999876  0.000124  0.000072  1
  Tm  Tm18  1  0.210066  0.419879  0.059441  1
  Tm  Tm19  1  0.580121  0.789934  0.059441  1
  Cd  Cd20  1  0.885756  0.114244  0.249903  1
  Cd  Cd21  1  0.885676  0.771481  0.249946  1
  Cd  Cd22  1  0.228519  0.114324  0.249946  1
  Cd  Cd23  1  0.114238  0.885762  0.750058  1
  Cd  Cd24  1  0.114283  0.228582  0.750134  1
  Cd  Cd25  1  0.771418  0.885717  0.750134  1
  Ru  Ru26  1  0.333469  0.666531  0.249509  1
  Ru  Ru27  1  0.666673  0.333327  0.749956  1
