# generated using pymatgen
data_Li3ZnSiPd3
_symmetry_space_group_name_H-M   'P 1'
_cell_length_a   6.87670843
_cell_length_b   6.87670844
_cell_length_c   6.87670790
_cell_angle_alpha   60.53263543
_cell_angle_beta   60.53262456
_cell_angle_gamma   60.53262628
_symmetry_Int_Tables_number   1
_chemical_formula_structural   Li3ZnSiPd3
_chemical_formula_sum   'Li6 Zn2 Si2 Pd6'
_cell_volume   232.71385551
_cell_formula_units_Z   2
loop_
 _symmetry_equiv_pos_site_id
 _symmetry_equiv_pos_as_xyz
  1  'x, y, z'
loop_
 _atom_site_type_symbol
 _atom_site_label
 _atom_site_symmetry_multiplicity
 _atom_site_fract_x
 _atom_site_fract_y
 _atom_site_fract_z
 _atom_site_occupancy
  Li  Li0  1  0.561909  0.839559  0.344526  1
  Li  Li1  1  0.344526  0.561909  0.839559  1
  Li  Li2  1  0.839559  0.344526  0.561909  1
  Li  Li3  1  0.655474  0.160441  0.438091  1
  Li  Li4  1  0.160441  0.438091  0.655474  1
  Li  Li5  1  0.438091  0.655474  0.160441  1
  Zn  Zn6  1  0.277015  0.277015  0.277015  1
  Zn  Zn7  1  0.722985  0.722985  0.722985  1
  Si  Si8  1  0.901611  0.901611  0.901611  1
  Si  Si9  1  0.098389  0.098389  0.098389  1
  Pd  Pd10  1  0.899584  0.500000  0.100416  1
  Pd  Pd11  1  0.100416  0.899584  0.500000  1
  Pd  Pd12  1  0.500000  0.100416  0.899584  1
  Pd  Pd13  1  0.265582  0.000000  0.734418  1
  Pd  Pd14  1  0.734418  0.265582  0.000000  1
  Pd  Pd15  1  0.000000  0.734418  0.265582  1
