# generated using pymatgen
data_Ho2Lu2FeTc7
_symmetry_space_group_name_H-M   'P 1'
_cell_length_a   5.37239602
_cell_length_b   5.37239522
_cell_length_c   8.76941803
_cell_angle_alpha   90.06810190
_cell_angle_beta   89.93189676
_cell_angle_gamma   121.49829475
_symmetry_Int_Tables_number   1
_chemical_formula_structural   Ho2Lu2FeTc7
_chemical_formula_sum   'Ho2 Lu2 Fe1 Tc7'
_cell_volume   215.81421657
_cell_formula_units_Z   1
loop_
 _symmetry_equiv_pos_site_id
 _symmetry_equiv_pos_as_xyz
  1  'x, y, z'
loop_
 _atom_site_type_symbol
 _atom_site_label
 _atom_site_symmetry_multiplicity
 _atom_site_fract_x
 _atom_site_fract_y
 _atom_site_fract_z
 _atom_site_occupancy
  Ho  Ho0  1  0.334624  0.665376  0.436665  1
  Ho  Ho1  1  0.666433  0.333567  0.561697  1
  Lu  Lu2  1  0.666328  0.333672  0.938729  1
  Lu  Lu3  1  0.334765  0.665235  0.062646  1
  Fe  Fe4  1  0.828034  0.171966  0.248119  1
  Tc  Tc5  1  0.002595  0.997405  0.492571  1
  Tc  Tc6  1  0.002617  0.997383  0.007537  1
  Tc  Tc7  1  0.823581  0.656834  0.247998  1
  Tc  Tc8  1  0.343166  0.176419  0.247998  1
  Tc  Tc9  1  0.169366  0.830634  0.752035  1
  Tc  Tc10  1  0.170127  0.341636  0.752002  1
  Tc  Tc11  1  0.658364  0.829873  0.752002  1
