# generated using pymatgen
data_Pr8CoHg2Pt
_symmetry_space_group_name_H-M   'P 1'
_cell_length_a   9.97531589
_cell_length_b   9.97531571
_cell_length_c   9.97282900
_cell_angle_alpha   60.00824266
_cell_angle_beta   60.00824327
_cell_angle_gamma   60.32708449
_symmetry_Int_Tables_number   1
_chemical_formula_structural   Pr8CoHg2Pt
_chemical_formula_sum   'Pr16 Co2 Hg4 Pt2'
_cell_volume   703.51459427
_cell_formula_units_Z   2
loop_
 _symmetry_equiv_pos_site_id
 _symmetry_equiv_pos_as_xyz
  1  'x, y, z'
loop_
 _atom_site_type_symbol
 _atom_site_label
 _atom_site_symmetry_multiplicity
 _atom_site_fract_x
 _atom_site_fract_y
 _atom_site_fract_z
 _atom_site_occupancy
  Pr  Pr0  1  0.346055  0.346055  0.359156  1
  Pr  Pr1  1  0.346055  0.346055  0.948735  1
  Pr  Pr2  1  0.341566  0.954781  0.351826  1
  Pr  Pr3  1  0.954781  0.341566  0.351826  1
  Pr  Pr4  1  0.819092  0.190198  0.190699  1
  Pr  Pr5  1  0.190198  0.819092  0.800011  1
  Pr  Pr6  1  0.190198  0.819092  0.190699  1
  Pr  Pr7  1  0.819092  0.190198  0.800011  1
  Pr  Pr8  1  0.189305  0.189305  0.810695  1
  Pr  Pr9  1  0.806792  0.806792  0.193208  1
  Pr  Pr10  1  0.937548  0.561459  0.563291  1
  Pr  Pr11  1  0.561459  0.937548  0.937703  1
  Pr  Pr12  1  0.561459  0.937548  0.563291  1
  Pr  Pr13  1  0.937548  0.561459  0.937703  1
  Pr  Pr14  1  0.559503  0.559503  0.940497  1
  Pr  Pr15  1  0.935547  0.935547  0.564453  1
  Co  Co16  1  0.142735  0.142735  0.140982  1
  Co  Co17  1  0.142735  0.142735  0.573548  1
  Hg  Hg18  1  0.583366  0.583366  0.582196  1
  Hg  Hg19  1  0.583366  0.583366  0.251070  1
  Hg  Hg20  1  0.584914  0.248751  0.583166  1
  Hg  Hg21  1  0.248751  0.584914  0.583166  1
  Pt  Pt22  1  0.145845  0.572090  0.141033  1
  Pt  Pt23  1  0.572090  0.145845  0.141033  1
