# generated using pymatgen
data_Ca2LaNi6B2Ir
_symmetry_space_group_name_H-M   'P 1'
_cell_length_a   7.88439989
_cell_length_b   7.88439896
_cell_length_c   7.88439828
_cell_angle_alpha   38.14324227
_cell_angle_beta   38.14325526
_cell_angle_gamma   38.14324716
_symmetry_Int_Tables_number   1
_chemical_formula_structural   Ca2LaNi6B2Ir
_chemical_formula_sum   'Ca2 La1 Ni6 B2 Ir1'
_cell_volume   167.87317394
_cell_formula_units_Z   1
loop_
 _symmetry_equiv_pos_site_id
 _symmetry_equiv_pos_as_xyz
  1  'x, y, z'
loop_
 _atom_site_type_symbol
 _atom_site_label
 _atom_site_symmetry_multiplicity
 _atom_site_fract_x
 _atom_site_fract_y
 _atom_site_fract_z
 _atom_site_occupancy
  Ca  Ca0  1  0.356701  0.356701  0.356701  1
  Ca  Ca1  1  0.497994  0.497994  0.497994  1
  La  La2  1  0.645303  0.645303  0.645303  1
  Ni  Ni3  1  0.569953  0.058977  0.058977  1
  Ni  Ni4  1  0.058977  0.058977  0.569953  1
  Ni  Ni5  1  0.058977  0.569953  0.058977  1
  Ni  Ni6  1  0.941188  0.429495  0.941188  1
  Ni  Ni7  1  0.941188  0.941188  0.429495  1
  Ni  Ni8  1  0.429495  0.941188  0.941188  1
  B  B9  1  0.830716  0.830716  0.830716  1
  B  B10  1  0.169354  0.169354  0.169354  1
  Ir  Ir11  1  0.000153  0.000153  0.000153  1
