# generated using pymatgen
data_La3Y13CdNi4Hg3
_symmetry_space_group_name_H-M   'P 1'
_cell_length_a   9.65008926
_cell_length_b   9.67176896
_cell_length_c   9.67115849
_cell_angle_alpha   59.84354028
_cell_angle_beta   59.98557912
_cell_angle_gamma   59.98020399
_symmetry_Int_Tables_number   1
_chemical_formula_structural   La3Y13CdNi4Hg3
_chemical_formula_sum   'La3 Y13 Cd1 Ni4 Hg3'
_cell_volume   637.34193392
_cell_formula_units_Z   1
loop_
 _symmetry_equiv_pos_site_id
 _symmetry_equiv_pos_as_xyz
  1  'x, y, z'
loop_
 _atom_site_type_symbol
 _atom_site_label
 _atom_site_symmetry_multiplicity
 _atom_site_fract_x
 _atom_site_fract_y
 _atom_site_fract_z
 _atom_site_occupancy
  La  La0  1  0.596682  0.600334  0.600389  1
  La  La1  1  0.597716  0.601371  0.199076  1
  La  La2  1  0.597691  0.199108  0.601420  1
  Y  Y3  1  0.187933  0.605002  0.605007  1
  Y  Y4  1  0.062735  0.438619  0.438603  1
  Y  Y5  1  0.436223  0.064441  0.064407  1
  Y  Y6  1  0.437639  0.063966  0.436664  1
  Y  Y7  1  0.063209  0.437591  0.061894  1
  Y  Y8  1  0.437634  0.436703  0.063945  1
  Y  Y9  1  0.063192  0.061928  0.437570  1
  Y  Y10  1  0.186895  0.815487  0.815448  1
  Y  Y11  1  0.813874  0.185467  0.185493  1
  Y  Y12  1  0.814473  0.185769  0.815621  1
  Y  Y13  1  0.185468  0.814432  0.185036  1
  Y  Y14  1  0.814471  0.815618  0.185750  1
  Y  Y15  1  0.185474  0.185012  0.814428  1
  Cd  Cd16  1  0.504780  0.831151  0.831154  1
  Ni  Ni17  1  0.391459  0.392433  0.392504  1
  Ni  Ni18  1  0.388837  0.392128  0.824641  1
  Ni  Ni19  1  0.388846  0.824705  0.392116  1
  Ni  Ni20  1  0.825411  0.391059  0.391068  1
  Hg  Hg21  1  0.840205  0.833333  0.833335  1
  Hg  Hg22  1  0.839559  0.834030  0.490385  1
  Hg  Hg23  1  0.839593  0.490312  0.834048  1
