# generated using pymatgen
data_Pa6Ni6SnSb7
_symmetry_space_group_name_H-M   'P 1'
_cell_length_a   8.16424626
_cell_length_b   8.16424594
_cell_length_c   8.15362400
_cell_angle_alpha   109.44487011
_cell_angle_beta   109.44486933
_cell_angle_gamma   109.49755987
_symmetry_Int_Tables_number   1
_chemical_formula_structural   Pa6Ni6SnSb7
_chemical_formula_sum   'Pa6 Ni6 Sn1 Sb7'
_cell_volume   418.50638631
_cell_formula_units_Z   1
loop_
 _symmetry_equiv_pos_site_id
 _symmetry_equiv_pos_as_xyz
  1  'x, y, z'
loop_
 _atom_site_type_symbol
 _atom_site_label
 _atom_site_symmetry_multiplicity
 _atom_site_fract_x
 _atom_site_fract_y
 _atom_site_fract_z
 _atom_site_occupancy
  Pa  Pa0  1  0.625891  0.374733  0.249871  1
  Pa  Pa1  1  0.375078  0.249103  0.625297  1
  Pa  Pa2  1  0.125267  0.751158  0.875139  1
  Pa  Pa3  1  0.748842  0.874109  0.123980  1
  Pa  Pa4  1  0.250897  0.625975  0.376193  1
  Pa  Pa5  1  0.874025  0.124922  0.750218  1
  Ni  Ni6  1  0.875784  0.249462  0.125145  1
  Ni  Ni7  1  0.373678  0.624216  0.749361  1
  Ni  Ni8  1  0.625218  0.749574  0.374782  1
  Ni  Ni9  1  0.750426  0.375643  0.625207  1
  Ni  Ni10  1  0.250538  0.126322  0.875684  1
  Ni  Ni11  1  0.124357  0.874782  0.249564  1
  Sn  Sn12  1  0.500000  0.000000  0.831088  1
  Sb  Sb13  1  0.167641  0.167476  0.167287  1
  Sb  Sb14  1  0.832248  0.498826  0.999973  1
  Sb  Sb15  1  0.001174  0.833422  0.501148  1
  Sb  Sb16  1  0.332524  0.500165  0.999811  1
  Sb  Sb17  1  0.999835  0.332359  0.499646  1
  Sb  Sb18  1  0.500000  0.000000  0.332878  1
  Sb  Sb19  1  0.666578  0.667752  0.667725  1
