# generated using pymatgen
data_Pr2Y6Si12Ir3Rh
_symmetry_space_group_name_H-M   'P 1'
_cell_length_a   8.21449100
_cell_length_b   8.21449172
_cell_length_c   8.09589500
_cell_angle_alpha   90.00000000
_cell_angle_beta   90.00000000
_cell_angle_gamma   119.99999309
_symmetry_Int_Tables_number   1
_chemical_formula_structural   Pr2Y6Si12Ir3Rh
_chemical_formula_sum   'Pr2 Y6 Si12 Ir3 Rh1'
_cell_volume   473.10428651
_cell_formula_units_Z   1
loop_
 _symmetry_equiv_pos_site_id
 _symmetry_equiv_pos_as_xyz
  1  'x, y, z'
loop_
 _atom_site_type_symbol
 _atom_site_label
 _atom_site_symmetry_multiplicity
 _atom_site_fract_x
 _atom_site_fract_y
 _atom_site_fract_z
 _atom_site_occupancy
  Pr  Pr0  1  0.000000  0.000000  0.249038  1
  Pr  Pr1  1  0.000000  0.000000  0.750227  1
  Y  Y2  1  0.509422  0.490578  0.250208  1
  Y  Y3  1  0.509422  0.018843  0.250208  1
  Y  Y4  1  0.981157  0.490578  0.250208  1
  Y  Y5  1  0.491153  0.508847  0.749864  1
  Y  Y6  1  0.491153  0.982306  0.749864  1
  Y  Y7  1  0.017694  0.508847  0.749864  1
  Si  Si8  1  0.168404  0.831596  0.499663  1
  Si  Si9  1  0.168404  0.336807  0.499663  1
  Si  Si10  1  0.663193  0.831596  0.499663  1
  Si  Si11  1  0.831667  0.168333  0.499904  1
  Si  Si12  1  0.831667  0.663334  0.499904  1
  Si  Si13  1  0.336666  0.168333  0.499904  1
  Si  Si14  1  0.831796  0.168204  0.000111  1
  Si  Si15  1  0.831796  0.663593  0.000111  1
  Si  Si16  1  0.336407  0.168204  0.000111  1
  Si  Si17  1  0.168807  0.831193  0.999353  1
  Si  Si18  1  0.168807  0.337614  0.999353  1
  Si  Si19  1  0.662386  0.831193  0.999353  1
  Ir  Ir20  1  0.333333  0.666667  0.469009  1
  Ir  Ir21  1  0.666667  0.333333  0.532490  1
  Ir  Ir22  1  0.666667  0.333333  0.966639  1
  Rh  Rh23  1  0.333333  0.666667  0.035283  1
