# generated using pymatgen
data_YTh2PaH12
_symmetry_space_group_name_H-M   'P 1'
_cell_length_a   6.77660600
_cell_length_b   6.67287900
_cell_length_c   6.77660600
_cell_angle_alpha   90.00000000
_cell_angle_beta   90.00000000
_cell_angle_gamma   90.00000000
_symmetry_Int_Tables_number   1
_chemical_formula_structural   YTh2PaH12
_chemical_formula_sum   'Y2 Th4 Pa2 H24'
_cell_volume   306.43454438
_cell_formula_units_Z   2
loop_
 _symmetry_equiv_pos_site_id
 _symmetry_equiv_pos_as_xyz
  1  'x, y, z'
loop_
 _atom_site_type_symbol
 _atom_site_label
 _atom_site_symmetry_multiplicity
 _atom_site_fract_x
 _atom_site_fract_y
 _atom_site_fract_z
 _atom_site_occupancy
  Y  Y0  1  0.000000  0.000000  0.000000  1
  Y  Y1  1  0.500000  0.500000  0.500000  1
  Th  Th2  1  0.249521  0.000000  0.500000  1
  Th  Th3  1  0.750479  0.000000  0.500000  1
  Th  Th4  1  0.000000  0.500000  0.250479  1
  Th  Th5  1  0.000000  0.500000  0.749521  1
  Pa  Pa6  1  0.500000  0.750000  0.000000  1
  Pa  Pa7  1  0.500000  0.250000  0.000000  1
  H  H8  1  0.000000  0.152465  0.302763  1
  H  H9  1  0.500000  0.199372  0.660081  1
  H  H10  1  0.500000  0.800628  0.339919  1
  H  H11  1  0.802763  0.652465  0.500000  1
  H  H12  1  0.197237  0.652465  0.500000  1
  H  H13  1  0.351429  0.500000  0.809567  1
  H  H14  1  0.648571  0.500000  0.809567  1
  H  H15  1  0.309567  0.000000  0.148571  1
  H  H16  1  0.160081  0.300628  0.000000  1
  H  H17  1  0.839919  0.699372  0.000000  1
  H  H18  1  0.309567  0.000000  0.851429  1
  H  H19  1  0.839919  0.300628  0.000000  1
  H  H20  1  0.690433  0.000000  0.148571  1
  H  H21  1  0.690433  0.000000  0.851429  1
  H  H22  1  0.160081  0.699372  0.000000  1
  H  H23  1  0.000000  0.847535  0.697237  1
  H  H24  1  0.000000  0.152465  0.697237  1
  H  H25  1  0.000000  0.847535  0.302763  1
  H  H26  1  0.648571  0.500000  0.190433  1
  H  H27  1  0.351429  0.500000  0.190433  1
  H  H28  1  0.802763  0.347535  0.500000  1
  H  H29  1  0.197237  0.347535  0.500000  1
  H  H30  1  0.500000  0.800628  0.660081  1
  H  H31  1  0.500000  0.199372  0.339919  1
