# generated using pymatgen
data_YbHoVIr3
_symmetry_space_group_name_H-M   'P 1'
_cell_length_a   5.56254674
_cell_length_b   5.10499498
_cell_length_c   5.56254700
_cell_angle_alpha   56.98804247
_cell_angle_beta   60.00000440
_cell_angle_gamma   56.98804082
_symmetry_Int_Tables_number   1
_chemical_formula_structural   YbHoVIr3
_chemical_formula_sum   'Yb1 Ho1 V1 Ir3'
_cell_volume   106.33517084
_cell_formula_units_Z   1
loop_
 _symmetry_equiv_pos_site_id
 _symmetry_equiv_pos_as_xyz
  1  'x, y, z'
loop_
 _atom_site_type_symbol
 _atom_site_label
 _atom_site_symmetry_multiplicity
 _atom_site_fract_x
 _atom_site_fract_y
 _atom_site_fract_z
 _atom_site_occupancy
  Yb  Yb0  1  0.750633  0.748101  0.750633  1
  Ho  Ho1  1  0.499450  0.501649  0.499450  1
  V  V2  1  0.125794  0.622618  0.125794  1
  Ir  Ir3  1  0.626196  0.125877  0.123964  1
  Ir  Ir4  1  0.123964  0.125877  0.123964  1
  Ir  Ir5  1  0.123964  0.125877  0.626196  1
