# generated using pymatgen
data_Hf16ScSi16Mo3
_symmetry_space_group_name_H-M   'P 1'
_cell_length_a   6.98386442
_cell_length_b   6.98936719
_cell_length_c   12.75818985
_cell_angle_alpha   90.09255541
_cell_angle_beta   89.86438598
_cell_angle_gamma   89.88493416
_symmetry_Int_Tables_number   1
_chemical_formula_structural   Hf16ScSi16Mo3
_chemical_formula_sum   'Hf16 Sc1 Si16 Mo3'
_cell_volume   622.75906106
_cell_formula_units_Z   1
loop_
 _symmetry_equiv_pos_site_id
 _symmetry_equiv_pos_as_xyz
  1  'x, y, z'
loop_
 _atom_site_type_symbol
 _atom_site_label
 _atom_site_symmetry_multiplicity
 _atom_site_fract_x
 _atom_site_fract_y
 _atom_site_fract_z
 _atom_site_occupancy
  Hf  Hf0  1  0.175297  0.174804  0.999940  1
  Hf  Hf1  1  0.504338  0.847112  0.031272  1
  Hf  Hf2  1  0.655283  0.001919  0.282022  1
  Hf  Hf3  1  0.345720  0.996165  0.780996  1
  Hf  Hf4  1  0.846521  0.503888  0.968621  1
  Hf  Hf5  1  0.154259  0.497149  0.469781  1
  Hf  Hf6  1  0.002428  0.654600  0.718334  1
  Hf  Hf7  1  0.996494  0.346327  0.219360  1
  Hf  Hf8  1  0.497448  0.356515  0.127002  1
  Hf  Hf9  1  0.502827  0.644016  0.626232  1
  Hf  Hf10  1  0.854108  0.000707  0.873828  1
  Hf  Hf11  1  0.144044  0.994988  0.376986  1
  Hf  Hf12  1  0.644565  0.503118  0.373732  1
  Hf  Hf13  1  0.355839  0.498175  0.872683  1
  Hf  Hf14  1  0.000898  0.854203  0.126521  1
  Hf  Hf15  1  0.995702  0.143936  0.623180  1
  Sc  Sc16  1  0.496374  0.154852  0.530321  1
  Si  Si17  1  0.795575  0.146877  0.071445  1
  Si  Si18  1  0.202073  0.852444  0.571974  1
  Si  Si19  1  0.647342  0.702493  0.821787  1
  Si  Si20  1  0.351959  0.297450  0.321991  1
  Si  Si21  1  0.853105  0.202802  0.427674  1
  Si  Si22  1  0.146720  0.795516  0.928360  1
  Si  Si23  1  0.702518  0.646850  0.178310  1
  Si  Si24  1  0.296620  0.352063  0.677173  1
  Si  Si25  1  0.551337  0.199274  0.933063  1
  Si  Si26  1  0.453903  0.802458  0.434592  1
  Si  Si27  1  0.696651  0.953281  0.682977  1
  Si  Si28  1  0.304706  0.043435  0.185988  1
  Si  Si29  1  0.802280  0.453978  0.565588  1
  Si  Si30  1  0.198783  0.551489  0.066781  1
  Si  Si31  1  0.953101  0.697116  0.316949  1
  Si  Si32  1  0.043476  0.305042  0.814090  1
  Mo  Mo33  1  0.675845  0.326113  0.748536  1
  Mo  Mo34  1  0.325535  0.674832  0.251653  1
  Mo  Mo35  1  0.826324  0.824008  0.500257  1
