# generated using pymatgen
data_Ho2Er8Os3Ru
_symmetry_space_group_name_H-M   'P 1'
_cell_length_a   6.30782023
_cell_length_b   7.32167797
_cell_length_c   8.37308204
_cell_angle_alpha   96.87139207
_cell_angle_beta   112.23644370
_cell_angle_gamma   90.04738692
_symmetry_Int_Tables_number   1
_chemical_formula_structural   Ho2Er8Os3Ru
_chemical_formula_sum   'Ho2 Er8 Os3 Ru1'
_cell_volume   354.92355922
_cell_formula_units_Z   1
loop_
 _symmetry_equiv_pos_site_id
 _symmetry_equiv_pos_as_xyz
  1  'x, y, z'
loop_
 _atom_site_type_symbol
 _atom_site_label
 _atom_site_symmetry_multiplicity
 _atom_site_fract_x
 _atom_site_fract_y
 _atom_site_fract_z
 _atom_site_occupancy
  Ho  Ho0  1  0.794263  0.583919  0.816579  1
  Ho  Ho1  1  0.975624  0.916199  0.183017  1
  Er  Er2  1  0.207766  0.416574  0.186117  1
  Er  Er3  1  0.024383  0.084987  0.817530  1
  Er  Er4  1  0.203896  0.683404  0.564837  1
  Er  Er5  1  0.640525  0.817045  0.436050  1
  Er  Er6  1  0.794420  0.315908  0.434351  1
  Er  Er7  1  0.360445  0.182113  0.563549  1
  Er  Er8  1  0.420969  0.749792  0.000065  1
  Er  Er9  1  0.579917  0.250156  0.000557  1
  Os  Os10  1  0.603743  0.922242  0.780317  1
  Os  Os11  1  0.822110  0.577870  0.219937  1
  Os  Os12  1  0.395977  0.077808  0.218652  1
  Ru  Ru13  1  0.175962  0.421985  0.778441  1
