# generated using pymatgen
data_LiDy16Cd3Pt4
_symmetry_space_group_name_H-M   'P 1'
_cell_length_a   9.69782573
_cell_length_b   9.69782546
_cell_length_c   9.69782524
_cell_angle_alpha   59.84534345
_cell_angle_beta   59.84534326
_cell_angle_gamma   59.84533940
_symmetry_Int_Tables_number   1
_chemical_formula_structural   LiDy16Cd3Pt4
_chemical_formula_sum   'Li1 Dy16 Cd3 Pt4'
_cell_volume   642.65973762
_cell_formula_units_Z   1
loop_
 _symmetry_equiv_pos_site_id
 _symmetry_equiv_pos_as_xyz
  1  'x, y, z'
loop_
 _atom_site_type_symbol
 _atom_site_label
 _atom_site_symmetry_multiplicity
 _atom_site_fract_x
 _atom_site_fract_y
 _atom_site_fract_z
 _atom_site_occupancy
  Li  Li0  1  0.573202  0.573202  0.573202  1
  Dy  Dy1  1  0.352461  0.352461  0.352461  1
  Dy  Dy2  1  0.350535  0.350535  0.946770  1
  Dy  Dy3  1  0.350535  0.946770  0.350535  1
  Dy  Dy4  1  0.946770  0.350535  0.350535  1
  Dy  Dy5  1  0.808958  0.191550  0.191550  1
  Dy  Dy6  1  0.188495  0.811444  0.811444  1
  Dy  Dy7  1  0.191550  0.808958  0.191550  1
  Dy  Dy8  1  0.811444  0.188495  0.811444  1
  Dy  Dy9  1  0.191550  0.191550  0.808958  1
  Dy  Dy10  1  0.811444  0.811444  0.188495  1
  Dy  Dy11  1  0.936120  0.565046  0.565046  1
  Dy  Dy12  1  0.565113  0.935381  0.935381  1
  Dy  Dy13  1  0.565046  0.936120  0.565046  1
  Dy  Dy14  1  0.935381  0.565112  0.935381  1
  Dy  Dy15  1  0.565046  0.565046  0.936120  1
  Dy  Dy16  1  0.935381  0.935381  0.565112  1
  Cd  Cd17  1  0.582694  0.582694  0.254706  1
  Cd  Cd18  1  0.582694  0.254706  0.582694  1
  Cd  Cd19  1  0.254706  0.582694  0.582694  1
  Pt  Pt20  1  0.143123  0.143123  0.143123  1
  Pt  Pt21  1  0.143783  0.143783  0.570186  1
  Pt  Pt22  1  0.143783  0.570186  0.143783  1
  Pt  Pt23  1  0.570186  0.143783  0.143783  1
