# generated using pymatgen
data_K3Li2TiSb3
_symmetry_space_group_name_H-M   'P 1'
_cell_length_a   10.89335571
_cell_length_b   10.89335433
_cell_length_c   15.89847191
_cell_angle_alpha   89.99795268
_cell_angle_beta   89.99795389
_cell_angle_gamma   143.28129120
_symmetry_Int_Tables_number   1
_chemical_formula_structural   K3Li2TiSb3
_chemical_formula_sum   'K12 Li8 Ti4 Sb12'
_cell_volume   1127.97051745
_cell_formula_units_Z   4
loop_
 _symmetry_equiv_pos_site_id
 _symmetry_equiv_pos_as_xyz
  1  'x, y, z'
loop_
 _atom_site_type_symbol
 _atom_site_label
 _atom_site_symmetry_multiplicity
 _atom_site_fract_x
 _atom_site_fract_y
 _atom_site_fract_z
 _atom_site_occupancy
  K  K0  1  0.601359  0.941967  0.830873  1
  K  K1  1  0.278573  0.278092  0.323485  1
  K  K2  1  0.223507  0.223691  0.825489  1
  K  K3  1  0.721908  0.721427  0.676515  1
  K  K4  1  0.440688  0.100407  0.670933  1
  K  K5  1  0.899593  0.559312  0.329067  1
  K  K6  1  0.058033  0.398641  0.169127  1
  K  K7  1  0.399338  0.058893  0.169655  1
  K  K8  1  0.555318  0.896310  0.328609  1
  K  K9  1  0.103690  0.444682  0.671391  1
  K  K10  1  0.941107  0.600662  0.830345  1
  K  K11  1  0.776309  0.776493  0.174511  1
  Li  Li12  1  0.417408  0.582592  0.500000  1
  Li  Li13  1  0.082402  0.917598  0.000000  1
  Li  Li14  1  0.582553  0.417447  0.500000  1
  Li  Li15  1  0.917649  0.082351  0.000000  1
  Li  Li16  1  0.749746  0.250254  0.000000  1
  Li  Li17  1  0.749731  0.250269  0.500000  1
  Li  Li18  1  0.250033  0.749967  0.000000  1
  Li  Li19  1  0.250057  0.749943  0.500000  1
  Ti  Ti20  1  0.086632  0.913368  0.500000  1
  Ti  Ti21  1  0.413456  0.586544  0.000000  1
  Ti  Ti22  1  0.913554  0.086446  0.500000  1
  Ti  Ti23  1  0.586563  0.413437  0.000000  1
  Sb  Sb24  1  0.068694  0.390978  0.404451  1
  Sb  Sb25  1  0.892599  0.569771  0.094504  1
  Sb  Sb26  1  0.430229  0.107401  0.905496  1
  Sb  Sb27  1  0.609022  0.931306  0.595549  1
  Sb  Sb28  1  0.930782  0.607830  0.595030  1
  Sb  Sb29  1  0.107351  0.430412  0.905730  1
  Sb  Sb30  1  0.569588  0.892649  0.094270  1
  Sb  Sb31  1  0.392170  0.069218  0.404970  1
  Sb  Sb32  1  0.221698  0.221372  0.591141  1
  Sb  Sb33  1  0.723125  0.723095  0.909881  1
  Sb  Sb34  1  0.276905  0.276875  0.090119  1
  Sb  Sb35  1  0.778628  0.778302  0.408859  1
