# generated using pymatgen
data_Er20CoIr3Pt8
_symmetry_space_group_name_H-M   'P 1'
_cell_length_a   10.94871200
_cell_length_b   10.94871200
_cell_length_c   6.30113000
_cell_angle_alpha   90.00000000
_cell_angle_beta   90.00000000
_cell_angle_gamma   90.00000000
_symmetry_Int_Tables_number   1
_chemical_formula_structural   Er20CoIr3Pt8
_chemical_formula_sum   'Er20 Co1 Ir3 Pt8'
_cell_volume   755.34351304
_cell_formula_units_Z   1
loop_
 _symmetry_equiv_pos_site_id
 _symmetry_equiv_pos_as_xyz
  1  'x, y, z'
loop_
 _atom_site_type_symbol
 _atom_site_label
 _atom_site_symmetry_multiplicity
 _atom_site_fract_x
 _atom_site_fract_y
 _atom_site_fract_z
 _atom_site_occupancy
  Er  Er0  1  0.296113  0.086545  0.370560  1
  Er  Er1  1  0.296376  0.913451  0.874146  1
  Er  Er2  1  0.703624  0.086549  0.874146  1
  Er  Er3  1  0.703887  0.913455  0.370560  1
  Er  Er4  1  0.586549  0.796376  0.874146  1
  Er  Er5  1  0.586545  0.203887  0.370560  1
  Er  Er6  1  0.413455  0.796113  0.370560  1
  Er  Er7  1  0.413451  0.203624  0.874146  1
  Er  Er8  1  0.205685  0.412317  0.627629  1
  Er  Er9  1  0.205492  0.587888  0.127693  1
  Er  Er10  1  0.794508  0.412112  0.127693  1
  Er  Er11  1  0.794315  0.587683  0.627629  1
  Er  Er12  1  0.912112  0.705492  0.127693  1
  Er  Er13  1  0.912317  0.294315  0.627629  1
  Er  Er14  1  0.087683  0.705685  0.627629  1
  Er  Er15  1  0.087888  0.294508  0.127693  1
  Er  Er16  1  0.000000  0.000000  0.499683  1
  Er  Er17  1  0.000000  0.000000  0.999959  1
  Er  Er18  1  0.500000  0.500000  0.999959  1
  Er  Er19  1  0.500000  0.500000  0.499683  1
  Co  Co20  1  0.500000  0.000000  0.121990  1
  Ir  Ir21  1  0.500000  0.000000  0.620167  1
  Ir  Ir22  1  0.000000  0.500000  0.880607  1
  Ir  Ir23  1  0.000000  0.500000  0.380705  1
  Pt  Pt24  1  0.845815  0.153434  0.249754  1
  Pt  Pt25  1  0.846312  0.846188  0.749529  1
  Pt  Pt26  1  0.153688  0.153812  0.749529  1
  Pt  Pt27  1  0.154185  0.846566  0.249754  1
  Pt  Pt28  1  0.653812  0.346312  0.749529  1
  Pt  Pt29  1  0.653434  0.654185  0.249754  1
  Pt  Pt30  1  0.346566  0.345815  0.249754  1
  Pt  Pt31  1  0.346188  0.653688  0.749529  1
