# generated using pymatgen
data_Ta7(Cr3Se13)2
_symmetry_space_group_name_H-M   'P 1'
_cell_length_a   9.15957385
_cell_length_b   9.85315148
_cell_length_c   11.55503971
_cell_angle_alpha   72.90733661
_cell_angle_beta   75.19481374
_cell_angle_gamma   84.46225067
_symmetry_Int_Tables_number   1
_chemical_formula_structural   Ta7(Cr3Se13)2
_chemical_formula_sum   'Ta7 Cr6 Se26'
_cell_volume   963.43662011
_cell_formula_units_Z   1
loop_
 _symmetry_equiv_pos_site_id
 _symmetry_equiv_pos_as_xyz
  1  'x, y, z'
loop_
 _atom_site_type_symbol
 _atom_site_label
 _atom_site_symmetry_multiplicity
 _atom_site_fract_x
 _atom_site_fract_y
 _atom_site_fract_z
 _atom_site_occupancy
  Ta  Ta0  1  0.000000  0.000000  0.000000  1
  Ta  Ta1  1  0.150290  0.478481  0.364617  1
  Ta  Ta2  1  0.849710  0.521519  0.635383  1
  Ta  Ta3  1  0.478889  0.364076  0.151973  1
  Ta  Ta4  1  0.521111  0.635924  0.848027  1
  Ta  Ta5  1  0.637086  0.848752  0.520549  1
  Ta  Ta6  1  0.362914  0.151248  0.479451  1
  Cr  Cr7  1  0.231995  0.691695  0.074789  1
  Cr  Cr8  1  0.768005  0.308305  0.925211  1
  Cr  Cr9  1  0.692395  0.074569  0.232824  1
  Cr  Cr10  1  0.307605  0.925431  0.767176  1
  Cr  Cr11  1  0.925684  0.767488  0.308081  1
  Cr  Cr12  1  0.074316  0.232512  0.691919  1
  Se  Se13  1  0.950269  0.731120  0.096431  1
  Se  Se14  1  0.049731  0.268880  0.903569  1
  Se  Se15  1  0.713763  0.046660  0.017815  1
  Se  Se16  1  0.286237  0.953340  0.982185  1
  Se  Se17  1  0.028490  0.968277  0.780917  1
  Se  Se18  1  0.971510  0.031723  0.219083  1
  Se  Se19  1  0.644288  0.809373  0.314139  1
  Se  Se20  1  0.355712  0.190627  0.685861  1
  Se  Se21  1  0.790762  0.262000  0.714894  1
  Se  Se22  1  0.209238  0.738000  0.285106  1
  Se  Se23  1  0.242739  0.662474  0.861411  1
  Se  Se24  1  0.757261  0.337526  0.138589  1
  Se  Se25  1  0.865431  0.505877  0.402263  1
  Se  Se26  1  0.134569  0.494123  0.597737  1
  Se  Se27  1  0.487954  0.351005  0.934508  1
  Se  Se28  1  0.512046  0.648995  0.065492  1
  Se  Se29  1  0.333433  0.883467  0.556665  1
  Se  Se30  1  0.666567  0.116533  0.443335  1
  Se  Se31  1  0.179395  0.424863  0.161316  1
  Se  Se32  1  0.820605  0.575137  0.838684  1
  Se  Se33  1  0.407202  0.109170  0.250078  1
  Se  Se34  1  0.592798  0.890830  0.749922  1
  Se  Se35  1  0.090088  0.197606  0.477653  1
  Se  Se36  1  0.909912  0.802394  0.522347  1
  Se  Se37  1  0.562575  0.580172  0.631196  1
  Se  Se38  1  0.437425  0.419828  0.368804  1
