# generated using pymatgen
data_Y3Ho(Si5Os3)2
_symmetry_space_group_name_H-M   'P 1'
_cell_length_a   8.13694033
_cell_length_b   8.13346416
_cell_length_c   5.80438232
_cell_angle_alpha   70.56747981
_cell_angle_beta   70.50871492
_cell_angle_gamma   93.95770353
_symmetry_Int_Tables_number   1
_chemical_formula_structural   Y3Ho(Si5Os3)2
_chemical_formula_sum   'Y3 Ho1 Si10 Os6'
_cell_volume   334.42369108
_cell_formula_units_Z   1
loop_
 _symmetry_equiv_pos_site_id
 _symmetry_equiv_pos_as_xyz
  1  'x, y, z'
loop_
 _atom_site_type_symbol
 _atom_site_label
 _atom_site_symmetry_multiplicity
 _atom_site_fract_x
 _atom_site_fract_y
 _atom_site_fract_z
 _atom_site_occupancy
  Y  Y0  1  0.869154  0.602059  0.751960  1
  Y  Y1  1  0.398129  0.131915  0.746397  1
  Y  Y2  1  0.131966  0.397437  0.247150  1
  Ho  Ho3  1  0.600811  0.869265  0.254364  1
  Si  Si4  1  0.067296  0.261330  0.834122  1
  Si  Si5  1  0.737955  0.932489  0.667264  1
  Si  Si6  1  0.931208  0.739263  0.165494  1
  Si  Si7  1  0.262021  0.066516  0.333670  1
  Si  Si8  1  0.207107  0.793712  0.748546  1
  Si  Si9  1  0.792916  0.206072  0.251118  1
  Si  Si10  1  0.513246  0.487640  0.749905  1
  Si  Si11  1  0.488017  0.513128  0.249642  1
  Si  Si12  1  0.773976  0.225519  0.749765  1
  Si  Si13  1  0.226108  0.774441  0.250583  1
  Os  Os14  1  0.256581  0.543341  0.631316  1
  Os  Os15  1  0.455922  0.744047  0.869055  1
  Os  Os16  1  0.744368  0.456658  0.368195  1
  Os  Os17  1  0.544283  0.255652  0.130852  1
  Os  Os18  1  0.002189  0.997407  0.749942  1
  Os  Os19  1  0.996749  0.002108  0.250659  1
