# generated using pymatgen
data_Sb4Ir3RhS4
_symmetry_space_group_name_H-M   'P 1'
_cell_length_a   6.10378840
_cell_length_b   6.10378840
_cell_length_c   6.10378840
_cell_angle_alpha   90.02943360
_cell_angle_beta   90.02943360
_cell_angle_gamma   90.02943360
_symmetry_Int_Tables_number   1
_chemical_formula_structural   Sb4Ir3RhS4
_chemical_formula_sum   'Sb4 Ir3 Rh1 S4'
_cell_volume   227.40407205
_cell_formula_units_Z   1
loop_
 _symmetry_equiv_pos_site_id
 _symmetry_equiv_pos_as_xyz
  1  'x, y, z'
loop_
 _atom_site_type_symbol
 _atom_site_label
 _atom_site_symmetry_multiplicity
 _atom_site_fract_x
 _atom_site_fract_y
 _atom_site_fract_z
 _atom_site_occupancy
  Sb  Sb0  1  0.878592  0.377011  0.121813  1
  Sb  Sb1  1  0.377011  0.121813  0.878592  1
  Sb  Sb2  1  0.121813  0.878592  0.377011  1
  Sb  Sb3  1  0.622453  0.622453  0.622453  1
  Ir  Ir4  1  0.512557  0.013221  0.487191  1
  Ir  Ir5  1  0.013221  0.487191  0.512557  1
  Ir  Ir6  1  0.487191  0.512557  0.013221  1
  Rh  Rh7  1  0.986818  0.986818  0.986818  1
  S  S8  1  0.119177  0.615812  0.882637  1
  S  S9  1  0.615812  0.882637  0.119177  1
  S  S10  1  0.882637  0.119177  0.615812  1
  S  S11  1  0.382718  0.382718  0.382718  1
