# generated using pymatgen
data_HoTm5(Si3Ru)8
_symmetry_space_group_name_H-M   'P 1'
_cell_length_a   10.10423675
_cell_length_b   10.10423698
_cell_length_c   8.10963619
_cell_angle_alpha   89.90697334
_cell_angle_beta   90.09302666
_cell_angle_gamma   132.66942612
_symmetry_Int_Tables_number   1
_chemical_formula_structural   HoTm5(Si3Ru)8
_chemical_formula_sum   'Ho1 Tm5 Si24 Ru8'
_cell_volume   608.77713606
_cell_formula_units_Z   1
loop_
 _symmetry_equiv_pos_site_id
 _symmetry_equiv_pos_as_xyz
  1  'x, y, z'
loop_
 _atom_site_type_symbol
 _atom_site_label
 _atom_site_symmetry_multiplicity
 _atom_site_fract_x
 _atom_site_fract_y
 _atom_site_fract_z
 _atom_site_occupancy
  Ho  Ho0  1  0.002502  0.502502  0.750000  1
  Tm  Tm1  1  0.500155  0.500173  0.499809  1
  Tm  Tm2  1  0.000173  0.000155  0.000191  1
  Tm  Tm3  1  0.502507  0.002507  0.750000  1
  Tm  Tm4  1  0.997824  0.497824  0.250000  1
  Tm  Tm5  1  0.497750  0.997750  0.250000  1
  Si  Si6  1  0.795866  0.205910  0.499693  1
  Si  Si7  1  0.294193  0.704167  0.999978  1
  Si  Si8  1  0.204167  0.794193  0.500022  1
  Si  Si9  1  0.705910  0.295866  0.000307  1
  Si  Si10  1  0.331485  0.333179  0.832830  1
  Si  Si11  1  0.667559  0.667706  0.166820  1
  Si  Si12  1  0.167706  0.167559  0.333180  1
  Si  Si13  1  0.833179  0.831485  0.667170  1
  Si  Si14  1  0.121692  0.887016  0.729621  1
  Si  Si15  1  0.111110  0.876861  0.272024  1
  Si  Si16  1  0.614037  0.380412  0.228015  1
  Si  Si17  1  0.622170  0.387527  0.771081  1
  Si  Si18  1  0.880412  0.114037  0.271985  1
  Si  Si19  1  0.887527  0.122170  0.728919  1
  Si  Si20  1  0.387016  0.621692  0.770379  1
  Si  Si21  1  0.376861  0.611110  0.227976  1
  Si  Si22  1  0.343163  0.110664  0.504617  1
  Si  Si23  1  0.886628  0.651682  0.493873  1
  Si  Si24  1  0.389466  0.157057  0.003230  1
  Si  Si25  1  0.847599  0.613156  0.995418  1
  Si  Si26  1  0.657057  0.889466  0.496770  1
  Si  Si27  1  0.113156  0.347599  0.504582  1
  Si  Si28  1  0.610664  0.843163  0.995383  1
  Si  Si29  1  0.151682  0.386628  0.006127  1
  Ru  Ru30  1  0.665716  0.326381  0.498949  1
  Ru  Ru31  1  0.173448  0.834068  0.001714  1
  Ru  Ru32  1  0.334068  0.673448  0.498286  1
  Ru  Ru33  1  0.826381  0.165716  0.001051  1
  Ru  Ru34  1  0.126112  0.126649  0.627823  1
  Ru  Ru35  1  0.873464  0.872945  0.372735  1
  Ru  Ru36  1  0.372945  0.373464  0.127265  1
  Ru  Ru37  1  0.626649  0.626112  0.872177  1
