# generated using pymatgen
data_Ho4Fe3Co13(P3Ru)4
_symmetry_space_group_name_H-M   'P 1'
_cell_length_a   3.69551700
_cell_length_b   10.32905364
_cell_length_c   11.79538528
_cell_angle_alpha   90.23353606
_cell_angle_beta   90.00000000
_cell_angle_gamma   90.00000000
_symmetry_Int_Tables_number   1
_chemical_formula_structural   Ho4Fe3Co13(P3Ru)4
_chemical_formula_sum   'Ho4 Fe3 Co13 P12 Ru4'
_cell_volume   450.24019173
_cell_formula_units_Z   1
loop_
 _symmetry_equiv_pos_site_id
 _symmetry_equiv_pos_as_xyz
  1  'x, y, z'
loop_
 _atom_site_type_symbol
 _atom_site_label
 _atom_site_symmetry_multiplicity
 _atom_site_fract_x
 _atom_site_fract_y
 _atom_site_fract_z
 _atom_site_occupancy
  Ho  Ho0  1  0.250000  0.585544  0.704355  1
  Ho  Ho1  1  0.250000  0.915179  0.204373  1
  Ho  Ho2  1  0.750000  0.415290  0.295494  1
  Ho  Ho3  1  0.750000  0.083940  0.795880  1
  Fe  Fe4  1  0.250000  0.036159  0.432175  1
  Fe  Fe5  1  0.750000  0.534390  0.067504  1
  Fe  Fe6  1  0.750000  0.964308  0.567797  1
  Co  Co7  1  0.250000  0.408130  0.488756  1
  Co  Co8  1  0.250000  0.091376  0.988409  1
  Co  Co9  1  0.750000  0.592601  0.511518  1
  Co  Co10  1  0.750000  0.907687  0.012035  1
  Co  Co11  1  0.250000  0.222044  0.174366  1
  Co  Co12  1  0.250000  0.277116  0.675178  1
  Co  Co13  1  0.750000  0.778427  0.825429  1
  Co  Co14  1  0.750000  0.722841  0.325344  1
  Co  Co15  1  0.250000  0.884993  0.703674  1
  Co  Co16  1  0.250000  0.614693  0.203347  1
  Co  Co17  1  0.750000  0.115390  0.296353  1
  Co  Co18  1  0.750000  0.386867  0.796654  1
  Co  Co19  1  0.250000  0.463988  0.930982  1
  P  P20  1  0.250000  0.422451  0.112923  1
  P  P21  1  0.250000  0.076667  0.612824  1
  P  P22  1  0.750000  0.579195  0.888024  1
  P  P23  1  0.750000  0.923740  0.387050  1
  P  P24  1  0.250000  0.270114  0.864805  1
  P  P25  1  0.250000  0.229210  0.364214  1
  P  P26  1  0.750000  0.728248  0.135276  1
  P  P27  1  0.750000  0.771229  0.635741  1
  P  P28  1  0.250000  0.596880  0.390768  1
  P  P29  1  0.250000  0.903312  0.890969  1
  P  P30  1  0.750000  0.403812  0.609270  1
  P  P31  1  0.750000  0.095831  0.109494  1
  Ru  Ru32  1  0.250000  0.714590  0.991679  1
  Ru  Ru33  1  0.250000  0.787343  0.491128  1
  Ru  Ru34  1  0.750000  0.283220  0.007481  1
  Ru  Ru35  1  0.750000  0.213194  0.508731  1
