# generated using pymatgen
data_Hf2FeSi2Rh
_symmetry_space_group_name_H-M   'P 1'
_cell_length_a   3.93091200
_cell_length_b   6.42562578
_cell_length_c   7.23116956
_cell_angle_alpha   91.03148125
_cell_angle_beta   90.00000000
_cell_angle_gamma   90.00000000
_symmetry_Int_Tables_number   1
_chemical_formula_structural   Hf2FeSi2Rh
_chemical_formula_sum   'Hf4 Fe2 Si4 Rh2'
_cell_volume   182.61940130
_cell_formula_units_Z   2
loop_
 _symmetry_equiv_pos_site_id
 _symmetry_equiv_pos_as_xyz
  1  'x, y, z'
loop_
 _atom_site_type_symbol
 _atom_site_label
 _atom_site_symmetry_multiplicity
 _atom_site_fract_x
 _atom_site_fract_y
 _atom_site_fract_z
 _atom_site_occupancy
  Hf  Hf0  1  0.250000  0.507447  0.183823  1
  Hf  Hf1  1  0.750000  0.492553  0.816177  1
  Hf  Hf2  1  0.250000  0.012055  0.299973  1
  Hf  Hf3  1  0.750000  0.987945  0.700027  1
  Fe  Fe4  1  0.750000  0.847270  0.064567  1
  Fe  Fe5  1  0.250000  0.152730  0.935433  1
  Si  Si6  1  0.250000  0.788995  0.899786  1
  Si  Si7  1  0.750000  0.211005  0.100214  1
  Si  Si8  1  0.250000  0.273694  0.624358  1
  Si  Si9  1  0.750000  0.726306  0.375642  1
  Rh  Rh10  1  0.750000  0.345110  0.430962  1
  Rh  Rh11  1  0.250000  0.654890  0.569038  1
