# generated using pymatgen
data_Ce5GaSnSb2
_symmetry_space_group_name_H-M   'P 1'
_cell_length_a   9.48165300
_cell_length_b   9.48165428
_cell_length_c   6.39397100
_cell_angle_alpha   90.00000000
_cell_angle_beta   90.00000000
_cell_angle_gamma   119.91644913
_symmetry_Int_Tables_number   1
_chemical_formula_structural   Ce5GaSnSb2
_chemical_formula_sum   'Ce10 Ga2 Sn2 Sb4'
_cell_volume   498.23529619
_cell_formula_units_Z   2
loop_
 _symmetry_equiv_pos_site_id
 _symmetry_equiv_pos_as_xyz
  1  'x, y, z'
loop_
 _atom_site_type_symbol
 _atom_site_label
 _atom_site_symmetry_multiplicity
 _atom_site_fract_x
 _atom_site_fract_y
 _atom_site_fract_z
 _atom_site_occupancy
  Ce  Ce0  1  0.733798  0.733798  0.750000  1
  Ce  Ce1  1  0.266965  0.999472  0.750000  1
  Ce  Ce2  1  0.999472  0.266965  0.750000  1
  Ce  Ce3  1  0.271977  0.271977  0.250000  1
  Ce  Ce4  1  0.730809  0.998422  0.250000  1
  Ce  Ce5  1  0.998422  0.730809  0.250000  1
  Ce  Ce6  1  0.665822  0.332740  0.000156  1
  Ce  Ce7  1  0.332740  0.665822  0.000156  1
  Ce  Ce8  1  0.332740  0.665822  0.499844  1
  Ce  Ce9  1  0.665822  0.332740  0.499844  1
  Ga  Ga10  1  0.002001  0.002001  0.006326  1
  Ga  Ga11  1  0.002001  0.002001  0.493674  1
  Sn  Sn12  1  0.376847  0.999336  0.250000  1
  Sn  Sn13  1  0.999336  0.376847  0.250000  1
  Sb  Sb14  1  0.379489  0.379489  0.750000  1
  Sb  Sb15  1  0.620265  0.999439  0.750000  1
  Sb  Sb16  1  0.999439  0.620265  0.750000  1
  Sb  Sb17  1  0.622054  0.622054  0.250000  1
