# generated using pymatgen
data_Tb5Y3(AgRh)2
_symmetry_space_group_name_H-M   'P 1'
_cell_length_a   9.55859711
_cell_length_b   9.55275494
_cell_length_c   9.55561529
_cell_angle_alpha   60.03004382
_cell_angle_beta   59.97346830
_cell_angle_gamma   60.00028084
_symmetry_Int_Tables_number   1
_chemical_formula_structural   Tb5Y3(AgRh)2
_chemical_formula_sum   'Tb10 Y6 Ag4 Rh4'
_cell_volume   616.99080119
_cell_formula_units_Z   2
loop_
 _symmetry_equiv_pos_site_id
 _symmetry_equiv_pos_as_xyz
  1  'x, y, z'
loop_
 _atom_site_type_symbol
 _atom_site_label
 _atom_site_symmetry_multiplicity
 _atom_site_fract_x
 _atom_site_fract_y
 _atom_site_fract_z
 _atom_site_occupancy
  Tb  Tb0  1  0.603469  0.603484  0.603486  1
  Tb  Tb1  1  0.603472  0.603461  0.189582  1
  Tb  Tb2  1  0.603502  0.189560  0.603459  1
  Tb  Tb3  1  0.189551  0.603496  0.603476  1
  Tb  Tb4  1  0.061907  0.438115  0.438114  1
  Tb  Tb5  1  0.438110  0.061875  0.061893  1
  Tb  Tb6  1  0.437766  0.062233  0.437763  1
  Tb  Tb7  1  0.062244  0.437764  0.062226  1
  Tb  Tb8  1  0.437912  0.437922  0.062090  1
  Tb  Tb9  1  0.062099  0.062063  0.437917  1
  Y  Y10  1  0.186061  0.813936  0.813936  1
  Y  Y11  1  0.813933  0.186070  0.186054  1
  Y  Y12  1  0.814142  0.185863  0.814139  1
  Y  Y13  1  0.185836  0.814160  0.185842  1
  Y  Y14  1  0.814037  0.814033  0.185960  1
  Y  Y15  1  0.185968  0.185966  0.814032  1
  Ag  Ag16  1  0.832164  0.832190  0.832191  1
  Ag  Ag17  1  0.832180  0.832175  0.503453  1
  Ag  Ag18  1  0.832159  0.503481  0.832176  1
  Ag  Ag19  1  0.503451  0.832180  0.832200  1
  Rh  Rh20  1  0.393723  0.393572  0.393669  1
  Rh  Rh21  1  0.393580  0.393711  0.819040  1
  Rh  Rh22  1  0.393662  0.819033  0.393723  1
  Rh  Rh23  1  0.819070  0.393657  0.393581  1
