# generated using pymatgen
data_Na3(CrN2)2
_symmetry_space_group_name_H-M   'P 1'
_cell_length_a   5.56218700
_cell_length_b   9.79914600
_cell_length_c   9.43466200
_cell_angle_alpha   90.00000000
_cell_angle_beta   90.00000000
_cell_angle_gamma   90.00000000
_symmetry_Int_Tables_number   1
_chemical_formula_structural   Na3(CrN2)2
_chemical_formula_sum   'Na12 Cr8 N16'
_cell_volume   514.23325673
_cell_formula_units_Z   4
loop_
 _symmetry_equiv_pos_site_id
 _symmetry_equiv_pos_as_xyz
  1  'x, y, z'
loop_
 _atom_site_type_symbol
 _atom_site_label
 _atom_site_symmetry_multiplicity
 _atom_site_fract_x
 _atom_site_fract_y
 _atom_site_fract_z
 _atom_site_occupancy
  Na  Na0  1  0.639209  0.156477  0.417450  1
  Na  Na1  1  0.860791  0.843523  0.417450  1
  Na  Na2  1  0.639209  0.343523  0.082550  1
  Na  Na3  1  0.860791  0.656477  0.082550  1
  Na  Na4  1  0.360791  0.843523  0.582550  1
  Na  Na5  1  0.139209  0.156477  0.582550  1
  Na  Na6  1  0.360791  0.656477  0.917450  1
  Na  Na7  1  0.139209  0.343523  0.917450  1
  Na  Na8  1  0.750000  0.500000  0.410214  1
  Na  Na9  1  0.750000  0.000000  0.089786  1
  Na  Na10  1  0.250000  0.500000  0.589786  1
  Na  Na11  1  0.250000  0.000000  0.910214  1
  Cr  Cr12  1  0.750000  0.500000  0.737540  1
  Cr  Cr13  1  0.750000  0.000000  0.762460  1
  Cr  Cr14  1  0.250000  0.500000  0.262460  1
  Cr  Cr15  1  0.250000  0.000000  0.237540  1
  Cr  Cr16  1  0.696759  0.250000  0.750000  1
  Cr  Cr17  1  0.803241  0.750000  0.750000  1
  Cr  Cr18  1  0.303241  0.750000  0.250000  1
  Cr  Cr19  1  0.196759  0.250000  0.250000  1
  N  N20  1  0.883334  0.359494  0.638881  1
  N  N21  1  0.616666  0.640506  0.638881  1
  N  N22  1  0.883334  0.140506  0.861119  1
  N  N23  1  0.616666  0.859494  0.861119  1
  N  N24  1  0.116666  0.640506  0.361119  1
  N  N25  1  0.383334  0.359494  0.361119  1
  N  N26  1  0.116666  0.859494  0.138881  1
  N  N27  1  0.383334  0.140506  0.138881  1
  N  N28  1  0.541772  0.393999  0.835706  1
  N  N29  1  0.958228  0.606001  0.835706  1
  N  N30  1  0.541772  0.106001  0.664294  1
  N  N31  1  0.958228  0.893999  0.664294  1
  N  N32  1  0.458228  0.606001  0.164294  1
  N  N33  1  0.041772  0.393999  0.164294  1
  N  N34  1  0.458228  0.893999  0.335706  1
  N  N35  1  0.041772  0.106001  0.335706  1
