# generated using pymatgen
data_Tb3Sm8Y9Sn16
_symmetry_space_group_name_H-M   'P 1'
_cell_length_a   8.10776602
_cell_length_b   8.26501403
_cell_length_c   15.61960002
_cell_angle_alpha   90.00513630
_cell_angle_beta   90.00185361
_cell_angle_gamma   90.00875552
_symmetry_Int_Tables_number   1
_chemical_formula_structural   Tb3Sm8Y9Sn16
_chemical_formula_sum   'Tb3 Sm8 Y9 Sn16'
_cell_volume   1046.68187536
_cell_formula_units_Z   1
loop_
 _symmetry_equiv_pos_site_id
 _symmetry_equiv_pos_as_xyz
  1  'x, y, z'
loop_
 _atom_site_type_symbol
 _atom_site_label
 _atom_site_symmetry_multiplicity
 _atom_site_fract_x
 _atom_site_fract_y
 _atom_site_fract_z
 _atom_site_occupancy
  Tb  Tb0  1  0.133774  0.335494  0.378175  1
  Tb  Tb1  1  0.366259  0.835491  0.621794  1
  Tb  Tb2  1  0.866248  0.664509  0.878236  1
  Sm  Sm3  1  0.518535  0.320456  0.902058  1
  Sm  Sm4  1  0.018530  0.179546  0.597965  1
  Sm  Sm5  1  0.481464  0.679542  0.402018  1
  Sm  Sm6  1  0.981419  0.820448  0.097973  1
  Sm  Sm7  1  0.481396  0.679485  0.097964  1
  Sm  Sm8  1  0.981383  0.820597  0.402009  1
  Sm  Sm9  1  0.518599  0.320559  0.597969  1
  Sm  Sm10  1  0.018621  0.179459  0.902014  1
  Y  Y11  1  0.366003  0.835655  0.878219  1
  Y  Y12  1  0.866031  0.664307  0.621769  1
  Y  Y13  1  0.633957  0.164310  0.378204  1
  Y  Y14  1  0.133891  0.335705  0.121780  1
  Y  Y15  1  0.633882  0.164380  0.121835  1
  Y  Y16  1  0.198234  0.502383  0.750063  1
  Y  Y17  1  0.698230  0.997625  0.749954  1
  Y  Y18  1  0.801728  0.497561  0.250020  1
  Y  Y19  1  0.301758  0.002401  0.249945  1
  Sn  Sn20  1  0.295732  0.036766  0.041780  1
  Sn  Sn21  1  0.795535  0.463255  0.458241  1
  Sn  Sn22  1  0.704476  0.963256  0.541771  1
  Sn  Sn23  1  0.204504  0.536733  0.958229  1
  Sn  Sn24  1  0.704140  0.963318  0.958210  1
  Sn  Sn25  1  0.204186  0.536781  0.541864  1
  Sn  Sn26  1  0.295811  0.036789  0.458123  1
  Sn  Sn27  1  0.795704  0.463135  0.041879  1
  Sn  Sn28  1  0.564907  0.620364  0.749954  1
  Sn  Sn29  1  0.064897  0.879626  0.750048  1
  Sn  Sn30  1  0.435147  0.379564  0.249963  1
  Sn  Sn31  1  0.935047  0.120381  0.250025  1
  Sn  Sn32  1  0.326475  0.144019  0.750004  1
  Sn  Sn33  1  0.826500  0.356007  0.749989  1
  Sn  Sn34  1  0.673492  0.856070  0.249978  1
  Sn  Sn35  1  0.173506  0.644023  0.249977  1
