# generated using pymatgen
data_Cr3(BiO4)2
_symmetry_space_group_name_H-M   'P 1'
_cell_length_a   6.42006077
_cell_length_b   6.42006100
_cell_length_c   5.18575665
_cell_angle_alpha   71.79542340
_cell_angle_beta   71.79542185
_cell_angle_gamma   57.14538076
_symmetry_Int_Tables_number   1
_chemical_formula_structural   Cr3(BiO4)2
_chemical_formula_sum   'Cr3 Bi2 O8'
_cell_volume   167.80892684
_cell_formula_units_Z   1
loop_
 _symmetry_equiv_pos_site_id
 _symmetry_equiv_pos_as_xyz
  1  'x, y, z'
loop_
 _atom_site_type_symbol
 _atom_site_label
 _atom_site_symmetry_multiplicity
 _atom_site_fract_x
 _atom_site_fract_y
 _atom_site_fract_z
 _atom_site_occupancy
  Cr  Cr0  1  0.000000  0.000000  0.500000  1
  Cr  Cr1  1  0.745737  0.254263  0.000000  1
  Cr  Cr2  1  0.254263  0.745737  0.000000  1
  Bi  Bi3  1  0.714989  0.714989  0.329848  1
  Bi  Bi4  1  0.285011  0.285011  0.670152  1
  O  O5  1  0.393490  0.393490  0.954810  1
  O  O6  1  0.606510  0.606510  0.045190  1
  O  O7  1  0.903068  0.903068  0.910424  1
  O  O8  1  0.096932  0.096932  0.089576  1
  O  O9  1  0.329653  0.887412  0.599589  1
  O  O10  1  0.887412  0.329653  0.599589  1
  O  O11  1  0.112588  0.670347  0.400411  1
  O  O12  1  0.670347  0.112588  0.400411  1
