# generated using pymatgen
data_NbCo4B4W3
_symmetry_space_group_name_H-M   'P 1'
_cell_length_a   3.27395500
_cell_length_b   5.76148890
_cell_length_c   6.67082438
_cell_angle_alpha   90.21204102
_cell_angle_beta   90.00000000
_cell_angle_gamma   90.00000000
_symmetry_Int_Tables_number   1
_chemical_formula_structural   NbCo4B4W3
_chemical_formula_sum   'Nb1 Co4 B4 W3'
_cell_volume   125.82993390
_cell_formula_units_Z   1
loop_
 _symmetry_equiv_pos_site_id
 _symmetry_equiv_pos_as_xyz
  1  'x, y, z'
loop_
 _atom_site_type_symbol
 _atom_site_label
 _atom_site_symmetry_multiplicity
 _atom_site_fract_x
 _atom_site_fract_y
 _atom_site_fract_z
 _atom_site_occupancy
  Nb  Nb0  1  0.250000  0.027363  0.822420  1
  Co  Co1  1  0.250000  0.144884  0.440250  1
  Co  Co2  1  0.250000  0.641840  0.058883  1
  Co  Co3  1  0.750000  0.856611  0.556704  1
  Co  Co4  1  0.750000  0.358076  0.943252  1
  B  B5  1  0.250000  0.269697  0.129305  1
  B  B6  1  0.250000  0.770054  0.374758  1
  B  B7  1  0.750000  0.723082  0.877008  1
  B  B8  1  0.750000  0.236334  0.619939  1
  W  W9  1  0.250000  0.526863  0.674606  1
  W  W10  1  0.750000  0.972341  0.178631  1
  W  W11  1  0.750000  0.472854  0.324245  1
