# generated using pymatgen
data_Tm4Fe8Co9(ReP4)3
_symmetry_space_group_name_H-M   'P 1'
_cell_length_a   3.68654800
_cell_length_b   10.27833152
_cell_length_c   11.78421724
_cell_angle_alpha   90.13447670
_cell_angle_beta   90.00000000
_cell_angle_gamma   90.00000000
_symmetry_Int_Tables_number   1
_chemical_formula_structural   Tm4Fe8Co9(ReP4)3
_chemical_formula_sum   'Tm4 Fe8 Co9 Re3 P12'
_cell_volume   446.52117426
_cell_formula_units_Z   1
loop_
 _symmetry_equiv_pos_site_id
 _symmetry_equiv_pos_as_xyz
  1  'x, y, z'
loop_
 _atom_site_type_symbol
 _atom_site_label
 _atom_site_symmetry_multiplicity
 _atom_site_fract_x
 _atom_site_fract_y
 _atom_site_fract_z
 _atom_site_occupancy
  Tm  Tm0  1  0.250000  0.581731  0.704111  1
  Tm  Tm1  1  0.250000  0.916853  0.205045  1
  Tm  Tm2  1  0.750000  0.417260  0.294739  1
  Tm  Tm3  1  0.750000  0.080601  0.796348  1
  Fe  Fe4  1  0.750000  0.212545  0.514266  1
  Fe  Fe5  1  0.750000  0.591647  0.510683  1
  Fe  Fe6  1  0.750000  0.907178  0.012086  1
  Fe  Fe7  1  0.750000  0.779439  0.822819  1
  Fe  Fe8  1  0.750000  0.721578  0.323740  1
  Fe  Fe9  1  0.750000  0.118971  0.304111  1
  Fe  Fe10  1  0.750000  0.381696  0.799413  1
  Fe  Fe11  1  0.750000  0.535817  0.064220  1
  Co  Co12  1  0.250000  0.402554  0.486565  1
  Co  Co13  1  0.250000  0.095997  0.986042  1
  Co  Co14  1  0.250000  0.222230  0.175576  1
  Co  Co15  1  0.250000  0.278131  0.674536  1
  Co  Co16  1  0.250000  0.886939  0.700136  1
  Co  Co17  1  0.250000  0.613238  0.201161  1
  Co  Co18  1  0.250000  0.462439  0.934014  1
  Co  Co19  1  0.250000  0.036852  0.435594  1
  Co  Co20  1  0.750000  0.966988  0.567208  1
  Re  Re21  1  0.250000  0.707427  0.989357  1
  Re  Re22  1  0.250000  0.791624  0.488449  1
  Re  Re23  1  0.750000  0.291406  0.012959  1
  P  P24  1  0.250000  0.421140  0.115257  1
  P  P25  1  0.250000  0.081173  0.614654  1
  P  P26  1  0.750000  0.579880  0.882748  1
  P  P27  1  0.750000  0.921514  0.384317  1
  P  P28  1  0.250000  0.268479  0.863185  1
  P  P29  1  0.250000  0.230415  0.365322  1
  P  P30  1  0.750000  0.733513  0.134299  1
  P  P31  1  0.750000  0.766446  0.633251  1
  P  P32  1  0.250000  0.596237  0.390875  1
  P  P33  1  0.250000  0.902928  0.891578  1
  P  P34  1  0.750000  0.402558  0.608743  1
  P  P35  1  0.750000  0.094573  0.112594  1
