# generated using pymatgen
data_Lu16In3HgPd4
_symmetry_space_group_name_H-M   'P 1'
_cell_length_a   9.52226442
_cell_length_b   9.51554440
_cell_length_c   9.51554500
_cell_angle_alpha   60.00000138
_cell_angle_beta   60.02334358
_cell_angle_gamma   60.02333285
_symmetry_Int_Tables_number   1
_chemical_formula_structural   Lu16In3HgPd4
_chemical_formula_sum   'Lu16 In3 Hg1 Pd4'
_cell_volume   609.88178346
_cell_formula_units_Z   1
loop_
 _symmetry_equiv_pos_site_id
 _symmetry_equiv_pos_as_xyz
  1  'x, y, z'
loop_
 _atom_site_type_symbol
 _atom_site_label
 _atom_site_symmetry_multiplicity
 _atom_site_fract_x
 _atom_site_fract_y
 _atom_site_fract_z
 _atom_site_occupancy
  Lu  Lu0  1  0.352363  0.353627  0.353627  1
  Lu  Lu1  1  0.352363  0.353627  0.940384  1
  Lu  Lu2  1  0.352363  0.940384  0.353627  1
  Lu  Lu3  1  0.942390  0.352538  0.352538  1
  Lu  Lu4  1  0.810711  0.189320  0.189320  1
  Lu  Lu5  1  0.189590  0.811104  0.811104  1
  Lu  Lu6  1  0.189590  0.811104  0.188201  1
  Lu  Lu7  1  0.810711  0.189320  0.810651  1
  Lu  Lu8  1  0.189590  0.188201  0.811104  1
  Lu  Lu9  1  0.810711  0.810651  0.189320  1
  Lu  Lu10  1  0.939722  0.563577  0.563577  1
  Lu  Lu11  1  0.565363  0.935461  0.935461  1
  Lu  Lu12  1  0.565363  0.935461  0.563714  1
  Lu  Lu13  1  0.939722  0.563577  0.933125  1
  Lu  Lu14  1  0.565363  0.563714  0.935461  1
  Lu  Lu15  1  0.939722  0.933125  0.563577  1
  In  In16  1  0.582409  0.584156  0.584156  1
  In  In17  1  0.582409  0.584156  0.249278  1
  In  In18  1  0.582409  0.249278  0.584156  1
  Hg  Hg19  1  0.236837  0.587721  0.587721  1
  Pd  Pd20  1  0.144536  0.144160  0.144160  1
  Pd  Pd21  1  0.144536  0.144160  0.567142  1
  Pd  Pd22  1  0.144536  0.567142  0.144160  1
  Pd  Pd23  1  0.566697  0.144434  0.144434  1
