# generated using pymatgen
data_GdEr(SbO4)2
_symmetry_space_group_name_H-M   'P 1'
_cell_length_a   5.39507589
_cell_length_b   7.66359397
_cell_length_c   7.55389400
_cell_angle_alpha   81.13130215
_cell_angle_beta   90.34515253
_cell_angle_gamma   92.27652209
_symmetry_Int_Tables_number   1
_chemical_formula_structural   GdEr(SbO4)2
_chemical_formula_sum   'Gd2 Er2 Sb4 O16'
_cell_volume   308.34323231
_cell_formula_units_Z   2
loop_
 _symmetry_equiv_pos_site_id
 _symmetry_equiv_pos_as_xyz
  1  'x, y, z'
loop_
 _atom_site_type_symbol
 _atom_site_label
 _atom_site_symmetry_multiplicity
 _atom_site_fract_x
 _atom_site_fract_y
 _atom_site_fract_z
 _atom_site_occupancy
  Gd  Gd0  1  0.260780  0.133226  0.613841  1
  Gd  Gd1  1  0.739220  0.866774  0.386159  1
  Er  Er2  1  0.210194  0.159658  0.108871  1
  Er  Er3  1  0.789806  0.840342  0.891129  1
  Sb  Sb4  1  0.240420  0.663244  0.192976  1
  Sb  Sb5  1  0.759580  0.336756  0.807024  1
  Sb  Sb6  1  0.723507  0.336723  0.306538  1
  Sb  Sb7  1  0.276493  0.663277  0.693462  1
  O  O8  1  0.086584  0.434491  0.690526  1
  O  O9  1  0.913416  0.565509  0.309474  1
  O  O10  1  0.613658  0.326606  0.560586  1
  O  O11  1  0.386342  0.673394  0.439414  1
  O  O12  1  0.874914  0.332844  0.061304  1
  O  O13  1  0.125086  0.667156  0.938696  1
  O  O14  1  0.399102  0.430202  0.195442  1
  O  O15  1  0.600898  0.569798  0.804558  1
  O  O16  1  0.047771  0.887108  0.169377  1
  O  O17  1  0.952229  0.112892  0.830623  1
  O  O18  1  0.505185  0.113217  0.319268  1
  O  O19  1  0.494815  0.886783  0.680732  1
  O  O20  1  0.462082  0.191103  0.881638  1
  O  O21  1  0.537918  0.808897  0.118362  1
  O  O22  1  0.988988  0.167887  0.377224  1
  O  O23  1  0.011012  0.832113  0.622776  1
