# generated using pymatgen
data_CaLa2(TbRh6)3
_symmetry_space_group_name_H-M   'P 1'
_cell_length_a   5.32098300
_cell_length_b   5.32098236
_cell_length_c   17.58874700
_cell_angle_alpha   90.00000000
_cell_angle_beta   90.00000000
_cell_angle_gamma   119.99999777
_symmetry_Int_Tables_number   1
_chemical_formula_structural   CaLa2(TbRh6)3
_chemical_formula_sum   'Ca1 La2 Tb3 Rh18'
_cell_volume   431.26998525
_cell_formula_units_Z   1
loop_
 _symmetry_equiv_pos_site_id
 _symmetry_equiv_pos_as_xyz
  1  'x, y, z'
loop_
 _atom_site_type_symbol
 _atom_site_label
 _atom_site_symmetry_multiplicity
 _atom_site_fract_x
 _atom_site_fract_y
 _atom_site_fract_z
 _atom_site_occupancy
  Ca  Ca0  1  0.333333  0.666667  0.959548  1
  La  La1  1  0.333333  0.666667  0.752693  1
  La  La2  1  0.666667  0.333333  0.249885  1
  Tb  Tb3  1  0.333333  0.666667  0.542198  1
  Tb  Tb4  1  0.666667  0.333333  0.039781  1
  Tb  Tb5  1  0.666667  0.333333  0.458649  1
  Rh  Rh6  1  0.166965  0.333930  0.125358  1
  Rh  Rh7  1  0.832603  0.665207  0.624432  1
  Rh  Rh8  1  0.666070  0.833035  0.125358  1
  Rh  Rh9  1  0.166965  0.833035  0.125358  1
  Rh  Rh10  1  0.832603  0.167397  0.624432  1
  Rh  Rh11  1  0.334793  0.167397  0.624432  1
  Rh  Rh12  1  0.832957  0.665915  0.874063  1
  Rh  Rh13  1  0.832957  0.167043  0.874063  1
  Rh  Rh14  1  0.334085  0.167043  0.874063  1
  Rh  Rh15  1  0.665158  0.832579  0.375694  1
  Rh  Rh16  1  0.167421  0.832579  0.375694  1
  Rh  Rh17  1  0.167421  0.334842  0.375694  1
  Rh  Rh18  1  0.000000  0.000000  0.250527  1
  Rh  Rh19  1  0.000000  0.000000  0.749096  1
  Rh  Rh20  1  0.333333  0.666667  0.250280  1
  Rh  Rh21  1  0.666667  0.333333  0.749228  1
  Rh  Rh22  1  0.000000  0.000000  0.999442  1
  Rh  Rh23  1  0.000000  0.000000  0.500037  1
