# generated using pymatgen
data_Tb3Dy(Er2Rh)4
_symmetry_space_group_name_H-M   'P 1'
_cell_length_a   6.27625404
_cell_length_b   7.17281674
_cell_length_c   9.34501500
_cell_angle_alpha   90.00000000
_cell_angle_beta   90.00000000
_cell_angle_gamma   89.96759653
_symmetry_Int_Tables_number   1
_chemical_formula_structural   Tb3Dy(Er2Rh)4
_chemical_formula_sum   'Tb3 Dy1 Er8 Rh4'
_cell_volume   420.69774326
_cell_formula_units_Z   1
loop_
 _symmetry_equiv_pos_site_id
 _symmetry_equiv_pos_as_xyz
  1  'x, y, z'
loop_
 _atom_site_type_symbol
 _atom_site_label
 _atom_site_symmetry_multiplicity
 _atom_site_fract_x
 _atom_site_fract_y
 _atom_site_fract_z
 _atom_site_occupancy
  Tb  Tb0  1  0.866310  0.532685  0.250000  1
  Tb  Tb1  1  0.633820  0.032516  0.250000  1
  Tb  Tb2  1  0.133973  0.467336  0.750000  1
  Dy  Dy3  1  0.365816  0.967002  0.750000  1
  Er  Er4  1  0.329827  0.677481  0.063184  1
  Er  Er5  1  0.170654  0.177176  0.436947  1
  Er  Er6  1  0.670117  0.322642  0.563432  1
  Er  Er7  1  0.829273  0.822807  0.936539  1
  Er  Er8  1  0.670117  0.322642  0.936568  1
  Er  Er9  1  0.829273  0.822807  0.563461  1
  Er  Er10  1  0.329827  0.677481  0.436816  1
  Er  Er11  1  0.170654  0.177176  0.063053  1
  Rh  Rh12  1  0.061092  0.881832  0.250000  1
  Rh  Rh13  1  0.439000  0.381688  0.250000  1
  Rh  Rh14  1  0.939863  0.117990  0.750000  1
  Rh  Rh15  1  0.560383  0.618737  0.750000  1
