# generated using pymatgen
data_Y5HoTe3
_symmetry_space_group_name_H-M   'P 1'
_cell_length_a   4.08351200
_cell_length_b   11.56001500
_cell_length_c   22.24689400
_cell_angle_alpha   90.00000000
_cell_angle_beta   90.00000000
_cell_angle_gamma   90.00000000
_symmetry_Int_Tables_number   1
_chemical_formula_structural   Y5HoTe3
_chemical_formula_sum   'Y20 Ho4 Te12'
_cell_volume   1050.17486423
_cell_formula_units_Z   4
loop_
 _symmetry_equiv_pos_site_id
 _symmetry_equiv_pos_as_xyz
  1  'x, y, z'
loop_
 _atom_site_type_symbol
 _atom_site_label
 _atom_site_symmetry_multiplicity
 _atom_site_fract_x
 _atom_site_fract_y
 _atom_site_fract_z
 _atom_site_occupancy
  Y  Y0  1  0.250000  0.151677  0.391466  1
  Y  Y1  1  0.750000  0.848323  0.608534  1
  Y  Y2  1  0.750000  0.651677  0.108534  1
  Y  Y3  1  0.250000  0.348323  0.891466  1
  Y  Y4  1  0.250000  0.456325  0.339949  1
  Y  Y5  1  0.750000  0.543675  0.660051  1
  Y  Y6  1  0.750000  0.956325  0.160051  1
  Y  Y7  1  0.250000  0.043675  0.839949  1
  Y  Y8  1  0.250000  0.734312  0.233473  1
  Y  Y9  1  0.750000  0.265688  0.766527  1
  Y  Y10  1  0.750000  0.234312  0.266527  1
  Y  Y11  1  0.250000  0.765688  0.733473  1
  Y  Y12  1  0.250000  0.115709  0.034407  1
  Y  Y13  1  0.750000  0.884291  0.965593  1
  Y  Y14  1  0.750000  0.615709  0.465593  1
  Y  Y15  1  0.250000  0.384291  0.534407  1
  Y  Y16  1  0.250000  0.414611  0.146761  1
  Y  Y17  1  0.750000  0.585389  0.853239  1
  Y  Y18  1  0.750000  0.914611  0.353239  1
  Y  Y19  1  0.250000  0.085389  0.646761  1
  Ho  Ho20  1  0.250000  0.612439  0.982938  1
  Ho  Ho21  1  0.750000  0.387561  0.017062  1
  Ho  Ho22  1  0.750000  0.112439  0.517062  1
  Ho  Ho23  1  0.250000  0.887561  0.482938  1
  Te  Te24  1  0.250000  0.850325  0.069020  1
  Te  Te25  1  0.750000  0.149675  0.930980  1
  Te  Te26  1  0.750000  0.350325  0.430980  1
  Te  Te27  1  0.250000  0.649675  0.569020  1
  Te  Te28  1  0.250000  0.712199  0.372883  1
  Te  Te29  1  0.750000  0.287801  0.627117  1
  Te  Te30  1  0.750000  0.212199  0.127117  1
  Te  Te31  1  0.250000  0.787801  0.872883  1
  Te  Te32  1  0.250000  0.020650  0.261060  1
  Te  Te33  1  0.750000  0.979350  0.738940  1
  Te  Te34  1  0.750000  0.520650  0.238940  1
  Te  Te35  1  0.250000  0.479350  0.761060  1
