# generated using pymatgen
data_Cs2Gd(TeO4)3
_symmetry_space_group_name_H-M   'P 1'
_cell_length_a   7.70578340
_cell_length_b   7.70574302
_cell_length_c   7.70377168
_cell_angle_alpha   57.73461091
_cell_angle_beta   57.73631278
_cell_angle_gamma   57.73987257
_symmetry_Int_Tables_number   1
_chemical_formula_structural   Cs2Gd(TeO4)3
_chemical_formula_sum   'Cs2 Gd1 Te3 O12'
_cell_volume   306.64431366
_cell_formula_units_Z   1
loop_
 _symmetry_equiv_pos_site_id
 _symmetry_equiv_pos_as_xyz
  1  'x, y, z'
loop_
 _atom_site_type_symbol
 _atom_site_label
 _atom_site_symmetry_multiplicity
 _atom_site_fract_x
 _atom_site_fract_y
 _atom_site_fract_z
 _atom_site_occupancy
  Cs  Cs0  1  0.117071  0.130959  0.621886  1
  Cs  Cs1  1  0.869044  0.882931  0.378123  1
  Gd  Gd2  1  0.497042  0.502952  0.000002  1
  Te  Te3  1  0.497862  0.002340  0.000120  1
  Te  Te4  1  0.997658  0.502138  0.999876  1
  Te  Te5  1  0.497730  0.502274  0.499998  1
  O  O6  1  0.813256  0.817491  0.920128  1
  O  O7  1  0.425516  0.428742  0.354416  1
  O  O8  1  0.425648  0.856759  0.926587  1
  O  O9  1  0.812968  0.421443  0.314991  1
  O  O10  1  0.851688  0.429502  0.927216  1
  O  O11  1  0.417829  0.817440  0.315222  1
  O  O12  1  0.182504  0.186748  0.079872  1
  O  O13  1  0.571294  0.574452  0.645582  1
  O  O14  1  0.570520  0.148296  0.072773  1
  O  O15  1  0.182555  0.582161  0.684774  1
  O  O16  1  0.143252  0.574328  0.073424  1
  O  O17  1  0.578564  0.187042  0.685010  1
