# generated using pymatgen
data_Yb3Pr17Ir12
_symmetry_space_group_name_H-M   'P 1'
_cell_length_a   11.30468100
_cell_length_b   11.30468100
_cell_length_c   6.51987700
_cell_angle_alpha   90.00000000
_cell_angle_beta   90.00000000
_cell_angle_gamma   90.00000000
_symmetry_Int_Tables_number   1
_chemical_formula_structural   Yb3Pr17Ir12
_chemical_formula_sum   'Yb3 Pr17 Ir12'
_cell_volume   833.21297869
_cell_formula_units_Z   1
loop_
 _symmetry_equiv_pos_site_id
 _symmetry_equiv_pos_as_xyz
  1  'x, y, z'
loop_
 _atom_site_type_symbol
 _atom_site_label
 _atom_site_symmetry_multiplicity
 _atom_site_fract_x
 _atom_site_fract_y
 _atom_site_fract_z
 _atom_site_occupancy
  Yb  Yb0  1  0.000000  0.000000  0.500000  1
  Yb  Yb1  1  0.000000  0.000000  0.000000  1
  Yb  Yb2  1  0.500000  0.500000  0.000000  1
  Pr  Pr3  1  0.287286  0.088445  0.383566  1
  Pr  Pr4  1  0.287862  0.911755  0.883055  1
  Pr  Pr5  1  0.712138  0.088245  0.883055  1
  Pr  Pr6  1  0.712714  0.911555  0.383566  1
  Pr  Pr7  1  0.588895  0.788766  0.882739  1
  Pr  Pr8  1  0.589716  0.208987  0.382871  1
  Pr  Pr9  1  0.410284  0.791013  0.382871  1
  Pr  Pr10  1  0.411105  0.211234  0.882739  1
  Pr  Pr11  1  0.208987  0.410284  0.617129  1
  Pr  Pr12  1  0.211234  0.588895  0.117261  1
  Pr  Pr13  1  0.788766  0.411105  0.117261  1
  Pr  Pr14  1  0.791013  0.589716  0.617129  1
  Pr  Pr15  1  0.911755  0.712138  0.116945  1
  Pr  Pr16  1  0.911555  0.287286  0.616434  1
  Pr  Pr17  1  0.088445  0.712714  0.616434  1
  Pr  Pr18  1  0.088245  0.287862  0.116945  1
  Pr  Pr19  1  0.500000  0.500000  0.500000  1
  Ir  Ir20  1  0.845535  0.154652  0.249386  1
  Ir  Ir21  1  0.845348  0.845535  0.750614  1
  Ir  Ir22  1  0.154652  0.154465  0.750614  1
  Ir  Ir23  1  0.154465  0.845348  0.249386  1
  Ir  Ir24  1  0.654240  0.345954  0.749298  1
  Ir  Ir25  1  0.654046  0.654240  0.250702  1
  Ir  Ir26  1  0.345954  0.345760  0.250702  1
  Ir  Ir27  1  0.345760  0.654046  0.749298  1
  Ir  Ir28  1  0.500000  0.000000  0.113581  1
  Ir  Ir29  1  0.500000  0.000000  0.614837  1
  Ir  Ir30  1  0.000000  0.500000  0.886419  1
  Ir  Ir31  1  0.000000  0.500000  0.385163  1
