# generated using pymatgen
data_BaSr(InSn)2
_symmetry_space_group_name_H-M   'P 1'
_cell_length_a   4.97462800
_cell_length_b   4.97462867
_cell_length_c   18.96104000
_cell_angle_alpha   90.00000000
_cell_angle_beta   90.00000000
_cell_angle_gamma   119.99999552
_symmetry_Int_Tables_number   1
_chemical_formula_structural   BaSr(InSn)2
_chemical_formula_sum   'Ba2 Sr2 In4 Sn4'
_cell_volume   406.36293132
_cell_formula_units_Z   2
loop_
 _symmetry_equiv_pos_site_id
 _symmetry_equiv_pos_as_xyz
  1  'x, y, z'
loop_
 _atom_site_type_symbol
 _atom_site_label
 _atom_site_symmetry_multiplicity
 _atom_site_fract_x
 _atom_site_fract_y
 _atom_site_fract_z
 _atom_site_occupancy
  Ba  Ba0  1  0.000000  0.000000  0.500000  1
  Ba  Ba1  1  0.000000  0.000000  0.000000  1
  Sr  Sr2  1  0.000000  0.000000  0.250000  1
  Sr  Sr3  1  0.000000  0.000000  0.750000  1
  In  In4  1  0.333333  0.666667  0.338285  1
  In  In5  1  0.666667  0.333333  0.661715  1
  In  In6  1  0.666667  0.333333  0.838285  1
  In  In7  1  0.333333  0.666667  0.161715  1
  Sn  Sn8  1  0.333333  0.666667  0.884886  1
  Sn  Sn9  1  0.666667  0.333333  0.115114  1
  Sn  Sn10  1  0.666667  0.333333  0.384886  1
  Sn  Sn11  1  0.333333  0.666667  0.615114  1
