# generated using pymatgen
data_DyPu(ZnP)6
_symmetry_space_group_name_H-M   'P 1'
_cell_length_a   4.01316700
_cell_length_b   4.01316662
_cell_length_c   19.76730200
_cell_angle_alpha   90.00000000
_cell_angle_beta   90.00000000
_cell_angle_gamma   119.99997840
_symmetry_Int_Tables_number   1
_chemical_formula_structural   DyPu(ZnP)6
_chemical_formula_sum   'Dy1 Pu1 Zn6 P6'
_cell_volume   275.71001852
_cell_formula_units_Z   1
loop_
 _symmetry_equiv_pos_site_id
 _symmetry_equiv_pos_as_xyz
  1  'x, y, z'
loop_
 _atom_site_type_symbol
 _atom_site_label
 _atom_site_symmetry_multiplicity
 _atom_site_fract_x
 _atom_site_fract_y
 _atom_site_fract_z
 _atom_site_occupancy
  Dy  Dy0  1  0.000000  0.000000  0.500000  1
  Pu  Pu1  1  0.000000  0.000000  0.000000  1
  Zn  Zn2  1  0.333333  0.666667  0.751599  1
  Zn  Zn3  1  0.666667  0.333333  0.248401  1
  Zn  Zn4  1  0.333333  0.666667  0.125841  1
  Zn  Zn5  1  0.666667  0.333333  0.874159  1
  Zn  Zn6  1  0.666667  0.333333  0.629226  1
  Zn  Zn7  1  0.333333  0.666667  0.370774  1
  P  P8  1  0.333333  0.666667  0.584220  1
  P  P9  1  0.666667  0.333333  0.415780  1
  P  P10  1  0.666667  0.333333  0.081099  1
  P  P11  1  0.333333  0.666667  0.918901  1
  P  P12  1  0.333333  0.666667  0.248256  1
  P  P13  1  0.666667  0.333333  0.751744  1
