# generated using pymatgen
data_Lu8Nb11Si16W
_symmetry_space_group_name_H-M   'P 1'
_cell_length_a   6.80083498
_cell_length_b   7.01002132
_cell_length_c   13.28517132
_cell_angle_alpha   90.04043477
_cell_angle_beta   89.93663733
_cell_angle_gamma   89.89912485
_symmetry_Int_Tables_number   1
_chemical_formula_structural   Lu8Nb11Si16W
_chemical_formula_sum   'Lu8 Nb11 Si16 W1'
_cell_volume   633.35570708
_cell_formula_units_Z   1
loop_
 _symmetry_equiv_pos_site_id
 _symmetry_equiv_pos_as_xyz
  1  'x, y, z'
loop_
 _atom_site_type_symbol
 _atom_site_label
 _atom_site_symmetry_multiplicity
 _atom_site_fract_x
 _atom_site_fract_y
 _atom_site_fract_z
 _atom_site_occupancy
  Lu  Lu0  1  0.502560  0.327723  0.095374  1
  Lu  Lu1  1  0.001067  0.172990  0.404664  1
  Lu  Lu2  1  0.497486  0.672813  0.595066  1
  Lu  Lu3  1  0.998312  0.827833  0.904358  1
  Lu  Lu4  1  0.497651  0.672208  0.903968  1
  Lu  Lu5  1  0.998967  0.827715  0.595234  1
  Lu  Lu6  1  0.501988  0.327585  0.405947  1
  Lu  Lu7  1  0.002420  0.172861  0.095576  1
  Nb  Nb8  1  0.837604  0.325788  0.624509  1
  Nb  Nb9  1  0.337073  0.174093  0.873726  1
  Nb  Nb10  1  0.163739  0.674236  0.125374  1
  Nb  Nb11  1  0.661848  0.827246  0.375510  1
  Nb  Nb12  1  0.165487  0.674087  0.376298  1
  Nb  Nb13  1  0.664011  0.825906  0.125383  1
  Nb  Nb14  1  0.835938  0.325582  0.873352  1
  Nb  Nb15  1  0.660730  0.007118  0.748775  1
  Nb  Nb16  1  0.161258  0.492990  0.749119  1
  Nb  Nb17  1  0.338618  0.994553  0.250587  1
  Nb  Nb18  1  0.838506  0.506418  0.250280  1
  Si  Si19  1  0.661296  0.036334  0.541897  1
  Si  Si20  1  0.164451  0.464426  0.958837  1
  Si  Si21  1  0.335371  0.965031  0.040759  1
  Si  Si22  1  0.835423  0.535796  0.459001  1
  Si  Si23  1  0.333384  0.965965  0.461582  1
  Si  Si24  1  0.835335  0.535380  0.040407  1
  Si  Si25  1  0.664682  0.035503  0.959325  1
  Si  Si26  1  0.167572  0.459947  0.542094  1
  Si  Si27  1  0.537640  0.379105  0.747900  1
  Si  Si28  1  0.041690  0.119774  0.748813  1
  Si  Si29  1  0.461229  0.619331  0.250321  1
  Si  Si30  1  0.960838  0.879912  0.250587  1
  Si  Si31  1  0.793479  0.632260  0.749566  1
  Si  Si32  1  0.295680  0.868731  0.749450  1
  Si  Si33  1  0.205732  0.368067  0.250426  1
  Si  Si34  1  0.704908  0.132713  0.250010  1
  W  W35  1  0.336025  0.171978  0.625921  1
