# generated using pymatgen
data_KSc(TlCl3)2
_symmetry_space_group_name_H-M   'P 1'
_cell_length_a   7.25877201
_cell_length_b   7.62751702
_cell_length_c   10.50891700
_cell_angle_alpha   90.00180281
_cell_angle_beta   91.26996484
_cell_angle_gamma   90.00386518
_symmetry_Int_Tables_number   1
_chemical_formula_structural   KSc(TlCl3)2
_chemical_formula_sum   'K2 Sc2 Tl4 Cl12'
_cell_volume   581.69805413
_cell_formula_units_Z   2
loop_
 _symmetry_equiv_pos_site_id
 _symmetry_equiv_pos_as_xyz
  1  'x, y, z'
loop_
 _atom_site_type_symbol
 _atom_site_label
 _atom_site_symmetry_multiplicity
 _atom_site_fract_x
 _atom_site_fract_y
 _atom_site_fract_z
 _atom_site_occupancy
  K  K0  1  0.000000  0.000000  0.000000  1
  K  K1  1  0.500000  0.500001  0.500000  1
  Sc  Sc2  1  0.500000  0.500000  0.000000  1
  Sc  Sc3  1  0.000000  0.000000  0.500000  1
  Tl  Tl4  1  0.021217  0.425577  0.250345  1
  Tl  Tl5  1  0.478945  0.925574  0.249684  1
  Tl  Tl6  1  0.521054  0.074426  0.750316  1
  Tl  Tl7  1  0.978784  0.574425  0.749655  1
  Cl  Cl8  1  0.344964  0.217815  0.050509  1
  Cl  Cl9  1  0.213864  0.664473  0.049457  1
  Cl  Cl10  1  0.607617  0.525690  0.225853  1
  Cl  Cl11  1  0.892545  0.025586  0.274124  1
  Cl  Cl12  1  0.286207  0.164375  0.450594  1
  Cl  Cl13  1  0.154980  0.717743  0.449610  1
  Cl  Cl14  1  0.845019  0.282257  0.550389  1
  Cl  Cl15  1  0.713794  0.835625  0.549406  1
  Cl  Cl16  1  0.107454  0.974414  0.725877  1
  Cl  Cl17  1  0.392384  0.474310  0.774147  1
  Cl  Cl18  1  0.786135  0.335527  0.950542  1
  Cl  Cl19  1  0.655035  0.782185  0.949492  1
