# generated using pymatgen
data_Sc15Pa(CdCo)4
_symmetry_space_group_name_H-M   'P 1'
_cell_length_a   8.92134973
_cell_length_b   8.93982595
_cell_length_c   8.92135000
_cell_angle_alpha   60.06834982
_cell_angle_beta   60.00000641
_cell_angle_gamma   60.06834769
_symmetry_Int_Tables_number   1
_chemical_formula_structural   Sc15Pa(CdCo)4
_chemical_formula_sum   'Sc15 Pa1 Cd4 Co4'
_cell_volume   503.64337254
_cell_formula_units_Z   1
loop_
 _symmetry_equiv_pos_site_id
 _symmetry_equiv_pos_as_xyz
  1  'x, y, z'
loop_
 _atom_site_type_symbol
 _atom_site_label
 _atom_site_symmetry_multiplicity
 _atom_site_fract_x
 _atom_site_fract_y
 _atom_site_fract_z
 _atom_site_occupancy
  Sc  Sc0  1  0.686320  0.314131  0.686320  1
  Sc  Sc1  1  0.686320  0.314131  0.313227  1
  Sc  Sc2  1  0.937347  0.561292  0.564014  1
  Sc  Sc3  1  0.547764  0.148923  0.151656  1
  Sc  Sc4  1  0.151656  0.148923  0.547764  1
  Sc  Sc5  1  0.937736  0.939024  0.561621  1
  Sc  Sc6  1  0.312653  0.691874  0.312653  1
  Sc  Sc7  1  0.561621  0.939024  0.937736  1
  Sc  Sc8  1  0.561621  0.939024  0.561621  1
  Sc  Sc9  1  0.682821  0.691874  0.312653  1
  Sc  Sc10  1  0.564014  0.561292  0.937347  1
  Sc  Sc11  1  0.937347  0.561292  0.937347  1
  Sc  Sc12  1  0.312653  0.691874  0.682821  1
  Sc  Sc13  1  0.151656  0.148923  0.151656  1
  Sc  Sc14  1  0.313227  0.314131  0.686320  1
  Pa  Pa15  1  0.162727  0.511817  0.162727  1
  Cd  Cd16  1  0.918817  0.243550  0.918817  1
  Cd  Cd17  1  0.916577  0.915861  0.916577  1
  Cd  Cd18  1  0.916577  0.915861  0.250984  1
  Cd  Cd19  1  0.250984  0.915861  0.916577  1
  Co  Co20  1  0.352050  0.367425  0.928477  1
  Co  Co21  1  0.356986  0.929044  0.356986  1
  Co  Co22  1  0.928477  0.367425  0.352050  1
  Co  Co23  1  0.352050  0.367425  0.352050  1
