# generated using pymatgen
data_CeDy(SiRh2)2
_symmetry_space_group_name_H-M   'P 1'
_cell_length_a   9.19541326
_cell_length_b   9.19541316
_cell_length_c   4.09260300
_cell_angle_alpha   90.00000000
_cell_angle_beta   90.00000000
_cell_angle_gamma   155.15955499
_symmetry_Int_Tables_number   1
_chemical_formula_structural   CeDy(SiRh2)2
_chemical_formula_sum   'Ce1 Dy1 Si2 Rh4'
_cell_volume   145.37419793
_cell_formula_units_Z   1
loop_
 _symmetry_equiv_pos_site_id
 _symmetry_equiv_pos_as_xyz
  1  'x, y, z'
loop_
 _atom_site_type_symbol
 _atom_site_label
 _atom_site_symmetry_multiplicity
 _atom_site_fract_x
 _atom_site_fract_y
 _atom_site_fract_z
 _atom_site_occupancy
  Ce  Ce0  1  0.904044  0.095956  0.250000  1
  Dy  Dy1  1  0.101290  0.898710  0.750000  1
  Si  Si2  1  0.320916  0.679084  0.750000  1
  Si  Si3  1  0.676665  0.323335  0.250000  1
  Rh  Rh4  1  0.547000  0.453000  0.250000  1
  Rh  Rh5  1  0.452428  0.547572  0.750000  1
  Rh  Rh6  1  0.249411  0.750589  0.250000  1
  Rh  Rh7  1  0.748248  0.251752  0.750000  1
