# generated using pymatgen
data_Nd3Sm3RuCl10
_symmetry_space_group_name_H-M   'P 1'
_cell_length_a   7.38157399
_cell_length_b   9.02758723
_cell_length_c   9.29072731
_cell_angle_alpha   109.69403343
_cell_angle_beta   96.84140221
_cell_angle_gamma   106.47597364
_symmetry_Int_Tables_number   1
_chemical_formula_structural   Nd3Sm3RuCl10
_chemical_formula_sum   'Nd3 Sm3 Ru1 Cl10'
_cell_volume   542.92983730
_cell_formula_units_Z   1
loop_
 _symmetry_equiv_pos_site_id
 _symmetry_equiv_pos_as_xyz
  1  'x, y, z'
loop_
 _atom_site_type_symbol
 _atom_site_label
 _atom_site_symmetry_multiplicity
 _atom_site_fract_x
 _atom_site_fract_y
 _atom_site_fract_z
 _atom_site_occupancy
  Nd  Nd0  1  0.029831  0.703052  0.904974  1
  Nd  Nd1  1  0.381381  0.156521  0.203679  1
  Nd  Nd2  1  0.968695  0.296027  0.093820  1
  Sm  Sm3  1  0.140302  0.056836  0.749331  1
  Sm  Sm4  1  0.622596  0.847352  0.800065  1
  Sm  Sm5  1  0.857966  0.941126  0.250101  1
  Ru  Ru6  1  0.000020  0.999713  0.000254  1
  Cl  Cl7  1  0.204284  0.751548  0.654482  1
  Cl  Cl8  1  0.643919  0.541080  0.722489  1
  Cl  Cl9  1  0.236327  0.078060  0.450033  1
  Cl  Cl10  1  0.803022  0.249164  0.348800  1
  Cl  Cl11  1  0.550725  0.166677  0.923394  1
  Cl  Cl12  1  0.760115  0.919024  0.551454  1
  Cl  Cl13  1  0.907791  0.632533  0.164036  1
  Cl  Cl14  1  0.353110  0.463804  0.275526  1
  Cl  Cl15  1  0.089837  0.365200  0.833854  1
  Cl  Cl16  1  0.450080  0.832285  0.073709  1
