# generated using pymatgen
data_Re2Tc5B3
_symmetry_space_group_name_H-M   'P 1'
_cell_length_a   7.51968495
_cell_length_b   7.51968411
_cell_length_c   4.89550928
_cell_angle_alpha   90.03357943
_cell_angle_beta   89.96641284
_cell_angle_gamma   119.95348090
_symmetry_Int_Tables_number   1
_chemical_formula_structural   Re2Tc5B3
_chemical_formula_sum   'Re4 Tc10 B6'
_cell_volume   239.84520503
_cell_formula_units_Z   2
loop_
 _symmetry_equiv_pos_site_id
 _symmetry_equiv_pos_as_xyz
  1  'x, y, z'
loop_
 _atom_site_type_symbol
 _atom_site_label
 _atom_site_symmetry_multiplicity
 _atom_site_fract_x
 _atom_site_fract_y
 _atom_site_fract_z
 _atom_site_occupancy
  Re  Re0  1  0.546081  0.453920  0.047912  1
  Re  Re1  1  0.453897  0.546104  0.548865  1
  Re  Re2  1  0.545684  0.091082  0.048135  1
  Re  Re3  1  0.908917  0.454317  0.048135  1
  Tc  Tc4  1  0.091338  0.545555  0.550269  1
  Tc  Tc5  1  0.454445  0.908663  0.550269  1
  Tc  Tc6  1  0.123089  0.876912  0.252985  1
  Tc  Tc7  1  0.877016  0.122983  0.751527  1
  Tc  Tc8  1  0.123408  0.246106  0.252317  1
  Tc  Tc9  1  0.753893  0.876593  0.252317  1
  Tc  Tc10  1  0.245817  0.122886  0.752447  1
  Tc  Tc11  1  0.877115  0.754183  0.752447  1
  Tc  Tc12  1  0.332889  0.667111  0.084853  1
  Tc  Tc13  1  0.666531  0.333470  0.585909  1
  B  B14  1  0.810971  0.621673  0.341016  1
  B  B15  1  0.189188  0.810812  0.840894  1
  B  B16  1  0.811099  0.188900  0.340374  1
  B  B17  1  0.378327  0.189030  0.341016  1
  B  B18  1  0.621752  0.811451  0.841157  1
  B  B19  1  0.188549  0.378248  0.841157  1
