# generated using pymatgen
data_Hf2SiAsRu2
_symmetry_space_group_name_H-M   'P 1'
_cell_length_a   7.63183464
_cell_length_b   7.63854582
_cell_length_c   7.63740237
_cell_angle_alpha   128.03530915
_cell_angle_beta   121.17451214
_cell_angle_gamma   82.32061571
_symmetry_Int_Tables_number   1
_chemical_formula_structural   Hf2SiAsRu2
_chemical_formula_sum   'Hf6 Si3 As3 Ru6'
_cell_volume   288.47029989
_cell_formula_units_Z   3
loop_
 _symmetry_equiv_pos_site_id
 _symmetry_equiv_pos_as_xyz
  1  'x, y, z'
loop_
 _atom_site_type_symbol
 _atom_site_label
 _atom_site_symmetry_multiplicity
 _atom_site_fract_x
 _atom_site_fract_y
 _atom_site_fract_z
 _atom_site_occupancy
  Hf  Hf0  1  0.467043  0.692590  0.718025  1
  Hf  Hf1  1  0.528420  0.261469  0.226006  1
  Hf  Hf2  1  0.742809  0.834037  0.583780  1
  Hf  Hf3  1  0.253077  0.836557  0.091727  1
  Hf  Hf4  1  0.057689  0.262222  0.710936  1
  Hf  Hf5  1  0.951602  0.649613  0.204077  1
  Si  Si6  1  0.272960  0.271003  0.498326  1
  Si  Si7  1  0.727074  0.225575  0.998301  1
  Si  Si8  1  0.328511  0.586827  0.249631  1
  As  As9  1  0.671880  0.920563  0.257706  1
  As  As10  1  0.160904  0.920091  0.749578  1
  As  As11  1  0.838419  0.587076  0.758632  1
  Ru  Ru12  1  0.495324  0.491559  0.994250  1
  Ru  Ru13  1  0.000903  0.492932  0.493207  1
  Ru  Ru14  1  0.098423  0.258527  0.108955  1
  Ru  Ru15  1  0.904902  0.010693  0.157237  1
  Ru  Ru16  1  0.352621  0.004573  0.600636  1
  Ru  Ru17  1  0.647436  0.253694  0.658592  1
