# generated using pymatgen
data_PrY(OsO3)6
_symmetry_space_group_name_H-M   'P 1'
_cell_length_a   7.45041300
_cell_length_b   5.28884606
_cell_length_c   8.22200881
_cell_angle_alpha   85.50963211
_cell_angle_beta   90.00000000
_cell_angle_gamma   90.00000000
_symmetry_Int_Tables_number   1
_chemical_formula_structural   PrY(OsO3)6
_chemical_formula_sum   'Pr1 Y1 Os6 O18'
_cell_volume   322.98629836
_cell_formula_units_Z   1
loop_
 _symmetry_equiv_pos_site_id
 _symmetry_equiv_pos_as_xyz
  1  'x, y, z'
loop_
 _atom_site_type_symbol
 _atom_site_label
 _atom_site_symmetry_multiplicity
 _atom_site_fract_x
 _atom_site_fract_y
 _atom_site_fract_z
 _atom_site_occupancy
  Pr  Pr0  1  0.750000  0.025449  0.572402  1
  Y  Y1  1  0.250000  0.966656  0.425823  1
  Os  Os2  1  0.493347  0.535207  0.692793  1
  Os  Os3  1  0.006653  0.535207  0.692793  1
  Os  Os4  1  0.997361  0.460702  0.306966  1
  Os  Os5  1  0.000872  0.997790  0.001113  1
  Os  Os6  1  0.502639  0.460702  0.306966  1
  Os  Os7  1  0.499128  0.997790  0.001113  1
  O  O8  1  0.963190  0.687868  0.122975  1
  O  O9  1  0.035519  0.307009  0.876358  1
  O  O10  1  0.063889  0.147944  0.213322  1
  O  O11  1  0.750000  0.369963  0.323786  1
  O  O12  1  0.043823  0.264570  0.526638  1
  O  O13  1  0.436111  0.147944  0.213322  1
  O  O14  1  0.536810  0.687868  0.122975  1
  O  O15  1  0.528836  0.736187  0.470724  1
  O  O16  1  0.750000  0.078073  0.019287  1
  O  O17  1  0.939887  0.842973  0.793563  1
  O  O18  1  0.750000  0.432323  0.683538  1
  O  O19  1  0.560113  0.842973  0.793563  1
  O  O20  1  0.250000  0.582498  0.310369  1
  O  O21  1  0.464481  0.307009  0.876358  1
  O  O22  1  0.971164  0.736187  0.470724  1
  O  O23  1  0.456177  0.264570  0.526638  1
  O  O24  1  0.250000  0.659764  0.670396  1
  O  O25  1  0.250000  0.924771  0.985497  1
