# generated using pymatgen
data_Th2AlGa4Cu3
_symmetry_space_group_name_H-M   'P 1'
_cell_length_a   4.15318900
_cell_length_b   4.15318900
_cell_length_c   10.63480000
_cell_angle_alpha   90.00000000
_cell_angle_beta   90.00000000
_cell_angle_gamma   90.00000000
_symmetry_Int_Tables_number   1
_chemical_formula_structural   Th2AlGa4Cu3
_chemical_formula_sum   'Th2 Al1 Ga4 Cu3'
_cell_volume   183.43944048
_cell_formula_units_Z   1
loop_
 _symmetry_equiv_pos_site_id
 _symmetry_equiv_pos_as_xyz
  1  'x, y, z'
loop_
 _atom_site_type_symbol
 _atom_site_label
 _atom_site_symmetry_multiplicity
 _atom_site_fract_x
 _atom_site_fract_y
 _atom_site_fract_z
 _atom_site_occupancy
  Th  Th0  1  0.000000  0.500000  0.255904  1
  Th  Th1  1  0.500000  0.000000  0.744096  1
  Al  Al2  1  0.000000  0.000000  0.000000  1
  Ga  Ga3  1  0.000000  0.000000  0.500000  1
  Ga  Ga4  1  0.500000  0.500000  0.500000  1
  Ga  Ga5  1  0.000000  0.500000  0.858570  1
  Ga  Ga6  1  0.500000  0.000000  0.141430  1
  Cu  Cu7  1  0.500000  0.500000  0.000000  1
  Cu  Cu8  1  0.000000  0.500000  0.631448  1
  Cu  Cu9  1  0.500000  0.000000  0.368552  1
