# generated using pymatgen
data_Y5SiSb2
_symmetry_space_group_name_H-M   'P 1'
_cell_length_a   7.98744100
_cell_length_b   9.06927900
_cell_length_c   12.00297400
_cell_angle_alpha   90.00000000
_cell_angle_beta   90.00000000
_cell_angle_gamma   90.00000000
_symmetry_Int_Tables_number   1
_chemical_formula_structural   Y5SiSb2
_chemical_formula_sum   'Y20 Si4 Sb8'
_cell_volume   869.49940864
_cell_formula_units_Z   4
loop_
 _symmetry_equiv_pos_site_id
 _symmetry_equiv_pos_as_xyz
  1  'x, y, z'
loop_
 _atom_site_type_symbol
 _atom_site_label
 _atom_site_symmetry_multiplicity
 _atom_site_fract_x
 _atom_site_fract_y
 _atom_site_fract_z
 _atom_site_occupancy
  Y  Y0  1  0.336450  0.750000  0.713308  1
  Y  Y1  1  0.663550  0.250000  0.286692  1
  Y  Y2  1  0.836450  0.250000  0.786692  1
  Y  Y3  1  0.163550  0.750000  0.213308  1
  Y  Y4  1  0.040628  0.750000  0.500968  1
  Y  Y5  1  0.959372  0.250000  0.499032  1
  Y  Y6  1  0.540628  0.250000  0.999032  1
  Y  Y7  1  0.459372  0.750000  0.000968  1
  Y  Y8  1  0.861953  0.750000  0.794817  1
  Y  Y9  1  0.138047  0.250000  0.205183  1
  Y  Y10  1  0.361953  0.250000  0.705183  1
  Y  Y11  1  0.638047  0.750000  0.294817  1
  Y  Y12  1  0.683624  0.549020  0.566553  1
  Y  Y13  1  0.316376  0.450980  0.433447  1
  Y  Y14  1  0.183624  0.450980  0.933447  1
  Y  Y15  1  0.316376  0.049020  0.433447  1
  Y  Y16  1  0.816376  0.549020  0.066553  1
  Y  Y17  1  0.683624  0.950980  0.566553  1
  Y  Y18  1  0.816376  0.950980  0.066553  1
  Y  Y19  1  0.183624  0.049020  0.933447  1
  Si  Si20  1  0.081021  0.750000  0.980712  1
  Si  Si21  1  0.918979  0.250000  0.019288  1
  Si  Si22  1  0.581021  0.250000  0.519288  1
  Si  Si23  1  0.418979  0.750000  0.480712  1
  Sb  Sb24  1  0.568142  0.510257  0.827251  1
  Sb  Sb25  1  0.431858  0.489743  0.172749  1
  Sb  Sb26  1  0.068142  0.489743  0.672749  1
  Sb  Sb27  1  0.431858  0.010257  0.172749  1
  Sb  Sb28  1  0.931858  0.510257  0.327251  1
  Sb  Sb29  1  0.568142  0.989743  0.827251  1
  Sb  Sb30  1  0.931858  0.989743  0.327251  1
  Sb  Sb31  1  0.068142  0.010257  0.672749  1
