# generated using pymatgen
data_Ce2ErZr3F22
_symmetry_space_group_name_H-M   'P 1'
_cell_length_a   8.48450753
_cell_length_b   8.48450739
_cell_length_c   8.51294465
_cell_angle_alpha   124.42345376
_cell_angle_beta   106.31244722
_cell_angle_gamma   98.68395135
_symmetry_Int_Tables_number   1
_chemical_formula_structural   Ce2ErZr3F22
_chemical_formula_sum   'Ce2 Er1 Zr3 F22'
_cell_volume   446.47519702
_cell_formula_units_Z   1
loop_
 _symmetry_equiv_pos_site_id
 _symmetry_equiv_pos_as_xyz
  1  'x, y, z'
loop_
 _atom_site_type_symbol
 _atom_site_label
 _atom_site_symmetry_multiplicity
 _atom_site_fract_x
 _atom_site_fract_y
 _atom_site_fract_z
 _atom_site_occupancy
  Ce  Ce0  1  0.749121  0.248917  0.498442  1
  Ce  Ce1  1  0.249525  0.749321  0.498442  1
  Er  Er2  1  0.680807  0.636168  0.316975  1
  Zr  Zr3  1  0.319004  0.365346  0.684350  1
  Zr  Zr4  1  0.180301  0.865876  0.046177  1
  Zr  Zr5  1  0.817947  0.135833  0.953780  1
  F  F6  1  0.707461  0.917858  0.349752  1
  F  F7  1  0.293009  0.097373  0.650871  1
  F  F8  1  0.553496  0.357862  0.650871  1
  F  F9  1  0.945899  0.601512  0.809597  1
  F  F10  1  0.431894  0.642291  0.349752  1
  F  F11  1  0.057581  0.395544  0.188987  1
  F  F12  1  0.793443  0.131405  0.188987  1
  F  F13  1  0.208085  0.863698  0.809597  1
  F  F14  1  0.493160  0.493888  0.987048  1
  F  F15  1  0.002718  0.000832  0.003550  1
  F  F16  1  0.782222  0.879579  0.661801  1
  F  F17  1  0.220415  0.128885  0.349301  1
  F  F18  1  0.279138  0.629912  0.909050  1
  F  F19  1  0.719817  0.362649  0.082465  1
  F  F20  1  0.971239  0.738934  0.424457  1
  F  F21  1  0.045736  0.262727  0.582246  1
  F  F22  1  0.319519  0.536510  0.582246  1
  F  F23  1  0.174942  0.760102  0.213138  1
  F  F24  1  0.685524  0.453218  0.424457  1
  F  F25  1  0.823645  0.243946  0.785263  1
  F  F26  1  0.541317  0.961618  0.785263  1
  F  F27  1  0.453036  0.038196  0.213138  1
