# generated using pymatgen
data_TmLu9(Tl2Sb)2
_symmetry_space_group_name_H-M   'P 1'
_cell_length_a   6.44155802
_cell_length_b   8.79940785
_cell_length_c   8.76690700
_cell_angle_alpha   119.74125261
_cell_angle_beta   90.00450072
_cell_angle_gamma   89.99779982
_symmetry_Int_Tables_number   1
_chemical_formula_structural   TmLu9(Tl2Sb)2
_chemical_formula_sum   'Tm1 Lu9 Tl4 Sb2'
_cell_volume   431.46725970
_cell_formula_units_Z   1
loop_
 _symmetry_equiv_pos_site_id
 _symmetry_equiv_pos_as_xyz
  1  'x, y, z'
loop_
 _atom_site_type_symbol
 _atom_site_label
 _atom_site_symmetry_multiplicity
 _atom_site_fract_x
 _atom_site_fract_y
 _atom_site_fract_z
 _atom_site_occupancy
  Tm  Tm0  1  0.750002  0.232781  0.993800  1
  Lu  Lu1  1  0.495871  0.334896  0.669354  1
  Lu  Lu2  1  0.495605  0.664807  0.333924  1
  Lu  Lu3  1  0.004288  0.664949  0.333963  1
  Lu  Lu4  1  0.004117  0.334917  0.669252  1
  Lu  Lu5  1  0.749960  0.767347  0.761173  1
  Lu  Lu6  1  0.750312  0.999370  0.235888  1
  Lu  Lu7  1  0.249985  0.765662  0.001663  1
  Lu  Lu8  1  0.250053  0.235543  0.237305  1
  Lu  Lu9  1  0.250132  0.000164  0.764779  1
  Tl  Tl10  1  0.749845  0.999717  0.595646  1
  Tl  Tl11  1  0.249918  0.394829  0.001725  1
  Tl  Tl12  1  0.249964  0.605587  0.608004  1
  Tl  Tl13  1  0.249999  0.999460  0.399184  1
  Sb  Sb14  1  0.749965  0.606643  0.000275  1
  Sb  Sb15  1  0.749984  0.393330  0.394066  1
