# generated using pymatgen
data_Er3NiSn3IrPt
_symmetry_space_group_name_H-M   'P 1'
_cell_length_a   7.54700200
_cell_length_b   7.54700111
_cell_length_c   3.75439100
_cell_angle_alpha   90.00000000
_cell_angle_beta   90.00000000
_cell_angle_gamma   119.99999515
_symmetry_Int_Tables_number   1
_chemical_formula_structural   Er3NiSn3IrPt
_chemical_formula_sum   'Er3 Ni1 Sn3 Ir1 Pt1'
_cell_volume   185.19063967
_cell_formula_units_Z   1
loop_
 _symmetry_equiv_pos_site_id
 _symmetry_equiv_pos_as_xyz
  1  'x, y, z'
loop_
 _atom_site_type_symbol
 _atom_site_label
 _atom_site_symmetry_multiplicity
 _atom_site_fract_x
 _atom_site_fract_y
 _atom_site_fract_z
 _atom_site_occupancy
  Er  Er0  1  0.402014  0.407574  0.500000  1
  Er  Er1  1  0.592426  0.994440  0.500000  1
  Er  Er2  1  0.005560  0.597986  0.500000  1
  Ni  Ni3  1  0.000000  0.000000  0.500000  1
  Sn  Sn4  1  0.744903  0.746625  0.000000  1
  Sn  Sn5  1  0.253375  0.998278  0.000000  1
  Sn  Sn6  1  0.001722  0.255097  0.000000  1
  Ir  Ir7  1  0.333333  0.666667  0.000000  1
  Pt  Pt8  1  0.666667  0.333333  0.000000  1
