# generated using pymatgen
data_DyY3Sn6Rh7
_symmetry_space_group_name_H-M   'P 1'
_cell_length_a   7.62376890
_cell_length_b   7.62147369
_cell_length_c   7.62147404
_cell_angle_alpha   109.46512010
_cell_angle_beta   109.47733057
_cell_angle_gamma   109.47731469
_symmetry_Int_Tables_number   1
_chemical_formula_structural   DyY3Sn6Rh7
_chemical_formula_sum   'Dy1 Y3 Sn6 Rh7'
_cell_volume   340.87334260
_cell_formula_units_Z   1
loop_
 _symmetry_equiv_pos_site_id
 _symmetry_equiv_pos_as_xyz
  1  'x, y, z'
loop_
 _atom_site_type_symbol
 _atom_site_label
 _atom_site_symmetry_multiplicity
 _atom_site_fract_x
 _atom_site_fract_y
 _atom_site_fract_z
 _atom_site_occupancy
  Dy  Dy0  1  0.500000  0.000000  0.000000  1
  Y  Y1  1  0.000000  0.000000  0.500000  1
  Y  Y2  1  0.000000  0.500000  0.000000  1
  Y  Y3  1  0.500000  0.500000  0.500000  1
  Sn  Sn4  1  0.683850  0.683895  0.000000  1
  Sn  Sn5  1  0.316150  0.000000  0.316105  1
  Sn  Sn6  1  0.999955  0.316105  0.316105  1
  Sn  Sn7  1  0.316150  0.316105  0.000000  1
  Sn  Sn8  1  0.683850  0.000000  0.683895  1
  Sn  Sn9  1  0.000045  0.683895  0.683895  1
  Rh  Rh10  1  0.749969  0.249969  0.499938  1
  Rh  Rh11  1  0.749969  0.499938  0.249969  1
  Rh  Rh12  1  0.500000  0.249969  0.750031  1
  Rh  Rh13  1  0.250031  0.500062  0.750031  1
  Rh  Rh14  1  0.250031  0.750031  0.500062  1
  Rh  Rh15  1  0.500000  0.750031  0.249969  1
  Rh  Rh16  1  0.000000  0.000000  0.000000  1
