# generated using pymatgen
data_Zn11IrPt
_symmetry_space_group_name_H-M   'P 1'
_cell_length_a   7.94687689
_cell_length_b   7.94687706
_cell_length_c   7.93480605
_cell_angle_alpha   109.44715754
_cell_angle_beta   109.44716049
_cell_angle_gamma   109.58085619
_symmetry_Int_Tables_number   1
_chemical_formula_structural   Zn11IrPt
_chemical_formula_sum   'Zn22 Ir2 Pt2'
_cell_volume   385.45766164
_cell_formula_units_Z   2
loop_
 _symmetry_equiv_pos_site_id
 _symmetry_equiv_pos_as_xyz
  1  'x, y, z'
loop_
 _atom_site_type_symbol
 _atom_site_label
 _atom_site_symmetry_multiplicity
 _atom_site_fract_x
 _atom_site_fract_y
 _atom_site_fract_z
 _atom_site_occupancy
  Zn  Zn0  1  0.732171  0.382474  0.731174  1
  Zn  Zn1  1  0.617936  0.353009  0.351346  1
  Zn  Zn2  1  0.351374  0.351374  0.616857  1
  Zn  Zn3  1  0.649754  0.268784  0.000000  1
  Zn  Zn4  1  0.214324  0.214324  0.216914  1
  Zn  Zn5  1  0.997411  0.997411  0.783086  1
  Zn  Zn6  1  0.787924  0.997078  0.000000  1
  Zn  Zn7  1  0.997078  0.787924  0.000000  1
  Zn  Zn8  1  0.358130  0.358130  0.000000  1
  Zn  Zn9  1  0.999232  0.639217  0.644184  1
  Zn  Zn10  1  0.995033  0.355048  0.355816  1
  Zn  Zn11  1  0.355048  0.995033  0.355816  1
  Zn  Zn12  1  0.639217  0.999232  0.644184  1
  Zn  Zn13  1  0.641759  0.641759  0.000000  1
  Zn  Zn14  1  0.353009  0.617936  0.351346  1
  Zn  Zn15  1  0.266589  0.001664  0.648654  1
  Zn  Zn16  1  0.651301  0.000998  0.268826  1
  Zn  Zn17  1  0.268784  0.649754  0.000000  1
  Zn  Zn18  1  0.734518  0.734518  0.383143  1
  Zn  Zn19  1  0.382474  0.732171  0.731174  1
  Zn  Zn20  1  0.000998  0.651301  0.268826  1
  Zn  Zn21  1  0.001664  0.266589  0.648654  1
  Ir  Ir22  1  0.001182  0.001182  0.346022  1
  Ir  Ir23  1  0.655160  0.655160  0.653978  1
  Pt  Pt24  1  0.000982  0.346947  0.000000  1
  Pt  Pt25  1  0.346947  0.000982  0.000000  1
