# generated using pymatgen
data_PrNi9P5
_symmetry_space_group_name_H-M   'P 1'
_cell_length_a   6.49385400
_cell_length_b   6.49385354
_cell_length_c   10.73077900
_cell_angle_alpha   90.00000000
_cell_angle_beta   90.00000000
_cell_angle_gamma   120.00000235
_symmetry_Int_Tables_number   1
_chemical_formula_structural   PrNi9P5
_chemical_formula_sum   'Pr2 Ni18 P10'
_cell_volume   391.89243654
_cell_formula_units_Z   2
loop_
 _symmetry_equiv_pos_site_id
 _symmetry_equiv_pos_as_xyz
  1  'x, y, z'
loop_
 _atom_site_type_symbol
 _atom_site_label
 _atom_site_symmetry_multiplicity
 _atom_site_fract_x
 _atom_site_fract_y
 _atom_site_fract_z
 _atom_site_occupancy
  Pr  Pr0  1  0.000000  0.000000  0.000000  1
  Pr  Pr1  1  0.000000  0.000000  0.500000  1
  Ni  Ni2  1  0.535643  0.071287  0.106471  1
  Ni  Ni3  1  0.464357  0.535643  0.606471  1
  Ni  Ni4  1  0.071287  0.535643  0.606471  1
  Ni  Ni5  1  0.928713  0.464357  0.106471  1
  Ni  Ni6  1  0.535643  0.464357  0.106471  1
  Ni  Ni7  1  0.464357  0.928713  0.893529  1
  Ni  Ni8  1  0.464357  0.535643  0.893529  1
  Ni  Ni9  1  0.464357  0.928713  0.606471  1
  Ni  Ni10  1  0.071287  0.535643  0.893529  1
  Ni  Ni11  1  0.928713  0.464357  0.393529  1
  Ni  Ni12  1  0.535643  0.071287  0.393529  1
  Ni  Ni13  1  0.535643  0.464357  0.393529  1
  Ni  Ni14  1  0.202062  0.404124  0.250000  1
  Ni  Ni15  1  0.797938  0.202062  0.750000  1
  Ni  Ni16  1  0.404124  0.202062  0.750000  1
  Ni  Ni17  1  0.595876  0.797938  0.250000  1
  Ni  Ni18  1  0.202062  0.797938  0.250000  1
  Ni  Ni19  1  0.797938  0.595876  0.750000  1
  P  P20  1  0.826094  0.652188  0.250000  1
  P  P21  1  0.173906  0.826094  0.750000  1
  P  P22  1  0.652188  0.826094  0.750000  1
  P  P23  1  0.347812  0.173906  0.250000  1
  P  P24  1  0.826094  0.173906  0.250000  1
  P  P25  1  0.173906  0.347812  0.750000  1
  P  P26  1  0.333333  0.666667  0.061749  1
  P  P27  1  0.666667  0.333333  0.561749  1
  P  P28  1  0.666667  0.333333  0.938251  1
  P  P29  1  0.333333  0.666667  0.438251  1
