# generated using pymatgen
data_Yb(Dy2Ru)2
_symmetry_space_group_name_H-M   'P 1'
_cell_length_a   8.51403605
_cell_length_b   8.51403689
_cell_length_c   7.26260201
_cell_angle_alpha   83.22573712
_cell_angle_beta   83.22573469
_cell_angle_gamma   43.97713269
_symmetry_Int_Tables_number   1
_chemical_formula_structural   Yb(Dy2Ru)2
_chemical_formula_sum   'Yb2 Dy8 Ru4'
_cell_volume   362.58696190
_cell_formula_units_Z   2
loop_
 _symmetry_equiv_pos_site_id
 _symmetry_equiv_pos_as_xyz
  1  'x, y, z'
loop_
 _atom_site_type_symbol
 _atom_site_label
 _atom_site_symmetry_multiplicity
 _atom_site_fract_x
 _atom_site_fract_y
 _atom_site_fract_z
 _atom_site_occupancy
  Yb  Yb0  1  0.202839  0.980767  0.581914  1
  Yb  Yb1  1  0.019233  0.797161  0.918086  1
  Dy  Dy2  1  0.205998  0.360841  0.314172  1
  Dy  Dy3  1  0.639159  0.794002  0.185828  1
  Dy  Dy4  1  0.798388  0.635546  0.684530  1
  Dy  Dy5  1  0.364454  0.201612  0.815470  1
  Dy  Dy6  1  0.980362  0.206421  0.084076  1
  Dy  Dy7  1  0.793579  0.019638  0.415924  1
  Dy  Dy8  1  0.571522  0.428478  0.750000  1
  Dy  Dy9  1  0.420938  0.579062  0.250000  1
  Ru  Ru10  1  0.177079  0.590360  0.572431  1
  Ru  Ru11  1  0.409640  0.822921  0.927569  1
  Ru  Ru12  1  0.817611  0.400802  0.422036  1
  Ru  Ru13  1  0.599198  0.182389  0.077964  1
