# generated using pymatgen
data_Sm2Ga5Pd3
_symmetry_space_group_name_H-M   'P 1'
_cell_length_a   8.69545691
_cell_length_b   8.69545689
_cell_length_c   8.69545728
_cell_angle_alpha   140.73262875
_cell_angle_beta   108.03914539
_cell_angle_gamma   85.18909664
_symmetry_Int_Tables_number   1
_chemical_formula_structural   Sm2Ga5Pd3
_chemical_formula_sum   'Sm4 Ga10 Pd6'
_cell_volume   382.18264205
_cell_formula_units_Z   2
loop_
 _symmetry_equiv_pos_site_id
 _symmetry_equiv_pos_as_xyz
  1  'x, y, z'
loop_
 _atom_site_type_symbol
 _atom_site_label
 _atom_site_symmetry_multiplicity
 _atom_site_fract_x
 _atom_site_fract_y
 _atom_site_fract_z
 _atom_site_occupancy
  Sm  Sm0  1  0.636317  0.861694  0.774623  1
  Sm  Sm1  1  0.363683  0.138306  0.225377  1
  Sm  Sm2  1  0.087071  0.361694  0.725377  1
  Sm  Sm3  1  0.912929  0.638306  0.274623  1
  Ga  Ga4  1  0.290213  0.040213  0.750000  1
  Ga  Ga5  1  0.709787  0.959787  0.250000  1
  Ga  Ga6  1  0.709787  0.459787  0.750000  1
  Ga  Ga7  1  0.290213  0.540213  0.250000  1
  Ga  Ga8  1  0.430379  0.596333  0.834046  1
  Ga  Ga9  1  0.569621  0.403667  0.165954  1
  Ga  Ga10  1  0.762287  0.096333  0.665954  1
  Ga  Ga11  1  0.237713  0.903667  0.334046  1
  Ga  Ga12  1  0.000000  0.750000  0.750000  1
  Ga  Ga13  1  0.000000  0.250000  0.250000  1
  Pd  Pd14  1  0.241318  0.644404  0.596915  1
  Pd  Pd15  1  0.758682  0.355596  0.403085  1
  Pd  Pd16  1  0.047489  0.144404  0.903085  1
  Pd  Pd17  1  0.952511  0.855596  0.096915  1
  Pd  Pd18  1  0.500000  0.750000  0.250000  1
  Pd  Pd19  1  0.500000  0.250000  0.750000  1
