# generated using pymatgen
data_Tb3Cd5Au
_symmetry_space_group_name_H-M   'P 1'
_cell_length_a   8.20337900
_cell_length_b   8.20337909
_cell_length_c   3.74782000
_cell_angle_alpha   90.00000000
_cell_angle_beta   90.00000000
_cell_angle_gamma   119.99999562
_symmetry_Int_Tables_number   1
_chemical_formula_structural   Tb3Cd5Au
_chemical_formula_sum   'Tb3 Cd5 Au1'
_cell_volume   218.42127263
_cell_formula_units_Z   1
loop_
 _symmetry_equiv_pos_site_id
 _symmetry_equiv_pos_as_xyz
  1  'x, y, z'
loop_
 _atom_site_type_symbol
 _atom_site_label
 _atom_site_symmetry_multiplicity
 _atom_site_fract_x
 _atom_site_fract_y
 _atom_site_fract_z
 _atom_site_occupancy
  Tb  Tb0  1  0.613336  0.021280  0.000000  1
  Tb  Tb1  1  0.978720  0.592056  0.000000  1
  Tb  Tb2  1  0.407944  0.386664  0.000000  1
  Cd  Cd3  1  0.272971  0.992562  0.500000  1
  Cd  Cd4  1  0.007438  0.280409  0.500000  1
  Cd  Cd5  1  0.719591  0.727029  0.500000  1
  Cd  Cd6  1  0.333333  0.666667  0.500000  1
  Cd  Cd7  1  0.000000  0.000000  0.000000  1
  Au  Au8  1  0.666667  0.333333  0.500000  1
