# generated using pymatgen
data_Sc20Cd6IrRu
_symmetry_space_group_name_H-M   'P 1'
_cell_length_a   9.00846000
_cell_length_b   9.00845982
_cell_length_c   9.17567600
_cell_angle_alpha   90.00000000
_cell_angle_beta   90.00000000
_cell_angle_gamma   120.00000066
_symmetry_Int_Tables_number   1
_chemical_formula_structural   Sc20Cd6IrRu
_chemical_formula_sum   'Sc20 Cd6 Ir1 Ru1'
_cell_volume   644.86647400
_cell_formula_units_Z   1
loop_
 _symmetry_equiv_pos_site_id
 _symmetry_equiv_pos_as_xyz
  1  'x, y, z'
loop_
 _atom_site_type_symbol
 _atom_site_label
 _atom_site_symmetry_multiplicity
 _atom_site_fract_x
 _atom_site_fract_y
 _atom_site_fract_z
 _atom_site_occupancy
  Sc  Sc0  1  0.000000  0.000000  0.499800  1
  Sc  Sc1  1  0.000000  0.000000  0.000200  1
  Sc  Sc2  1  0.209101  0.790899  0.442041  1
  Sc  Sc3  1  0.209101  0.418202  0.442041  1
  Sc  Sc4  1  0.581798  0.790899  0.442041  1
  Sc  Sc5  1  0.790092  0.209908  0.558531  1
  Sc  Sc6  1  0.790092  0.580182  0.558531  1
  Sc  Sc7  1  0.419818  0.209908  0.558531  1
  Sc  Sc8  1  0.790092  0.209908  0.941469  1
  Sc  Sc9  1  0.790092  0.580182  0.941469  1
  Sc  Sc10  1  0.419818  0.209908  0.941469  1
  Sc  Sc11  1  0.209101  0.790899  0.057959  1
  Sc  Sc12  1  0.209101  0.418202  0.057959  1
  Sc  Sc13  1  0.581798  0.790899  0.057959  1
  Sc  Sc14  1  0.540960  0.459040  0.250000  1
  Sc  Sc15  1  0.540960  0.081920  0.250000  1
  Sc  Sc16  1  0.918080  0.459040  0.250000  1
  Sc  Sc17  1  0.458996  0.541004  0.750000  1
  Sc  Sc18  1  0.458996  0.917992  0.750000  1
  Sc  Sc19  1  0.082008  0.541004  0.750000  1
  Cd  Cd20  1  0.884756  0.115244  0.250000  1
  Cd  Cd21  1  0.884756  0.769512  0.250000  1
  Cd  Cd22  1  0.230488  0.115244  0.250000  1
  Cd  Cd23  1  0.115334  0.884666  0.750000  1
  Cd  Cd24  1  0.115334  0.230667  0.750000  1
  Cd  Cd25  1  0.769333  0.884666  0.750000  1
  Ir  Ir26  1  0.333333  0.666667  0.250000  1
  Ru  Ru27  1  0.666667  0.333333  0.750000  1
