# generated using pymatgen
data_Zr5InSn2Bi
_symmetry_space_group_name_H-M   'P 1'
_cell_length_a   8.88707531
_cell_length_b   8.87471815
_cell_length_c   6.01078300
_cell_angle_alpha   90.00000000
_cell_angle_beta   90.00000000
_cell_angle_gamma   119.95401309
_symmetry_Int_Tables_number   1
_chemical_formula_structural   Zr5InSn2Bi
_chemical_formula_sum   'Zr10 In2 Sn4 Bi2'
_cell_volume   410.74867813
_cell_formula_units_Z   2
loop_
 _symmetry_equiv_pos_site_id
 _symmetry_equiv_pos_as_xyz
  1  'x, y, z'
loop_
 _atom_site_type_symbol
 _atom_site_label
 _atom_site_symmetry_multiplicity
 _atom_site_fract_x
 _atom_site_fract_y
 _atom_site_fract_z
 _atom_site_occupancy
  Zr  Zr0  1  0.328170  0.664086  0.000000  1
  Zr  Zr1  1  0.667934  0.333967  0.500000  1
  Zr  Zr2  1  0.667934  0.333967  0.000000  1
  Zr  Zr3  1  0.328170  0.664086  0.500000  1
  Zr  Zr4  1  0.278519  0.999606  0.250000  1
  Zr  Zr5  1  0.278519  0.278915  0.750000  1
  Zr  Zr6  1  0.005108  0.719883  0.750000  1
  Zr  Zr7  1  0.005108  0.285225  0.250000  1
  Zr  Zr8  1  0.721295  0.715989  0.250000  1
  Zr  Zr9  1  0.721295  0.005306  0.750000  1
  In  In10  1  0.000021  0.000010  0.000000  1
  In  In11  1  0.000021  0.000010  0.500000  1
  Sn  Sn12  1  0.999846  0.383476  0.750000  1
  Sn  Sn13  1  0.999846  0.616371  0.250000  1
  Sn  Sn14  1  0.383187  0.382361  0.250000  1
  Sn  Sn15  1  0.383187  0.000826  0.750000  1
  Bi  Bi16  1  0.615919  0.999234  0.250000  1
  Bi  Bi17  1  0.615919  0.616684  0.750000  1
