# generated using pymatgen
data_Gd3Y3IrCl10
_symmetry_space_group_name_H-M   'P 1'
_cell_length_a   7.18378739
_cell_length_b   9.13029593
_cell_length_c   9.01061500
_cell_angle_alpha   107.54615101
_cell_angle_beta   94.83871669
_cell_angle_gamma   105.71488895
_symmetry_Int_Tables_number   1
_chemical_formula_structural   Gd3Y3IrCl10
_chemical_formula_sum   'Gd3 Y3 Ir1 Cl10'
_cell_volume   533.50078535
_cell_formula_units_Z   1
loop_
 _symmetry_equiv_pos_site_id
 _symmetry_equiv_pos_as_xyz
  1  'x, y, z'
loop_
 _atom_site_type_symbol
 _atom_site_label
 _atom_site_symmetry_multiplicity
 _atom_site_fract_x
 _atom_site_fract_y
 _atom_site_fract_z
 _atom_site_occupancy
  Gd  Gd0  1  0.139856  0.058978  0.752890  1
  Gd  Gd1  1  0.858876  0.941717  0.246633  1
  Gd  Gd2  1  0.968739  0.308080  0.101033  1
  Y  Y3  1  0.635332  0.860858  0.814441  1
  Y  Y4  1  0.364744  0.137072  0.184657  1
  Y  Y5  1  0.032486  0.696106  0.901629  1
  Ir  Ir6  1  0.999614  0.000317  0.999746  1
  Cl  Cl7  1  0.344396  0.437307  0.265091  1
  Cl  Cl8  1  0.663612  0.561932  0.736581  1
  Cl  Cl9  1  0.765122  0.924541  0.556041  1
  Cl  Cl10  1  0.083945  0.374915  0.833702  1
  Cl  Cl11  1  0.918337  0.631673  0.164810  1
  Cl  Cl12  1  0.452006  0.830168  0.078657  1
  Cl  Cl13  1  0.544339  0.165723  0.918465  1
  Cl  Cl14  1  0.765217  0.239225  0.336847  1
  Cl  Cl15  1  0.229386  0.758533  0.666233  1
  Cl  Cl16  1  0.233994  0.072849  0.442541  1
