# generated using pymatgen
data_Rb6Si2S6O
_symmetry_space_group_name_H-M   'P 1'
_cell_length_a   12.27888700
_cell_length_b   8.75546543
_cell_length_c   9.10935465
_cell_angle_alpha   67.94879177
_cell_angle_beta   90.00000000
_cell_angle_gamma   90.00000000
_symmetry_Int_Tables_number   1
_chemical_formula_structural   Rb6Si2S6O
_chemical_formula_sum   'Rb12 Si4 S12 O2'
_cell_volume   907.68401196
_cell_formula_units_Z   2
loop_
 _symmetry_equiv_pos_site_id
 _symmetry_equiv_pos_as_xyz
  1  'x, y, z'
loop_
 _atom_site_type_symbol
 _atom_site_label
 _atom_site_symmetry_multiplicity
 _atom_site_fract_x
 _atom_site_fract_y
 _atom_site_fract_z
 _atom_site_occupancy
  Rb  Rb0  1  0.327335  0.989291  0.007553  1
  Rb  Rb1  1  0.220792  0.692807  0.455285  1
  Rb  Rb2  1  0.561353  0.281059  0.226373  1
  Rb  Rb3  1  0.827335  0.510709  0.992447  1
  Rb  Rb4  1  0.438647  0.718941  0.773627  1
  Rb  Rb5  1  0.779208  0.307193  0.544715  1
  Rb  Rb6  1  0.061353  0.218941  0.773627  1
  Rb  Rb7  1  0.938647  0.781059  0.226373  1
  Rb  Rb8  1  0.279208  0.192807  0.455285  1
  Rb  Rb9  1  0.720792  0.807193  0.544715  1
  Rb  Rb10  1  0.672665  0.010709  0.992447  1
  Rb  Rb11  1  0.172665  0.489291  0.007553  1
  Si  Si12  1  0.490239  0.354093  0.679444  1
  Si  Si13  1  0.990239  0.145907  0.320556  1
  Si  Si14  1  0.509761  0.645907  0.320556  1
  Si  Si15  1  0.009761  0.854093  0.679444  1
  S  S16  1  0.978769  0.621095  0.662125  1
  S  S17  1  0.888270  0.910642  0.820465  1
  S  S18  1  0.827277  0.129822  0.243714  1
  S  S19  1  0.611730  0.410642  0.820465  1
  S  S20  1  0.327277  0.370178  0.756286  1
  S  S21  1  0.111730  0.089358  0.179535  1
  S  S22  1  0.478769  0.878905  0.337875  1
  S  S23  1  0.388270  0.589358  0.179535  1
  S  S24  1  0.021231  0.378905  0.337875  1
  S  S25  1  0.672723  0.629822  0.243714  1
  S  S26  1  0.521231  0.121095  0.662125  1
  S  S27  1  0.172723  0.870178  0.756286  1
  O  O28  1  0.500000  0.500000  0.500000  1
  O  O29  1  0.000000  0.000000  0.500000  1
