# generated using pymatgen
data_Ho12Co4BiOs
_symmetry_space_group_name_H-M   'P 1'
_cell_length_a   8.30085557
_cell_length_b   8.30077384
_cell_length_c   8.30085573
_cell_angle_alpha   111.44545918
_cell_angle_beta   110.35299573
_cell_angle_gamma   106.65379353
_symmetry_Int_Tables_number   1
_chemical_formula_structural   Ho12Co4BiOs
_chemical_formula_sum   'Ho12 Co4 Bi1 Os1'
_cell_volume   439.45583124
_cell_formula_units_Z   1
loop_
 _symmetry_equiv_pos_site_id
 _symmetry_equiv_pos_as_xyz
  1  'x, y, z'
loop_
 _atom_site_type_symbol
 _atom_site_label
 _atom_site_symmetry_multiplicity
 _atom_site_fract_x
 _atom_site_fract_y
 _atom_site_fract_z
 _atom_site_occupancy
  Ho  Ho0  1  0.819376  0.717541  0.536920  1
  Ho  Ho1  1  0.180624  0.282459  0.463080  1
  Ho  Ho2  1  0.180622  0.717541  0.898165  1
  Ho  Ho3  1  0.819378  0.282459  0.101835  1
  Ho  Ho4  1  0.687847  0.378744  0.690898  1
  Ho  Ho5  1  0.312153  0.621256  0.309102  1
  Ho  Ho6  1  0.687856  0.996948  0.309092  1
  Ho  Ho7  1  0.312144  0.003052  0.690908  1
  Ho  Ho8  1  0.590395  0.786812  0.803599  1
  Ho  Ho9  1  0.409605  0.213188  0.196401  1
  Ho  Ho10  1  0.983213  0.786812  0.196417  1
  Ho  Ho11  1  0.016787  0.213188  0.803583  1
  Co  Co12  1  0.624193  0.000000  0.624193  1
  Co  Co13  1  0.375807  0.000000  0.375807  1
  Co  Co14  1  0.110848  0.610853  0.500005  1
  Co  Co15  1  0.889152  0.389147  0.499995  1
  Bi  Bi16  1  0.500000  0.500000  0.000000  1
  Os  Os17  1  0.000000  0.000000  0.000000  1
