# generated using pymatgen
data_TbNd2Hf(NiP)4
_symmetry_space_group_name_H-M   'P 1'
_cell_length_a   3.90657100
_cell_length_b   3.90657012
_cell_length_c   15.44282800
_cell_angle_alpha   90.00000000
_cell_angle_beta   90.00000000
_cell_angle_gamma   119.99999899
_symmetry_Int_Tables_number   1
_chemical_formula_structural   TbNd2Hf(NiP)4
_chemical_formula_sum   'Tb1 Nd2 Hf1 Ni4 P4'
_cell_volume   204.10273120
_cell_formula_units_Z   1
loop_
 _symmetry_equiv_pos_site_id
 _symmetry_equiv_pos_as_xyz
  1  'x, y, z'
loop_
 _atom_site_type_symbol
 _atom_site_label
 _atom_site_symmetry_multiplicity
 _atom_site_fract_x
 _atom_site_fract_y
 _atom_site_fract_z
 _atom_site_occupancy
  Tb  Tb0  1  0.000000  0.000000  0.750000  1
  Nd  Nd1  1  0.000000  0.000000  0.008669  1
  Nd  Nd2  1  0.000000  0.000000  0.491331  1
  Hf  Hf3  1  0.000000  0.000000  0.250000  1
  Ni  Ni4  1  0.333333  0.666667  0.158349  1
  Ni  Ni5  1  0.666667  0.333333  0.874125  1
  Ni  Ni6  1  0.666667  0.333333  0.625875  1
  Ni  Ni7  1  0.333333  0.666667  0.341651  1
  P  P8  1  0.333333  0.666667  0.623893  1
  P  P9  1  0.666667  0.333333  0.366936  1
  P  P10  1  0.666667  0.333333  0.133064  1
  P  P11  1  0.333333  0.666667  0.876107  1
