# generated using pymatgen
data_Pr3Nd11Y2(CdRu)4
_symmetry_space_group_name_H-M   'P 1'
_cell_length_a   9.92721721
_cell_length_b   9.91992364
_cell_length_c   9.90239859
_cell_angle_alpha   59.76388513
_cell_angle_beta   60.03397711
_cell_angle_gamma   59.85888463
_symmetry_Int_Tables_number   1
_chemical_formula_structural   Pr3Nd11Y2(CdRu)4
_chemical_formula_sum   'Pr3 Nd11 Y2 Cd4 Ru4'
_cell_volume   687.74489981
_cell_formula_units_Z   1
loop_
 _symmetry_equiv_pos_site_id
 _symmetry_equiv_pos_as_xyz
  1  'x, y, z'
loop_
 _atom_site_type_symbol
 _atom_site_label
 _atom_site_symmetry_multiplicity
 _atom_site_fract_x
 _atom_site_fract_y
 _atom_site_fract_z
 _atom_site_occupancy
  Pr  Pr0  1  0.438783  0.438920  0.061520  1
  Pr  Pr1  1  0.060777  0.061520  0.438920  1
  Pr  Pr2  1  0.438647  0.061353  0.061353  1
  Nd  Nd3  1  0.846109  0.848377  0.845262  1
  Nd  Nd4  1  0.688314  0.311686  0.311686  1
  Nd  Nd5  1  0.060525  0.439475  0.439475  1
  Nd  Nd6  1  0.311267  0.688733  0.688733  1
  Nd  Nd7  1  0.311345  0.311512  0.688817  1
  Nd  Nd8  1  0.848933  0.844666  0.460683  1
  Nd  Nd9  1  0.688326  0.688817  0.311512  1
  Nd  Nd10  1  0.460251  0.845262  0.848377  1
  Nd  Nd11  1  0.059549  0.440254  0.060124  1
  Nd  Nd12  1  0.845718  0.460683  0.844666  1
  Nd  Nd13  1  0.440072  0.060124  0.440254  1
  Y  Y14  1  0.309922  0.690166  0.309893  1
  Y  Y15  1  0.690018  0.309893  0.690166  1
  Cd  Cd16  1  0.080015  0.762050  0.080248  1
  Cd  Cd17  1  0.077687  0.080248  0.762050  1
  Cd  Cd18  1  0.762448  0.079935  0.077560  1
  Cd  Cd19  1  0.080057  0.077560  0.079935  1
  Ru  Ru20  1  0.637788  0.085674  0.637362  1
  Ru  Ru21  1  0.638224  0.638464  0.637263  1
  Ru  Ru22  1  0.639174  0.637362  0.085674  1
  Ru  Ru23  1  0.086048  0.637263  0.638464  1
