# generated using pymatgen
data_Tb3ErReRuC4
_symmetry_space_group_name_H-M   'P 1'
_cell_length_a   5.12208000
_cell_length_b   6.54691900
_cell_length_c   9.83961500
_cell_angle_alpha   90.00000000
_cell_angle_beta   90.00000000
_cell_angle_gamma   90.00000000
_symmetry_Int_Tables_number   1
_chemical_formula_structural   Tb3ErReRuC4
_chemical_formula_sum   'Tb6 Er2 Re2 Ru2 C8'
_cell_volume   329.96010333
_cell_formula_units_Z   2
loop_
 _symmetry_equiv_pos_site_id
 _symmetry_equiv_pos_as_xyz
  1  'x, y, z'
loop_
 _atom_site_type_symbol
 _atom_site_label
 _atom_site_symmetry_multiplicity
 _atom_site_fract_x
 _atom_site_fract_y
 _atom_site_fract_z
 _atom_site_occupancy
  Tb  Tb0  1  0.750000  0.318148  0.443729  1
  Tb  Tb1  1  0.250000  0.181852  0.943729  1
  Tb  Tb2  1  0.750000  0.469190  0.785211  1
  Tb  Tb3  1  0.250000  0.030810  0.285211  1
  Tb  Tb4  1  0.750000  0.970285  0.714802  1
  Tb  Tb5  1  0.250000  0.529715  0.214802  1
  Er  Er6  1  0.750000  0.824945  0.055158  1
  Er  Er7  1  0.250000  0.675055  0.555158  1
  Re  Re8  1  0.750000  0.777165  0.364332  1
  Re  Re9  1  0.250000  0.722835  0.864332  1
  Ru  Ru10  1  0.750000  0.276358  0.134920  1
  Ru  Ru11  1  0.250000  0.223642  0.634920  1
  C  C12  1  0.750000  0.174678  0.950732  1
  C  C13  1  0.250000  0.821938  0.050455  1
  C  C14  1  0.750000  0.678062  0.550455  1
  C  C15  1  0.250000  0.325322  0.450732  1
  C  C16  1  0.750000  0.041319  0.259226  1
  C  C17  1  0.250000  0.458681  0.759226  1
  C  C18  1  0.750000  0.544610  0.241436  1
  C  C19  1  0.250000  0.955390  0.741436  1
