# generated using pymatgen
data_Tb4Ho3Er(B6Ru)4
_symmetry_space_group_name_H-M   'P 1'
_cell_length_a   3.66268700
_cell_length_b   9.13669301
_cell_length_c   11.51835501
_cell_angle_alpha   90.00510410
_cell_angle_beta   90.00000000
_cell_angle_gamma   90.00000000
_symmetry_Int_Tables_number   1
_chemical_formula_structural   Tb4Ho3Er(B6Ru)4
_chemical_formula_sum   'Tb4 Ho3 Er1 B24 Ru4'
_cell_volume   385.45998325
_cell_formula_units_Z   1
loop_
 _symmetry_equiv_pos_site_id
 _symmetry_equiv_pos_as_xyz
  1  'x, y, z'
loop_
 _atom_site_type_symbol
 _atom_site_label
 _atom_site_symmetry_multiplicity
 _atom_site_fract_x
 _atom_site_fract_y
 _atom_site_fract_z
 _atom_site_occupancy
  Tb  Tb0  1  0.000000  0.322573  0.414141  1
  Tb  Tb1  1  0.000000  0.677421  0.585932  1
  Tb  Tb2  1  0.000000  0.822500  0.085824  1
  Tb  Tb3  1  0.000000  0.177513  0.914103  1
  Ho  Ho4  1  0.000000  0.943987  0.372244  1
  Ho  Ho5  1  0.000000  0.056007  0.627780  1
  Ho  Ho6  1  0.000000  0.444049  0.127640  1
  Er  Er7  1  0.000000  0.556014  0.872230  1
  B  B8  1  0.500000  0.554609  0.432503  1
  B  B9  1  0.500000  0.445398  0.567518  1
  B  B10  1  0.500000  0.054601  0.067489  1
  B  B11  1  0.500000  0.945352  0.932498  1
  B  B12  1  0.500000  0.748774  0.419307  1
  B  B13  1  0.500000  0.251240  0.580695  1
  B  B14  1  0.500000  0.248788  0.080689  1
  B  B15  1  0.500000  0.750977  0.919294  1
  B  B16  1  0.500000  0.791035  0.266159  1
  B  B17  1  0.500000  0.209008  0.733860  1
  B  B18  1  0.500000  0.291041  0.233840  1
  B  B19  1  0.500000  0.708723  0.766233  1
  B  B20  1  0.500000  0.631700  0.184921  1
  B  B21  1  0.500000  0.368504  0.815177  1
  B  B22  1  0.500000  0.131716  0.315075  1
  B  B23  1  0.500000  0.868261  0.684946  1
  B  B24  1  0.500000  0.984181  0.213026  1
  B  B25  1  0.500000  0.015805  0.786976  1
  B  B26  1  0.500000  0.484177  0.286969  1
  B  B27  1  0.500000  0.515952  0.713212  1
  B  B28  1  0.500000  0.606544  0.029025  1
  B  B29  1  0.500000  0.393646  0.970560  1
  B  B30  1  0.500000  0.106646  0.470716  1
  B  B31  1  0.500000  0.893344  0.529287  1
  Ru  Ru32  1  0.000000  0.638493  0.320602  1
  Ru  Ru33  1  0.000000  0.361679  0.679527  1
  Ru  Ru34  1  0.000000  0.138508  0.179355  1
  Ru  Ru35  1  0.000000  0.861234  0.820650  1
