# generated using pymatgen
data_Rb6Ti3VBr18
_symmetry_space_group_name_H-M   'P 1'
_cell_length_a   7.66092500
_cell_length_b   7.66092504
_cell_length_c   18.99168600
_cell_angle_alpha   90.00000000
_cell_angle_beta   90.00000000
_cell_angle_gamma   119.99999551
_symmetry_Int_Tables_number   1
_chemical_formula_structural   Rb6Ti3VBr18
_chemical_formula_sum   'Rb6 Ti3 V1 Br18'
_cell_volume   965.28730825
_cell_formula_units_Z   1
loop_
 _symmetry_equiv_pos_site_id
 _symmetry_equiv_pos_as_xyz
  1  'x, y, z'
loop_
 _atom_site_type_symbol
 _atom_site_label
 _atom_site_symmetry_multiplicity
 _atom_site_fract_x
 _atom_site_fract_y
 _atom_site_fract_z
 _atom_site_occupancy
  Rb  Rb0  1  0.666667  0.333333  0.565829  1
  Rb  Rb1  1  0.333333  0.666667  0.072347  1
  Rb  Rb2  1  0.333333  0.666667  0.429737  1
  Rb  Rb3  1  0.666667  0.333333  0.943388  1
  Rb  Rb4  1  0.000000  0.000000  0.240016  1
  Rb  Rb5  1  0.000000  0.000000  0.749956  1
  Ti  Ti6  1  0.333333  0.666667  0.665063  1
  Ti  Ti7  1  0.666667  0.333333  0.335549  1
  Ti  Ti8  1  0.333333  0.666667  0.834760  1
  V  V9  1  0.666667  0.333333  0.165377  1
  Br  Br10  1  0.825357  0.650714  0.409182  1
  Br  Br11  1  0.174140  0.825860  0.592405  1
  Br  Br12  1  0.651720  0.825860  0.592405  1
  Br  Br13  1  0.825357  0.174643  0.409182  1
  Br  Br14  1  0.349286  0.174643  0.409182  1
  Br  Br15  1  0.174117  0.348233  0.905707  1
  Br  Br16  1  0.013278  0.506639  0.749116  1
  Br  Br17  1  0.651767  0.825883  0.905707  1
  Br  Br18  1  0.825908  0.651817  0.091714  1
  Br  Br19  1  0.174140  0.348280  0.592405  1
  Br  Br20  1  0.493361  0.986722  0.749116  1
  Br  Br21  1  0.509314  0.490686  0.251202  1
  Br  Br22  1  0.493361  0.506639  0.749116  1
  Br  Br23  1  0.174117  0.825883  0.905707  1
  Br  Br24  1  0.348183  0.174092  0.091714  1
  Br  Br25  1  0.981372  0.490686  0.251202  1
  Br  Br26  1  0.509314  0.018628  0.251202  1
  Br  Br27  1  0.825908  0.174092  0.091714  1
