# generated using pymatgen
data_Ca9La8Lu3Si16
_symmetry_space_group_name_H-M   'P 1'
_cell_length_a   7.50902262
_cell_length_b   7.94796999
_cell_length_c   15.15964700
_cell_angle_alpha   89.98346288
_cell_angle_beta   90.14966005
_cell_angle_gamma   90.02339981
_symmetry_Int_Tables_number   1
_chemical_formula_structural   Ca9La8Lu3Si16
_chemical_formula_sum   'Ca9 La8 Lu3 Si16'
_cell_volume   904.74706723
_cell_formula_units_Z   1
loop_
 _symmetry_equiv_pos_site_id
 _symmetry_equiv_pos_as_xyz
  1  'x, y, z'
loop_
 _atom_site_type_symbol
 _atom_site_label
 _atom_site_symmetry_multiplicity
 _atom_site_fract_x
 _atom_site_fract_y
 _atom_site_fract_z
 _atom_site_occupancy
  Ca  Ca0  1  0.320548  0.180747  0.623104  1
  Ca  Ca1  1  0.681382  0.820442  0.376364  1
  Ca  Ca2  1  0.650857  0.998264  0.749683  1
  Ca  Ca3  1  0.180320  0.680008  0.376575  1
  Ca  Ca4  1  0.821222  0.318942  0.880358  1
  Ca  Ca5  1  0.819186  0.319754  0.622973  1
  Ca  Ca6  1  0.849891  0.495696  0.251002  1
  Ca  Ca7  1  0.350380  0.004619  0.250862  1
  Ca  Ca8  1  0.146220  0.502898  0.749772  1
  La  La9  1  0.024794  0.183173  0.401132  1
  La  La10  1  0.525137  0.317014  0.400228  1
  La  La11  1  0.473487  0.682677  0.902332  1
  La  La12  1  0.474638  0.683803  0.598619  1
  La  La13  1  0.974544  0.815767  0.599544  1
  La  La14  1  0.974834  0.816813  0.903742  1
  La  La15  1  0.524954  0.317182  0.096794  1
  La  La16  1  0.025834  0.183826  0.096976  1
  Lu  Lu17  1  0.322786  0.180223  0.878265  1
  Lu  Lu18  1  0.177961  0.682288  0.122488  1
  Lu  Lu19  1  0.678764  0.818869  0.121335  1
  Si  Si20  1  0.263105  0.881909  0.754765  1
  Si  Si21  1  0.468201  0.605384  0.241148  1
  Si  Si22  1  0.037769  0.099788  0.756398  1
  Si  Si23  1  0.526492  0.398791  0.754697  1
  Si  Si24  1  0.142984  0.473029  0.536834  1
  Si  Si25  1  0.968012  0.894801  0.241273  1
  Si  Si26  1  0.739589  0.115484  0.244401  1
  Si  Si27  1  0.860096  0.535809  0.041049  1
  Si  Si28  1  0.350933  0.965810  0.036804  1
  Si  Si29  1  0.153650  0.469073  0.967361  1
  Si  Si30  1  0.644304  0.026892  0.536555  1
  Si  Si31  1  0.356816  0.973481  0.462386  1
  Si  Si32  1  0.855765  0.526018  0.462458  1
  Si  Si33  1  0.756110  0.620605  0.751776  1
  Si  Si34  1  0.239977  0.385186  0.244931  1
  Si  Si35  1  0.638460  0.024934  0.965018  1
