# generated using pymatgen
data_Ac2Pd3PtO8
_symmetry_space_group_name_H-M   'P 1'
_cell_length_a   6.06590800
_cell_length_b   6.24330112
_cell_length_c   6.58877847
_cell_angle_alpha   114.79721795
_cell_angle_beta   94.88664521
_cell_angle_gamma   112.22367212
_symmetry_Int_Tables_number   1
_chemical_formula_structural   Ac2Pd3PtO8
_chemical_formula_sum   'Ac2 Pd3 Pt1 O8'
_cell_volume   200.67221522
_cell_formula_units_Z   1
loop_
 _symmetry_equiv_pos_site_id
 _symmetry_equiv_pos_as_xyz
  1  'x, y, z'
loop_
 _atom_site_type_symbol
 _atom_site_label
 _atom_site_symmetry_multiplicity
 _atom_site_fract_x
 _atom_site_fract_y
 _atom_site_fract_z
 _atom_site_occupancy
  Ac  Ac0  1  0.871725  0.247194  0.644479  1
  Ac  Ac1  1  0.128275  0.752806  0.355521  1
  Pd  Pd2  1  0.500000  0.500000  0.500000  1
  Pd  Pd3  1  0.500000  0.000000  0.000000  1
  Pd  Pd4  1  0.000000  0.000000  0.000000  1
  Pt  Pt5  1  0.500000  0.500000  0.000000  1
  O  O6  1  0.635638  0.395516  0.223526  1
  O  O7  1  0.364362  0.604484  0.776474  1
  O  O8  1  0.857016  0.639200  0.979680  1
  O  O9  1  0.142984  0.360800  0.020320  1
  O  O10  1  0.538730  0.871189  0.240233  1
  O  O11  1  0.461270  0.128811  0.759767  1
  O  O12  1  0.848585  0.832447  0.641985  1
  O  O13  1  0.151415  0.167553  0.358015  1
