# generated using pymatgen
data_Th10Bi5Pb2Au
_symmetry_space_group_name_H-M   'P 1'
_cell_length_a   9.75198008
_cell_length_b   9.75198010
_cell_length_c   6.67183484
_cell_angle_alpha   90.02890745
_cell_angle_beta   90.02890684
_cell_angle_gamma   120.04548091
_symmetry_Int_Tables_number   1
_chemical_formula_structural   Th10Bi5Pb2Au
_chemical_formula_sum   'Th10 Bi5 Pb2 Au1'
_cell_volume   549.23991495
_cell_formula_units_Z   1
loop_
 _symmetry_equiv_pos_site_id
 _symmetry_equiv_pos_as_xyz
  1  'x, y, z'
loop_
 _atom_site_type_symbol
 _atom_site_label
 _atom_site_symmetry_multiplicity
 _atom_site_fract_x
 _atom_site_fract_y
 _atom_site_fract_z
 _atom_site_occupancy
  Th  Th0  1  0.667414  0.333110  0.500502  1
  Th  Th1  1  0.333110  0.667414  0.500502  1
  Th  Th2  1  0.331729  0.666423  0.998898  1
  Th  Th3  1  0.666423  0.331729  0.998898  1
  Th  Th4  1  0.723229  0.723229  0.264903  1
  Th  Th5  1  0.277325  0.999674  0.263905  1
  Th  Th6  1  0.999674  0.277325  0.263905  1
  Th  Th7  1  0.277535  0.277535  0.735623  1
  Th  Th8  1  0.723053  0.001608  0.735669  1
  Th  Th9  1  0.001608  0.723053  0.735669  1
  Bi  Bi10  1  0.999914  0.999914  0.999782  1
  Bi  Bi11  1  0.380204  0.380204  0.246839  1
  Bi  Bi12  1  0.619441  0.000303  0.246667  1
  Bi  Bi13  1  0.000303  0.619441  0.246667  1
  Bi  Bi14  1  0.619254  0.619254  0.753081  1
  Pb  Pb15  1  0.379398  0.000243  0.753388  1
  Pb  Pb16  1  0.000243  0.379398  0.753388  1
  Au  Au17  1  0.000143  0.000143  0.501716  1
