# generated using pymatgen
data_Ce4Tm11Lu(CdRu)4
_symmetry_space_group_name_H-M   'P 1'
_cell_length_a   9.53845340
_cell_length_b   9.53845289
_cell_length_c   9.53817500
_cell_angle_alpha   60.00096025
_cell_angle_beta   60.00096204
_cell_angle_gamma   60.00970492
_symmetry_Int_Tables_number   1
_chemical_formula_structural   Ce4Tm11Lu(CdRu)4
_chemical_formula_sum   'Ce4 Tm11 Lu1 Cd4 Ru4'
_cell_volume   613.68335382
_cell_formula_units_Z   1
loop_
 _symmetry_equiv_pos_site_id
 _symmetry_equiv_pos_as_xyz
  1  'x, y, z'
loop_
 _atom_site_type_symbol
 _atom_site_label
 _atom_site_symmetry_multiplicity
 _atom_site_fract_x
 _atom_site_fract_y
 _atom_site_fract_z
 _atom_site_occupancy
  Ce  Ce0  1  0.347020  0.347020  0.959271  1
  Ce  Ce1  1  0.347729  0.958433  0.346920  1
  Ce  Ce2  1  0.958433  0.347729  0.346920  1
  Ce  Ce3  1  0.347020  0.347020  0.346690  1
  Tm  Tm4  1  0.936425  0.562935  0.936956  1
  Tm  Tm5  1  0.562935  0.936425  0.936956  1
  Tm  Tm6  1  0.937157  0.937157  0.562843  1
  Tm  Tm7  1  0.562935  0.936425  0.563685  1
  Tm  Tm8  1  0.936425  0.562935  0.563685  1
  Tm  Tm9  1  0.188026  0.188026  0.811974  1
  Tm  Tm10  1  0.811700  0.188043  0.812177  1
  Tm  Tm11  1  0.188042  0.811701  0.812177  1
  Tm  Tm12  1  0.812201  0.812202  0.187799  1
  Tm  Tm13  1  0.188042  0.811700  0.188079  1
  Tm  Tm14  1  0.811700  0.188043  0.188080  1
  Lu  Lu15  1  0.563156  0.563156  0.936844  1
  Cd  Cd16  1  0.581257  0.581257  0.255335  1
  Cd  Cd17  1  0.581414  0.255100  0.581742  1
  Cd  Cd18  1  0.255100  0.581414  0.581742  1
  Cd  Cd19  1  0.581257  0.581257  0.582149  1
  Ru  Ru20  1  0.144447  0.144447  0.568039  1
  Ru  Ru21  1  0.145681  0.567450  0.143435  1
  Ru  Ru22  1  0.567450  0.145681  0.143435  1
  Ru  Ru23  1  0.144447  0.144447  0.143067  1
