# generated using pymatgen
data_YbHo7Mg2(SiB4)4
_symmetry_space_group_name_H-M   'P 1'
_cell_length_a   7.15407316
_cell_length_b   7.15407316
_cell_length_c   7.83142618
_cell_angle_alpha   90.06050417
_cell_angle_beta   90.06050417
_cell_angle_gamma   89.97554103
_symmetry_Int_Tables_number   1
_chemical_formula_structural   YbHo7Mg2(SiB4)4
_chemical_formula_sum   'Yb1 Ho7 Mg2 Si4 B16'
_cell_volume   400.81788236
_cell_formula_units_Z   1
loop_
 _symmetry_equiv_pos_site_id
 _symmetry_equiv_pos_as_xyz
  1  'x, y, z'
loop_
 _atom_site_type_symbol
 _atom_site_label
 _atom_site_symmetry_multiplicity
 _atom_site_fract_x
 _atom_site_fract_y
 _atom_site_fract_z
 _atom_site_occupancy
  Yb  Yb0  1  0.682742  0.182742  0.235294  1
  Ho  Ho1  1  0.317441  0.817441  0.766298  1
  Ho  Ho2  1  0.316979  0.816979  0.232599  1
  Ho  Ho3  1  0.817723  0.682921  0.232650  1
  Ho  Ho4  1  0.816391  0.682875  0.766781  1
  Ho  Ho5  1  0.683147  0.183147  0.769036  1
  Ho  Ho6  1  0.182875  0.316391  0.766781  1
  Ho  Ho7  1  0.182921  0.317723  0.232650  1
  Mg  Mg8  1  0.998803  0.000648  0.499109  1
  Mg  Mg9  1  0.500648  0.498803  0.499109  1
  Si  Si10  1  0.116573  0.616573  0.501514  1
  Si  Si11  1  0.885721  0.385721  0.500744  1
  Si  Si12  1  0.383451  0.114382  0.501413  1
  Si  Si13  1  0.614382  0.883451  0.501413  1
  B  B14  1  0.174101  0.039395  0.998843  1
  B  B15  1  0.826540  0.960477  0.001201  1
  B  B16  1  0.960444  0.173458  0.000949  1
  B  B17  1  0.326304  0.540218  0.999025  1
  B  B18  1  0.040218  0.826304  0.999025  1
  B  B19  1  0.673458  0.460444  0.000949  1
  B  B20  1  0.539395  0.674101  0.998843  1
  B  B21  1  0.460477  0.326540  0.001201  1
  B  B22  1  0.089199  0.589199  0.999053  1
  B  B23  1  0.910871  0.410871  0.999251  1
  B  B24  1  0.410850  0.088977  0.998897  1
  B  B25  1  0.588977  0.910850  0.998897  1
  B  B26  1  0.000721  0.999403  0.161613  1
  B  B27  1  0.999011  0.000233  0.837624  1
  B  B28  1  0.500233  0.499011  0.837624  1
  B  B29  1  0.499403  0.500721  0.161613  1
