# generated using pymatgen
data_Dy2Mn5Fe5P6
_symmetry_space_group_name_H-M   'P 1'
_cell_length_a   3.64364700
_cell_length_b   10.35549300
_cell_length_c   12.12911700
_cell_angle_alpha   90.00000000
_cell_angle_beta   90.00000000
_cell_angle_gamma   90.00000000
_symmetry_Int_Tables_number   1
_chemical_formula_structural   Dy2Mn5Fe5P6
_chemical_formula_sum   'Dy4 Mn10 Fe10 P12'
_cell_volume   457.65294382
_cell_formula_units_Z   2
loop_
 _symmetry_equiv_pos_site_id
 _symmetry_equiv_pos_as_xyz
  1  'x, y, z'
loop_
 _atom_site_type_symbol
 _atom_site_label
 _atom_site_symmetry_multiplicity
 _atom_site_fract_x
 _atom_site_fract_y
 _atom_site_fract_z
 _atom_site_occupancy
  Dy  Dy0  1  0.250000  0.584188  0.710803  1
  Dy  Dy1  1  0.250000  0.915812  0.210803  1
  Dy  Dy2  1  0.750000  0.423439  0.291145  1
  Dy  Dy3  1  0.750000  0.076561  0.791145  1
  Mn  Mn4  1  0.250000  0.704542  0.991668  1
  Mn  Mn5  1  0.250000  0.795458  0.491668  1
  Mn  Mn6  1  0.750000  0.291189  0.010778  1
  Mn  Mn7  1  0.750000  0.208811  0.510778  1
  Mn  Mn8  1  0.250000  0.412294  0.491513  1
  Mn  Mn9  1  0.250000  0.087706  0.991513  1
  Mn  Mn10  1  0.750000  0.595890  0.508572  1
  Mn  Mn11  1  0.750000  0.904110  0.008572  1
  Mn  Mn12  1  0.250000  0.218429  0.173945  1
  Mn  Mn13  1  0.250000  0.281571  0.673945  1
  Fe  Fe14  1  0.750000  0.777251  0.827693  1
  Fe  Fe15  1  0.750000  0.722749  0.327693  1
  Fe  Fe16  1  0.250000  0.877830  0.695446  1
  Fe  Fe17  1  0.250000  0.622170  0.195446  1
  Fe  Fe18  1  0.750000  0.127028  0.301004  1
  Fe  Fe19  1  0.750000  0.372972  0.801004  1
  Fe  Fe20  1  0.250000  0.461270  0.933809  1
  Fe  Fe21  1  0.250000  0.038730  0.433809  1
  Fe  Fe22  1  0.750000  0.536691  0.063369  1
  Fe  Fe23  1  0.750000  0.963309  0.563369  1
  P  P24  1  0.250000  0.425962  0.111956  1
  P  P25  1  0.250000  0.074038  0.611956  1
  P  P26  1  0.750000  0.574945  0.886554  1
  P  P27  1  0.750000  0.925055  0.386554  1
  P  P28  1  0.250000  0.264758  0.867808  1
  P  P29  1  0.250000  0.235242  0.367808  1
  P  P30  1  0.750000  0.729197  0.138120  1
  P  P31  1  0.750000  0.770803  0.638120  1
  P  P32  1  0.250000  0.605487  0.381445  1
  P  P33  1  0.250000  0.894513  0.881445  1
  P  P34  1  0.750000  0.405763  0.614370  1
  P  P35  1  0.750000  0.094237  0.114370  1
