# generated using pymatgen
data_Dy19ErCo3Bi8Ru
_symmetry_space_group_name_H-M   'P 1'
_cell_length_a   8.03599166
_cell_length_b   8.92393636
_cell_length_c   12.46960810
_cell_angle_alpha   89.98584712
_cell_angle_beta   90.18959687
_cell_angle_gamma   89.97066214
_symmetry_Int_Tables_number   1
_chemical_formula_structural   Dy19ErCo3Bi8Ru
_chemical_formula_sum   'Dy19 Er1 Co3 Bi8 Ru1'
_cell_volume   894.22395148
_cell_formula_units_Z   1
loop_
 _symmetry_equiv_pos_site_id
 _symmetry_equiv_pos_as_xyz
  1  'x, y, z'
loop_
 _atom_site_type_symbol
 _atom_site_label
 _atom_site_symmetry_multiplicity
 _atom_site_fract_x
 _atom_site_fract_y
 _atom_site_fract_z
 _atom_site_occupancy
  Dy  Dy0  1  0.846851  0.750054  0.800367  1
  Dy  Dy1  1  0.152208  0.249968  0.198176  1
  Dy  Dy2  1  0.347954  0.249602  0.698638  1
  Dy  Dy3  1  0.653750  0.750113  0.296429  1
  Dy  Dy4  1  0.380131  0.750339  0.692808  1
  Dy  Dy5  1  0.617633  0.249428  0.311027  1
  Dy  Dy6  1  0.881865  0.249925  0.811194  1
  Dy  Dy7  1  0.117209  0.749936  0.187127  1
  Dy  Dy8  1  0.947955  0.750458  0.503784  1
  Dy  Dy9  1  0.050858  0.249692  0.496884  1
  Dy  Dy10  1  0.450363  0.249938  0.997427  1
  Dy  Dy11  1  0.549865  0.749953  0.002278  1
  Dy  Dy12  1  0.324735  0.965579  0.436676  1
  Dy  Dy13  1  0.175001  0.965110  0.936894  1
  Dy  Dy14  1  0.324477  0.533888  0.436544  1
  Dy  Dy15  1  0.823916  0.036691  0.063006  1
  Dy  Dy16  1  0.676727  0.457452  0.564649  1
  Dy  Dy17  1  0.823882  0.463249  0.062957  1
  Dy  Dy18  1  0.174983  0.534788  0.936991  1
  Er  Er19  1  0.675096  0.043797  0.564438  1
  Co  Co20  1  0.434586  0.249662  0.491114  1
  Co  Co21  1  0.061241  0.249942  0.992038  1
  Co  Co22  1  0.936817  0.749959  0.007248  1
  Bi  Bi23  1  0.570999  0.491494  0.827003  1
  Bi  Bi24  1  0.428431  0.507990  0.173318  1
  Bi  Bi25  1  0.071613  0.507798  0.674050  1
  Bi  Bi26  1  0.428188  0.991815  0.173221  1
  Bi  Bi27  1  0.930039  0.492062  0.326260  1
  Bi  Bi28  1  0.571351  0.008490  0.826939  1
  Bi  Bi29  1  0.930400  0.007909  0.326097  1
  Bi  Bi30  1  0.070789  0.992173  0.674028  1
  Ru  Ru31  1  0.570086  0.750747  0.510392  1
