# generated using pymatgen
data_CeEr3Sc3AlIr4
_symmetry_space_group_name_H-M   'P 1'
_cell_length_a   7.03552336
_cell_length_b   4.30094400
_cell_length_c   8.40643754
_cell_angle_alpha   90.00000000
_cell_angle_beta   93.17417890
_cell_angle_gamma   90.00000000
_symmetry_Int_Tables_number   1
_chemical_formula_structural   CeEr3Sc3AlIr4
_chemical_formula_sum   'Ce1 Er3 Sc3 Al1 Ir4'
_cell_volume   253.98343381
_cell_formula_units_Z   1
loop_
 _symmetry_equiv_pos_site_id
 _symmetry_equiv_pos_as_xyz
  1  'x, y, z'
loop_
 _atom_site_type_symbol
 _atom_site_label
 _atom_site_symmetry_multiplicity
 _atom_site_fract_x
 _atom_site_fract_y
 _atom_site_fract_z
 _atom_site_occupancy
  Ce  Ce0  1  0.518635  0.750000  0.694188  1
  Er  Er1  1  0.988505  0.250000  0.159080  1
  Er  Er2  1  0.464134  0.250000  0.317890  1
  Er  Er3  1  0.039101  0.750000  0.829974  1
  Sc  Sc4  1  0.867074  0.250000  0.562812  1
  Sc  Sc5  1  0.134620  0.750000  0.427299  1
  Sc  Sc6  1  0.637744  0.750000  0.066120  1
  Al  Al7  1  0.357303  0.250000  0.940595  1
  Ir  Ir8  1  0.732621  0.250000  0.879584  1
  Ir  Ir9  1  0.248414  0.250000  0.614313  1
  Ir  Ir10  1  0.264858  0.750000  0.114596  1
  Ir  Ir11  1  0.746991  0.750000  0.393549  1
