# generated using pymatgen
data_Dy20IrRu8Pt3
_symmetry_space_group_name_H-M   'P 1'
_cell_length_a   10.81519875
_cell_length_b   10.81519862
_cell_length_c   6.39647200
_cell_angle_alpha   90.03255443
_cell_angle_beta   90.03254913
_cell_angle_gamma   90.10119958
_symmetry_Int_Tables_number   1
_chemical_formula_structural   Dy20IrRu8Pt3
_chemical_formula_sum   'Dy20 Ir1 Ru8 Pt3'
_cell_volume   748.18447049
_cell_formula_units_Z   1
loop_
 _symmetry_equiv_pos_site_id
 _symmetry_equiv_pos_as_xyz
  1  'x, y, z'
loop_
 _atom_site_type_symbol
 _atom_site_label
 _atom_site_symmetry_multiplicity
 _atom_site_fract_x
 _atom_site_fract_y
 _atom_site_fract_z
 _atom_site_occupancy
  Dy  Dy0  1  0.295124  0.085644  0.372870  1
  Dy  Dy1  1  0.292880  0.910541  0.878917  1
  Dy  Dy2  1  0.707195  0.086071  0.878652  1
  Dy  Dy3  1  0.704984  0.914140  0.373060  1
  Dy  Dy4  1  0.583692  0.791216  0.877227  1
  Dy  Dy5  1  0.585693  0.205735  0.373392  1
  Dy  Dy6  1  0.412903  0.792995  0.377921  1
  Dy  Dy7  1  0.413516  0.206987  0.879063  1
  Dy  Dy8  1  0.208784  0.416308  0.622773  1
  Dy  Dy9  1  0.207005  0.587097  0.122079  1
  Dy  Dy10  1  0.794265  0.414307  0.126608  1
  Dy  Dy11  1  0.793013  0.586484  0.620937  1
  Dy  Dy12  1  0.914356  0.704876  0.127130  1
  Dy  Dy13  1  0.913929  0.292805  0.621348  1
  Dy  Dy14  1  0.089459  0.707120  0.621083  1
  Dy  Dy15  1  0.085860  0.295016  0.126940  1
  Dy  Dy16  1  0.000162  0.999742  0.495728  1
  Dy  Dy17  1  0.000258  0.999838  0.004272  1
  Dy  Dy18  1  0.498502  0.501232  0.003382  1
  Dy  Dy19  1  0.498768  0.501498  0.496618  1
  Ir  Ir20  1  0.347390  0.652610  0.750000  1
  Ru  Ru21  1  0.848128  0.151872  0.250000  1
  Ru  Ru22  1  0.151223  0.848777  0.250000  1
  Ru  Ru23  1  0.652837  0.652743  0.249993  1
  Ru  Ru24  1  0.347257  0.347163  0.250007  1
  Ru  Ru25  1  0.500135  0.000292  0.122193  1
  Ru  Ru26  1  0.500167  0.000521  0.625136  1
  Ru  Ru27  1  0.999479  0.499833  0.874864  1
  Ru  Ru28  1  0.999708  0.499865  0.377807  1
  Pt  Pt29  1  0.846328  0.846433  0.749960  1
  Pt  Pt30  1  0.153567  0.153672  0.750040  1
  Pt  Pt31  1  0.653432  0.346568  0.750000  1
