# generated using pymatgen
data_K3Ba(Sc3S5)4
_symmetry_space_group_name_H-M   'P 1'
_cell_length_a   3.72526600
_cell_length_b   11.15418357
_cell_length_c   19.88360500
_cell_angle_alpha   90.13846522
_cell_angle_beta   90.00000000
_cell_angle_gamma   90.00000000
_symmetry_Int_Tables_number   1
_chemical_formula_structural   K3Ba(Sc3S5)4
_chemical_formula_sum   'K3 Ba1 Sc12 S20'
_cell_volume   826.20712365
_cell_formula_units_Z   1
loop_
 _symmetry_equiv_pos_site_id
 _symmetry_equiv_pos_as_xyz
  1  'x, y, z'
loop_
 _atom_site_type_symbol
 _atom_site_label
 _atom_site_symmetry_multiplicity
 _atom_site_fract_x
 _atom_site_fract_y
 _atom_site_fract_z
 _atom_site_occupancy
  K  K0  1  0.250000  0.850492  0.093728  1
  K  K1  1  0.750000  0.149888  0.907546  1
  K  K2  1  0.750000  0.348905  0.404044  1
  Ba  Ba3  1  0.250000  0.655749  0.596654  1
  Sc  Sc4  1  0.750000  0.797923  0.827018  1
  Sc  Sc5  1  0.250000  0.200326  0.173290  1
  Sc  Sc6  1  0.250000  0.296671  0.672891  1
  Sc  Sc7  1  0.750000  0.699254  0.326059  1
  Sc  Sc8  1  0.250000  0.962937  0.697868  1
  Sc  Sc9  1  0.750000  0.041727  0.300613  1
  Sc  Sc10  1  0.750000  0.458767  0.802211  1
  Sc  Sc11  1  0.250000  0.541406  0.198657  1
  Sc  Sc12  1  0.750000  0.390650  0.054159  1
  Sc  Sc13  1  0.250000  0.608695  0.946513  1
  Sc  Sc14  1  0.250000  0.892532  0.445960  1
  Sc  Sc15  1  0.750000  0.109795  0.553750  1
  S  S16  1  0.250000  0.946594  0.569655  1
  S  S17  1  0.750000  0.051253  0.431118  1
  S  S18  1  0.750000  0.447571  0.930250  1
  S  S19  1  0.250000  0.552787  0.069311  1
  S  S20  1  0.750000  0.767819  0.954162  1
  S  S21  1  0.250000  0.232616  0.044687  1
  S  S22  1  0.250000  0.267969  0.544622  1
  S  S23  1  0.750000  0.728957  0.461188  1
  S  S24  1  0.250000  0.953298  0.825473  1
  S  S25  1  0.750000  0.044622  0.172658  1
  S  S26  1  0.750000  0.459722  0.669790  1
  S  S27  1  0.250000  0.544993  0.327962  1
  S  S28  1  0.750000  0.128947  0.684811  1
  S  S29  1  0.250000  0.869897  0.317221  1
  S  S30  1  0.250000  0.628177  0.814820  1
  S  S31  1  0.750000  0.371598  0.184561  1
  S  S32  1  0.750000  0.694594  0.199148  1
  S  S33  1  0.250000  0.306783  0.800294  1
  S  S34  1  0.250000  0.193841  0.301757  1
  S  S35  1  0.750000  0.802245  0.695552  1
