# generated using pymatgen
data_Hf12Zr8Si15As
_symmetry_space_group_name_H-M   'P 1'
_cell_length_a   7.10584234
_cell_length_b   7.11385835
_cell_length_c   12.96612941
_cell_angle_alpha   89.82193480
_cell_angle_beta   89.99113137
_cell_angle_gamma   90.02689790
_symmetry_Int_Tables_number   1
_chemical_formula_structural   Hf12Zr8Si15As
_chemical_formula_sum   'Hf12 Zr8 Si15 As1'
_cell_volume   655.43402390
_cell_formula_units_Z   1
loop_
 _symmetry_equiv_pos_site_id
 _symmetry_equiv_pos_as_xyz
  1  'x, y, z'
loop_
 _atom_site_type_symbol
 _atom_site_label
 _atom_site_symmetry_multiplicity
 _atom_site_fract_x
 _atom_site_fract_y
 _atom_site_fract_z
 _atom_site_occupancy
  Hf  Hf0  1  0.175178  0.175752  0.999914  1
  Hf  Hf1  1  0.824913  0.825400  0.500171  1
  Hf  Hf2  1  0.323992  0.677016  0.249922  1
  Hf  Hf3  1  0.675295  0.324519  0.750087  1
  Hf  Hf4  1  0.147415  0.998663  0.375133  1
  Hf  Hf5  1  0.853062  0.001364  0.876529  1
  Hf  Hf6  1  0.500866  0.647884  0.626447  1
  Hf  Hf7  1  0.353489  0.498390  0.873716  1
  Hf  Hf8  1  0.497402  0.350943  0.126228  1
  Hf  Hf9  1  0.649685  0.503544  0.375029  1
  Hf  Hf10  1  0.999191  0.148231  0.623579  1
  Hf  Hf11  1  0.999425  0.850958  0.122896  1
  Zr  Zr12  1  0.996556  0.347878  0.215652  1
  Zr  Zr13  1  0.002423  0.653103  0.715921  1
  Zr  Zr14  1  0.149458  0.503410  0.468132  1
  Zr  Zr15  1  0.504152  0.845009  0.032913  1
  Zr  Zr16  1  0.847028  0.500873  0.965567  1
  Zr  Zr17  1  0.500130  0.152098  0.535779  1
  Zr  Zr18  1  0.348144  0.998586  0.784500  1
  Zr  Zr19  1  0.653959  0.000044  0.283001  1
  Si  Si20  1  0.644207  0.705088  0.822215  1
  Si  Si21  1  0.204580  0.857363  0.571947  1
  Si  Si22  1  0.144022  0.794560  0.926954  1
  Si  Si23  1  0.795087  0.144041  0.072241  1
  Si  Si24  1  0.855605  0.204301  0.428188  1
  Si  Si25  1  0.295376  0.356232  0.677896  1
  Si  Si26  1  0.703494  0.642257  0.178005  1
  Si  Si27  1  0.300413  0.041001  0.181275  1
  Si  Si28  1  0.700969  0.950408  0.686774  1
  Si  Si29  1  0.450716  0.801017  0.436513  1
  Si  Si30  1  0.199772  0.548777  0.063416  1
  Si  Si31  1  0.549162  0.199230  0.936416  1
  Si  Si32  1  0.799681  0.451171  0.564576  1
  Si  Si33  1  0.049196  0.300569  0.813457  1
  Si  Si34  1  0.950316  0.700756  0.313493  1
  As  As35  1  0.355640  0.299567  0.325516  1
