# generated using pymatgen
data_Hf6Zn18SiAu5
_symmetry_space_group_name_H-M   'P 1'
_cell_length_a   8.84686305
_cell_length_b   8.84835549
_cell_length_c   8.85073200
_cell_angle_alpha   59.99112246
_cell_angle_beta   59.98553986
_cell_angle_gamma   59.82011276
_symmetry_Int_Tables_number   1
_chemical_formula_structural   Hf6Zn18SiAu5
_chemical_formula_sum   'Hf6 Zn18 Si1 Au5'
_cell_volume   489.15414942
_cell_formula_units_Z   1
loop_
 _symmetry_equiv_pos_site_id
 _symmetry_equiv_pos_as_xyz
  1  'x, y, z'
loop_
 _atom_site_type_symbol
 _atom_site_label
 _atom_site_symmetry_multiplicity
 _atom_site_fract_x
 _atom_site_fract_y
 _atom_site_fract_z
 _atom_site_occupancy
  Hf  Hf0  1  0.709629  0.291331  0.297750  1
  Hf  Hf1  1  0.287152  0.709407  0.708518  1
  Hf  Hf2  1  0.287152  0.709407  0.294924  1
  Hf  Hf3  1  0.709629  0.291331  0.701290  1
  Hf  Hf4  1  0.295718  0.296261  0.704010  1
  Hf  Hf5  1  0.712940  0.704610  0.291225  1
  Zn  Zn6  1  0.877279  0.370060  0.876331  1
  Zn  Zn7  1  0.628676  0.122456  0.124434  1
  Zn  Zn8  1  0.367920  0.875368  0.878356  1
  Zn  Zn9  1  0.498304  0.999074  0.000276  1
  Zn  Zn10  1  0.998125  0.498571  0.504547  1
  Zn  Zn11  1  0.998125  0.498571  0.998757  1
  Zn  Zn12  1  0.498304  0.999074  0.502345  1
  Zn  Zn13  1  0.001380  0.999334  0.499643  1
  Zn  Zn14  1  0.511307  0.491184  0.998755  1
  Zn  Zn15  1  0.340380  0.337558  0.336930  1
  Zn  Zn16  1  0.659250  0.659877  0.663616  1
  Zn  Zn17  1  0.340380  0.337558  0.985131  1
  Zn  Zn18  1  0.339435  0.985263  0.337651  1
  Zn  Zn19  1  0.659250  0.659877  0.017257  1
  Zn  Zn20  1  0.662841  0.008493  0.664333  1
  Zn  Zn21  1  0.994485  0.335160  0.335178  1
  Zn  Zn22  1  0.008839  0.663213  0.663974  1
  Zn  Zn23  1  0.992881  0.006914  0.000103  1
  Si  Si24  1  0.498710  0.506700  0.497295  1
  Au  Au25  1  0.123182  0.122162  0.114387  1
  Au  Au26  1  0.873265  0.880973  0.882887  1
  Au  Au27  1  0.123182  0.122162  0.640268  1
  Au  Au28  1  0.129012  0.637077  0.116955  1
  Au  Au29  1  0.873265  0.880973  0.362876  1
