# generated using pymatgen
data_Ca3NdRuPt2RhO14
_symmetry_space_group_name_H-M   'P 1'
_cell_length_a   7.27493839
_cell_length_b   7.27493663
_cell_length_c   7.34375300
_cell_angle_alpha   60.30948728
_cell_angle_beta   60.30949519
_cell_angle_gamma   60.00000551
_symmetry_Int_Tables_number   1
_chemical_formula_structural   Ca3NdRuPt2RhO14
_chemical_formula_sum   'Ca3 Nd1 Ru1 Pt2 Rh1 O14'
_cell_volume   276.10703131
_cell_formula_units_Z   1
loop_
 _symmetry_equiv_pos_site_id
 _symmetry_equiv_pos_as_xyz
  1  'x, y, z'
loop_
 _atom_site_type_symbol
 _atom_site_label
 _atom_site_symmetry_multiplicity
 _atom_site_fract_x
 _atom_site_fract_y
 _atom_site_fract_z
 _atom_site_occupancy
  Ca  Ca0  1  0.625000  0.125000  0.625000  1
  Ca  Ca1  1  0.125000  0.625000  0.625000  1
  Ca  Ca2  1  0.625000  0.625000  0.625000  1
  Nd  Nd3  1  0.625000  0.625000  0.125000  1
  Ru  Ru4  1  0.125000  0.125000  0.625000  1
  Pt  Pt5  1  0.125000  0.625000  0.125000  1
  Pt  Pt6  1  0.125000  0.125000  0.125000  1
  Rh  Rh7  1  0.625000  0.125000  0.125000  1
  O  O8  1  0.199518  0.195578  0.799606  1
  O  O9  1  0.205142  0.790577  0.213701  1
  O  O10  1  0.457268  0.048629  0.038480  1
  O  O11  1  0.199518  0.805299  0.799606  1
  O  O12  1  0.050482  0.444701  0.450394  1
  O  O13  1  0.792732  0.794376  0.211520  1
  O  O14  1  0.457268  0.455624  0.038480  1
  O  O15  1  0.499970  0.498481  0.503067  1
  O  O16  1  0.050482  0.054422  0.450394  1
  O  O17  1  0.437181  0.059146  0.444526  1
  O  O18  1  0.044858  0.459423  0.036299  1
  O  O19  1  0.750030  0.751519  0.746933  1
  O  O20  1  0.812819  0.190854  0.805474  1
  O  O21  1  0.792732  0.201371  0.211520  1
