# generated using pymatgen
data_Sm11Y(SiI3)4
_symmetry_space_group_name_H-M   'P 1'
_cell_length_a   10.68029441
_cell_length_b   10.68029527
_cell_length_c   10.69249785
_cell_angle_alpha   109.43278551
_cell_angle_beta   109.43279317
_cell_angle_gamma   109.47829307
_symmetry_Int_Tables_number   1
_chemical_formula_structural   Sm11Y(SiI3)4
_chemical_formula_sum   'Sm11 Y1 Si4 I12'
_cell_volume   939.71723652
_cell_formula_units_Z   1
loop_
 _symmetry_equiv_pos_site_id
 _symmetry_equiv_pos_as_xyz
  1  'x, y, z'
loop_
 _atom_site_type_symbol
 _atom_site_label
 _atom_site_symmetry_multiplicity
 _atom_site_fract_x
 _atom_site_fract_y
 _atom_site_fract_z
 _atom_site_occupancy
  Sm  Sm0  1  0.463708  0.481617  0.231812  1
  Sm  Sm1  1  0.751717  0.232004  0.269798  1
  Sm  Sm2  1  0.749431  0.018121  0.480994  1
  Sm  Sm3  1  0.231305  0.462879  0.481175  1
  Sm  Sm4  1  0.267996  0.748283  0.230202  1
  Sm  Sm5  1  0.037121  0.268695  0.018825  1
  Sm  Sm6  1  0.018383  0.036292  0.268188  1
  Sm  Sm7  1  0.481879  0.750569  0.019006  1
  Sm  Sm8  1  0.481685  0.231668  0.463320  1
  Sm  Sm9  1  0.018858  0.481142  0.750000  1
  Sm  Sm10  1  0.268332  0.018315  0.036680  1
  Y  Y11  1  0.230188  0.269812  0.750000  1
  Si  Si12  1  0.250065  0.249935  0.250000  1
  Si  Si13  1  0.499890  0.000110  0.250000  1
  Si  Si14  1  0.001803  0.249599  0.501554  1
  Si  Si15  1  0.250401  0.498197  0.998446  1
  I  I16  1  0.250149  0.757132  0.742899  1
  I  I17  1  0.510610  0.503534  0.757398  1
  I  I18  1  0.985572  0.742026  0.992482  1
  I  I19  1  0.742868  0.249851  0.757101  1
  I  I20  1  0.996466  0.989390  0.742602  1
  I  I21  1  0.249885  0.995758  0.509778  1
  I  I22  1  0.757974  0.514428  0.507518  1
  I  I23  1  0.504242  0.250115  0.990222  1
  I  I24  1  0.757339  0.742661  0.250000  1
  I  I25  1  0.742571  0.992989  0.985597  1
  I  I26  1  0.992544  0.507456  0.250000  1
  I  I27  1  0.507011  0.757429  0.514403  1
