# generated using pymatgen
data_Er3Mg3SiGePd
_symmetry_space_group_name_H-M   'P 1'
_cell_length_a   7.20556300
_cell_length_b   7.20556359
_cell_length_c   4.24863400
_cell_angle_alpha   90.00000000
_cell_angle_beta   90.00000000
_cell_angle_gamma   120.00000188
_symmetry_Int_Tables_number   1
_chemical_formula_structural   Er3Mg3SiGePd
_chemical_formula_sum   'Er3 Mg3 Si1 Ge1 Pd1'
_cell_volume   191.03626507
_cell_formula_units_Z   1
loop_
 _symmetry_equiv_pos_site_id
 _symmetry_equiv_pos_as_xyz
  1  'x, y, z'
loop_
 _atom_site_type_symbol
 _atom_site_label
 _atom_site_symmetry_multiplicity
 _atom_site_fract_x
 _atom_site_fract_y
 _atom_site_fract_z
 _atom_site_occupancy
  Er  Er0  1  0.417498  0.419471  0.500000  1
  Er  Er1  1  0.580529  0.998027  0.500000  1
  Er  Er2  1  0.001973  0.582502  0.500000  1
  Mg  Mg3  1  0.755682  0.758266  0.000000  1
  Mg  Mg4  1  0.241734  0.997416  0.000000  1
  Mg  Mg5  1  0.002584  0.244318  0.000000  1
  Si  Si6  1  0.333333  0.666667  0.000000  1
  Ge  Ge7  1  0.666667  0.333333  0.000000  1
  Pd  Pd8  1  0.000000  0.000000  0.500000  1
