# generated using pymatgen
data_SrEuF5
_symmetry_space_group_name_H-M   'P 1'
_cell_length_a   8.37165158
_cell_length_b   8.37165183
_cell_length_c   5.89017600
_cell_angle_alpha   89.13112479
_cell_angle_beta   89.13113161
_cell_angle_gamma   149.40140522
_symmetry_Int_Tables_number   1
_chemical_formula_structural   SrEuF5
_chemical_formula_sum   'Sr2 Eu2 F10'
_cell_volume   209.78155590
_cell_formula_units_Z   2
loop_
 _symmetry_equiv_pos_site_id
 _symmetry_equiv_pos_as_xyz
  1  'x, y, z'
loop_
 _atom_site_type_symbol
 _atom_site_label
 _atom_site_symmetry_multiplicity
 _atom_site_fract_x
 _atom_site_fract_y
 _atom_site_fract_z
 _atom_site_occupancy
  Sr  Sr0  1  0.320864  0.679136  0.750000  1
  Sr  Sr1  1  0.679136  0.320864  0.250000  1
  Eu  Eu2  1  0.075007  0.924993  0.750000  1
  Eu  Eu3  1  0.924993  0.075007  0.250000  1
  F  F4  1  0.727189  0.810909  0.605889  1
  F  F5  1  0.810909  0.727189  0.105889  1
  F  F6  1  0.799647  0.181886  0.002357  1
  F  F7  1  0.621900  0.378100  0.750000  1
  F  F8  1  0.818114  0.200353  0.497643  1
  F  F9  1  0.181886  0.799647  0.502357  1
  F  F10  1  0.378100  0.621900  0.250000  1
  F  F11  1  0.200353  0.818114  0.997643  1
  F  F12  1  0.189091  0.272811  0.894111  1
  F  F13  1  0.272811  0.189091  0.394111  1
