# generated using pymatgen
data_Ho2CoNi3B4
_symmetry_space_group_name_H-M   'P 1'
_cell_length_a   4.91928841
_cell_length_b   4.93882430
_cell_length_c   6.88946172
_cell_angle_alpha   59.14254443
_cell_angle_beta   59.38468683
_cell_angle_gamma   63.70738749
_symmetry_Int_Tables_number   1
_chemical_formula_structural   Ho2CoNi3B4
_chemical_formula_sum   'Ho2 Co1 Ni3 B4'
_cell_volume   119.85937810
_cell_formula_units_Z   1
loop_
 _symmetry_equiv_pos_site_id
 _symmetry_equiv_pos_as_xyz
  1  'x, y, z'
loop_
 _atom_site_type_symbol
 _atom_site_label
 _atom_site_symmetry_multiplicity
 _atom_site_fract_x
 _atom_site_fract_y
 _atom_site_fract_z
 _atom_site_occupancy
  Ho  Ho0  1  0.120870  0.876530  0.253708  1
  Ho  Ho1  1  0.874926  0.118277  0.756746  1
  Co  Co2  1  0.466771  0.279986  0.200779  1
  Ni  Ni3  1  0.727425  0.532653  0.298432  1
  Ni  Ni4  1  0.534238  0.727488  0.794230  1
  Ni  Ni5  1  0.277211  0.467891  0.700542  1
  B  B6  1  0.163191  0.497783  0.023346  1
  B  B7  1  0.494559  0.848979  0.473040  1
  B  B8  1  0.842340  0.487422  0.979760  1
  B  B9  1  0.498468  0.162991  0.519419  1
