# generated using pymatgen
data_Ir5Rh3S16
_symmetry_space_group_name_H-M   'P 1'
_cell_length_a   3.59806000
_cell_length_b   5.70768400
_cell_length_c   20.04578100
_cell_angle_alpha   90.00171604
_cell_angle_beta   90.00000000
_cell_angle_gamma   90.00000000
_symmetry_Int_Tables_number   1
_chemical_formula_structural   Ir5Rh3S16
_chemical_formula_sum   'Ir5 Rh3 S16'
_cell_volume   411.67197537
_cell_formula_units_Z   1
loop_
 _symmetry_equiv_pos_site_id
 _symmetry_equiv_pos_as_xyz
  1  'x, y, z'
loop_
 _atom_site_type_symbol
 _atom_site_label
 _atom_site_symmetry_multiplicity
 _atom_site_fract_x
 _atom_site_fract_y
 _atom_site_fract_z
 _atom_site_occupancy
  Ir  Ir0  1  0.250000  0.557846  0.303875  1
  Ir  Ir1  1  0.250000  0.922877  0.577083  1
  Ir  Ir2  1  0.750000  0.074401  0.422767  1
  Ir  Ir3  1  0.750000  0.423216  0.922905  1
  Ir  Ir4  1  0.250000  0.575631  0.077267  1
  Rh  Rh5  1  0.250000  0.944819  0.803673  1
  Rh  Rh6  1  0.750000  0.056530  0.196198  1
  Rh  Rh7  1  0.750000  0.444781  0.696272  1
  S  S8  1  0.250000  0.219466  0.491852  1
  S  S9  1  0.750000  0.777974  0.507934  1
  S  S10  1  0.750000  0.721338  0.007948  1
  S  S11  1  0.250000  0.279339  0.992063  1
  S  S12  1  0.250000  0.177690  0.264466  1
  S  S13  1  0.750000  0.826041  0.734642  1
  S  S14  1  0.750000  0.676702  0.236225  1
  S  S15  1  0.250000  0.325947  0.765305  1
  S  S16  1  0.250000  0.938760  0.358487  1
  S  S17  1  0.750000  0.058942  0.641750  1
  S  S18  1  0.750000  0.438766  0.141021  1
  S  S19  1  0.250000  0.558778  0.858220  1
  S  S20  1  0.250000  0.547068  0.623337  1
  S  S21  1  0.750000  0.454290  0.376709  1
  S  S22  1  0.750000  0.047042  0.876620  1
  S  S23  1  0.250000  0.951756  0.123382  1
