# generated using pymatgen
data_Tb12Th4Mg3CdRu4
_symmetry_space_group_name_H-M   'P 1'
_cell_length_a   9.77179690
_cell_length_b   9.77179730
_cell_length_c   9.77179643
_cell_angle_alpha   60.10731776
_cell_angle_beta   60.10731721
_cell_angle_gamma   60.10732084
_symmetry_Int_Tables_number   1
_chemical_formula_structural   Tb12Th4Mg3CdRu4
_chemical_formula_sum   'Tb12 Th4 Mg3 Cd1 Ru4'
_cell_volume   661.39820662
_cell_formula_units_Z   1
loop_
 _symmetry_equiv_pos_site_id
 _symmetry_equiv_pos_as_xyz
  1  'x, y, z'
loop_
 _atom_site_type_symbol
 _atom_site_label
 _atom_site_symmetry_multiplicity
 _atom_site_fract_x
 _atom_site_fract_y
 _atom_site_fract_z
 _atom_site_occupancy
  Tb  Tb0  1  0.062228  0.437297  0.437297  1
  Tb  Tb1  1  0.437599  0.062237  0.062237  1
  Tb  Tb2  1  0.437297  0.062228  0.437297  1
  Tb  Tb3  1  0.062237  0.437599  0.062237  1
  Tb  Tb4  1  0.437297  0.437297  0.062228  1
  Tb  Tb5  1  0.062237  0.062237  0.437599  1
  Tb  Tb6  1  0.184329  0.814042  0.814042  1
  Tb  Tb7  1  0.812688  0.186560  0.186560  1
  Tb  Tb8  1  0.814042  0.184329  0.814042  1
  Tb  Tb9  1  0.186560  0.812688  0.186560  1
  Tb  Tb10  1  0.814042  0.814042  0.184329  1
  Tb  Tb11  1  0.186560  0.186560  0.812688  1
  Th  Th12  1  0.595291  0.595291  0.595291  1
  Th  Th13  1  0.596942  0.596942  0.210133  1
  Th  Th14  1  0.596942  0.210133  0.596942  1
  Th  Th15  1  0.210133  0.596942  0.596942  1
  Mg  Mg16  1  0.829474  0.829474  0.512057  1
  Mg  Mg17  1  0.829474  0.512057  0.829474  1
  Mg  Mg18  1  0.512057  0.829474  0.829474  1
  Cd  Cd19  1  0.831153  0.831153  0.831153  1
  Ru  Ru20  1  0.393134  0.393134  0.393134  1
  Ru  Ru21  1  0.394967  0.394967  0.818354  1
  Ru  Ru22  1  0.394967  0.818354  0.394967  1
  Ru  Ru23  1  0.818354  0.394967  0.394967  1
