# generated using pymatgen
data_Sc13Ti3(Pt2O)4
_symmetry_space_group_name_H-M   'P 1'
_cell_length_a   8.66248742
_cell_length_b   8.64096486
_cell_length_c   8.66248600
_cell_angle_alpha   59.91756986
_cell_angle_beta   59.99999779
_cell_angle_gamma   59.91756839
_symmetry_Int_Tables_number   1
_chemical_formula_structural   Sc13Ti3(Pt2O)4
_chemical_formula_sum   'Sc13 Ti3 Pt8 O4'
_cell_volume   457.92058353
_cell_formula_units_Z   1
loop_
 _symmetry_equiv_pos_site_id
 _symmetry_equiv_pos_as_xyz
  1  'x, y, z'
loop_
 _atom_site_type_symbol
 _atom_site_label
 _atom_site_symmetry_multiplicity
 _atom_site_fract_x
 _atom_site_fract_y
 _atom_site_fract_z
 _atom_site_occupancy
  Sc  Sc0  1  0.816137  0.185451  0.816137  1
  Sc  Sc1  1  0.184973  0.814901  0.184973  1
  Sc  Sc2  1  0.433863  0.064549  0.433863  1
  Sc  Sc3  1  0.433863  0.064549  0.067725  1
  Sc  Sc4  1  0.065027  0.435099  0.434846  1
  Sc  Sc5  1  0.065027  0.435099  0.065027  1
  Sc  Sc6  1  0.182275  0.185451  0.816137  1
  Sc  Sc7  1  0.434846  0.435099  0.065027  1
  Sc  Sc8  1  0.625000  0.125000  0.625000  1
  Sc  Sc9  1  0.184973  0.814901  0.815154  1
  Sc  Sc10  1  0.816137  0.185451  0.182275  1
  Sc  Sc11  1  0.067725  0.064549  0.433863  1
  Sc  Sc12  1  0.815154  0.814901  0.184973  1
  Ti  Ti13  1  0.125000  0.625000  0.625000  1
  Ti  Ti14  1  0.625000  0.625000  0.125000  1
  Ti  Ti15  1  0.625000  0.625000  0.625000  1
  Pt  Pt16  1  0.414676  0.755973  0.414676  1
  Pt  Pt17  1  0.840166  0.828775  0.490892  1
  Pt  Pt18  1  0.840166  0.828775  0.840166  1
  Pt  Pt19  1  0.490892  0.828775  0.840166  1
  Pt  Pt20  1  0.409834  0.421225  0.409834  1
  Pt  Pt21  1  0.409834  0.421225  0.759108  1
  Pt  Pt22  1  0.835324  0.494027  0.835324  1
  Pt  Pt23  1  0.759108  0.421225  0.409834  1
  O  O24  1  0.125000  0.125000  0.625000  1
  O  O25  1  0.625000  0.125000  0.125000  1
  O  O26  1  0.125000  0.125000  0.125000  1
  O  O27  1  0.125000  0.625000  0.125000  1
