# generated using pymatgen
data_Nd3Y13MgCo4Hg3
_symmetry_space_group_name_H-M   'P 1'
_cell_length_a   9.61211471
_cell_length_b   9.58541734
_cell_length_c   9.58541900
_cell_angle_alpha   59.99999774
_cell_angle_beta   60.09183329
_cell_angle_gamma   60.09183384
_symmetry_Int_Tables_number   1
_chemical_formula_structural   Nd3Y13MgCo4Hg3
_chemical_formula_sum   'Nd3 Y13 Mg1 Co4 Hg3'
_cell_volume   625.35626343
_cell_formula_units_Z   1
loop_
 _symmetry_equiv_pos_site_id
 _symmetry_equiv_pos_as_xyz
  1  'x, y, z'
loop_
 _atom_site_type_symbol
 _atom_site_label
 _atom_site_symmetry_multiplicity
 _atom_site_fract_x
 _atom_site_fract_y
 _atom_site_fract_z
 _atom_site_occupancy
  Nd  Nd0  1  0.347928  0.347026  0.347026  1
  Nd  Nd1  1  0.347928  0.347026  0.958019  1
  Nd  Nd2  1  0.347928  0.958019  0.347026  1
  Y  Y3  1  0.945007  0.351664  0.351664  1
  Y  Y4  1  0.811073  0.188597  0.188597  1
  Y  Y5  1  0.184518  0.814815  0.814815  1
  Y  Y6  1  0.184518  0.814815  0.185853  1
  Y  Y7  1  0.811073  0.188597  0.811733  1
  Y  Y8  1  0.184518  0.185853  0.814815  1
  Y  Y9  1  0.811073  0.811733  0.188597  1
  Y  Y10  1  0.936979  0.562671  0.562671  1
  Y  Y11  1  0.563998  0.936201  0.936201  1
  Y  Y12  1  0.563998  0.936201  0.563601  1
  Y  Y13  1  0.936979  0.562671  0.937681  1
  Y  Y14  1  0.563998  0.563601  0.936201  1
  Y  Y15  1  0.936979  0.937681  0.562671  1
  Mg  Mg16  1  0.286866  0.571045  0.571045  1
  Co  Co17  1  0.135155  0.143205  0.143205  1
  Co  Co18  1  0.135155  0.143205  0.578434  1
  Co  Co19  1  0.135155  0.578434  0.143205  1
  Co  Co20  1  0.577440  0.140853  0.140853  1
  Hg  Hg21  1  0.583909  0.584893  0.584893  1
  Hg  Hg22  1  0.583909  0.584893  0.246306  1
  Hg  Hg23  1  0.583909  0.246306  0.584893  1
