# generated using pymatgen
data_Ga(FeI4)2
_symmetry_space_group_name_H-M   'P 1'
_cell_length_a   9.06266892
_cell_length_b   9.06266770
_cell_length_c   6.79249995
_cell_angle_alpha   91.33429448
_cell_angle_beta   91.33428424
_cell_angle_gamma   64.09450852
_symmetry_Int_Tables_number   1
_chemical_formula_structural   Ga(FeI4)2
_chemical_formula_sum   'Ga1 Fe2 I8'
_cell_volume   501.63371375
_cell_formula_units_Z   1
loop_
 _symmetry_equiv_pos_site_id
 _symmetry_equiv_pos_as_xyz
  1  'x, y, z'
loop_
 _atom_site_type_symbol
 _atom_site_label
 _atom_site_symmetry_multiplicity
 _atom_site_fract_x
 _atom_site_fract_y
 _atom_site_fract_z
 _atom_site_occupancy
  Ga  Ga0  1  0.164622  0.164622  0.396061  1
  Fe  Fe1  1  0.987365  0.987365  0.984035  1
  Fe  Fe2  1  0.842061  0.842061  0.618326  1
  I  I3  1  0.840965  0.840965  0.231370  1
  I  I4  1  0.870859  0.280115  0.234216  1
  I  I5  1  0.280115  0.870859  0.234216  1
  I  I6  1  0.323698  0.323698  0.306656  1
  I  I7  1  0.683781  0.683781  0.696076  1
  I  I8  1  0.709756  0.139628  0.760710  1
  I  I9  1  0.139628  0.709756  0.760710  1
  I  I10  1  0.157151  0.157151  0.777625  1
