# generated using pymatgen
data_Ho6ErSc9(In3Co)2
_symmetry_space_group_name_H-M   'P 1'
_cell_length_a   9.90851200
_cell_length_b   9.90851141
_cell_length_c   6.85592300
_cell_angle_alpha   90.00000000
_cell_angle_beta   90.00000000
_cell_angle_gamma   119.99999530
_symmetry_Int_Tables_number   1
_chemical_formula_structural   Ho6ErSc9(In3Co)2
_chemical_formula_sum   'Ho6 Er1 Sc9 In6 Co2'
_cell_volume   582.92601425
_cell_formula_units_Z   1
loop_
 _symmetry_equiv_pos_site_id
 _symmetry_equiv_pos_as_xyz
  1  'x, y, z'
loop_
 _atom_site_type_symbol
 _atom_site_label
 _atom_site_symmetry_multiplicity
 _atom_site_fract_x
 _atom_site_fract_y
 _atom_site_fract_z
 _atom_site_occupancy
  Ho  Ho0  1  0.532846  0.065693  0.788290  1
  Ho  Ho1  1  0.934307  0.467154  0.788290  1
  Ho  Ho2  1  0.532846  0.467154  0.788290  1
  Ho  Ho3  1  0.467016  0.934030  0.288454  1
  Ho  Ho4  1  0.065970  0.532984  0.288454  1
  Ho  Ho5  1  0.467016  0.532984  0.288454  1
  Er  Er6  1  0.000000  0.000000  0.281011  1
  Sc  Sc7  1  0.820998  0.641996  0.498336  1
  Sc  Sc8  1  0.358004  0.179002  0.498336  1
  Sc  Sc9  1  0.820998  0.179002  0.498336  1
  Sc  Sc10  1  0.178600  0.357200  0.995538  1
  Sc  Sc11  1  0.642800  0.821400  0.995538  1
  Sc  Sc12  1  0.178600  0.821400  0.995538  1
  Sc  Sc13  1  0.666667  0.333333  0.188623  1
  Sc  Sc14  1  0.333333  0.666667  0.690176  1
  Sc  Sc15  1  0.000000  0.000000  0.781248  1
  In  In16  1  0.837650  0.675300  0.043514  1
  In  In17  1  0.324700  0.162350  0.043514  1
  In  In18  1  0.837650  0.162350  0.043514  1
  In  In19  1  0.161885  0.323769  0.548575  1
  In  In20  1  0.676231  0.838115  0.548575  1
  In  In21  1  0.161885  0.838115  0.548575  1
  Co  Co22  1  0.666667  0.333333  0.552664  1
  Co  Co23  1  0.333333  0.666667  0.054062  1
