# generated using pymatgen
data_La4Nd2RuRhBr6
_symmetry_space_group_name_H-M   'P 1'
_cell_length_a   10.55041668
_cell_length_b   10.59414367
_cell_length_c   10.55041676
_cell_angle_alpha   108.83179511
_cell_angle_beta   110.59390828
_cell_angle_gamma   108.83180088
_symmetry_Int_Tables_number   1
_chemical_formula_structural   La4Nd2RuRhBr6
_chemical_formula_sum   'La8 Nd4 Ru2 Rh2 Br12'
_cell_volume   909.31442290
_cell_formula_units_Z   2
loop_
 _symmetry_equiv_pos_site_id
 _symmetry_equiv_pos_as_xyz
  1  'x, y, z'
loop_
 _atom_site_type_symbol
 _atom_site_label
 _atom_site_symmetry_multiplicity
 _atom_site_fract_x
 _atom_site_fract_y
 _atom_site_fract_z
 _atom_site_occupancy
  La  La0  1  0.229204  0.261437  0.738074  1
  La  La1  1  0.018225  0.485078  0.752553  1
  La  La2  1  0.476637  0.238563  0.467766  1
  La  La3  1  0.267475  0.014922  0.033148  1
  La  La4  1  0.761926  0.238563  0.270796  1
  La  La5  1  0.747447  0.014922  0.481775  1
  La  La6  1  0.466852  0.485078  0.232525  1
  La  La7  1  0.032234  0.261437  0.023363  1
  Nd  Nd8  1  0.265710  0.750000  0.234290  1
  Nd  Nd9  1  0.484290  0.750000  0.015710  1
  Nd  Nd10  1  0.234597  0.469192  0.484597  1
  Nd  Nd11  1  0.015403  0.030808  0.265403  1
  Ru  Ru12  1  0.999210  0.250000  0.500790  1
  Ru  Ru13  1  0.250790  0.250000  0.249210  1
  Rh  Rh14  1  0.499511  0.999023  0.249511  1
  Rh  Rh15  1  0.250489  0.500977  0.000489  1
  Br  Br16  1  0.245381  0.988621  0.499817  1
  Br  Br17  1  0.511195  0.511379  0.756759  1
  Br  Br18  1  0.254327  0.754086  0.744416  1
  Br  Br19  1  0.990329  0.745914  0.000241  1
  Br  Br20  1  0.000183  0.511379  0.254619  1
  Br  Br21  1  0.743241  0.988621  0.988805  1
  Br  Br22  1  0.755584  0.745914  0.245673  1
  Br  Br23  1  0.499759  0.754086  0.509671  1
  Br  Br24  1  0.503988  0.250000  0.996012  1
  Br  Br25  1  0.754764  0.509529  0.504764  1
  Br  Br26  1  0.746012  0.250000  0.753988  1
  Br  Br27  1  0.995236  0.990471  0.745236  1
