# generated using pymatgen
data_LaTb7(IrO6)4
_symmetry_space_group_name_H-M   'P 1'
_cell_length_a   5.34699620
_cell_length_b   9.25017838
_cell_length_c   9.97222091
_cell_angle_alpha   90.48771367
_cell_angle_beta   89.91255670
_cell_angle_gamma   89.76095373
_symmetry_Int_Tables_number   1
_chemical_formula_structural   LaTb7(IrO6)4
_chemical_formula_sum   'La1 Tb7 Ir4 O24'
_cell_volume   493.20995053
_cell_formula_units_Z   1
loop_
 _symmetry_equiv_pos_site_id
 _symmetry_equiv_pos_as_xyz
  1  'x, y, z'
loop_
 _atom_site_type_symbol
 _atom_site_label
 _atom_site_symmetry_multiplicity
 _atom_site_fract_x
 _atom_site_fract_y
 _atom_site_fract_z
 _atom_site_occupancy
  La  La0  1  0.966572  0.778433  0.862998  1
  Tb  Tb1  1  0.519835  0.099798  0.964583  1
  Tb  Tb2  1  0.022437  0.395665  0.038020  1
  Tb  Tb3  1  0.476032  0.601199  0.535543  1
  Tb  Tb4  1  0.980341  0.901886  0.461337  1
  Tb  Tb5  1  0.541224  0.221385  0.368447  1
  Tb  Tb6  1  0.041744  0.282306  0.628588  1
  Tb  Tb7  1  0.462856  0.717373  0.134198  1
  Ir  Ir8  1  0.459716  0.000254  0.641186  1
  Ir  Ir9  1  0.957605  0.504721  0.354986  1
  Ir  Ir10  1  0.540398  0.490708  0.855852  1
  Ir  Ir11  1  0.043497  0.004789  0.147140  1
  O  O12  1  0.323778  0.135706  0.182026  1
  O  O13  1  0.826853  0.365907  0.818329  1
  O  O14  1  0.671890  0.632200  0.320154  1
  O  O15  1  0.178006  0.871256  0.670406  1
  O  O16  1  0.734764  0.116998  0.564898  1
  O  O17  1  0.234704  0.388248  0.433966  1
  O  O18  1  0.271015  0.606625  0.941278  1
  O  O19  1  0.766218  0.886566  0.072541  1
  O  O20  1  0.663913  0.639805  0.738831  1
  O  O21  1  0.184123  0.857936  0.262538  1
  O  O22  1  0.312833  0.143200  0.760204  1
  O  O23  1  0.819044  0.357021  0.238729  1
  O  O24  1  0.659147  0.949588  0.792252  1
  O  O25  1  0.165057  0.554582  0.206840  1
  O  O26  1  0.329195  0.444213  0.706185  1
  O  O27  1  0.836977  0.058858  0.295539  1
  O  O28  1  0.253525  0.092269  0.497948  1
  O  O29  1  0.751644  0.413223  0.498408  1
  O  O30  1  0.745094  0.580677  0.001692  1
  O  O31  1  0.257695  0.911734  0.006652  1
  O  O32  1  0.078161  0.657224  0.474879  1
  O  O33  1  0.586464  0.845241  0.524222  1
  O  O34  1  0.919103  0.153411  0.024865  1
  O  O35  1  0.418538  0.338995  0.973740  1
