# generated using pymatgen
data_Hf10MnRe3
_symmetry_space_group_name_H-M   'P 1'
_cell_length_a   8.68298500
_cell_length_b   8.68308231
_cell_length_c   8.50801600
_cell_angle_alpha   90.00000000
_cell_angle_beta   90.00000000
_cell_angle_gamma   119.99982667
_symmetry_Int_Tables_number   1
_chemical_formula_structural   Hf10MnRe3
_chemical_formula_sum   'Hf20 Mn2 Re6'
_cell_volume   555.52378349
_cell_formula_units_Z   2
loop_
 _symmetry_equiv_pos_site_id
 _symmetry_equiv_pos_as_xyz
  1  'x, y, z'
loop_
 _atom_site_type_symbol
 _atom_site_label
 _atom_site_symmetry_multiplicity
 _atom_site_fract_x
 _atom_site_fract_y
 _atom_site_fract_z
 _atom_site_occupancy
  Hf  Hf0  1  0.202489  0.797505  0.440417  1
  Hf  Hf1  1  0.202487  0.404980  0.440431  1
  Hf  Hf2  1  0.595019  0.797510  0.440417  1
  Hf  Hf3  1  0.797511  0.202495  0.559583  1
  Hf  Hf4  1  0.797513  0.595020  0.559569  1
  Hf  Hf5  1  0.404981  0.202490  0.559583  1
  Hf  Hf6  1  0.797511  0.202495  0.940417  1
  Hf  Hf7  1  0.797513  0.595020  0.940431  1
  Hf  Hf8  1  0.404981  0.202490  0.940417  1
  Hf  Hf9  1  0.202489  0.797505  0.059583  1
  Hf  Hf10  1  0.202487  0.404980  0.059569  1
  Hf  Hf11  1  0.595019  0.797510  0.059583  1
  Hf  Hf12  1  0.541335  0.458664  0.250000  1
  Hf  Hf13  1  0.541341  0.082673  0.250000  1
  Hf  Hf14  1  0.917324  0.458658  0.250000  1
  Hf  Hf15  1  0.458665  0.541336  0.750000  1
  Hf  Hf16  1  0.458659  0.917327  0.750000  1
  Hf  Hf17  1  0.082676  0.541342  0.750000  1
  Hf  Hf18  1  0.000000  0.000000  0.500000  1
  Hf  Hf19  1  0.000000  0.000000  0.000000  1
  Mn  Mn20  1  0.333341  0.666663  0.250000  1
  Mn  Mn21  1  0.666659  0.333337  0.750000  1
  Re  Re22  1  0.882249  0.117756  0.250000  1
  Re  Re23  1  0.882252  0.764473  0.250000  1
  Re  Re24  1  0.235484  0.117725  0.250000  1
  Re  Re25  1  0.117751  0.882244  0.750000  1
  Re  Re26  1  0.117748  0.235527  0.750000  1
  Re  Re27  1  0.764516  0.882275  0.750000  1
