# generated using pymatgen
data_Ca3Dy12Nb5(ReN4)12
_symmetry_space_group_name_H-M   'P 1'
_cell_length_a   11.22571695
_cell_length_b   11.14073116
_cell_length_c   11.22237788
_cell_angle_alpha   109.25731498
_cell_angle_beta   109.74205659
_cell_angle_gamma   109.24520723
_symmetry_Int_Tables_number   1
_chemical_formula_structural   Ca3Dy12Nb5(ReN4)12
_chemical_formula_sum   'Ca3 Dy12 Nb5 Re12 N48'
_cell_volume   1082.64416971
_cell_formula_units_Z   1
loop_
 _symmetry_equiv_pos_site_id
 _symmetry_equiv_pos_as_xyz
  1  'x, y, z'
loop_
 _atom_site_type_symbol
 _atom_site_label
 _atom_site_symmetry_multiplicity
 _atom_site_fract_x
 _atom_site_fract_y
 _atom_site_fract_z
 _atom_site_occupancy
  Ca  Ca0  1  0.000000  0.000000  0.000000  1
  Ca  Ca1  1  0.500000  0.000000  0.000000  1
  Ca  Ca2  1  0.000000  0.500000  0.000000  1
  Dy  Dy3  1  0.256256  0.376953  0.128548  1
  Dy  Dy4  1  0.373528  0.752067  0.126280  1
  Dy  Dy5  1  0.377012  0.124925  0.253437  1
  Dy  Dy6  1  0.873103  0.626850  0.250076  1
  Dy  Dy7  1  0.756996  0.128311  0.379511  1
  Dy  Dy8  1  0.124526  0.253821  0.378261  1
  Dy  Dy9  1  0.875474  0.746179  0.621739  1
  Dy  Dy10  1  0.243004  0.871689  0.620489  1
  Dy  Dy11  1  0.126897  0.373150  0.749924  1
  Dy  Dy12  1  0.622988  0.875075  0.746563  1
  Dy  Dy13  1  0.626472  0.247933  0.873720  1
  Dy  Dy14  1  0.743744  0.623047  0.871452  1
  Nb  Nb15  1  0.500000  0.500000  0.000000  1
  Nb  Nb16  1  0.000000  0.000000  0.500000  1
  Nb  Nb17  1  0.500000  0.000000  0.500000  1
  Nb  Nb18  1  0.000000  0.500000  0.500000  1
  Nb  Nb19  1  0.500000  0.500000  0.500000  1
  Re  Re20  1  0.875438  0.256440  0.128976  1
  Re  Re21  1  0.748376  0.870834  0.128392  1
  Re  Re22  1  0.624959  0.379750  0.256923  1
  Re  Re23  1  0.129462  0.881351  0.260427  1
  Re  Re24  1  0.254182  0.626791  0.377427  1
  Re  Re25  1  0.624661  0.747759  0.373039  1
  Re  Re26  1  0.375338  0.252241  0.626961  1
  Re  Re27  1  0.745818  0.373209  0.622572  1
  Re  Re28  1  0.870538  0.118649  0.739572  1
  Re  Re29  1  0.375041  0.620249  0.743077  1
  Re  Re30  1  0.251623  0.129166  0.871608  1
  Re  Re31  1  0.124562  0.743559  0.871024  1
  N  N32  1  0.296341  0.899067  0.029359  1
  N  N33  1  0.232420  0.130225  0.026264  1
  N  N34  1  0.863780  0.403561  0.098058  1
  N  N35  1  0.707492  0.682120  0.089434  1
  N  N36  1  0.610953  0.408509  0.100276  1
  N  N37  1  0.976103  0.708519  0.106272  1
  N  N38  1  0.603320  0.903299  0.138069  1
  N  N39  1  0.033579  0.239334  0.135841  1
  N  N40  1  0.229078  0.596248  0.200175  1
  N  N41  1  0.482105  0.599266  0.184498  1
  N  N42  1  0.136597  0.035317  0.235409  1
  N  N43  1  0.597701  0.202063  0.227715  1
  N  N44  1  0.476139  0.381852  0.294296  1
  N  N45  1  0.313085  0.906425  0.292551  1
  N  N46  1  0.907255  0.021388  0.313147  1
  N  N47  1  0.907624  0.289420  0.316619  1
  N  N48  1  0.298209  0.484483  0.388873  1
  N  N49  1  0.586626  0.898546  0.388309  1
  N  N50  1  0.816228  0.524649  0.402657  1
  N  N51  1  0.088313  0.878577  0.408142  1
  N  N52  1  0.098875  0.614492  0.410651  1
  N  N53  1  0.815102  0.797328  0.413771  1
  N  N54  1  0.598551  0.184280  0.477633  1
  N  N55  1  0.385406  0.300231  0.487001  1
  N  N56  1  0.614594  0.699769  0.512999  1
  N  N57  1  0.401450  0.815720  0.522367  1
  N  N58  1  0.184897  0.202671  0.586228  1
  N  N59  1  0.901125  0.385509  0.589348  1
  N  N60  1  0.911687  0.121422  0.591857  1
  N  N61  1  0.183772  0.475351  0.597344  1
  N  N62  1  0.413373  0.101454  0.611692  1
  N  N63  1  0.701791  0.515517  0.611127  1
  N  N64  1  0.092376  0.710580  0.683381  1
  N  N65  1  0.092744  0.978611  0.686853  1
  N  N66  1  0.686915  0.093575  0.707449  1
  N  N67  1  0.523861  0.618148  0.705704  1
  N  N68  1  0.402298  0.797936  0.772284  1
  N  N69  1  0.863404  0.964684  0.764592  1
  N  N70  1  0.517895  0.400735  0.815502  1
  N  N71  1  0.770921  0.403751  0.799824  1
  N  N72  1  0.396679  0.096701  0.861930  1
  N  N73  1  0.966422  0.760667  0.864160  1
  N  N74  1  0.023896  0.291481  0.893727  1
  N  N75  1  0.389048  0.591490  0.899724  1
  N  N76  1  0.292508  0.317880  0.910566  1
  N  N77  1  0.136219  0.596438  0.901942  1
  N  N78  1  0.703659  0.100932  0.970640  1
  N  N79  1  0.767581  0.869776  0.973737  1
