# generated using pymatgen
data_TbDy7Al4(SnRh2)4
_symmetry_space_group_name_H-M   'P 1'
_cell_length_a   4.15676100
_cell_length_b   7.31448941
_cell_length_c   16.14069805
_cell_angle_alpha   90.13902022
_cell_angle_beta   90.00000000
_cell_angle_gamma   90.00000000
_symmetry_Int_Tables_number   1
_chemical_formula_structural   TbDy7Al4(SnRh2)4
_chemical_formula_sum   'Tb1 Dy7 Al4 Sn4 Rh8'
_cell_volume   490.74977020
_cell_formula_units_Z   1
loop_
 _symmetry_equiv_pos_site_id
 _symmetry_equiv_pos_as_xyz
  1  'x, y, z'
loop_
 _atom_site_type_symbol
 _atom_site_label
 _atom_site_symmetry_multiplicity
 _atom_site_fract_x
 _atom_site_fract_y
 _atom_site_fract_z
 _atom_site_occupancy
  Tb  Tb0  1  0.750000  0.448640  0.283253  1
  Dy  Dy1  1  0.250000  0.170026  0.560069  1
  Dy  Dy2  1  0.750000  0.829022  0.440035  1
  Dy  Dy3  1  0.250000  0.670351  0.939981  1
  Dy  Dy4  1  0.750000  0.330669  0.059641  1
  Dy  Dy5  1  0.250000  0.050589  0.783293  1
  Dy  Dy6  1  0.750000  0.949598  0.216470  1
  Dy  Dy7  1  0.250000  0.550836  0.716846  1
  Al  Al8  1  0.250000  0.001949  0.062241  1
  Al  Al9  1  0.750000  0.998689  0.937274  1
  Al  Al10  1  0.250000  0.500943  0.438129  1
  Al  Al11  1  0.750000  0.498738  0.562374  1
  Sn  Sn12  1  0.250000  0.118712  0.349800  1
  Sn  Sn13  1  0.750000  0.881784  0.650404  1
  Sn  Sn14  1  0.250000  0.620033  0.149845  1
  Sn  Sn15  1  0.750000  0.380432  0.850042  1
  Rh  Rh16  1  0.750000  0.277221  0.437678  1
  Rh  Rh17  1  0.250000  0.721284  0.563536  1
  Rh  Rh18  1  0.750000  0.780085  0.062487  1
  Rh  Rh19  1  0.250000  0.220441  0.937027  1
  Rh  Rh20  1  0.750000  0.760081  0.818157  1
  Rh  Rh21  1  0.250000  0.239480  0.181270  1
  Rh  Rh22  1  0.750000  0.262457  0.681686  1
  Rh  Rh23  1  0.250000  0.737941  0.318465  1
