# generated using pymatgen
data_Nd4AgHgPt2
_symmetry_space_group_name_H-M   'P 1'
_cell_length_a   4.77687400
_cell_length_b   5.82118298
_cell_length_c   7.62550069
_cell_angle_alpha   91.79921904
_cell_angle_beta   90.00000000
_cell_angle_gamma   90.00000000
_symmetry_Int_Tables_number   1
_chemical_formula_structural   Nd4AgHgPt2
_chemical_formula_sum   'Nd4 Ag1 Hg1 Pt2'
_cell_volume   211.93819735
_cell_formula_units_Z   1
loop_
 _symmetry_equiv_pos_site_id
 _symmetry_equiv_pos_as_xyz
  1  'x, y, z'
loop_
 _atom_site_type_symbol
 _atom_site_label
 _atom_site_symmetry_multiplicity
 _atom_site_fract_x
 _atom_site_fract_y
 _atom_site_fract_z
 _atom_site_occupancy
  Nd  Nd0  1  0.250000  0.364433  0.710281  1
  Nd  Nd1  1  0.250000  0.151026  0.162018  1
  Nd  Nd2  1  0.750000  0.635690  0.289536  1
  Nd  Nd3  1  0.750000  0.848617  0.835881  1
  Ag  Ag4  1  0.250000  0.855359  0.535029  1
  Hg  Hg5  1  0.750000  0.143900  0.468315  1
  Pt  Pt6  1  0.250000  0.664423  0.043727  1
  Pt  Pt7  1  0.750000  0.336549  0.955213  1
