# generated using pymatgen
data_Tm12OsRuRh2
_symmetry_space_group_name_H-M   'P 1'
_cell_length_a   7.20969660
_cell_length_b   9.03690000
_cell_length_c   6.27030313
_cell_angle_alpha   90.00000000
_cell_angle_beta   89.93395701
_cell_angle_gamma   90.00000000
_symmetry_Int_Tables_number   1
_chemical_formula_structural   Tm12OsRuRh2
_chemical_formula_sum   'Tm12 Os1 Ru1 Rh2'
_cell_volume   408.53071466
_cell_formula_units_Z   1
loop_
 _symmetry_equiv_pos_site_id
 _symmetry_equiv_pos_as_xyz
  1  'x, y, z'
loop_
 _atom_site_type_symbol
 _atom_site_label
 _atom_site_symmetry_multiplicity
 _atom_site_fract_x
 _atom_site_fract_y
 _atom_site_fract_z
 _atom_site_occupancy
  Tm  Tm0  1  0.039157  0.250000  0.627651  1
  Tm  Tm1  1  0.964063  0.750000  0.372936  1
  Tm  Tm2  1  0.464035  0.750000  0.127486  1
  Tm  Tm3  1  0.535946  0.250000  0.868779  1
  Tm  Tm4  1  0.178828  0.059802  0.170359  1
  Tm  Tm5  1  0.823793  0.936286  0.827931  1
  Tm  Tm6  1  0.319682  0.937101  0.672836  1
  Tm  Tm7  1  0.823793  0.563714  0.827931  1
  Tm  Tm8  1  0.676036  0.064355  0.328893  1
  Tm  Tm9  1  0.178828  0.440198  0.170359  1
  Tm  Tm10  1  0.676036  0.435645  0.328893  1
  Tm  Tm11  1  0.319682  0.562899  0.672836  1
  Os  Os12  1  0.114483  0.750000  0.962475  1
  Ru  Ru13  1  0.385629  0.250000  0.460608  1
  Rh  Rh14  1  0.614343  0.750000  0.540464  1
  Rh  Rh15  1  0.885663  0.250000  0.039567  1
