# generated using pymatgen
data_TaMn4OF14
_symmetry_space_group_name_H-M   'P 1'
_cell_length_a   5.63216965
_cell_length_b   6.90482049
_cell_length_c   8.93203233
_cell_angle_alpha   105.59945024
_cell_angle_beta   108.03435721
_cell_angle_gamma   88.99512217
_symmetry_Int_Tables_number   1
_chemical_formula_structural   TaMn4OF14
_chemical_formula_sum   'Ta1 Mn4 O1 F14'
_cell_volume   317.30721810
_cell_formula_units_Z   1
loop_
 _symmetry_equiv_pos_site_id
 _symmetry_equiv_pos_as_xyz
  1  'x, y, z'
loop_
 _atom_site_type_symbol
 _atom_site_label
 _atom_site_symmetry_multiplicity
 _atom_site_fract_x
 _atom_site_fract_y
 _atom_site_fract_z
 _atom_site_occupancy
  Ta  Ta0  1  0.180057  0.314547  0.911593  1
  Mn  Mn1  1  0.416690  0.100822  0.309350  1
  Mn  Mn2  1  0.583469  0.885051  0.694625  1
  Mn  Mn3  1  0.819787  0.710383  0.099777  1
  Mn  Mn4  1  0.987306  0.499795  0.486786  1
  O  O5  1  0.001448  0.503219  0.003767  1
  F  F6  1  0.911298  0.100090  0.815625  1
  F  F7  1  0.307120  0.206974  0.104834  1
  F  F8  1  0.183663  0.309073  0.396523  1
  F  F9  1  0.387993  0.102803  0.811941  1
  F  F10  1  0.794408  0.682473  0.587601  1
  F  F11  1  0.508268  0.010738  0.502397  1
  F  F12  1  0.143212  0.911727  0.209067  1
  F  F13  1  0.695100  0.299615  0.396832  1
  F  F14  1  0.272796  0.686247  0.595551  1
  F  F15  1  0.627313  0.906573  0.190906  1
  F  F16  1  0.716358  0.791676  0.904519  1
  F  F17  1  0.090325  0.379171  0.703682  1
  F  F18  1  0.888147  0.610499  0.284618  1
  F  F19  1  0.485243  0.488524  0.990005  1
