# generated using pymatgen
data_Eu3Dy(Ga2Ag)4
_symmetry_space_group_name_H-M   'P 1'
_cell_length_a   4.43516200
_cell_length_b   7.05869134
_cell_length_c   10.49651400
_cell_angle_alpha   89.45413609
_cell_angle_beta   90.00000000
_cell_angle_gamma   90.00000000
_symmetry_Int_Tables_number   1
_chemical_formula_structural   Eu3Dy(Ga2Ag)4
_chemical_formula_sum   'Eu3 Dy1 Ga8 Ag4'
_cell_volume   328.59356854
_cell_formula_units_Z   1
loop_
 _symmetry_equiv_pos_site_id
 _symmetry_equiv_pos_as_xyz
  1  'x, y, z'
loop_
 _atom_site_type_symbol
 _atom_site_label
 _atom_site_symmetry_multiplicity
 _atom_site_fract_x
 _atom_site_fract_y
 _atom_site_fract_z
 _atom_site_occupancy
  Eu  Eu0  1  0.250000  0.783703  0.826554  1
  Eu  Eu1  1  0.750000  0.217897  0.172089  1
  Eu  Eu2  1  0.750000  0.718168  0.328464  1
  Dy  Dy3  1  0.250000  0.284342  0.668859  1
  Ga  Ga4  1  0.250000  0.920838  0.148561  1
  Ga  Ga5  1  0.750000  0.084801  0.846625  1
  Ga  Ga6  1  0.750000  0.574752  0.651634  1
  Ga  Ga7  1  0.250000  0.417193  0.352745  1
  Ga  Ga8  1  0.250000  0.695817  0.536095  1
  Ga  Ga9  1  0.750000  0.295016  0.467602  1
  Ga  Ga10  1  0.750000  0.798800  0.033471  1
  Ga  Ga11  1  0.250000  0.208534  0.960682  1
  Ag  Ag12  1  0.250000  0.539277  0.098942  1
  Ag  Ag13  1  0.750000  0.461336  0.899550  1
  Ag  Ag14  1  0.750000  0.962021  0.601147  1
  Ag  Ag15  1  0.250000  0.037506  0.406983  1
