# generated using pymatgen
data_Tb8Si12AgIr3
_symmetry_space_group_name_H-M   'P 1'
_cell_length_a   8.22582200
_cell_length_b   8.22582042
_cell_length_c   7.98601000
_cell_angle_alpha   90.00000000
_cell_angle_beta   90.00000000
_cell_angle_gamma   120.00000634
_symmetry_Int_Tables_number   1
_chemical_formula_structural   Tb8Si12AgIr3
_chemical_formula_sum   'Tb8 Si12 Ag1 Ir3'
_cell_volume   467.97104811
_cell_formula_units_Z   1
loop_
 _symmetry_equiv_pos_site_id
 _symmetry_equiv_pos_as_xyz
  1  'x, y, z'
loop_
 _atom_site_type_symbol
 _atom_site_label
 _atom_site_symmetry_multiplicity
 _atom_site_fract_x
 _atom_site_fract_y
 _atom_site_fract_z
 _atom_site_occupancy
  Tb  Tb0  1  0.512717  0.025433  0.244716  1
  Tb  Tb1  1  0.493072  0.986147  0.753525  1
  Tb  Tb2  1  0.974567  0.487283  0.244716  1
  Tb  Tb3  1  0.013853  0.506928  0.753525  1
  Tb  Tb4  1  0.512717  0.487283  0.244716  1
  Tb  Tb5  1  0.493072  0.506928  0.753525  1
  Tb  Tb6  1  0.000000  0.000000  0.251090  1
  Tb  Tb7  1  0.000000  0.000000  0.752862  1
  Si  Si8  1  0.167115  0.334231  0.003895  1
  Si  Si9  1  0.834127  0.668256  0.997193  1
  Si  Si10  1  0.665769  0.832885  0.003895  1
  Si  Si11  1  0.831578  0.663156  0.499524  1
  Si  Si12  1  0.331744  0.165873  0.997193  1
  Si  Si13  1  0.160578  0.321156  0.503915  1
  Si  Si14  1  0.167115  0.832885  0.003895  1
  Si  Si15  1  0.336844  0.168422  0.499524  1
  Si  Si16  1  0.834127  0.165873  0.997193  1
  Si  Si17  1  0.678844  0.839422  0.503915  1
  Si  Si18  1  0.831578  0.168422  0.499524  1
  Si  Si19  1  0.160578  0.839422  0.503915  1
  Ag  Ag20  1  0.333333  0.666667  0.457030  1
  Ir  Ir21  1  0.333333  0.666667  0.024860  1
  Ir  Ir22  1  0.666667  0.333333  0.967582  1
  Ir  Ir23  1  0.666667  0.333333  0.538274  1
