# generated using pymatgen
data_Tb4Lu16Bi11Sb
_symmetry_space_group_name_H-M   'P 1'
_cell_length_a   8.15898012
_cell_length_b   9.37567100
_cell_length_c   11.85884918
_cell_angle_alpha   90.00000000
_cell_angle_beta   90.01981974
_cell_angle_gamma   90.00000000
_symmetry_Int_Tables_number   1
_chemical_formula_structural   Tb4Lu16Bi11Sb
_chemical_formula_sum   'Tb4 Lu16 Bi11 Sb1'
_cell_volume   907.15344447
_cell_formula_units_Z   1
loop_
 _symmetry_equiv_pos_site_id
 _symmetry_equiv_pos_as_xyz
  1  'x, y, z'
loop_
 _atom_site_type_symbol
 _atom_site_label
 _atom_site_symmetry_multiplicity
 _atom_site_fract_x
 _atom_site_fract_y
 _atom_site_fract_z
 _atom_site_occupancy
  Tb  Tb0  1  0.313316  0.250000  0.217932  1
  Tb  Tb1  1  0.813530  0.250000  0.281999  1
  Tb  Tb2  1  0.683680  0.750000  0.783745  1
  Tb  Tb3  1  0.187807  0.750000  0.719212  1
  Lu  Lu4  1  0.353067  0.750000  0.216076  1
  Lu  Lu5  1  0.852616  0.750000  0.281378  1
  Lu  Lu6  1  0.647507  0.250000  0.781442  1
  Lu  Lu7  1  0.147554  0.250000  0.718522  1
  Lu  Lu8  1  0.690589  0.568861  0.059431  1
  Lu  Lu9  1  0.192748  0.932642  0.439617  1
  Lu  Lu10  1  0.308217  0.064368  0.939914  1
  Lu  Lu11  1  0.807183  0.432730  0.560310  1
  Lu  Lu12  1  0.308217  0.435632  0.939914  1
  Lu  Lu13  1  0.807183  0.067270  0.560310  1
  Lu  Lu14  1  0.690589  0.931139  0.059431  1
  Lu  Lu15  1  0.192748  0.567358  0.439617  1
  Lu  Lu16  1  0.476494  0.250000  0.489179  1
  Lu  Lu17  1  0.977024  0.250000  0.010778  1
  Lu  Lu18  1  0.523391  0.750000  0.510916  1
  Lu  Lu19  1  0.026440  0.750000  0.989004  1
  Bi  Bi20  1  0.903589  0.750000  0.540225  1
  Bi  Bi21  1  0.596657  0.250000  0.039984  1
  Bi  Bi22  1  0.096548  0.250000  0.459983  1
  Bi  Bi23  1  0.565758  0.993798  0.326179  1
  Bi  Bi24  1  0.065604  0.506048  0.173832  1
  Bi  Bi25  1  0.434310  0.493825  0.673825  1
  Bi  Bi26  1  0.934109  0.005977  0.826210  1
  Bi  Bi27  1  0.434310  0.006175  0.673825  1
  Bi  Bi28  1  0.934109  0.494023  0.826210  1
  Bi  Bi29  1  0.565758  0.506202  0.326179  1
  Bi  Bi30  1  0.065604  0.993952  0.173832  1
  Sb  Sb31  1  0.403741  0.750000  0.960988  1
