# generated using pymatgen
data_La7Nd6ThPt6
_symmetry_space_group_name_H-M   'P 1'
_cell_length_a   6.54843601
_cell_length_b   10.28628134
_cell_length_c   10.28628293
_cell_angle_alpha   120.00148782
_cell_angle_beta   90.00498603
_cell_angle_gamma   89.99501364
_symmetry_Int_Tables_number   1
_chemical_formula_structural   La7Nd6ThPt6
_chemical_formula_sum   'La7 Nd6 Th1 Pt6'
_cell_volume   600.03774555
_cell_formula_units_Z   1
loop_
 _symmetry_equiv_pos_site_id
 _symmetry_equiv_pos_as_xyz
  1  'x, y, z'
loop_
 _atom_site_type_symbol
 _atom_site_label
 _atom_site_symmetry_multiplicity
 _atom_site_fract_x
 _atom_site_fract_y
 _atom_site_fract_z
 _atom_site_occupancy
  La  La0  1  0.961568  0.666687  0.333313  1
  La  La1  1  0.246533  0.129546  0.870454  1
  La  La2  1  0.246595  0.740735  0.870353  1
  La  La3  1  0.246595  0.129647  0.259265  1
  La  La4  1  0.746375  0.870953  0.129047  1
  La  La5  1  0.746494  0.258320  0.129180  1
  La  La6  1  0.746494  0.870820  0.741680  1
  Nd  Nd7  1  0.440799  0.537486  0.462514  1
  Nd  Nd8  1  0.440957  0.925120  0.462502  1
  Nd  Nd9  1  0.440957  0.537498  0.074880  1
  Nd  Nd10  1  0.942869  0.461367  0.538633  1
  Nd  Nd11  1  0.943031  0.077148  0.538629  1
  Nd  Nd12  1  0.943031  0.461371  0.922852  1
  Th  Th13  1  0.465370  0.333308  0.666692  1
  Pt  Pt14  1  0.190217  0.811319  0.188681  1
  Pt  Pt15  1  0.190317  0.377443  0.188639  1
  Pt  Pt16  1  0.190317  0.811361  0.622557  1
  Pt  Pt17  1  0.685743  0.191309  0.808691  1
  Pt  Pt18  1  0.685869  0.617291  0.808728  1
  Pt  Pt19  1  0.685869  0.191272  0.382709  1
