# generated using pymatgen
data_Nd2Th2(Al8Pt3)3
_symmetry_space_group_name_H-M   'P 1'
_cell_length_a   7.60886220
_cell_length_b   7.62303309
_cell_length_c   13.26196019
_cell_angle_alpha   84.49122324
_cell_angle_beta   78.96351429
_cell_angle_gamma   59.94478447
_symmetry_Int_Tables_number   1
_chemical_formula_structural   Nd2Th2(Al8Pt3)3
_chemical_formula_sum   'Nd2 Th2 Al24 Pt9'
_cell_volume   653.48661051
_cell_formula_units_Z   1
loop_
 _symmetry_equiv_pos_site_id
 _symmetry_equiv_pos_as_xyz
  1  'x, y, z'
loop_
 _atom_site_type_symbol
 _atom_site_label
 _atom_site_symmetry_multiplicity
 _atom_site_fract_x
 _atom_site_fract_y
 _atom_site_fract_z
 _atom_site_occupancy
  Nd  Nd0  1  0.733240  0.498294  0.808216  1
  Nd  Nd1  1  0.266760  0.501706  0.191784  1
  Th  Th2  1  0.395339  0.167938  0.806181  1
  Th  Th3  1  0.604661  0.832062  0.193819  1
  Al  Al4  1  0.687514  0.832478  0.945150  1
  Al  Al5  1  0.312486  0.167522  0.054850  1
  Al  Al6  1  0.145869  0.833102  0.561138  1
  Al  Al7  1  0.854131  0.166898  0.438862  1
  Al  Al8  1  0.481267  0.167084  0.557532  1
  Al  Al9  1  0.518733  0.832916  0.442468  1
  Al  Al10  1  0.212002  0.167892  0.334852  1
  Al  Al11  1  0.787998  0.832108  0.665148  1
  Al  Al12  1  0.438082  0.510328  0.665316  1
  Al  Al13  1  0.561918  0.489672  0.334684  1
  Al  Al14  1  0.109545  0.158815  0.663714  1
  Al  Al15  1  0.890455  0.841185  0.336286  1
  Al  Al16  1  0.349952  0.502515  0.945981  1
  Al  Al17  1  0.650048  0.497485  0.054019  1
  Al  Al18  1  0.013966  0.165879  0.955510  1
  Al  Al19  1  0.986034  0.834121  0.044490  1
  Al  Al20  1  0.186173  0.500024  0.441403  1
  Al  Al21  1  0.813827  0.499976  0.558597  1
  Al  Al22  1  0.736473  0.165189  0.183909  1
  Al  Al23  1  0.263527  0.834811  0.816091  1
  Al  Al24  1  0.061426  0.634182  0.814458  1
  Al  Al25  1  0.938574  0.365818  0.185542  1
  Al  Al26  1  0.860299  0.038434  0.815482  1
  Al  Al27  1  0.139701  0.961566  0.184518  1
  Pt  Pt28  1  0.122406  0.491767  0.637641  1
  Pt  Pt29  1  0.877594  0.508233  0.362359  1
  Pt  Pt30  1  0.657227  0.170287  0.999819  1
  Pt  Pt31  1  0.342773  0.829713  0.000181  1
  Pt  Pt32  1  0.538707  0.164920  0.362102  1
  Pt  Pt33  1  0.461293  0.835080  0.637898  1
  Pt  Pt34  1  0.779055  0.173783  0.636920  1
  Pt  Pt35  1  0.220945  0.826217  0.363080  1
  Pt  Pt36  1  0.000000  0.500000  0.000000  1
