# generated using pymatgen
data_Li2Dy5Y13(Cd3Ru)2
_symmetry_space_group_name_H-M   'P 1'
_cell_length_a   9.49145101
_cell_length_b   9.48945380
_cell_length_c   9.74302929
_cell_angle_alpha   90.00000199
_cell_angle_beta   89.94905539
_cell_angle_gamma   119.99303728
_symmetry_Int_Tables_number   1
_chemical_formula_structural   Li2Dy5Y13(Cd3Ru)2
_chemical_formula_sum   'Li2 Dy5 Y13 Cd6 Ru2'
_cell_volume   760.02644383
_cell_formula_units_Z   1
loop_
 _symmetry_equiv_pos_site_id
 _symmetry_equiv_pos_as_xyz
  1  'x, y, z'
loop_
 _atom_site_type_symbol
 _atom_site_label
 _atom_site_symmetry_multiplicity
 _atom_site_fract_x
 _atom_site_fract_y
 _atom_site_fract_z
 _atom_site_occupancy
  Li  Li0  1  0.000074  0.000037  0.500029  1
  Li  Li1  1  0.000025  0.000012  0.000028  1
  Dy  Dy2  1  0.208279  0.791452  0.441178  1
  Dy  Dy3  1  0.208279  0.416827  0.441178  1
  Dy  Dy4  1  0.583225  0.791613  0.441251  1
  Dy  Dy5  1  0.791685  0.208389  0.558838  1
  Dy  Dy6  1  0.791685  0.583295  0.558838  1
  Y  Y7  1  0.415900  0.207949  0.558158  1
  Y  Y8  1  0.791995  0.207927  0.941525  1
  Y  Y9  1  0.791995  0.584067  0.941525  1
  Y  Y10  1  0.415937  0.207968  0.941594  1
  Y  Y11  1  0.207915  0.792003  0.058434  1
  Y  Y12  1  0.207915  0.415913  0.058434  1
  Y  Y13  1  0.584105  0.792053  0.058422  1
  Y  Y14  1  0.542373  0.457705  0.250325  1
  Y  Y15  1  0.542373  0.084669  0.250325  1
  Y  Y16  1  0.915226  0.457614  0.250467  1
  Y  Y17  1  0.457646  0.542482  0.749630  1
  Y  Y18  1  0.457646  0.915163  0.749630  1
  Y  Y19  1  0.084659  0.542329  0.749480  1
  Cd  Cd20  1  0.891661  0.108308  0.249894  1
  Cd  Cd21  1  0.891661  0.783355  0.249894  1
  Cd  Cd22  1  0.216706  0.108354  0.249990  1
  Cd  Cd23  1  0.108295  0.891741  0.750080  1
  Cd  Cd24  1  0.108295  0.216553  0.750080  1
  Cd  Cd25  1  0.783335  0.891667  0.750149  1
  Ru  Ru26  1  0.333314  0.666657  0.252172  1
  Ru  Ru27  1  0.667798  0.333899  0.748451  1
