# generated using pymatgen
data_HfZr2(SiRu)3
_symmetry_space_group_name_H-M   'P 1'
_cell_length_a   7.64186308
_cell_length_b   7.64186267
_cell_length_c   7.64186296
_cell_angle_alpha   127.89628698
_cell_angle_beta   121.99492603
_cell_angle_gamma   81.71608848
_symmetry_Int_Tables_number   1
_chemical_formula_structural   HfZr2(SiRu)3
_chemical_formula_sum   'Hf2 Zr4 Si6 Ru6'
_cell_volume   287.49047567
_cell_formula_units_Z   2
loop_
 _symmetry_equiv_pos_site_id
 _symmetry_equiv_pos_as_xyz
  1  'x, y, z'
loop_
 _atom_site_type_symbol
 _atom_site_label
 _atom_site_symmetry_multiplicity
 _atom_site_fract_x
 _atom_site_fract_y
 _atom_site_fract_z
 _atom_site_occupancy
  Hf  Hf0  1  0.052505  0.256812  0.704306  1
  Hf  Hf1  1  0.947495  0.651801  0.204306  1
  Zr  Zr2  1  0.470259  0.697998  0.727739  1
  Zr  Zr3  1  0.529741  0.257480  0.227739  1
  Zr  Zr4  1  0.746980  0.831446  0.584466  1
  Zr  Zr5  1  0.253020  0.837484  0.084466  1
  Si  Si6  1  0.275266  0.269377  0.494111  1
  Si  Si7  1  0.724734  0.218844  0.994111  1
  Si  Si8  1  0.324972  0.587118  0.247907  1
  Si  Si9  1  0.675028  0.922935  0.262146  1
  Si  Si10  1  0.160789  0.922935  0.747907  1
  Si  Si11  1  0.839211  0.587118  0.762146  1
  Ru  Ru12  1  0.500000  0.497829  0.997829  1
  Ru  Ru13  1  0.000000  0.497829  0.497829  1
  Ru  Ru14  1  0.094523  0.254348  0.101472  1
  Ru  Ru15  1  0.905477  0.006949  0.159826  1
  Ru  Ru16  1  0.347124  0.006949  0.601472  1
  Ru  Ru17  1  0.652876  0.254348  0.659826  1
