# generated using pymatgen
data_Tm20Co4Bi7Pb
_symmetry_space_group_name_H-M   'P 1'
_cell_length_a   7.84932051
_cell_length_b   8.83526135
_cell_length_c   12.22433287
_cell_angle_alpha   89.93960812
_cell_angle_beta   90.06817530
_cell_angle_gamma   89.98047368
_symmetry_Int_Tables_number   1
_chemical_formula_structural   Tm20Co4Bi7Pb
_chemical_formula_sum   'Tm20 Co4 Bi7 Pb1'
_cell_volume   847.76611971
_cell_formula_units_Z   1
loop_
 _symmetry_equiv_pos_site_id
 _symmetry_equiv_pos_as_xyz
  1  'x, y, z'
loop_
 _atom_site_type_symbol
 _atom_site_label
 _atom_site_symmetry_multiplicity
 _atom_site_fract_x
 _atom_site_fract_y
 _atom_site_fract_z
 _atom_site_occupancy
  Tm  Tm0  1  0.349231  0.747788  0.700727  1
  Tm  Tm1  1  0.652244  0.249703  0.300229  1
  Tm  Tm2  1  0.844838  0.251493  0.799223  1
  Tm  Tm3  1  0.153216  0.749763  0.199799  1
  Tm  Tm4  1  0.883471  0.748410  0.812600  1
  Tm  Tm5  1  0.113424  0.250341  0.187738  1
  Tm  Tm6  1  0.389652  0.252078  0.688271  1
  Tm  Tm7  1  0.613170  0.749917  0.312564  1
  Tm  Tm8  1  0.673398  0.538198  0.565563  1
  Tm  Tm9  1  0.325945  0.462458  0.436547  1
  Tm  Tm10  1  0.176202  0.462923  0.936495  1
  Tm  Tm11  1  0.325658  0.038357  0.437023  1
  Tm  Tm12  1  0.825250  0.538176  0.062262  1
  Tm  Tm13  1  0.675038  0.960710  0.563046  1
  Tm  Tm14  1  0.825288  0.961910  0.063312  1
  Tm  Tm15  1  0.173907  0.038438  0.936572  1
  Tm  Tm16  1  0.056125  0.750250  0.497515  1
  Tm  Tm17  1  0.944783  0.249686  0.502381  1
  Tm  Tm18  1  0.555354  0.252087  0.001365  1
  Tm  Tm19  1  0.446265  0.747759  0.996017  1
  Co  Co20  1  0.065913  0.750826  0.992445  1
  Co  Co21  1  0.933335  0.250007  0.007795  1
  Co  Co22  1  0.567233  0.249985  0.507587  1
  Co  Co23  1  0.432166  0.750330  0.491889  1
  Bi  Bi24  1  0.428701  0.490482  0.173592  1
  Bi  Bi25  1  0.071590  0.490492  0.672518  1
  Bi  Bi26  1  0.428625  0.009312  0.172203  1
  Bi  Bi27  1  0.928932  0.509189  0.327439  1
  Bi  Bi28  1  0.570676  0.991108  0.827297  1
  Bi  Bi29  1  0.929284  0.990821  0.326838  1
  Bi  Bi30  1  0.070518  0.008964  0.673395  1
  Pb  Pb31  1  0.570567  0.508042  0.827753  1
