# generated using pymatgen
data_Ca10IrAu3
_symmetry_space_group_name_H-M   'P 1'
_cell_length_a   8.95230615
_cell_length_b   8.92255742
_cell_length_c   7.78089938
_cell_angle_alpha   82.82687986
_cell_angle_beta   83.19303844
_cell_angle_gamma   44.72348266
_symmetry_Int_Tables_number   1
_chemical_formula_structural   Ca10IrAu3
_chemical_formula_sum   'Ca10 Ir1 Au3'
_cell_volume   433.53529352
_cell_formula_units_Z   1
loop_
 _symmetry_equiv_pos_site_id
 _symmetry_equiv_pos_as_xyz
  1  'x, y, z'
loop_
 _atom_site_type_symbol
 _atom_site_label
 _atom_site_symmetry_multiplicity
 _atom_site_fract_x
 _atom_site_fract_y
 _atom_site_fract_z
 _atom_site_occupancy
  Ca  Ca0  1  0.353924  0.214304  0.808115  1
  Ca  Ca1  1  0.809218  0.638015  0.681432  1
  Ca  Ca2  1  0.635928  0.801910  0.182581  1
  Ca  Ca3  1  0.201172  0.368396  0.329175  1
  Ca  Ca4  1  0.410876  0.581364  0.263021  1
  Ca  Ca5  1  0.569777  0.424845  0.742656  1
  Ca  Ca6  1  0.812891  0.003647  0.426541  1
  Ca  Ca7  1  0.977184  0.203259  0.076926  1
  Ca  Ca8  1  0.200935  0.971884  0.577450  1
  Ca  Ca9  1  0.024656  0.791511  0.908264  1
  Ir  Ir10  1  0.179278  0.601107  0.584268  1
  Au  Au11  1  0.405631  0.815999  0.919641  1
  Au  Au12  1  0.817429  0.404129  0.418557  1
  Au  Au13  1  0.601103  0.179630  0.081373  1
