# generated using pymatgen
data_TaNb2(GaIr)3
_symmetry_space_group_name_H-M   'P 1'
_cell_length_a   7.48734045
_cell_length_b   7.48734000
_cell_length_c   2.93652800
_cell_angle_alpha   90.00000000
_cell_angle_beta   90.00000000
_cell_angle_gamma   119.92871661
_symmetry_Int_Tables_number   1
_chemical_formula_structural   TaNb2(GaIr)3
_chemical_formula_sum   'Ta1 Nb2 Ga3 Ir3'
_cell_volume   142.66959181
_cell_formula_units_Z   1
loop_
 _symmetry_equiv_pos_site_id
 _symmetry_equiv_pos_as_xyz
  1  'x, y, z'
loop_
 _atom_site_type_symbol
 _atom_site_label
 _atom_site_symmetry_multiplicity
 _atom_site_fract_x
 _atom_site_fract_y
 _atom_site_fract_z
 _atom_site_occupancy
  Ta  Ta0  1  0.634219  0.634220  0.500001  1
  Nb  Nb1  1  0.366467  0.999819  0.500001  1
  Nb  Nb2  1  0.999819  0.366467  0.500001  1
  Ga  Ga3  1  0.704684  0.001008  0.000000  1
  Ga  Ga4  1  0.294420  0.294421  0.000000  1
  Ga  Ga5  1  0.001008  0.704684  0.000000  1
  Ir  Ir6  1  0.666268  0.334904  0.000000  1
  Ir  Ir7  1  0.334904  0.666268  0.000000  1
  Ir  Ir8  1  0.998211  0.998211  0.500001  1
