# generated using pymatgen
data_SmTm5(CoSn6)2
_symmetry_space_group_name_H-M   'P 1'
_cell_length_a   8.43418185
_cell_length_b   8.43418219
_cell_length_c   13.11077586
_cell_angle_alpha   89.98589270
_cell_angle_beta   90.01411424
_cell_angle_gamma   148.67282409
_symmetry_Int_Tables_number   1
_chemical_formula_structural   SmTm5(CoSn6)2
_chemical_formula_sum   'Sm1 Tm5 Co2 Sn12'
_cell_volume   484.90253997
_cell_formula_units_Z   1
loop_
 _symmetry_equiv_pos_site_id
 _symmetry_equiv_pos_as_xyz
  1  'x, y, z'
loop_
 _atom_site_type_symbol
 _atom_site_label
 _atom_site_symmetry_multiplicity
 _atom_site_fract_x
 _atom_site_fract_y
 _atom_site_fract_z
 _atom_site_occupancy
  Sm  Sm0  1  0.900482  0.099518  0.405772  1
  Tm  Tm1  1  0.898550  0.101450  0.093550  1
  Tm  Tm2  1  0.101595  0.898405  0.595531  1
  Tm  Tm3  1  0.900640  0.099360  0.751420  1
  Tm  Tm4  1  0.101060  0.898940  0.905546  1
  Tm  Tm5  1  0.099705  0.900295  0.248645  1
  Co  Co6  1  0.299066  0.700934  0.249120  1
  Co  Co7  1  0.699964  0.300036  0.750741  1
  Sn  Sn8  1  0.755603  0.244397  0.572596  1
  Sn  Sn9  1  0.428108  0.571892  0.578324  1
  Sn  Sn10  1  0.573756  0.426244  0.424438  1
  Sn  Sn11  1  0.732041  0.267959  0.249138  1
  Sn  Sn12  1  0.267154  0.732846  0.750200  1
  Sn  Sn13  1  0.243418  0.756582  0.070878  1
  Sn  Sn14  1  0.242784  0.757216  0.428257  1
  Sn  Sn15  1  0.573226  0.426774  0.074170  1
  Sn  Sn16  1  0.454545  0.545455  0.246728  1
  Sn  Sn17  1  0.545680  0.454320  0.751149  1
  Sn  Sn18  1  0.756398  0.243602  0.928508  1
  Sn  Sn19  1  0.426225  0.573775  0.925290  1
