# generated using pymatgen
data_Y3Ag(Ir2O7)2
_symmetry_space_group_name_H-M   'P 1'
_cell_length_a   7.33279273
_cell_length_b   7.33279323
_cell_length_c   7.17694740
_cell_angle_alpha   59.27905001
_cell_angle_beta   59.27905036
_cell_angle_gamma   60.00000443
_symmetry_Int_Tables_number   1
_chemical_formula_structural   Y3Ag(Ir2O7)2
_chemical_formula_sum   'Y3 Ag1 Ir4 O14'
_cell_volume   269.86345979
_cell_formula_units_Z   1
loop_
 _symmetry_equiv_pos_site_id
 _symmetry_equiv_pos_as_xyz
  1  'x, y, z'
loop_
 _atom_site_type_symbol
 _atom_site_label
 _atom_site_symmetry_multiplicity
 _atom_site_fract_x
 _atom_site_fract_y
 _atom_site_fract_z
 _atom_site_occupancy
  Y  Y0  1  0.625000  0.125000  0.125000  1
  Y  Y1  1  0.125000  0.625000  0.125000  1
  Y  Y2  1  0.125000  0.125000  0.125000  1
  Ag  Ag3  1  0.125000  0.125000  0.625000  1
  Ir  Ir4  1  0.125000  0.625000  0.625000  1
  Ir  Ir5  1  0.625000  0.125000  0.625000  1
  Ir  Ir6  1  0.625000  0.625000  0.125000  1
  Ir  Ir7  1  0.625000  0.625000  0.625000  1
  O  O8  1  0.711479  0.711479  0.285951  1
  O  O9  1  0.299230  0.299230  0.709358  1
  O  O10  1  0.692181  0.299230  0.709358  1
  O  O11  1  0.291091  0.711479  0.285951  1
  O  O12  1  0.299230  0.692181  0.709358  1
  O  O13  1  0.711479  0.291091  0.285951  1
  O  O14  1  0.538521  0.538521  0.964049  1
  O  O15  1  0.950770  0.950770  0.540642  1
  O  O16  1  0.557819  0.950770  0.540642  1
  O  O17  1  0.958909  0.538521  0.964049  1
  O  O18  1  0.950770  0.557819  0.540642  1
  O  O19  1  0.538521  0.958909  0.964049  1
  O  O20  1  0.251255  0.251255  0.246236  1
  O  O21  1  0.998745  0.998745  0.003764  1
