# generated using pymatgen
data_Ti8Al15Fe5Pd2
_symmetry_space_group_name_H-M   'P 1'
_cell_length_a   8.53834929
_cell_length_b   8.53229363
_cell_length_c   8.53834771
_cell_angle_alpha   120.34427091
_cell_angle_beta   119.82044970
_cell_angle_gamma   89.87844639
_symmetry_Int_Tables_number   1
_chemical_formula_structural   Ti8Al15Fe5Pd2
_chemical_formula_sum   'Ti8 Al15 Fe5 Pd2'
_cell_volume   439.20513002
_cell_formula_units_Z   1
loop_
 _symmetry_equiv_pos_site_id
 _symmetry_equiv_pos_as_xyz
  1  'x, y, z'
loop_
 _atom_site_type_symbol
 _atom_site_label
 _atom_site_symmetry_multiplicity
 _atom_site_fract_x
 _atom_site_fract_y
 _atom_site_fract_z
 _atom_site_occupancy
  Ti  Ti0  1  0.795449  0.287761  0.067852  1
  Ti  Ti1  1  0.219909  0.287761  0.492311  1
  Ti  Ti2  1  0.212529  0.700702  0.488173  1
  Ti  Ti3  1  0.209342  0.718780  0.932396  1
  Ti  Ti4  1  0.786384  0.718780  0.509439  1
  Ti  Ti5  1  0.780819  0.291117  0.510298  1
  Ti  Ti6  1  0.390287  0.132839  0.742551  1
  Ti  Ti7  1  0.379123  0.638633  0.259509  1
  Al  Al8  1  0.996693  0.496980  0.500287  1
  Al  Al9  1  0.160296  0.337864  0.177567  1
  Al  Al10  1  0.153693  0.967160  0.813467  1
  Al  Al11  1  0.158426  0.353036  0.816495  1
  Al  Al12  1  0.536540  0.353036  0.194609  1
  Al  Al13  1  0.839891  0.658448  0.818559  1
  Al  Al14  1  0.850428  0.038763  0.188335  1
  Al  Al15  1  0.836987  0.647391  0.179299  1
  Al  Al16  1  0.468092  0.647391  0.810403  1
  Al  Al17  1  0.380436  0.123653  0.266224  1
  Al  Al18  1  0.857429  0.123653  0.743217  1
  Al  Al19  1  0.613257  0.870574  0.257317  1
  Al  Al20  1  0.620916  0.362807  0.741890  1
  Al  Al21  1  0.619722  0.875700  0.735099  1
  Al  Al22  1  0.140600  0.875700  0.255978  1
  Fe  Fe23  1  0.497127  0.493270  0.996142  1
  Fe  Fe24  1  0.497389  0.500485  0.498115  1
  Fe  Fe25  1  0.002371  0.500485  0.003096  1
  Fe  Fe26  1  0.000525  0.997994  0.997468  1
  Fe  Fe27  1  0.497634  0.000343  0.502709  1
  Pd  Pd28  1  0.996284  0.999450  0.498030  1
  Pd  Pd29  1  0.501419  0.999450  0.003165  1
