# generated using pymatgen
data_CeAlSi2Rh
_symmetry_space_group_name_H-M   'P 1'
_cell_length_a   6.03039337
_cell_length_b   6.03039408
_cell_length_c   6.03039437
_cell_angle_alpha   140.97980849
_cell_angle_beta   140.97981794
_cell_angle_gamma   56.36857369
_symmetry_Int_Tables_number   1
_chemical_formula_structural   CeAlSi2Rh
_chemical_formula_sum   'Ce1 Al1 Si2 Rh1'
_cell_volume   86.24001905
_cell_formula_units_Z   1
loop_
 _symmetry_equiv_pos_site_id
 _symmetry_equiv_pos_as_xyz
  1  'x, y, z'
loop_
 _atom_site_type_symbol
 _atom_site_label
 _atom_site_symmetry_multiplicity
 _atom_site_fract_x
 _atom_site_fract_y
 _atom_site_fract_z
 _atom_site_occupancy
  Ce  Ce0  1  0.000000  0.000000  0.000000  1
  Al  Al1  1  0.750000  0.250000  0.500000  1
  Si  Si2  1  0.612055  0.612055  0.000000  1
  Si  Si3  1  0.387945  0.387945  0.000000  1
  Rh  Rh4  1  0.250000  0.750000  0.500000  1
