# generated using pymatgen
data_Zr6Zn11Cu12S
_symmetry_space_group_name_H-M   'P 1'
_cell_length_a   8.59457842
_cell_length_b   8.57787905
_cell_length_c   8.57787900
_cell_angle_alpha   60.00000405
_cell_angle_beta   60.06425757
_cell_angle_gamma   60.06426030
_symmetry_Int_Tables_number   1
_chemical_formula_structural   Zr6Zn11Cu12S
_chemical_formula_sum   'Zr6 Zn11 Cu12 S1'
_cell_volume   447.60050171
_cell_formula_units_Z   1
loop_
 _symmetry_equiv_pos_site_id
 _symmetry_equiv_pos_as_xyz
  1  'x, y, z'
loop_
 _atom_site_type_symbol
 _atom_site_label
 _atom_site_symmetry_multiplicity
 _atom_site_fract_x
 _atom_site_fract_y
 _atom_site_fract_z
 _atom_site_occupancy
  Zr  Zr0  1  0.718407  0.286483  0.286483  1
  Zr  Zr1  1  0.281593  0.713517  0.713517  1
  Zr  Zr2  1  0.281593  0.713517  0.291371  1
  Zr  Zr3  1  0.718407  0.286483  0.708629  1
  Zr  Zr4  1  0.281593  0.291371  0.713517  1
  Zr  Zr5  1  0.718407  0.708629  0.286483  1
  Zn  Zn6  1  0.634459  0.121847  0.121847  1
  Zn  Zn7  1  0.365541  0.878153  0.878153  1
  Zn  Zn8  1  0.329552  0.333725  0.333725  1
  Zn  Zn9  1  0.670448  0.666275  0.666275  1
  Zn  Zn10  1  0.329552  0.333725  0.003001  1
  Zn  Zn11  1  0.329552  0.003001  0.333725  1
  Zn  Zn12  1  0.670448  0.666275  0.996999  1
  Zn  Zn13  1  0.670448  0.996999  0.666275  1
  Zn  Zn14  1  0.013362  0.328879  0.328879  1
  Zn  Zn15  1  0.986638  0.671121  0.671121  1
  Zn  Zn16  1  0.000000  0.000000  0.000000  1
  Cu  Cu17  1  0.120717  0.120648  0.120648  1
  Cu  Cu18  1  0.879283  0.879352  0.879352  1
  Cu  Cu19  1  0.120717  0.120648  0.637988  1
  Cu  Cu20  1  0.120717  0.637988  0.120648  1
  Cu  Cu21  1  0.879283  0.879352  0.362012  1
  Cu  Cu22  1  0.879283  0.362012  0.879352  1
  Cu  Cu23  1  0.500000  0.000000  0.000000  1
  Cu  Cu24  1  0.000000  0.500000  0.500000  1
  Cu  Cu25  1  0.000000  0.500000  0.000000  1
  Cu  Cu26  1  0.500000  0.000000  0.500000  1
  Cu  Cu27  1  0.000000  0.000000  0.500000  1
  Cu  Cu28  1  0.500000  0.500000  0.000000  1
  S  S29  1  0.500000  0.500000  0.500000  1
