# generated using pymatgen
data_Dy2YAl12RuRh3
_symmetry_space_group_name_H-M   'P 1'
_cell_length_a   8.84028203
_cell_length_b   8.84151063
_cell_length_c   9.50243100
_cell_angle_alpha   90.00000000
_cell_angle_beta   90.00000000
_cell_angle_gamma   120.00459929
_symmetry_Int_Tables_number   1
_chemical_formula_structural   Dy2YAl12RuRh3
_chemical_formula_sum   'Dy4 Y2 Al24 Ru2 Rh6'
_cell_volume   643.18783385
_cell_formula_units_Z   2
loop_
 _symmetry_equiv_pos_site_id
 _symmetry_equiv_pos_as_xyz
  1  'x, y, z'
loop_
 _atom_site_type_symbol
 _atom_site_label
 _atom_site_symmetry_multiplicity
 _atom_site_fract_x
 _atom_site_fract_y
 _atom_site_fract_z
 _atom_site_occupancy
  Dy  Dy0  1  0.616323  0.808162  0.250000  1
  Dy  Dy1  1  0.808169  0.191807  0.750000  1
  Dy  Dy2  1  0.808169  0.616362  0.750000  1
  Dy  Dy3  1  0.383582  0.191791  0.750000  1
  Y  Y4  1  0.191912  0.808122  0.250000  1
  Y  Y5  1  0.191912  0.383790  0.250000  1
  Al  Al6  1  0.561838  0.438324  0.250000  1
  Al  Al7  1  0.561838  0.123513  0.250000  1
  Al  Al8  1  0.876377  0.438188  0.250000  1
  Al  Al9  1  0.438192  0.561772  0.750000  1
  Al  Al10  1  0.438192  0.876421  0.750000  1
  Al  Al11  1  0.123655  0.561828  0.750000  1
  Al  Al12  1  0.325900  0.162950  0.424130  1
  Al  Al13  1  0.837009  0.162885  0.424018  1
  Al  Al14  1  0.837009  0.674125  0.424018  1
  Al  Al15  1  0.674113  0.837056  0.576013  1
  Al  Al16  1  0.162935  0.837085  0.576114  1
  Al  Al17  1  0.162935  0.325849  0.576114  1
  Al  Al18  1  0.674113  0.837056  0.923987  1
  Al  Al19  1  0.162935  0.837085  0.923886  1
  Al  Al20  1  0.162935  0.325849  0.923886  1
  Al  Al21  1  0.325900  0.162950  0.075870  1
  Al  Al22  1  0.837009  0.162885  0.075982  1
  Al  Al23  1  0.837009  0.674125  0.075982  1
  Al  Al24  1  0.666645  0.333322  0.528653  1
  Al  Al25  1  0.333375  0.666688  0.471401  1
  Al  Al26  1  0.333375  0.666688  0.028599  1
  Al  Al27  1  0.666645  0.333322  0.971347  1
  Al  Al28  1  0.999729  0.999864  0.250000  1
  Al  Al29  1  0.000053  0.000027  0.750000  1
  Ru  Ru30  1  0.000081  0.000040  0.499692  1
  Ru  Ru31  1  0.000081  0.000040  0.000308  1
  Rh  Rh32  1  0.500075  0.499960  0.500022  1
  Rh  Rh33  1  0.500075  0.000115  0.500022  1
  Rh  Rh34  1  0.999875  0.499937  0.500078  1
  Rh  Rh35  1  0.500075  0.499960  0.999978  1
  Rh  Rh36  1  0.500075  0.000115  0.999978  1
  Rh  Rh37  1  0.999875  0.499937  0.999922  1
