# generated using pymatgen
data_Ho2Zn15Ni2
_symmetry_space_group_name_H-M   'P 1'
_cell_length_a   6.70016329
_cell_length_b   6.70016435
_cell_length_c   6.73157286
_cell_angle_alpha   82.49513835
_cell_angle_beta   82.49513987
_cell_angle_gamma   82.61962773
_symmetry_Int_Tables_number   1
_chemical_formula_structural   Ho2Zn15Ni2
_chemical_formula_sum   'Ho2 Zn15 Ni2'
_cell_volume   295.12620844
_cell_formula_units_Z   1
loop_
 _symmetry_equiv_pos_site_id
 _symmetry_equiv_pos_as_xyz
  1  'x, y, z'
loop_
 _atom_site_type_symbol
 _atom_site_label
 _atom_site_symmetry_multiplicity
 _atom_site_fract_x
 _atom_site_fract_y
 _atom_site_fract_z
 _atom_site_occupancy
  Ho  Ho0  1  0.663188  0.663188  0.667043  1
  Ho  Ho1  1  0.336812  0.336812  0.332957  1
  Zn  Zn2  1  0.355190  0.842089  0.347704  1
  Zn  Zn3  1  0.349200  0.349200  0.856383  1
  Zn  Zn4  1  0.842089  0.355190  0.347704  1
  Zn  Zn5  1  0.157912  0.644811  0.652297  1
  Zn  Zn6  1  0.650801  0.650801  0.143618  1
  Zn  Zn7  1  0.644811  0.157912  0.652297  1
  Zn  Zn8  1  0.891655  0.891655  0.904404  1
  Zn  Zn9  1  0.108345  0.108345  0.095596  1
  Zn  Zn10  1  0.000285  0.303188  0.706098  1
  Zn  Zn11  1  0.293503  0.706498  0.000001  1
  Zn  Zn12  1  0.303188  0.000285  0.706098  1
  Zn  Zn13  1  0.999716  0.696815  0.293901  1
  Zn  Zn14  1  0.706498  0.293503  0.000001  1
  Zn  Zn15  1  0.000000  0.000000  0.500000  1
  Zn  Zn16  1  0.696815  0.999716  0.293901  1
  Ni  Ni17  1  0.000001  0.500000  0.000000  1
  Ni  Ni18  1  0.500000  0.000001  0.000000  1
