# generated using pymatgen
data_Pr9Nd11Bi5Pb11
_symmetry_space_group_name_H-M   'P 1'
_cell_length_a   8.54728383
_cell_length_b   8.59075498
_cell_length_c   16.23364600
_cell_angle_alpha   90.02026185
_cell_angle_beta   90.09925715
_cell_angle_gamma   90.12797861
_symmetry_Int_Tables_number   1
_chemical_formula_structural   Pr9Nd11Bi5Pb11
_chemical_formula_sum   'Pr9 Nd11 Bi5 Pb11'
_cell_volume   1191.99316895
_cell_formula_units_Z   1
loop_
 _symmetry_equiv_pos_site_id
 _symmetry_equiv_pos_as_xyz
  1  'x, y, z'
loop_
 _atom_site_type_symbol
 _atom_site_label
 _atom_site_symmetry_multiplicity
 _atom_site_fract_x
 _atom_site_fract_y
 _atom_site_fract_z
 _atom_site_occupancy
  Pr  Pr0  1  0.130447  0.342168  0.620241  1
  Pr  Pr1  1  0.466130  0.672891  0.602200  1
  Pr  Pr2  1  0.969872  0.824869  0.898988  1
  Pr  Pr3  1  0.531438  0.325452  0.101502  1
  Pr  Pr4  1  0.031220  0.175081  0.396526  1
  Pr  Pr5  1  0.526252  0.325095  0.398468  1
  Pr  Pr6  1  0.023160  0.177439  0.100299  1
  Pr  Pr7  1  0.476603  0.677395  0.899842  1
  Pr  Pr8  1  0.971510  0.822247  0.601786  1
  Nd  Nd9  1  0.630696  0.158743  0.621822  1
  Nd  Nd10  1  0.129492  0.341954  0.878074  1
  Nd  Nd11  1  0.371421  0.842176  0.121982  1
  Nd  Nd12  1  0.872257  0.657861  0.378657  1
  Nd  Nd13  1  0.369405  0.839401  0.377570  1
  Nd  Nd14  1  0.866448  0.659068  0.120843  1
  Nd  Nd15  1  0.633950  0.158464  0.879182  1
  Nd  Nd16  1  0.799790  0.501927  0.753340  1
  Nd  Nd17  1  0.299943  0.998571  0.750996  1
  Nd  Nd18  1  0.199832  0.498585  0.250524  1
  Nd  Nd19  1  0.700233  0.001876  0.247935  1
  Bi  Bi20  1  0.717024  0.967334  0.455327  1
  Bi  Bi21  1  0.215281  0.534598  0.043860  1
  Bi  Bi22  1  0.285261  0.034905  0.956457  1
  Bi  Bi23  1  0.782039  0.468359  0.545051  1
  Bi  Bi24  1  0.285033  0.030803  0.544616  1
  Pb  Pb25  1  0.786351  0.464237  0.956095  1
  Pb  Pb26  1  0.713815  0.964410  0.044197  1
  Pb  Pb27  1  0.215091  0.534869  0.454770  1
  Pb  Pb28  1  0.436083  0.374921  0.750446  1
  Pb  Pb29  1  0.935674  0.123894  0.749431  1
  Pb  Pb30  1  0.565049  0.624102  0.250100  1
  Pb  Pb31  1  0.064415  0.875069  0.249283  1
  Pb  Pb32  1  0.663735  0.851965  0.749251  1
  Pb  Pb33  1  0.163811  0.648486  0.750676  1
  Pb  Pb34  1  0.335654  0.148080  0.249219  1
  Pb  Pb35  1  0.835584  0.352710  0.250443  1
