# generated using pymatgen
data_TmLu5Al24Ir3Os5
_symmetry_space_group_name_H-M   'P 1'
_cell_length_a   8.74881442
_cell_length_b   8.77051848
_cell_length_c   9.54013602
_cell_angle_alpha   89.83986882
_cell_angle_beta   90.19424440
_cell_angle_gamma   119.87041446
_symmetry_Int_Tables_number   1
_chemical_formula_structural   TmLu5Al24Ir3Os5
_chemical_formula_sum   'Tm1 Lu5 Al24 Ir3 Os5'
_cell_volume   634.77883704
_cell_formula_units_Z   1
loop_
 _symmetry_equiv_pos_site_id
 _symmetry_equiv_pos_as_xyz
  1  'x, y, z'
loop_
 _atom_site_type_symbol
 _atom_site_label
 _atom_site_symmetry_multiplicity
 _atom_site_fract_x
 _atom_site_fract_y
 _atom_site_fract_z
 _atom_site_occupancy
  Tm  Tm0  1  0.801938  0.189530  0.749950  1
  Lu  Lu1  1  0.195439  0.388732  0.251211  1
  Lu  Lu2  1  0.804495  0.611233  0.748808  1
  Lu  Lu3  1  0.608088  0.807332  0.251436  1
  Lu  Lu4  1  0.391814  0.192716  0.748586  1
  Lu  Lu5  1  0.198952  0.810101  0.249840  1
  Al  Al6  1  0.333417  0.667715  0.026749  1
  Al  Al7  1  0.666411  0.332343  0.973528  1
  Al  Al8  1  0.665957  0.333176  0.525094  1
  Al  Al9  1  0.333838  0.666901  0.474666  1
  Al  Al10  1  0.164826  0.326350  0.577300  1
  Al  Al11  1  0.835398  0.673850  0.422504  1
  Al  Al12  1  0.672698  0.835315  0.576660  1
  Al  Al13  1  0.837290  0.673955  0.077209  1
  Al  Al14  1  0.327086  0.164471  0.423142  1
  Al  Al15  1  0.162959  0.326250  0.923030  1
  Al  Al16  1  0.164245  0.837023  0.576595  1
  Al  Al17  1  0.327167  0.162740  0.076355  1
  Al  Al18  1  0.835692  0.163015  0.423030  1
  Al  Al19  1  0.672638  0.837036  0.923881  1
  Al  Al20  1  0.835622  0.162923  0.077250  1
  Al  Al21  1  0.164339  0.837102  0.923153  1
  Al  Al22  1  0.562634  0.125600  0.249336  1
  Al  Al23  1  0.436978  0.874193  0.750679  1
  Al  Al24  1  0.876359  0.439117  0.249384  1
  Al  Al25  1  0.123962  0.561309  0.750632  1
  Al  Al26  1  0.562299  0.439023  0.250247  1
  Al  Al27  1  0.437742  0.560989  0.749729  1
  Al  Al28  1  0.999817  0.001316  0.249948  1
  Al  Al29  1  0.000586  0.998224  0.750079  1
  Ir  Ir30  1  0.000107  0.500228  0.000155  1
  Ir  Ir31  1  0.499943  0.500081  0.000040  1
  Ir  Ir32  1  0.000089  0.500248  0.499865  1
  Os  Os33  1  0.499703  0.999811  0.000277  1
  Os  Os34  1  0.499653  0.999818  0.499721  1
  Os  Os35  1  0.499922  0.500095  0.499913  1
  Os  Os36  1  0.999958  0.000069  0.000009  1
  Os  Os37  1  0.999938  0.000073  0.500007  1
