# generated using pymatgen
data_NdDy15(CoHg3)2
_symmetry_space_group_name_H-M   'P 1'
_cell_length_a   10.14216300
_cell_length_b   10.14216309
_cell_length_c   7.19060500
_cell_angle_alpha   90.00003931
_cell_angle_beta   90.00001362
_cell_angle_gamma   120.00010601
_symmetry_Int_Tables_number   1
_chemical_formula_structural   NdDy15(CoHg3)2
_chemical_formula_sum   'Nd1 Dy15 Co2 Hg6'
_cell_volume   640.55551689
_cell_formula_units_Z   1
loop_
 _symmetry_equiv_pos_site_id
 _symmetry_equiv_pos_as_xyz
  1  'x, y, z'
loop_
 _atom_site_type_symbol
 _atom_site_label
 _atom_site_symmetry_multiplicity
 _atom_site_fract_x
 _atom_site_fract_y
 _atom_site_fract_z
 _atom_site_occupancy
  Nd  Nd0  1  0.000000  0.000000  0.276984  1
  Dy  Dy1  1  0.825481  0.650962  0.482612  1
  Dy  Dy2  1  0.349038  0.174519  0.482612  1
  Dy  Dy3  1  0.825481  0.174519  0.482613  1
  Dy  Dy4  1  0.173845  0.347690  0.981715  1
  Dy  Dy5  1  0.652310  0.826155  0.981715  1
  Dy  Dy6  1  0.173845  0.826155  0.981715  1
  Dy  Dy7  1  0.666667  0.333333  0.187395  1
  Dy  Dy8  1  0.333333  0.666667  0.689564  1
  Dy  Dy9  1  0.539125  0.078250  0.788563  1
  Dy  Dy10  1  0.921750  0.460875  0.788563  1
  Dy  Dy11  1  0.539125  0.460875  0.788563  1
  Dy  Dy12  1  0.460287  0.920574  0.288885  1
  Dy  Dy13  1  0.079426  0.539713  0.288885  1
  Dy  Dy14  1  0.460287  0.539713  0.288885  1
  Dy  Dy15  1  0.000000  0.000000  0.767151  1
  Co  Co16  1  0.666667  0.333333  0.553112  1
  Co  Co17  1  0.333333  0.666667  0.054413  1
  Hg  Hg18  1  0.830623  0.661246  0.043770  1
  Hg  Hg19  1  0.338754  0.169377  0.043770  1
  Hg  Hg20  1  0.830623  0.169377  0.043770  1
  Hg  Hg21  1  0.168833  0.337665  0.546997  1
  Hg  Hg22  1  0.662335  0.831168  0.546997  1
  Hg  Hg23  1  0.168832  0.831168  0.546997  1
