# generated using pymatgen
data_CaLuPa2(Al3Ir)6
_symmetry_space_group_name_H-M   'P 1'
_cell_length_a   7.58342219
_cell_length_b   7.58656602
_cell_length_c   9.37266100
_cell_angle_alpha   90.00000000
_cell_angle_beta   90.00000000
_cell_angle_gamma   119.60557569
_symmetry_Int_Tables_number   1
_chemical_formula_structural   CaLuPa2(Al3Ir)6
_chemical_formula_sum   'Ca1 Lu1 Pa2 Al18 Ir6'
_cell_volume   468.83111653
_cell_formula_units_Z   1
loop_
 _symmetry_equiv_pos_site_id
 _symmetry_equiv_pos_as_xyz
  1  'x, y, z'
loop_
 _atom_site_type_symbol
 _atom_site_label
 _atom_site_symmetry_multiplicity
 _atom_site_fract_x
 _atom_site_fract_y
 _atom_site_fract_z
 _atom_site_occupancy
  Ca  Ca0  1  0.670296  0.993469  0.250000  1
  Lu  Lu1  1  0.330309  0.007203  0.750000  1
  Pa  Pa2  1  0.998334  0.671929  0.250000  1
  Pa  Pa3  1  0.001739  0.327734  0.750000  1
  Al  Al4  1  0.132108  0.126290  0.250000  1
  Al  Al5  1  0.868985  0.872623  0.750000  1
  Al  Al6  1  0.999837  0.331056  0.078789  1
  Al  Al7  1  0.999891  0.669037  0.920576  1
  Al  Al8  1  0.999891  0.669037  0.579424  1
  Al  Al9  1  0.339225  0.003340  0.425826  1
  Al  Al10  1  0.999837  0.331056  0.421211  1
  Al  Al11  1  0.660518  0.996139  0.574472  1
  Al  Al12  1  0.660518  0.996139  0.925528  1
  Al  Al13  1  0.339225  0.003340  0.074174  1
  Al  Al14  1  0.335279  0.333111  0.554711  1
  Al  Al15  1  0.664751  0.666865  0.446623  1
  Al  Al16  1  0.664751  0.666865  0.053377  1
  Al  Al17  1  0.335279  0.333111  0.945289  1
  Al  Al18  1  0.339541  0.547382  0.250000  1
  Al  Al19  1  0.658081  0.451885  0.750000  1
  Al  Al20  1  0.550145  0.343174  0.250000  1
  Al  Al21  1  0.450899  0.659718  0.750000  1
  Ir  Ir22  1  0.675574  0.330519  0.997789  1
  Ir  Ir23  1  0.322059  0.668616  0.998988  1
  Ir  Ir24  1  0.322059  0.668616  0.501012  1
  Ir  Ir25  1  0.675574  0.330519  0.502211  1
  Ir  Ir26  1  0.002647  0.000613  0.998050  1
  Ir  Ir27  1  0.002647  0.000613  0.501950  1
