# generated using pymatgen
data_Ba11Na14Sr3YbN6
_symmetry_space_group_name_H-M   'P 1'
_cell_length_a   12.45106520
_cell_length_b   12.47836935
_cell_length_c   12.45029207
_cell_angle_alpha   60.60836132
_cell_angle_beta   61.06212516
_cell_angle_gamma   60.61055557
_symmetry_Int_Tables_number   1
_chemical_formula_structural   Ba11Na14Sr3YbN6
_chemical_formula_sum   'Ba11 Na14 Sr3 Yb1 N6'
_cell_volume   1391.22702483
_cell_formula_units_Z   1
loop_
 _symmetry_equiv_pos_site_id
 _symmetry_equiv_pos_as_xyz
  1  'x, y, z'
loop_
 _atom_site_type_symbol
 _atom_site_label
 _atom_site_symmetry_multiplicity
 _atom_site_fract_x
 _atom_site_fract_y
 _atom_site_fract_z
 _atom_site_occupancy
  Ba  Ba0  1  0.104136  0.680948  0.104128  1
  Ba  Ba1  1  0.891721  0.894385  0.320475  1
  Ba  Ba2  1  0.892382  0.320142  0.892387  1
  Ba  Ba3  1  0.320474  0.894375  0.891738  1
  Ba  Ba4  1  0.108470  0.108479  0.108466  1
  Ba  Ba5  1  0.287429  0.711897  0.287415  1
  Ba  Ba6  1  0.709178  0.720179  0.279971  1
  Ba  Ba7  1  0.284767  0.286094  0.708190  1
  Ba  Ba8  1  0.279991  0.720165  0.709192  1
  Ba  Ba9  1  0.708178  0.286103  0.284767  1
  Ba  Ba10  1  0.713992  0.281423  0.714013  1
  Na  Na11  1  0.669950  0.670997  0.669957  1
  Na  Na12  1  0.013431  0.325092  0.334621  1
  Na  Na13  1  0.334617  0.325103  0.013411  1
  Na  Na14  1  0.329226  0.018180  0.329248  1
  Na  Na15  1  0.674860  0.676035  0.981707  1
  Na  Na16  1  0.675267  0.982538  0.675264  1
  Na  Na17  1  0.981705  0.676042  0.674859  1
  Na  Na18  1  0.330579  0.321769  0.330577  1
  Na  Na19  1  0.506317  0.000342  0.001571  1
  Na  Na20  1  0.001749  0.495203  0.501775  1
  Na  Na21  1  0.999346  0.503393  0.999353  1
  Na  Na22  1  0.497436  0.003029  0.497447  1
  Na  Na23  1  0.501879  0.495086  0.001757  1
  Na  Na24  1  0.001572  0.000344  0.506335  1
  Sr  Sr25  1  0.895277  0.899706  0.895289  1
  Sr  Sr26  1  0.695060  0.101083  0.097563  1
  Sr  Sr27  1  0.097570  0.101085  0.695064  1
  Yb  Yb28  1  0.001756  0.999634  0.001761  1
  N  N29  1  0.144413  0.855918  0.144410  1
  N  N30  1  0.854374  0.859481  0.138185  1
  N  N31  1  0.142700  0.143945  0.854921  1
  N  N32  1  0.138189  0.859478  0.854381  1
  N  N33  1  0.854913  0.143951  0.142698  1
  N  N34  1  0.857094  0.138377  0.857104  1
