# generated using pymatgen
data_Tm4Zn2HgOs
_symmetry_space_group_name_H-M   'P 1'
_cell_length_a   7.04825601
_cell_length_b   7.08204000
_cell_length_c   7.05061000
_cell_angle_alpha   90.00030743
_cell_angle_beta   90.00296711
_cell_angle_gamma   89.99931231
_symmetry_Int_Tables_number   1
_chemical_formula_structural   Tm4Zn2HgOs
_chemical_formula_sum   'Tm8 Zn4 Hg2 Os2'
_cell_volume   351.93846678
_cell_formula_units_Z   2
loop_
 _symmetry_equiv_pos_site_id
 _symmetry_equiv_pos_as_xyz
  1  'x, y, z'
loop_
 _atom_site_type_symbol
 _atom_site_label
 _atom_site_symmetry_multiplicity
 _atom_site_fract_x
 _atom_site_fract_y
 _atom_site_fract_z
 _atom_site_occupancy
  Tm  Tm0  1  0.235989  0.999990  0.264020  1
  Tm  Tm1  1  0.235989  0.500012  0.264021  1
  Tm  Tm2  1  0.763978  0.000004  0.263990  1
  Tm  Tm3  1  0.763979  0.499984  0.263988  1
  Tm  Tm4  1  0.236022  0.999996  0.736010  1
  Tm  Tm5  1  0.236021  0.500017  0.736012  1
  Tm  Tm6  1  0.764011  0.000010  0.735979  1
  Tm  Tm7  1  0.764011  0.499987  0.735978  1
  Zn  Zn8  1  0.000011  0.250000  0.000001  1
  Zn  Zn9  1  0.999989  0.749999  0.999999  1
  Zn  Zn10  1  0.499972  0.249999  0.499998  1
  Zn  Zn11  1  0.500028  0.750000  0.500002  1
  Hg  Hg12  1  0.499979  0.250001  0.000001  1
  Hg  Hg13  1  0.500021  0.749998  0.999999  1
  Os  Os14  1  0.999987  0.749999  0.500003  1
  Os  Os15  1  0.000013  0.250000  0.499998  1
