# generated using pymatgen
data_Rb6CaCl8
_symmetry_space_group_name_H-M   'P 1'
_cell_length_a   9.37427586
_cell_length_b   9.37427675
_cell_length_c   9.37427600
_cell_angle_alpha   60.00000263
_cell_angle_beta   59.99999952
_cell_angle_gamma   59.99999872
_symmetry_Int_Tables_number   1
_chemical_formula_structural   Rb6CaCl8
_chemical_formula_sum   'Rb6 Ca1 Cl8'
_cell_volume   582.50310039
_cell_formula_units_Z   1
loop_
 _symmetry_equiv_pos_site_id
 _symmetry_equiv_pos_as_xyz
  1  'x, y, z'
loop_
 _atom_site_type_symbol
 _atom_site_label
 _atom_site_symmetry_multiplicity
 _atom_site_fract_x
 _atom_site_fract_y
 _atom_site_fract_z
 _atom_site_occupancy
  Rb  Rb0  1  0.500001  0.000000  0.000000  1
  Rb  Rb1  1  0.000000  0.500001  0.000000  1
  Rb  Rb2  1  0.500000  0.500000  0.000000  1
  Rb  Rb3  1  0.000000  0.000000  0.500001  1
  Rb  Rb4  1  0.500000  0.000000  0.500000  1
  Rb  Rb5  1  0.000000  0.500000  0.500000  1
  Ca  Ca6  1  0.000000  0.000000  0.000000  1
  Cl  Cl7  1  0.789177  0.210822  0.210822  1
  Cl  Cl8  1  0.210822  0.789177  0.210822  1
  Cl  Cl9  1  0.789177  0.789177  0.210822  1
  Cl  Cl10  1  0.250000  0.250000  0.250000  1
  Cl  Cl11  1  0.750000  0.750000  0.750000  1
  Cl  Cl12  1  0.210822  0.210822  0.789177  1
  Cl  Cl13  1  0.789177  0.210822  0.789177  1
  Cl  Cl14  1  0.210822  0.789177  0.789177  1
