# generated using pymatgen
data_Yb11Ho(AgGe)12
_symmetry_space_group_name_H-M   'P 1'
_cell_length_a   4.55818400
_cell_length_b   7.86161802
_cell_length_c   21.36668940
_cell_angle_alpha   89.92642100
_cell_angle_beta   90.00000000
_cell_angle_gamma   90.00000000
_symmetry_Int_Tables_number   1
_chemical_formula_structural   Yb11Ho(AgGe)12
_chemical_formula_sum   'Yb11 Ho1 Ag12 Ge12'
_cell_volume   765.66830505
_cell_formula_units_Z   1
loop_
 _symmetry_equiv_pos_site_id
 _symmetry_equiv_pos_as_xyz
  1  'x, y, z'
loop_
 _atom_site_type_symbol
 _atom_site_label
 _atom_site_symmetry_multiplicity
 _atom_site_fract_x
 _atom_site_fract_y
 _atom_site_fract_z
 _atom_site_occupancy
  Yb  Yb0  1  0.250000  0.224224  0.001048  1
  Yb  Yb1  1  0.250000  0.277353  0.499799  1
  Yb  Yb2  1  0.750000  0.773071  0.001294  1
  Yb  Yb3  1  0.750000  0.722148  0.499694  1
  Yb  Yb4  1  0.250000  0.210580  0.333792  1
  Yb  Yb5  1  0.250000  0.286484  0.833392  1
  Yb  Yb6  1  0.750000  0.787626  0.665630  1
  Yb  Yb7  1  0.750000  0.709992  0.166144  1
  Yb  Yb8  1  0.250000  0.213634  0.666147  1
  Yb  Yb9  1  0.250000  0.287854  0.166820  1
  Yb  Yb10  1  0.750000  0.788086  0.333044  1
  Ho  Ho11  1  0.750000  0.713712  0.834115  1
  Ag  Ag12  1  0.250000  0.913106  0.762232  1
  Ag  Ag13  1  0.250000  0.586652  0.262016  1
  Ag  Ag14  1  0.750000  0.087439  0.238069  1
  Ag  Ag15  1  0.750000  0.412551  0.738441  1
  Ag  Ag16  1  0.250000  0.922627  0.906577  1
  Ag  Ag17  1  0.250000  0.581266  0.405772  1
  Ag  Ag18  1  0.750000  0.080952  0.093817  1
  Ag  Ag19  1  0.750000  0.419091  0.594342  1
  Ag  Ag20  1  0.250000  0.917392  0.565521  1
  Ag  Ag21  1  0.250000  0.582233  0.068241  1
  Ag  Ag22  1  0.750000  0.082575  0.434363  1
  Ag  Ag23  1  0.750000  0.418376  0.937575  1
  Ge  Ge24  1  0.250000  0.582992  0.730816  1
  Ge  Ge25  1  0.250000  0.917690  0.227888  1
  Ge  Ge26  1  0.750000  0.417399  0.272091  1
  Ge  Ge27  1  0.750000  0.079261  0.771718  1
  Ge  Ge28  1  0.250000  0.911272  0.102353  1
  Ge  Ge29  1  0.250000  0.587618  0.603027  1
  Ge  Ge30  1  0.750000  0.088702  0.897314  1
  Ge  Ge31  1  0.750000  0.412542  0.397881  1
  Ge  Ge32  1  0.250000  0.593353  0.916092  1
  Ge  Ge33  1  0.250000  0.909887  0.427211  1
  Ge  Ge34  1  0.750000  0.409650  0.072326  1
  Ge  Ge35  1  0.750000  0.090610  0.573402  1
