# generated using pymatgen
data_Cs2SbAuS4
_symmetry_space_group_name_H-M   'P 1'
_cell_length_a   7.30452600
_cell_length_b   7.56873000
_cell_length_c   21.00259100
_cell_angle_alpha   90.00000000
_cell_angle_beta   90.00000000
_cell_angle_gamma   90.00000000
_symmetry_Int_Tables_number   1
_chemical_formula_structural   Cs2SbAuS4
_chemical_formula_sum   'Cs8 Sb4 Au4 S16'
_cell_volume   1161.14893250
_cell_formula_units_Z   4
loop_
 _symmetry_equiv_pos_site_id
 _symmetry_equiv_pos_as_xyz
  1  'x, y, z'
loop_
 _atom_site_type_symbol
 _atom_site_label
 _atom_site_symmetry_multiplicity
 _atom_site_fract_x
 _atom_site_fract_y
 _atom_site_fract_z
 _atom_site_occupancy
  Cs  Cs0  1  0.297393  0.750000  0.988433  1
  Cs  Cs1  1  0.900580  0.250000  0.329860  1
  Cs  Cs2  1  0.702607  0.250000  0.011567  1
  Cs  Cs3  1  0.297393  0.250000  0.511567  1
  Cs  Cs4  1  0.099420  0.750000  0.670140  1
  Cs  Cs5  1  0.099420  0.250000  0.829860  1
  Cs  Cs6  1  0.702607  0.750000  0.488433  1
  Cs  Cs7  1  0.900580  0.750000  0.170140  1
  Sb  Sb8  1  0.789346  0.750000  0.887427  1
  Sb  Sb9  1  0.789346  0.250000  0.612573  1
  Sb  Sb10  1  0.210654  0.250000  0.112573  1
  Sb  Sb11  1  0.210654  0.750000  0.387427  1
  Au  Au12  1  0.615360  0.000000  0.750000  1
  Au  Au13  1  0.384640  0.000000  0.250000  1
  Au  Au14  1  0.615360  0.500000  0.750000  1
  Au  Au15  1  0.384640  0.500000  0.250000  1
  S  S16  1  0.615111  0.510216  0.639971  1
  S  S17  1  0.796680  0.250000  0.501248  1
  S  S18  1  0.384889  0.010216  0.360029  1
  S  S19  1  0.077394  0.250000  0.660114  1
  S  S20  1  0.615111  0.989784  0.639971  1
  S  S21  1  0.615111  0.489784  0.860029  1
  S  S22  1  0.203320  0.250000  0.001248  1
  S  S23  1  0.922606  0.250000  0.160114  1
  S  S24  1  0.203320  0.750000  0.498752  1
  S  S25  1  0.384889  0.489784  0.360029  1
  S  S26  1  0.615111  0.010216  0.860029  1
  S  S27  1  0.384889  0.510216  0.139971  1
  S  S28  1  0.922606  0.750000  0.339886  1
  S  S29  1  0.796680  0.750000  0.998752  1
  S  S30  1  0.077394  0.750000  0.839886  1
  S  S31  1  0.384889  0.989784  0.139971  1
