# generated using pymatgen
data_Y2PuRu3
_symmetry_space_group_name_H-M   'P 1'
_cell_length_a   5.26560862
_cell_length_b   5.26560787
_cell_length_c   5.26560892
_cell_angle_alpha   66.69102600
_cell_angle_beta   66.69103230
_cell_angle_gamma   66.69102040
_symmetry_Int_Tables_number   1
_chemical_formula_structural   Y2PuRu3
_chemical_formula_sum   'Y2 Pu1 Ru3'
_cell_volume   118.08633499
_cell_formula_units_Z   1
loop_
 _symmetry_equiv_pos_site_id
 _symmetry_equiv_pos_as_xyz
  1  'x, y, z'
loop_
 _atom_site_type_symbol
 _atom_site_label
 _atom_site_symmetry_multiplicity
 _atom_site_fract_x
 _atom_site_fract_y
 _atom_site_fract_z
 _atom_site_occupancy
  Y  Y0  1  0.126590  0.126590  0.126590  1
  Y  Y1  1  0.873410  0.873410  0.873410  1
  Pu  Pu2  1  0.500000  0.500000  0.500000  1
  Ru  Ru3  1  0.500000  0.000000  0.500000  1
  Ru  Ru4  1  0.000000  0.500000  0.500000  1
  Ru  Ru5  1  0.500000  0.500000  0.000000  1
