# generated using pymatgen
data_Hf10AlSn5GeSb
_symmetry_space_group_name_H-M   'P 1'
_cell_length_a   8.65777586
_cell_length_b   8.67474323
_cell_length_c   5.81561400
_cell_angle_alpha   89.94137936
_cell_angle_beta   90.02937705
_cell_angle_gamma   120.06485344
_symmetry_Int_Tables_number   1
_chemical_formula_structural   Hf10AlSn5GeSb
_chemical_formula_sum   'Hf10 Al1 Sn5 Ge1 Sb1'
_cell_volume   378.01128007
_cell_formula_units_Z   1
loop_
 _symmetry_equiv_pos_site_id
 _symmetry_equiv_pos_as_xyz
  1  'x, y, z'
loop_
 _atom_site_type_symbol
 _atom_site_label
 _atom_site_symmetry_multiplicity
 _atom_site_fract_x
 _atom_site_fract_y
 _atom_site_fract_z
 _atom_site_occupancy
  Hf  Hf0  1  0.667953  0.333592  0.999640  1
  Hf  Hf1  1  0.332047  0.665640  0.999640  1
  Hf  Hf2  1  0.332451  0.665871  0.500489  1
  Hf  Hf3  1  0.667549  0.333419  0.500489  1
  Hf  Hf4  1  0.731876  0.731526  0.748107  1
  Hf  Hf5  1  0.268124  0.999650  0.748107  1
  Hf  Hf6  1  0.000000  0.269150  0.749510  1
  Hf  Hf7  1  0.266415  0.267521  0.251493  1
  Hf  Hf8  1  0.733585  0.001106  0.251493  1
  Hf  Hf9  1  0.000000  0.731419  0.251502  1
  Al  Al10  1  0.000000  0.999383  0.998710  1
  Sn  Sn11  1  0.390498  0.389830  0.751852  1
  Sn  Sn12  1  0.609502  0.999333  0.751852  1
  Sn  Sn13  1  0.000000  0.611039  0.751096  1
  Sn  Sn14  1  0.609779  0.609644  0.248197  1
  Sn  Sn15  1  0.390221  0.999865  0.248197  1
  Ge  Ge16  1  0.000000  0.999919  0.501021  1
  Sb  Sb17  1  0.000000  0.392092  0.248604  1
