# generated using pymatgen
data_Tm2ZnGa8Ru5
_symmetry_space_group_name_H-M   'P 1'
_cell_length_a   8.03059567
_cell_length_b   8.03059576
_cell_length_c   8.03059599
_cell_angle_alpha   135.08443265
_cell_angle_beta   135.08443783
_cell_angle_gamma   65.39903840
_symmetry_Int_Tables_number   1
_chemical_formula_structural   Tm2ZnGa8Ru5
_chemical_formula_sum   'Tm2 Zn1 Ga8 Ru5'
_cell_volume   254.38875616
_cell_formula_units_Z   1
loop_
 _symmetry_equiv_pos_site_id
 _symmetry_equiv_pos_as_xyz
  1  'x, y, z'
loop_
 _atom_site_type_symbol
 _atom_site_label
 _atom_site_symmetry_multiplicity
 _atom_site_fract_x
 _atom_site_fract_y
 _atom_site_fract_z
 _atom_site_occupancy
  Tm  Tm0  1  0.000000  0.500000  0.500000  1
  Tm  Tm1  1  0.500000  0.000000  0.500000  1
  Zn  Zn2  1  0.000000  0.000000  0.000000  1
  Ga  Ga3  1  0.434469  0.859386  0.000000  1
  Ga  Ga4  1  0.140614  0.140614  0.575083  1
  Ga  Ga5  1  0.859386  0.434469  0.000000  1
  Ga  Ga6  1  0.859386  0.859386  0.424917  1
  Ga  Ga7  1  0.565531  0.140614  0.000000  1
  Ga  Ga8  1  0.140614  0.565531  0.000000  1
  Ga  Ga9  1  0.565531  0.565531  0.424917  1
  Ga  Ga10  1  0.434469  0.434469  0.575083  1
  Ru  Ru11  1  0.186793  0.186793  0.000000  1
  Ru  Ru12  1  0.813207  0.813207  0.000000  1
  Ru  Ru13  1  0.250000  0.750000  0.500000  1
  Ru  Ru14  1  0.750000  0.250000  0.500000  1
  Ru  Ru15  1  0.500000  0.500000  0.000000  1
