# generated using pymatgen
data_TbLuOs3Ru
_symmetry_space_group_name_H-M   'P 1'
_cell_length_a   5.26952500
_cell_length_b   5.26952654
_cell_length_c   8.94931800
_cell_angle_alpha   90.00000000
_cell_angle_beta   90.00000000
_cell_angle_gamma   119.99999664
_symmetry_Int_Tables_number   1
_chemical_formula_structural   TbLuOs3Ru
_chemical_formula_sum   'Tb2 Lu2 Os6 Ru2'
_cell_volume   215.21059677
_cell_formula_units_Z   2
loop_
 _symmetry_equiv_pos_site_id
 _symmetry_equiv_pos_as_xyz
  1  'x, y, z'
loop_
 _atom_site_type_symbol
 _atom_site_label
 _atom_site_symmetry_multiplicity
 _atom_site_fract_x
 _atom_site_fract_y
 _atom_site_fract_z
 _atom_site_occupancy
  Tb  Tb0  1  0.333333  0.666667  0.433907  1
  Tb  Tb1  1  0.666667  0.333333  0.566093  1
  Lu  Lu2  1  0.666667  0.333333  0.934940  1
  Lu  Lu3  1  0.333333  0.666667  0.065060  1
  Os  Os4  1  0.170579  0.341160  0.753429  1
  Os  Os5  1  0.170579  0.829421  0.753429  1
  Os  Os6  1  0.341160  0.170579  0.246571  1
  Os  Os7  1  0.829421  0.658840  0.246571  1
  Os  Os8  1  0.658840  0.829421  0.753429  1
  Os  Os9  1  0.829421  0.170579  0.246571  1
  Ru  Ru10  1  0.000000  0.000000  0.000000  1
  Ru  Ru11  1  0.000000  0.000000  0.500000  1
