# generated using pymatgen
data_NdTm2Co(P3Rh4)2
_symmetry_space_group_name_H-M   'P 1'
_cell_length_a   3.86638800
_cell_length_b   11.13517900
_cell_length_c   12.81826300
_cell_angle_alpha   90.00000000
_cell_angle_beta   90.00000000
_cell_angle_gamma   90.00000000
_symmetry_Int_Tables_number   1
_chemical_formula_structural   NdTm2Co(P3Rh4)2
_chemical_formula_sum   'Nd2 Tm4 Co2 P12 Rh16'
_cell_volume   551.86368306
_cell_formula_units_Z   2
loop_
 _symmetry_equiv_pos_site_id
 _symmetry_equiv_pos_as_xyz
  1  'x, y, z'
loop_
 _atom_site_type_symbol
 _atom_site_label
 _atom_site_symmetry_multiplicity
 _atom_site_fract_x
 _atom_site_fract_y
 _atom_site_fract_z
 _atom_site_occupancy
  Nd  Nd0  1  0.000000  0.500000  0.522608  1
  Nd  Nd1  1  0.500000  0.000000  0.477392  1
  Tm  Tm2  1  0.500000  0.814865  0.201434  1
  Tm  Tm3  1  0.500000  0.185135  0.201434  1
  Tm  Tm4  1  0.000000  0.685135  0.798566  1
  Tm  Tm5  1  0.000000  0.314865  0.798566  1
  Co  Co6  1  0.000000  0.500000  0.978925  1
  Co  Co7  1  0.500000  0.000000  0.021075  1
  P  P8  1  0.500000  0.500000  0.882543  1
  P  P9  1  0.000000  0.000000  0.117457  1
  P  P10  1  0.500000  0.500000  0.347930  1
  P  P11  1  0.000000  0.000000  0.652070  1
  P  P12  1  0.500000  0.314441  0.621755  1
  P  P13  1  0.500000  0.685559  0.621755  1
  P  P14  1  0.000000  0.185559  0.378245  1
  P  P15  1  0.000000  0.814441  0.378245  1
  P  P16  1  0.500000  0.852665  0.896591  1
  P  P17  1  0.500000  0.147335  0.896591  1
  P  P18  1  0.000000  0.647335  0.103409  1
  P  P19  1  0.000000  0.352665  0.103409  1
  Rh  Rh20  1  0.500000  0.500000  0.166447  1
  Rh  Rh21  1  0.000000  0.000000  0.833553  1
  Rh  Rh22  1  0.500000  0.500000  0.707317  1
  Rh  Rh23  1  0.000000  0.000000  0.292683  1
  Rh  Rh24  1  0.500000  0.336228  0.993476  1
  Rh  Rh25  1  0.500000  0.663772  0.993476  1
  Rh  Rh26  1  0.000000  0.163772  0.006524  1
  Rh  Rh27  1  0.000000  0.836228  0.006524  1
  Rh  Rh28  1  0.500000  0.292315  0.428415  1
  Rh  Rh29  1  0.500000  0.707685  0.428415  1
  Rh  Rh30  1  0.000000  0.207685  0.571585  1
  Rh  Rh31  1  0.000000  0.792315  0.571585  1
  Rh  Rh32  1  0.500000  0.872831  0.714491  1
  Rh  Rh33  1  0.500000  0.127169  0.714491  1
  Rh  Rh34  1  0.000000  0.627169  0.285509  1
  Rh  Rh35  1  0.000000  0.372831  0.285509  1
