# generated using pymatgen
data_LiNd3Cd3PdPt
_symmetry_space_group_name_H-M   'P 1'
_cell_length_a   7.94875200
_cell_length_b   7.94875136
_cell_length_c   3.87735600
_cell_angle_alpha   90.00000000
_cell_angle_beta   90.00000000
_cell_angle_gamma   119.99999434
_symmetry_Int_Tables_number   1
_chemical_formula_structural   LiNd3Cd3PdPt
_chemical_formula_sum   'Li1 Nd3 Cd3 Pd1 Pt1'
_cell_volume   212.16033563
_cell_formula_units_Z   1
loop_
 _symmetry_equiv_pos_site_id
 _symmetry_equiv_pos_as_xyz
  1  'x, y, z'
loop_
 _atom_site_type_symbol
 _atom_site_label
 _atom_site_symmetry_multiplicity
 _atom_site_fract_x
 _atom_site_fract_y
 _atom_site_fract_z
 _atom_site_occupancy
  Li  Li0  1  0.000000  0.000000  0.000000  1
  Nd  Nd1  1  0.577122  0.994921  0.000000  1
  Nd  Nd2  1  0.005079  0.582201  0.000000  1
  Nd  Nd3  1  0.417799  0.422878  0.000000  1
  Cd  Cd4  1  0.247535  0.001475  0.500000  1
  Cd  Cd5  1  0.998525  0.246060  0.500000  1
  Cd  Cd6  1  0.753940  0.752465  0.500000  1
  Pd  Pd7  1  0.666667  0.333333  0.500000  1
  Pt  Pt8  1  0.333333  0.666667  0.500000  1
