# generated using pymatgen
data_Dy8Tm4ZnCo4Sn
_symmetry_space_group_name_H-M   'P 1'
_cell_length_a   8.31119949
_cell_length_b   8.31119853
_cell_length_c   8.31119951
_cell_angle_alpha   112.04062297
_cell_angle_beta   109.20596731
_cell_angle_gamma   107.20378409
_symmetry_Int_Tables_number   1
_chemical_formula_structural   Dy8Tm4ZnCo4Sn
_chemical_formula_sum   'Dy8 Tm4 Zn1 Co4 Sn1'
_cell_volume   441.14755144
_cell_formula_units_Z   1
loop_
 _symmetry_equiv_pos_site_id
 _symmetry_equiv_pos_as_xyz
  1  'x, y, z'
loop_
 _atom_site_type_symbol
 _atom_site_label
 _atom_site_symmetry_multiplicity
 _atom_site_fract_x
 _atom_site_fract_y
 _atom_site_fract_z
 _atom_site_occupancy
  Dy  Dy0  1  0.429696  0.228859  0.200837  1
  Dy  Dy1  1  0.570304  0.771141  0.799163  1
  Dy  Dy2  1  0.028022  0.228859  0.799163  1
  Dy  Dy3  1  0.971978  0.771141  0.200837  1
  Dy  Dy4  1  0.181473  0.283468  0.464941  1
  Dy  Dy5  1  0.818527  0.716532  0.535059  1
  Dy  Dy6  1  0.181473  0.716532  0.898004  1
  Dy  Dy7  1  0.818527  0.283468  0.101996  1
  Tm  Tm8  1  0.324323  0.637435  0.313109  1
  Tm  Tm9  1  0.675677  0.362565  0.686891  1
  Tm  Tm10  1  0.324323  0.011214  0.686891  1
  Tm  Tm11  1  0.675677  0.988786  0.313109  1
  Zn  Zn12  1  0.000000  0.000000  0.000000  1
  Co  Co13  1  0.348243  0.000000  0.348243  1
  Co  Co14  1  0.651757  0.000000  0.651757  1
  Co  Co15  1  0.114606  0.614606  0.500000  1
  Co  Co16  1  0.885394  0.385394  0.500000  1
  Sn  Sn17  1  0.500000  0.500000  0.000000  1
