# generated using pymatgen
data_Sc2Co9P6Ru
_symmetry_space_group_name_H-M   'P 1'
_cell_length_a   3.60946600
_cell_length_b   10.19884100
_cell_length_c   11.64277600
_cell_angle_alpha   90.00000000
_cell_angle_beta   90.00000000
_cell_angle_gamma   90.00000000
_symmetry_Int_Tables_number   1
_chemical_formula_structural   Sc2Co9P6Ru
_chemical_formula_sum   'Sc4 Co18 P12 Ru2'
_cell_volume   428.59817595
_cell_formula_units_Z   2
loop_
 _symmetry_equiv_pos_site_id
 _symmetry_equiv_pos_as_xyz
  1  'x, y, z'
loop_
 _atom_site_type_symbol
 _atom_site_label
 _atom_site_symmetry_multiplicity
 _atom_site_fract_x
 _atom_site_fract_y
 _atom_site_fract_z
 _atom_site_occupancy
  Sc  Sc0  1  0.250000  0.581219  0.702085  1
  Sc  Sc1  1  0.250000  0.918781  0.202085  1
  Sc  Sc2  1  0.750000  0.415165  0.295308  1
  Sc  Sc3  1  0.750000  0.084835  0.795308  1
  Co  Co4  1  0.750000  0.281624  0.008004  1
  Co  Co5  1  0.750000  0.218376  0.508004  1
  Co  Co6  1  0.250000  0.406966  0.485663  1
  Co  Co7  1  0.250000  0.093034  0.985663  1
  Co  Co8  1  0.750000  0.589469  0.513362  1
  Co  Co9  1  0.750000  0.910531  0.013362  1
  Co  Co10  1  0.250000  0.221059  0.177130  1
  Co  Co11  1  0.250000  0.278942  0.677130  1
  Co  Co12  1  0.750000  0.777986  0.822494  1
  Co  Co13  1  0.750000  0.722014  0.322494  1
  Co  Co14  1  0.250000  0.887255  0.702583  1
  Co  Co15  1  0.250000  0.612745  0.202583  1
  Co  Co16  1  0.750000  0.116451  0.299661  1
  Co  Co17  1  0.750000  0.383549  0.799661  1
  Co  Co18  1  0.250000  0.463322  0.931558  1
  Co  Co19  1  0.250000  0.036678  0.431558  1
  Co  Co20  1  0.750000  0.533422  0.070083  1
  Co  Co21  1  0.750000  0.966578  0.570083  1
  P  P22  1  0.250000  0.417307  0.114794  1
  P  P23  1  0.250000  0.082693  0.614794  1
  P  P24  1  0.750000  0.578280  0.884336  1
  P  P25  1  0.750000  0.921720  0.384336  1
  P  P26  1  0.250000  0.265305  0.867999  1
  P  P27  1  0.250000  0.234695  0.367999  1
  P  P28  1  0.750000  0.734081  0.133749  1
  P  P29  1  0.750000  0.765919  0.633749  1
  P  P30  1  0.250000  0.591928  0.388554  1
  P  P31  1  0.250000  0.908072  0.888554  1
  P  P32  1  0.750000  0.400252  0.610366  1
  P  P33  1  0.750000  0.099748  0.110366  1
  Ru  Ru34  1  0.250000  0.716843  0.992272  1
  Ru  Ru35  1  0.250000  0.783157  0.492272  1
