# generated using pymatgen
data_Tm8In2PtRh
_symmetry_space_group_name_H-M   'P 1'
_cell_length_a   9.56063165
_cell_length_b   9.57116976
_cell_length_c   9.56063187
_cell_angle_alpha   59.96353939
_cell_angle_beta   60.08957616
_cell_angle_gamma   59.96353817
_symmetry_Int_Tables_number   1
_chemical_formula_structural   Tm8In2PtRh
_chemical_formula_sum   'Tm16 In4 Pt2 Rh2'
_cell_volume   618.69478686
_cell_formula_units_Z   2
loop_
 _symmetry_equiv_pos_site_id
 _symmetry_equiv_pos_as_xyz
  1  'x, y, z'
loop_
 _atom_site_type_symbol
 _atom_site_label
 _atom_site_symmetry_multiplicity
 _atom_site_fract_x
 _atom_site_fract_y
 _atom_site_fract_z
 _atom_site_occupancy
  Tm  Tm0  1  0.809614  0.810077  0.193041  1
  Tm  Tm1  1  0.809324  0.190676  0.809324  1
  Tm  Tm2  1  0.193041  0.187267  0.809614  1
  Tm  Tm3  1  0.649139  0.048266  0.649139  1
  Tm  Tm4  1  0.061917  0.062434  0.436971  1
  Tm  Tm5  1  0.436971  0.438678  0.061917  1
  Tm  Tm6  1  0.649139  0.653457  0.649139  1
  Tm  Tm7  1  0.809614  0.187267  0.193041  1
  Tm  Tm8  1  0.193041  0.810077  0.809614  1
  Tm  Tm9  1  0.053904  0.650318  0.645460  1
  Tm  Tm10  1  0.436971  0.062434  0.061917  1
  Tm  Tm11  1  0.436878  0.063122  0.436878  1
  Tm  Tm12  1  0.061008  0.438992  0.061008  1
  Tm  Tm13  1  0.645460  0.650318  0.053904  1
  Tm  Tm14  1  0.189588  0.810412  0.189588  1
  Tm  Tm15  1  0.061917  0.438678  0.436971  1
  In  In16  1  0.417020  0.416767  0.417020  1
  In  In17  1  0.417715  0.416874  0.748535  1
  In  In18  1  0.417020  0.749192  0.417020  1
  In  In19  1  0.748535  0.416874  0.417715  1
  Pt  Pt20  1  0.858129  0.428256  0.858129  1
  Pt  Pt21  1  0.858129  0.855487  0.858129  1
  Rh  Rh22  1  0.859328  0.857039  0.426595  1
  Rh  Rh23  1  0.426595  0.857039  0.859328  1
