# generated using pymatgen
data_YbTmB6Ru
_symmetry_space_group_name_H-M   'P 1'
_cell_length_a   3.63523700
_cell_length_b   9.10905200
_cell_length_c   11.47514200
_cell_angle_alpha   90.00000000
_cell_angle_beta   90.00000000
_cell_angle_gamma   90.00000000
_symmetry_Int_Tables_number   1
_chemical_formula_structural   YbTmB6Ru
_chemical_formula_sum   'Yb4 Tm4 B24 Ru4'
_cell_volume   379.98283601
_cell_formula_units_Z   4
loop_
 _symmetry_equiv_pos_site_id
 _symmetry_equiv_pos_as_xyz
  1  'x, y, z'
loop_
 _atom_site_type_symbol
 _atom_site_label
 _atom_site_symmetry_multiplicity
 _atom_site_fract_x
 _atom_site_fract_y
 _atom_site_fract_z
 _atom_site_occupancy
  Yb  Yb0  1  0.000000  0.324980  0.415068  1
  Yb  Yb1  1  0.000000  0.675020  0.584932  1
  Yb  Yb2  1  0.000000  0.824980  0.084932  1
  Yb  Yb3  1  0.000000  0.175020  0.915068  1
  Tm  Tm4  1  0.000000  0.942153  0.366466  1
  Tm  Tm5  1  0.000000  0.057847  0.633534  1
  Tm  Tm6  1  0.000000  0.442153  0.133534  1
  Tm  Tm7  1  0.000000  0.557847  0.866466  1
  B  B8  1  0.500000  0.554081  0.433094  1
  B  B9  1  0.500000  0.445919  0.566906  1
  B  B10  1  0.500000  0.054081  0.066906  1
  B  B11  1  0.500000  0.945919  0.933094  1
  B  B12  1  0.500000  0.749718  0.417350  1
  B  B13  1  0.500000  0.250282  0.582650  1
  B  B14  1  0.500000  0.249718  0.082650  1
  B  B15  1  0.500000  0.750282  0.917350  1
  B  B16  1  0.500000  0.791270  0.263939  1
  B  B17  1  0.500000  0.208730  0.736061  1
  B  B18  1  0.500000  0.291270  0.236061  1
  B  B19  1  0.500000  0.708730  0.763939  1
  B  B20  1  0.500000  0.631008  0.185277  1
  B  B21  1  0.500000  0.368992  0.814723  1
  B  B22  1  0.500000  0.131008  0.314723  1
  B  B23  1  0.500000  0.868992  0.685277  1
  B  B24  1  0.500000  0.983272  0.211108  1
  B  B25  1  0.500000  0.016728  0.788892  1
  B  B26  1  0.500000  0.483272  0.288892  1
  B  B27  1  0.500000  0.516728  0.711108  1
  B  B28  1  0.500000  0.596166  0.026346  1
  B  B29  1  0.500000  0.403834  0.973654  1
  B  B30  1  0.500000  0.096166  0.473654  1
  B  B31  1  0.500000  0.903834  0.526346  1
  Ru  Ru32  1  0.000000  0.639311  0.320195  1
  Ru  Ru33  1  0.000000  0.360689  0.679805  1
  Ru  Ru34  1  0.000000  0.139311  0.179805  1
  Ru  Ru35  1  0.000000  0.860689  0.820195  1
