# generated using pymatgen
data_Rb4CaI6
_symmetry_space_group_name_H-M   'P 1'
_cell_length_a   10.19129959
_cell_length_b   10.19129967
_cell_length_c   10.19129970
_cell_angle_alpha   89.79682699
_cell_angle_beta   89.79682663
_cell_angle_gamma   89.79682936
_symmetry_Int_Tables_number   1
_chemical_formula_structural   Rb4CaI6
_chemical_formula_sum   'Rb8 Ca2 I12'
_cell_volume   1058.47484685
_cell_formula_units_Z   2
loop_
 _symmetry_equiv_pos_site_id
 _symmetry_equiv_pos_as_xyz
  1  'x, y, z'
loop_
 _atom_site_type_symbol
 _atom_site_label
 _atom_site_symmetry_multiplicity
 _atom_site_fract_x
 _atom_site_fract_y
 _atom_site_fract_z
 _atom_site_occupancy
  Rb  Rb0  1  0.250000  0.250000  0.250000  1
  Rb  Rb1  1  0.750000  0.750000  0.750000  1
  Rb  Rb2  1  0.750000  0.129876  0.370124  1
  Rb  Rb3  1  0.370124  0.750000  0.129876  1
  Rb  Rb4  1  0.129876  0.370124  0.750000  1
  Rb  Rb5  1  0.250000  0.870124  0.629876  1
  Rb  Rb6  1  0.629876  0.250000  0.870124  1
  Rb  Rb7  1  0.870124  0.629876  0.250000  1
  Ca  Ca8  1  0.000000  0.000000  0.000000  1
  Ca  Ca9  1  0.500000  0.500000  0.500000  1
  I  I10  1  0.442254  0.571371  0.797431  1
  I  I11  1  0.797431  0.442254  0.571371  1
  I  I12  1  0.571371  0.797431  0.442254  1
  I  I13  1  0.057746  0.702569  0.928629  1
  I  I14  1  0.928629  0.057746  0.702569  1
  I  I15  1  0.702569  0.928629  0.057746  1
  I  I16  1  0.557746  0.428629  0.202569  1
  I  I17  1  0.202569  0.557746  0.428629  1
  I  I18  1  0.428629  0.202569  0.557746  1
  I  I19  1  0.942254  0.297431  0.071371  1
  I  I20  1  0.297431  0.071371  0.942254  1
  I  I21  1  0.071371  0.942254  0.297431  1
