# generated using pymatgen
data_ScTl8(MoBr8)3
_symmetry_space_group_name_H-M   'P 1'
_cell_length_a   13.26601655
_cell_length_b   13.26601597
_cell_length_c   13.26601600
_cell_angle_alpha   131.92677130
_cell_angle_beta   131.92676903
_cell_angle_gamma   70.34470868
_symmetry_Int_Tables_number   1
_chemical_formula_structural   ScTl8(MoBr8)3
_chemical_formula_sum   'Sc1 Tl8 Mo3 Br24'
_cell_volume   1266.48666171
_cell_formula_units_Z   1
loop_
 _symmetry_equiv_pos_site_id
 _symmetry_equiv_pos_as_xyz
  1  'x, y, z'
loop_
 _atom_site_type_symbol
 _atom_site_label
 _atom_site_symmetry_multiplicity
 _atom_site_fract_x
 _atom_site_fract_y
 _atom_site_fract_z
 _atom_site_occupancy
  Sc  Sc0  1  0.000000  0.000000  0.000000  1
  Tl  Tl1  1  0.116055  0.649927  0.999186  1
  Tl  Tl2  1  0.350073  0.883945  0.000814  1
  Tl  Tl3  1  0.650742  0.649927  0.533872  1
  Tl  Tl4  1  0.350073  0.349258  0.466128  1
  Tl  Tl5  1  0.883131  0.349258  0.999186  1
  Tl  Tl6  1  0.883131  0.883945  0.533872  1
  Tl  Tl7  1  0.116055  0.116869  0.466128  1
  Tl  Tl8  1  0.650742  0.116869  0.000814  1
  Mo  Mo9  1  0.750000  0.250000  0.500000  1
  Mo  Mo10  1  0.500000  0.500000  0.000000  1
  Mo  Mo11  1  0.250000  0.750000  0.500000  1
  Br  Br12  1  0.246306  0.999965  0.246341  1
  Br  Br13  1  0.000035  0.753694  0.753659  1
  Br  Br14  1  0.249142  0.984181  0.735039  1
  Br  Br15  1  0.750951  0.485792  0.734841  1
  Br  Br16  1  0.485896  0.750858  0.735039  1
  Br  Br17  1  0.122949  0.122949  0.000000  1
  Br  Br18  1  0.499910  0.736283  0.236374  1
  Br  Br19  1  0.867798  0.367798  0.500000  1
  Br  Br20  1  0.000035  0.246377  0.246341  1
  Br  Br21  1  0.383488  0.383488  0.000000  1
  Br  Br22  1  0.616512  0.616512  0.000000  1
  Br  Br23  1  0.499910  0.263536  0.763626  1
  Br  Br24  1  0.263717  0.500090  0.763626  1
  Br  Br25  1  0.514208  0.249049  0.265159  1
  Br  Br26  1  0.367801  0.867801  0.500000  1
  Br  Br27  1  0.632202  0.132202  0.500000  1
  Br  Br28  1  0.249142  0.514104  0.264961  1
  Br  Br29  1  0.132199  0.632199  0.500000  1
  Br  Br30  1  0.015819  0.750858  0.264961  1
  Br  Br31  1  0.983890  0.249049  0.734841  1
  Br  Br32  1  0.753623  0.999965  0.753659  1
  Br  Br33  1  0.736464  0.500090  0.236374  1
  Br  Br34  1  0.750951  0.016110  0.265159  1
  Br  Br35  1  0.877051  0.877051  0.000000  1
