# generated using pymatgen
data_Zr3Ga3RuRhAu
_symmetry_space_group_name_H-M   'P 1'
_cell_length_a   7.32542500
_cell_length_b   7.32542549
_cell_length_c   3.45410400
_cell_angle_alpha   90.00000000
_cell_angle_beta   90.00000000
_cell_angle_gamma   119.99999326
_symmetry_Int_Tables_number   1
_chemical_formula_structural   Zr3Ga3RuRhAu
_chemical_formula_sum   'Zr3 Ga3 Ru1 Rh1 Au1'
_cell_volume   160.52096153
_cell_formula_units_Z   1
loop_
 _symmetry_equiv_pos_site_id
 _symmetry_equiv_pos_as_xyz
  1  'x, y, z'
loop_
 _atom_site_type_symbol
 _atom_site_label
 _atom_site_symmetry_multiplicity
 _atom_site_fract_x
 _atom_site_fract_y
 _atom_site_fract_z
 _atom_site_occupancy
  Zr  Zr0  1  0.979406  0.381021  0.500000  1
  Zr  Zr1  1  0.618979  0.598385  0.500000  1
  Zr  Zr2  1  0.401615  0.020594  0.500000  1
  Ga  Ga3  1  0.999789  0.733249  0.000000  1
  Ga  Ga4  1  0.266751  0.266540  0.000000  1
  Ga  Ga5  1  0.733460  0.000211  0.000000  1
  Ru  Ru6  1  0.666667  0.333333  0.000000  1
  Rh  Rh7  1  0.000000  0.000000  0.500000  1
  Au  Au8  1  0.333333  0.666667  0.000000  1
