# generated using pymatgen
data_NaSc6Co6Sn23
_symmetry_space_group_name_H-M   'P 1'
_cell_length_a   9.55279800
_cell_length_b   9.55279822
_cell_length_c   9.78440300
_cell_angle_alpha   90.00000000
_cell_angle_beta   90.00000000
_cell_angle_gamma   119.99999924
_symmetry_Int_Tables_number   1
_chemical_formula_structural   NaSc6Co6Sn23
_chemical_formula_sum   'Na1 Sc6 Co6 Sn23'
_cell_volume   773.26110549
_cell_formula_units_Z   1
loop_
 _symmetry_equiv_pos_site_id
 _symmetry_equiv_pos_as_xyz
  1  'x, y, z'
loop_
 _atom_site_type_symbol
 _atom_site_label
 _atom_site_symmetry_multiplicity
 _atom_site_fract_x
 _atom_site_fract_y
 _atom_site_fract_z
 _atom_site_occupancy
  Na  Na0  1  0.000000  0.000000  0.000000  1
  Sc  Sc1  1  0.516712  0.483288  0.692966  1
  Sc  Sc2  1  0.516712  0.033422  0.692966  1
  Sc  Sc3  1  0.966578  0.483288  0.692966  1
  Sc  Sc4  1  0.033422  0.516712  0.307034  1
  Sc  Sc5  1  0.483288  0.966578  0.307034  1
  Sc  Sc6  1  0.483288  0.516712  0.307034  1
  Co  Co7  1  0.171972  0.828028  0.797379  1
  Co  Co8  1  0.171972  0.343945  0.797379  1
  Co  Co9  1  0.656055  0.828028  0.797379  1
  Co  Co10  1  0.343945  0.171972  0.202621  1
  Co  Co11  1  0.828028  0.656055  0.202621  1
  Co  Co12  1  0.828028  0.171972  0.202621  1
  Sn  Sn13  1  0.666667  0.333333  0.178704  1
  Sn  Sn14  1  0.666667  0.333333  0.864131  1
  Sn  Sn15  1  0.333333  0.666667  0.135869  1
  Sn  Sn16  1  0.345395  0.345395  0.000000  1
  Sn  Sn17  1  0.000000  0.654605  0.000000  1
  Sn  Sn18  1  0.654605  0.000000  0.000000  1
  Sn  Sn19  1  0.654605  0.654605  0.000000  1
  Sn  Sn20  1  0.333333  0.666667  0.821296  1
  Sn  Sn21  1  0.441572  0.220786  0.456139  1
  Sn  Sn22  1  0.220786  0.779214  0.543861  1
  Sn  Sn23  1  0.220786  0.441572  0.543861  1
  Sn  Sn24  1  0.558428  0.779214  0.543861  1
  Sn  Sn25  1  0.120791  0.879209  0.274528  1
  Sn  Sn26  1  0.779214  0.558428  0.456139  1
  Sn  Sn27  1  0.779214  0.220786  0.456139  1
  Sn  Sn28  1  0.345395  0.000000  0.000000  1
  Sn  Sn29  1  0.120791  0.241581  0.274528  1
  Sn  Sn30  1  0.758419  0.879209  0.274528  1
  Sn  Sn31  1  0.241581  0.120791  0.725472  1
  Sn  Sn32  1  0.879209  0.758419  0.725472  1
  Sn  Sn33  1  0.879209  0.120791  0.725472  1
  Sn  Sn34  1  0.000000  0.000000  0.500000  1
  Sn  Sn35  1  0.000000  0.345395  0.000000  1
