# generated using pymatgen
data_PrEr2As4Pd7
_symmetry_space_group_name_H-M   'P 1'
_cell_length_a   8.09999939
_cell_length_b   8.09999972
_cell_length_c   9.70524956
_cell_angle_alpha   55.98944456
_cell_angle_beta   55.98944424
_cell_angle_gamma   29.46967938
_symmetry_Int_Tables_number   1
_chemical_formula_structural   PrEr2As4Pd7
_chemical_formula_sum   'Pr1 Er2 As4 Pd7'
_cell_volume   255.55280306
_cell_formula_units_Z   1
loop_
 _symmetry_equiv_pos_site_id
 _symmetry_equiv_pos_as_xyz
  1  'x, y, z'
loop_
 _atom_site_type_symbol
 _atom_site_label
 _atom_site_symmetry_multiplicity
 _atom_site_fract_x
 _atom_site_fract_y
 _atom_site_fract_z
 _atom_site_occupancy
  Pr  Pr0  1  0.500000  0.500000  0.500000  1
  Er  Er1  1  0.823819  0.823819  0.169405  1
  Er  Er2  1  0.176181  0.176181  0.830595  1
  As  As3  1  0.392432  0.392432  0.319026  1
  As  As4  1  0.607568  0.607568  0.680974  1
  As  As5  1  0.837095  0.837095  0.756995  1
  As  As6  1  0.162905  0.162905  0.243005  1
  Pd  Pd7  1  0.668831  0.668831  0.069439  1
  Pd  Pd8  1  0.012288  0.012288  0.203818  1
  Pd  Pd9  1  0.987712  0.987712  0.796182  1
  Pd  Pd10  1  0.500000  0.500000  0.000000  1
  Pd  Pd11  1  0.193972  0.193972  0.473240  1
  Pd  Pd12  1  0.806028  0.806028  0.526760  1
  Pd  Pd13  1  0.331169  0.331169  0.930561  1
