# generated using pymatgen
data_Er3ScGa2(B2Ru5)2
_symmetry_space_group_name_H-M   'P 1'
_cell_length_a   9.49459542
_cell_length_b   9.49459542
_cell_length_c   3.09708800
_cell_angle_alpha   90.00000000
_cell_angle_beta   90.00000000
_cell_angle_gamma   89.37235354
_symmetry_Int_Tables_number   1
_chemical_formula_structural   Er3ScGa2(B2Ru5)2
_chemical_formula_sum   'Er3 Sc1 Ga2 B4 Ru10'
_cell_volume   279.17750008
_cell_formula_units_Z   1
loop_
 _symmetry_equiv_pos_site_id
 _symmetry_equiv_pos_as_xyz
  1  'x, y, z'
loop_
 _atom_site_type_symbol
 _atom_site_label
 _atom_site_symmetry_multiplicity
 _atom_site_fract_x
 _atom_site_fract_y
 _atom_site_fract_z
 _atom_site_occupancy
  Er  Er0  1  0.676227  0.175734  0.000000  1
  Er  Er1  1  0.324266  0.823773  0.000000  1
  Er  Er2  1  0.174309  0.325691  0.000000  1
  Sc  Sc3  1  0.825553  0.674447  0.000000  1
  Ga  Ga4  1  0.000894  0.002889  0.000000  1
  Ga  Ga5  1  0.497111  0.499106  0.000000  1
  B  B6  1  0.120424  0.624860  0.000000  1
  B  B7  1  0.875140  0.379576  0.000000  1
  B  B8  1  0.627412  0.872588  0.000000  1
  B  B9  1  0.378086  0.121914  0.000000  1
  Ru  Ru10  1  0.218326  0.070354  0.500000  1
  Ru  Ru11  1  0.787056  0.922244  0.500000  1
  Ru  Ru12  1  0.063299  0.783792  0.500000  1
  Ru  Ru13  1  0.716208  0.436701  0.500000  1
  Ru  Ru14  1  0.929614  0.218968  0.500000  1
  Ru  Ru15  1  0.281032  0.570386  0.500000  1
  Ru  Ru16  1  0.577756  0.712944  0.500000  1
  Ru  Ru17  1  0.429646  0.281674  0.500000  1
  Ru  Ru18  1  0.502457  0.997543  0.500000  1
  Ru  Ru19  1  0.995184  0.504816  0.500000  1
