# generated using pymatgen
data_PrNd9Al3ZnRu6
_symmetry_space_group_name_H-M   'P 1'
_cell_length_a   8.57256049
_cell_length_b   8.57312058
_cell_length_c   8.57305120
_cell_angle_alpha   109.63029784
_cell_angle_beta   109.62495301
_cell_angle_gamma   109.62621781
_symmetry_Int_Tables_number   1
_chemical_formula_structural   PrNd9Al3ZnRu6
_chemical_formula_sum   'Pr1 Nd9 Al3 Zn1 Ru6'
_cell_volume   482.20322039
_cell_formula_units_Z   1
loop_
 _symmetry_equiv_pos_site_id
 _symmetry_equiv_pos_as_xyz
  1  'x, y, z'
loop_
 _atom_site_type_symbol
 _atom_site_label
 _atom_site_symmetry_multiplicity
 _atom_site_fract_x
 _atom_site_fract_y
 _atom_site_fract_z
 _atom_site_occupancy
  Pr  Pr0  1  0.000267  0.284434  0.500396  1
  Nd  Nd1  1  0.251421  0.684318  0.435467  1
  Nd  Nd2  1  0.748194  0.814265  0.063925  1
  Nd  Nd3  1  0.435589  0.251351  0.684234  1
  Nd  Nd4  1  0.684128  0.435548  0.251288  1
  Nd  Nd5  1  0.064027  0.748371  0.814457  1
  Nd  Nd6  1  0.814328  0.063945  0.748289  1
  Nd  Nd7  1  0.218138  0.218047  0.218018  1
  Nd  Nd8  1  0.500282  0.000156  0.284598  1
  Nd  Nd9  1  0.284734  0.500462  0.000381  1
  Al  Al10  1  0.499144  0.000917  0.908980  1
  Al  Al11  1  0.908980  0.499155  0.000945  1
  Al  Al12  1  0.000921  0.908808  0.499147  1
  Zn  Zn13  1  0.588531  0.588522  0.588525  1
  Ru  Ru14  1  0.250155  0.117817  0.868908  1
  Ru  Ru15  1  0.754420  0.376400  0.633643  1
  Ru  Ru16  1  0.868801  0.250199  0.117572  1
  Ru  Ru17  1  0.117861  0.868893  0.250182  1
  Ru  Ru18  1  0.633527  0.754569  0.376274  1
  Ru  Ru19  1  0.376551  0.633823  0.754773  1
