# generated using pymatgen
data_LaTmFe3Re14C3
_symmetry_space_group_name_H-M   'P 1'
_cell_length_a   6.94571616
_cell_length_b   6.94571841
_cell_length_c   6.94571732
_cell_angle_alpha   82.49960823
_cell_angle_beta   82.49960606
_cell_angle_gamma   82.49960949
_symmetry_Int_Tables_number   1
_chemical_formula_structural   LaTmFe3Re14C3
_chemical_formula_sum   'La1 Tm1 Fe3 Re14 C3'
_cell_volume   327.16988711
_cell_formula_units_Z   1
loop_
 _symmetry_equiv_pos_site_id
 _symmetry_equiv_pos_as_xyz
  1  'x, y, z'
loop_
 _atom_site_type_symbol
 _atom_site_label
 _atom_site_symmetry_multiplicity
 _atom_site_fract_x
 _atom_site_fract_y
 _atom_site_fract_z
 _atom_site_occupancy
  La  La0  1  0.648291  0.648291  0.648291  1
  Tm  Tm1  1  0.349726  0.349726  0.349726  1
  Fe  Fe2  1  0.999359  0.999359  0.500411  1
  Fe  Fe3  1  0.500411  0.999359  0.999359  1
  Fe  Fe4  1  0.999359  0.500411  0.999359  1
  Re  Re5  1  0.721987  0.277397  0.000802  1
  Re  Re6  1  0.000802  0.721987  0.277397  1
  Re  Re7  1  0.277397  0.000802  0.721987  1
  Re  Re8  1  0.000802  0.277397  0.721987  1
  Re  Re9  1  0.721987  0.000802  0.277397  1
  Re  Re10  1  0.277397  0.721987  0.000802  1
  Re  Re11  1  0.344890  0.344890  0.864031  1
  Re  Re12  1  0.864031  0.344890  0.344890  1
  Re  Re13  1  0.344890  0.864031  0.344890  1
  Re  Re14  1  0.653255  0.653255  0.139981  1
  Re  Re15  1  0.139981  0.653255  0.653255  1
  Re  Re16  1  0.653255  0.139981  0.653255  1
  Re  Re17  1  0.899185  0.899185  0.899185  1
  Re  Re18  1  0.101955  0.101955  0.101955  1
  C  C19  1  0.495290  0.495290  0.010458  1
  C  C20  1  0.010458  0.495290  0.495290  1
  C  C21  1  0.495290  0.010458  0.495290  1
