# generated using pymatgen
data_TmTh2(InIr)3
_symmetry_space_group_name_H-M   'P 1'
_cell_length_a   7.71015071
_cell_length_b   7.71015066
_cell_length_c   3.94739700
_cell_angle_alpha   90.00000000
_cell_angle_beta   90.00000000
_cell_angle_gamma   120.72592825
_symmetry_Int_Tables_number   1
_chemical_formula_structural   TmTh2(InIr)3
_chemical_formula_sum   'Tm1 Th2 In3 Ir3'
_cell_volume   201.71752380
_cell_formula_units_Z   1
loop_
 _symmetry_equiv_pos_site_id
 _symmetry_equiv_pos_as_xyz
  1  'x, y, z'
loop_
 _atom_site_type_symbol
 _atom_site_label
 _atom_site_symmetry_multiplicity
 _atom_site_fract_x
 _atom_site_fract_y
 _atom_site_fract_z
 _atom_site_occupancy
  Tm  Tm0  1  0.594553  0.594553  0.500000  1
  Th  Th1  1  0.410741  0.998632  0.500000  1
  Th  Th2  1  0.998632  0.410741  0.500000  1
  In  In3  1  0.745250  0.987132  0.000000  1
  In  In4  1  0.266716  0.266716  0.000000  1
  In  In5  1  0.987132  0.745251  0.000000  1
  Ir  Ir6  1  0.668828  0.321443  0.000000  1
  Ir  Ir7  1  0.321443  0.668827  0.000000  1
  Ir  Ir8  1  0.006704  0.006704  0.500000  1
