# generated using pymatgen
data_PrHo6(CBr5)2
_symmetry_space_group_name_H-M   'P 1'
_cell_length_a   10.65041214
_cell_length_b   10.65041197
_cell_length_c   13.30881100
_cell_angle_alpha   80.18448576
_cell_angle_beta   80.18448591
_cell_angle_gamma   20.97352381
_symmetry_Int_Tables_number   1
_chemical_formula_structural   PrHo6(CBr5)2
_chemical_formula_sum   'Pr1 Ho6 C2 Br10'
_cell_volume   532.17072288
_cell_formula_units_Z   1
loop_
 _symmetry_equiv_pos_site_id
 _symmetry_equiv_pos_as_xyz
  1  'x, y, z'
loop_
 _atom_site_type_symbol
 _atom_site_label
 _atom_site_symmetry_multiplicity
 _atom_site_fract_x
 _atom_site_fract_y
 _atom_site_fract_z
 _atom_site_occupancy
  Pr  Pr0  1  0.000000  0.000000  0.000000  1
  Ho  Ho1  1  0.815446  0.815446  0.507382  1
  Ho  Ho2  1  0.184554  0.184554  0.492618  1
  Ho  Ho3  1  0.702136  0.702136  0.714906  1
  Ho  Ho4  1  0.297864  0.297864  0.285094  1
  Ho  Ho5  1  0.341730  0.341730  0.725240  1
  Ho  Ho6  1  0.658270  0.658270  0.274760  1
  C  C7  1  0.260825  0.260825  0.622980  1
  C  C8  1  0.739175  0.739175  0.377020  1
  Br  Br9  1  0.445692  0.445692  0.867273  1
  Br  Br10  1  0.554308  0.554308  0.132727  1
  Br  Br11  1  0.784411  0.784411  0.870821  1
  Br  Br12  1  0.215589  0.215589  0.129179  1
  Br  Br13  1  0.126931  0.126931  0.860759  1
  Br  Br14  1  0.073784  0.073784  0.377922  1
  Br  Br15  1  0.926216  0.926216  0.622078  1
  Br  Br16  1  0.403529  0.403529  0.386689  1
  Br  Br17  1  0.596471  0.596471  0.613311  1
  Br  Br18  1  0.873069  0.873069  0.139241  1
