# generated using pymatgen
data_Tm3Lu9Rh4
_symmetry_space_group_name_H-M   'P 1'
_cell_length_a   7.06452913
_cell_length_b   9.10772103
_cell_length_c   6.25325810
_cell_angle_alpha   90.00512709
_cell_angle_beta   89.97967556
_cell_angle_gamma   90.00721607
_symmetry_Int_Tables_number   1
_chemical_formula_structural   Tm3Lu9Rh4
_chemical_formula_sum   'Tm3 Lu9 Rh4'
_cell_volume   402.34560495
_cell_formula_units_Z   1
loop_
 _symmetry_equiv_pos_site_id
 _symmetry_equiv_pos_as_xyz
  1  'x, y, z'
loop_
 _atom_site_type_symbol
 _atom_site_label
 _atom_site_symmetry_multiplicity
 _atom_site_fract_x
 _atom_site_fract_y
 _atom_site_fract_z
 _atom_site_occupancy
  Tm  Tm0  1  0.533560  0.750006  0.126247  1
  Tm  Tm1  1  0.033571  0.750009  0.373898  1
  Tm  Tm2  1  0.966327  0.250032  0.626565  1
  Lu  Lu3  1  0.820598  0.062441  0.172654  1
  Lu  Lu4  1  0.820549  0.437527  0.172689  1
  Lu  Lu5  1  0.320879  0.062481  0.326373  1
  Lu  Lu6  1  0.320839  0.437492  0.326422  1
  Lu  Lu7  1  0.679106  0.561977  0.673342  1
  Lu  Lu8  1  0.679112  0.938041  0.673309  1
  Lu  Lu9  1  0.179700  0.562084  0.827238  1
  Lu  Lu10  1  0.179714  0.937903  0.827297  1
  Lu  Lu11  1  0.465885  0.250005  0.873247  1
  Rh  Rh12  1  0.114433  0.250000  0.047853  1
  Rh  Rh13  1  0.613299  0.249982  0.452780  1
  Rh  Rh14  1  0.386288  0.750011  0.548206  1
  Rh  Rh15  1  0.886140  0.750010  0.951867  1
