# generated using pymatgen
data_Lu3ZnSn3Ir2
_symmetry_space_group_name_H-M   'P 1'
_cell_length_a   7.50711700
_cell_length_b   7.50711759
_cell_length_c   3.87651800
_cell_angle_alpha   90.00000000
_cell_angle_beta   90.00000000
_cell_angle_gamma   119.99999300
_symmetry_Int_Tables_number   1
_chemical_formula_structural   Lu3ZnSn3Ir2
_chemical_formula_sum   'Lu3 Zn1 Sn3 Ir2'
_cell_volume   189.19901466
_cell_formula_units_Z   1
loop_
 _symmetry_equiv_pos_site_id
 _symmetry_equiv_pos_as_xyz
  1  'x, y, z'
loop_
 _atom_site_type_symbol
 _atom_site_label
 _atom_site_symmetry_multiplicity
 _atom_site_fract_x
 _atom_site_fract_y
 _atom_site_fract_z
 _atom_site_occupancy
  Lu  Lu0  1  0.981091  0.387414  0.500000  1
  Lu  Lu1  1  0.612586  0.593677  0.500000  1
  Lu  Lu2  1  0.406323  0.018909  0.500000  1
  Zn  Zn3  1  0.333333  0.666667  0.000000  1
  Sn  Sn4  1  0.004168  0.740320  0.000000  1
  Sn  Sn5  1  0.259680  0.263848  0.000000  1
  Sn  Sn6  1  0.736152  0.995832  0.000000  1
  Ir  Ir7  1  0.666667  0.333333  0.000000  1
  Ir  Ir8  1  0.000000  0.000000  0.500000  1
