# generated using pymatgen
data_Ba3Lu2WO9
_symmetry_space_group_name_H-M   'P 1'
_cell_length_a   6.01085239
_cell_length_b   8.51271758
_cell_length_c   10.41870087
_cell_angle_alpha   65.88743674
_cell_angle_beta   73.23394239
_cell_angle_gamma   90.00000056
_symmetry_Int_Tables_number   1
_chemical_formula_structural   Ba3Lu2WO9
_chemical_formula_sum   'Ba6 Lu4 W2 O18'
_cell_volume   461.65431518
_cell_formula_units_Z   2
loop_
 _symmetry_equiv_pos_site_id
 _symmetry_equiv_pos_as_xyz
  1  'x, y, z'
loop_
 _atom_site_type_symbol
 _atom_site_label
 _atom_site_symmetry_multiplicity
 _atom_site_fract_x
 _atom_site_fract_y
 _atom_site_fract_z
 _atom_site_occupancy
  Ba  Ba0  1  0.500000  0.265963  0.000000  1
  Ba  Ba1  1  0.839453  0.580082  0.321093  1
  Ba  Ba2  1  0.160547  0.901176  0.678907  1
  Ba  Ba3  1  0.500000  0.734037  0.000000  1
  Ba  Ba4  1  0.839453  0.098824  0.321093  1
  Ba  Ba5  1  0.160547  0.419918  0.678907  1
  Lu  Lu6  1  0.000000  0.000000  0.000000  1
  Lu  Lu7  1  0.330176  0.330176  0.339648  1
  Lu  Lu8  1  0.669824  0.669824  0.660352  1
  Lu  Lu9  1  0.000000  0.500000  0.000000  1
  W  W10  1  0.334062  0.834062  0.331875  1
  W  W11  1  0.665938  0.165938  0.668124  1
  O  O12  1  0.000000  0.246558  0.000000  1
  O  O13  1  0.330518  0.598591  0.338963  1
  O  O14  1  0.669482  0.937556  0.661037  1
  O  O15  1  0.162581  0.411493  0.177014  1
  O  O16  1  0.492000  0.758422  0.483155  1
  O  O17  1  0.819659  0.088689  0.822620  1
  O  O18  1  0.339593  0.588507  0.822986  1
  O  O19  1  0.642280  0.911311  0.177380  1
  O  O20  1  0.975156  0.241578  0.516845  1
  O  O21  1  0.000000  0.753442  0.000000  1
  O  O22  1  0.330518  0.062444  0.338963  1
  O  O23  1  0.669482  0.401409  0.661037  1
  O  O24  1  0.837419  0.588507  0.822986  1
  O  O25  1  0.180341  0.911311  0.177380  1
  O  O26  1  0.508000  0.241578  0.516845  1
  O  O27  1  0.660407  0.411493  0.177014  1
  O  O28  1  0.024844  0.758422  0.483155  1
  O  O29  1  0.357720  0.088689  0.822620  1
