# generated using pymatgen
data_Y6Zr4(SnSb)3
_symmetry_space_group_name_H-M   'P 1'
_cell_length_a   6.03525400
_cell_length_b   8.85968171
_cell_length_c   8.85970700
_cell_angle_alpha   119.99990210
_cell_angle_beta   90.00014323
_cell_angle_gamma   89.99970740
_symmetry_Int_Tables_number   1
_chemical_formula_structural   Y6Zr4(SnSb)3
_chemical_formula_sum   'Y6 Zr4 Sn3 Sb3'
_cell_volume   410.26464441
_cell_formula_units_Z   1
loop_
 _symmetry_equiv_pos_site_id
 _symmetry_equiv_pos_as_xyz
  1  'x, y, z'
loop_
 _atom_site_type_symbol
 _atom_site_label
 _atom_site_symmetry_multiplicity
 _atom_site_fract_x
 _atom_site_fract_y
 _atom_site_fract_z
 _atom_site_occupancy
  Y  Y0  1  0.749999  0.244661  0.000000  1
  Y  Y1  1  0.750001  0.755355  0.755353  1
  Y  Y2  1  0.750001  0.000002  0.244647  1
  Y  Y3  1  0.250000  0.754267  0.000000  1
  Y  Y4  1  0.250002  0.245713  0.245720  1
  Y  Y5  1  0.250002  0.999993  0.754280  1
  Zr  Zr6  1  0.499653  0.333333  0.666666  1
  Zr  Zr7  1  0.499653  0.666667  0.333334  1
  Zr  Zr8  1  0.000345  0.666667  0.333336  1
  Zr  Zr9  1  0.000345  0.333331  0.666664  1
  Sn  Sn10  1  0.749998  0.602500  0.000000  1
  Sn  Sn11  1  0.750000  0.397508  0.397493  1
  Sn  Sn12  1  0.750000  0.000014  0.602507  1
  Sb  Sb13  1  0.249998  0.396490  0.000000  1
  Sb  Sb14  1  0.250002  0.603502  0.603504  1
  Sb  Sb15  1  0.250002  0.999997  0.396496  1
