# generated using pymatgen
data_HfScPa(AlPt)3
_symmetry_space_group_name_H-M   'P 1'
_cell_length_a   7.00306070
_cell_length_b   7.00318833
_cell_length_c   7.86948900
_cell_angle_alpha   90.00000000
_cell_angle_beta   90.00000000
_cell_angle_gamma   120.10923188
_symmetry_Int_Tables_number   1
_chemical_formula_structural   HfScPa(AlPt)3
_chemical_formula_sum   'Hf2 Sc2 Pa2 Al6 Pt6'
_cell_volume   333.87337149
_cell_formula_units_Z   2
loop_
 _symmetry_equiv_pos_site_id
 _symmetry_equiv_pos_as_xyz
  1  'x, y, z'
loop_
 _atom_site_type_symbol
 _atom_site_label
 _atom_site_symmetry_multiplicity
 _atom_site_fract_x
 _atom_site_fract_y
 _atom_site_fract_z
 _atom_site_occupancy
  Hf  Hf0  1  0.998963  0.591348  0.750000  1
  Hf  Hf1  1  0.413079  0.413400  0.750000  1
  Sc  Sc2  1  0.593265  0.999866  0.750000  1
  Sc  Sc3  1  0.405608  0.406590  0.250000  1
  Pa  Pa4  1  0.000221  0.579523  0.250000  1
  Pa  Pa5  1  0.579360  0.000468  0.250000  1
  Al  Al6  1  0.748778  0.750243  0.995194  1
  Al  Al7  1  0.249124  0.005730  0.992106  1
  Al  Al8  1  0.003881  0.245797  0.989552  1
  Al  Al9  1  0.748778  0.750243  0.504806  1
  Al  Al10  1  0.249124  0.005730  0.507894  1
  Al  Al11  1  0.003881  0.245797  0.510448  1
  Pt  Pt12  1  0.003826  0.997991  0.750000  1
  Pt  Pt13  1  0.999967  0.000473  0.250000  1
  Pt  Pt14  1  0.669324  0.336524  0.987052  1
  Pt  Pt15  1  0.669324  0.336524  0.512948  1
  Pt  Pt16  1  0.331750  0.666878  0.513999  1
  Pt  Pt17  1  0.331750  0.666878  0.986002  1
