# generated using pymatgen
data_Pr8YRh6
_symmetry_space_group_name_H-M   'P 1'
_cell_length_a   7.66576234
_cell_length_b   7.66576158
_cell_length_c   7.66576009
_cell_angle_alpha   71.23852302
_cell_angle_beta   71.23853040
_cell_angle_gamma   71.23852017
_symmetry_Int_Tables_number   1
_chemical_formula_structural   Pr8YRh6
_chemical_formula_sum   'Pr8 Y1 Rh6'
_cell_volume   391.72924022
_cell_formula_units_Z   1
loop_
 _symmetry_equiv_pos_site_id
 _symmetry_equiv_pos_as_xyz
  1  'x, y, z'
loop_
 _atom_site_type_symbol
 _atom_site_label
 _atom_site_symmetry_multiplicity
 _atom_site_fract_x
 _atom_site_fract_y
 _atom_site_fract_z
 _atom_site_occupancy
  Pr  Pr0  1  0.337885  0.832815  0.111067  1
  Pr  Pr1  1  0.111067  0.337885  0.832815  1
  Pr  Pr2  1  0.832815  0.111067  0.337885  1
  Pr  Pr3  1  0.167185  0.888933  0.662115  1
  Pr  Pr4  1  0.888933  0.662115  0.167185  1
  Pr  Pr5  1  0.662115  0.167185  0.888933  1
  Pr  Pr6  1  0.298819  0.298819  0.298819  1
  Pr  Pr7  1  0.701181  0.701181  0.701181  1
  Y  Y8  1  0.500000  0.500000  0.500000  1
  Rh  Rh9  1  0.459217  0.096314  0.657837  1
  Rh  Rh10  1  0.096314  0.657837  0.459217  1
  Rh  Rh11  1  0.657837  0.459217  0.096314  1
  Rh  Rh12  1  0.540783  0.903686  0.342163  1
  Rh  Rh13  1  0.903686  0.342163  0.540783  1
  Rh  Rh14  1  0.342163  0.540783  0.903686  1
