# generated using pymatgen
data_Th2Al7Co2Sn
_symmetry_space_group_name_H-M   'P 1'
_cell_length_a   8.10469331
_cell_length_b   8.10469521
_cell_length_c   6.78803835
_cell_angle_alpha   90.03151211
_cell_angle_beta   89.96848891
_cell_angle_gamma   149.95286328
_symmetry_Int_Tables_number   1
_chemical_formula_structural   Th2Al7Co2Sn
_chemical_formula_sum   'Th2 Al7 Co2 Sn1'
_cell_volume   223.25734266
_cell_formula_units_Z   1
loop_
 _symmetry_equiv_pos_site_id
 _symmetry_equiv_pos_as_xyz
  1  'x, y, z'
loop_
 _atom_site_type_symbol
 _atom_site_label
 _atom_site_symmetry_multiplicity
 _atom_site_fract_x
 _atom_site_fract_y
 _atom_site_fract_z
 _atom_site_occupancy
  Th  Th0  1  0.383781  0.616219  0.745055  1
  Th  Th1  1  0.616219  0.383781  0.254945  1
  Al  Al2  1  0.000000  0.000000  0.500000  1
  Al  Al3  1  0.804020  0.195980  0.058389  1
  Al  Al4  1  0.195980  0.804020  0.941611  1
  Al  Al5  1  0.192523  0.807477  0.558110  1
  Al  Al6  1  0.807477  0.192523  0.441890  1
  Al  Al7  1  0.417355  0.582645  0.261938  1
  Al  Al8  1  0.582645  0.417355  0.738062  1
  Co  Co9  1  0.730327  0.269673  0.749300  1
  Co  Co10  1  0.269673  0.730327  0.250700  1
  Sn  Sn11  1  0.000000  0.000000  0.000000  1
