# generated using pymatgen
data_Ba12GaSi14Ge
_symmetry_space_group_name_H-M   'P 1'
_cell_length_a   8.69370706
_cell_length_b   8.69688916
_cell_length_c   11.80220482
_cell_angle_alpha   90.18966579
_cell_angle_beta   89.66555345
_cell_angle_gamma   91.28175693
_symmetry_Int_Tables_number   1
_chemical_formula_structural   Ba12GaSi14Ge
_chemical_formula_sum   'Ba12 Ga1 Si14 Ge1'
_cell_volume   892.10054998
_cell_formula_units_Z   1
loop_
 _symmetry_equiv_pos_site_id
 _symmetry_equiv_pos_as_xyz
  1  'x, y, z'
loop_
 _atom_site_type_symbol
 _atom_site_label
 _atom_site_symmetry_multiplicity
 _atom_site_fract_x
 _atom_site_fract_y
 _atom_site_fract_z
 _atom_site_occupancy
  Ba  Ba0  1  0.496394  0.000654  0.746082  1
  Ba  Ba1  1  0.503967  0.000332  0.254969  1
  Ba  Ba2  1  0.002981  0.500662  0.746294  1
  Ba  Ba3  1  0.999064  0.496245  0.254714  1
  Ba  Ba4  1  0.995121  0.009057  0.831256  1
  Ba  Ba5  1  0.504982  0.494156  0.330450  1
  Ba  Ba6  1  0.499078  0.498946  0.670452  1
  Ba  Ba7  1  0.991466  0.008642  0.168402  1
  Ba  Ba8  1  0.683360  0.664102  0.996613  1
  Ba  Ba9  1  0.834195  0.166185  0.502833  1
  Ba  Ba10  1  0.157669  0.842628  0.499496  1
  Ba  Ba11  1  0.337649  0.316950  0.998449  1
  Ga  Ga12  1  0.318392  0.681527  0.119426  1
  Si  Si13  1  0.204844  0.202859  0.649256  1
  Si  Si14  1  0.800292  0.794030  0.351049  1
  Si  Si15  1  0.696050  0.303864  0.140814  1
  Si  Si16  1  0.698236  0.302244  0.853044  1
  Si  Si17  1  0.312605  0.687971  0.888749  1
  Si  Si18  1  0.205873  0.199631  0.350194  1
  Si  Si19  1  0.696957  0.102817  0.997517  1
  Si  Si20  1  0.287371  0.918459  0.999306  1
  Si  Si21  1  0.081915  0.714112  0.998975  1
  Si  Si22  1  0.603185  0.801439  0.498573  1
  Si  Si23  1  0.897089  0.304070  0.997681  1
  Si  Si24  1  0.196694  0.394875  0.499175  1
  Si  Si25  1  0.799175  0.599745  0.499461  1
  Si  Si26  1  0.398469  0.198897  0.499890  1
  Ge  Ge27  1  0.796927  0.794897  0.656878  1
