# generated using pymatgen
data_Lu12Co5Sn
_symmetry_space_group_name_H-M   'P 1'
_cell_length_a   8.08256908
_cell_length_b   8.08256909
_cell_length_c   8.08256865
_cell_angle_alpha   106.61157553
_cell_angle_beta   111.03625108
_cell_angle_gamma   110.80322278
_symmetry_Int_Tables_number   1
_chemical_formula_structural   Lu12Co5Sn
_chemical_formula_sum   'Lu12 Co5 Sn1'
_cell_volume   405.71161556
_cell_formula_units_Z   1
loop_
 _symmetry_equiv_pos_site_id
 _symmetry_equiv_pos_as_xyz
  1  'x, y, z'
loop_
 _atom_site_type_symbol
 _atom_site_label
 _atom_site_symmetry_multiplicity
 _atom_site_fract_x
 _atom_site_fract_y
 _atom_site_fract_z
 _atom_site_occupancy
  Lu  Lu0  1  0.472874  0.287138  0.185735  1
  Lu  Lu1  1  0.101403  0.287138  0.814265  1
  Lu  Lu2  1  0.898597  0.712862  0.185735  1
  Lu  Lu3  1  0.527126  0.712862  0.814265  1
  Lu  Lu4  1  0.304771  0.618384  0.313613  1
  Lu  Lu5  1  0.304771  0.991159  0.686387  1
  Lu  Lu6  1  0.695229  0.381616  0.686387  1
  Lu  Lu7  1  0.695229  0.008841  0.313613  1
  Lu  Lu8  1  0.194312  0.213148  0.407460  1
  Lu  Lu9  1  0.805688  0.786852  0.592540  1
  Lu  Lu10  1  0.194312  0.786852  0.981162  1
  Lu  Lu11  1  0.805688  0.213148  0.018838  1
  Co  Co12  1  0.500000  0.613134  0.113134  1
  Co  Co13  1  0.500000  0.386866  0.886866  1
  Co  Co14  1  0.373948  0.000000  0.373948  1
  Co  Co15  1  0.626052  0.000000  0.626052  1
  Co  Co16  1  0.000000  0.000000  0.000000  1
  Sn  Sn17  1  0.000000  0.500000  0.500000  1
