# generated using pymatgen
data_Ce4Al17SiOsRh5
_symmetry_space_group_name_H-M   'P 1'
_cell_length_a   7.62039932
_cell_length_b   7.62069458
_cell_length_c   9.42250407
_cell_angle_alpha   89.89982566
_cell_angle_beta   89.88937609
_cell_angle_gamma   119.30517568
_symmetry_Int_Tables_number   1
_chemical_formula_structural   Ce4Al17SiOsRh5
_chemical_formula_sum   'Ce4 Al17 Si1 Os1 Rh5'
_cell_volume   477.16074215
_cell_formula_units_Z   1
loop_
 _symmetry_equiv_pos_site_id
 _symmetry_equiv_pos_as_xyz
  1  'x, y, z'
loop_
 _atom_site_type_symbol
 _atom_site_label
 _atom_site_symmetry_multiplicity
 _atom_site_fract_x
 _atom_site_fract_y
 _atom_site_fract_z
 _atom_site_occupancy
  Ce  Ce0  1  0.994705  0.679809  0.248219  1
  Ce  Ce1  1  0.002753  0.326808  0.751857  1
  Ce  Ce2  1  0.679823  0.994670  0.248239  1
  Ce  Ce3  1  0.326756  0.002698  0.751899  1
  Al  Al4  1  0.871143  0.870949  0.750188  1
  Al  Al5  1  0.003764  0.338979  0.078139  1
  Al  Al6  1  0.996665  0.665177  0.924619  1
  Al  Al7  1  0.997377  0.664084  0.575281  1
  Al  Al8  1  0.338655  0.002883  0.421951  1
  Al  Al9  1  0.002984  0.338878  0.421762  1
  Al  Al10  1  0.663661  0.997160  0.575412  1
  Al  Al11  1  0.664720  0.996415  0.924484  1
  Al  Al12  1  0.338754  0.003655  0.077945  1
  Al  Al13  1  0.333171  0.332991  0.553687  1
  Al  Al14  1  0.662361  0.662281  0.451062  1
  Al  Al15  1  0.663044  0.662973  0.047327  1
  Al  Al16  1  0.332435  0.332264  0.948451  1
  Al  Al17  1  0.339286  0.550893  0.250160  1
  Al  Al18  1  0.658086  0.450052  0.749718  1
  Al  Al19  1  0.551008  0.339520  0.250163  1
  Al  Al20  1  0.450237  0.658324  0.749714  1
  Si  Si21  1  0.132904  0.132842  0.249051  1
  Os  Os22  1  0.000196  0.000056  0.007695  1
  Rh  Rh23  1  0.670368  0.327314  0.000279  1
  Rh  Rh24  1  0.327393  0.670555  0.000296  1
  Rh  Rh25  1  0.326781  0.670284  0.499544  1
  Rh  Rh26  1  0.670115  0.326713  0.499576  1
  Rh  Rh27  1  0.000855  0.000772  0.493284  1
