# generated using pymatgen
data_CsCr2(Sb6Pt)2
_symmetry_space_group_name_H-M   'P 1'
_cell_length_a   8.28055376
_cell_length_b   8.28055347
_cell_length_c   8.29190433
_cell_angle_alpha   109.62740474
_cell_angle_beta   109.31366810
_cell_angle_gamma   109.41720821
_symmetry_Int_Tables_number   1
_chemical_formula_structural   CsCr2(Sb6Pt)2
_chemical_formula_sum   'Cs1 Cr2 Sb12 Pt2'
_cell_volume   437.97071881
_cell_formula_units_Z   1
loop_
 _symmetry_equiv_pos_site_id
 _symmetry_equiv_pos_as_xyz
  1  'x, y, z'
loop_
 _atom_site_type_symbol
 _atom_site_label
 _atom_site_symmetry_multiplicity
 _atom_site_fract_x
 _atom_site_fract_y
 _atom_site_fract_z
 _atom_site_occupancy
  Cs  Cs0  1  0.000000  0.000000  0.000000  1
  Cr  Cr1  1  0.500000  0.000000  0.000000  1
  Cr  Cr2  1  0.000000  0.500000  0.000000  1
  Sb  Sb3  1  0.160510  0.810992  0.659436  1
  Sb  Sb4  1  0.151557  0.501073  0.340564  1
  Sb  Sb5  1  0.497888  0.658357  0.846308  1
  Sb  Sb6  1  0.342270  0.839369  0.181640  1
  Sb  Sb7  1  0.812050  0.651579  0.153692  1
  Sb  Sb8  1  0.651975  0.846444  0.498420  1
  Sb  Sb9  1  0.187950  0.348421  0.846308  1
  Sb  Sb10  1  0.657730  0.160631  0.818360  1
  Sb  Sb11  1  0.348025  0.153556  0.501580  1
  Sb  Sb12  1  0.502112  0.341643  0.153692  1
  Sb  Sb13  1  0.848443  0.498927  0.659436  1
  Sb  Sb14  1  0.839490  0.189008  0.340564  1
  Pt  Pt15  1  0.500000  0.500000  0.500000  1
  Pt  Pt16  1  0.000000  0.000000  0.500000  1
