# generated using pymatgen
data_Li2ErTmB28
_symmetry_space_group_name_H-M   'P 1'
_cell_length_a   7.23320174
_cell_length_b   7.23324778
_cell_length_c   7.23323150
_cell_angle_alpha   132.12649837
_cell_angle_beta   110.88905733
_cell_angle_gamma   88.43358983
_symmetry_Int_Tables_number   1
_chemical_formula_structural   Li2ErTmB28
_chemical_formula_sum   'Li2 Er1 Tm1 B28'
_cell_volume   249.67296883
_cell_formula_units_Z   1
loop_
 _symmetry_equiv_pos_site_id
 _symmetry_equiv_pos_as_xyz
  1  'x, y, z'
loop_
 _atom_site_type_symbol
 _atom_site_label
 _atom_site_symmetry_multiplicity
 _atom_site_fract_x
 _atom_site_fract_y
 _atom_site_fract_z
 _atom_site_occupancy
  Li  Li0  1  0.499987  0.499995  0.499981  1
  Li  Li1  1  0.499988  0.000006  0.999998  1
  Er  Er2  1  0.879268  0.249997  0.629266  1
  Tm  Tm3  1  0.121310  0.749996  0.371304  1
  B  B4  1  0.139239  0.166200  0.973038  1
  B  B5  1  0.860814  0.833791  0.027025  1
  B  B6  1  0.693234  0.666209  0.027028  1
  B  B7  1  0.306839  0.333799  0.973040  1
  B  B8  1  0.277791  0.650209  0.627567  1
  B  B9  1  0.722051  0.349910  0.372153  1
  B  B10  1  0.522246  0.150102  0.372153  1
  B  B11  1  0.477359  0.849779  0.627570  1
  B  B12  1  0.414945  0.588960  0.825984  1
  B  B13  1  0.584911  0.411043  0.173869  1
  B  B14  1  0.262826  0.088958  0.173867  1
  B  B15  1  0.737027  0.911041  0.825988  1
  B  B16  1  0.899279  0.901062  0.681115  1
  B  B17  1  0.100831  0.782071  0.002171  1
  B  B18  1  0.720098  0.401341  0.002168  1
  B  B19  1  0.280051  0.281835  0.681112  1
  B  B20  1  0.100827  0.098659  0.318759  1
  B  B21  1  0.899277  0.218163  0.998217  1
  B  B22  1  0.280055  0.598941  0.998222  1
  B  B23  1  0.720100  0.717931  0.318758  1
  B  B24  1  0.533665  0.329950  0.703105  1
  B  B25  1  0.466199  0.169306  0.796111  1
  B  B26  1  0.126807  0.829912  0.796111  1
  B  B27  1  0.873156  0.669444  0.703108  1
  B  B28  1  0.466197  0.670090  0.296897  1
  B  B29  1  0.533666  0.830556  0.203709  1
  B  B30  1  0.873153  0.170046  0.203710  1
  B  B31  1  0.126806  0.330700  0.296896  1
