# generated using pymatgen
data_Nd15Th(CdRu)4
_symmetry_space_group_name_H-M   'P 1'
_cell_length_a   9.98031753
_cell_length_b   9.98031685
_cell_length_c   9.98031631
_cell_angle_alpha   59.38619450
_cell_angle_beta   59.38620257
_cell_angle_gamma   59.38620308
_symmetry_Int_Tables_number   1
_chemical_formula_structural   Nd15Th(CdRu)4
_chemical_formula_sum   'Nd15 Th1 Cd4 Ru4'
_cell_volume   693.12017520
_cell_formula_units_Z   1
loop_
 _symmetry_equiv_pos_site_id
 _symmetry_equiv_pos_as_xyz
  1  'x, y, z'
loop_
 _atom_site_type_symbol
 _atom_site_label
 _atom_site_symmetry_multiplicity
 _atom_site_fract_x
 _atom_site_fract_y
 _atom_site_fract_z
 _atom_site_occupancy
  Nd  Nd0  1  0.561042  0.561042  0.939966  1
  Nd  Nd1  1  0.938847  0.561506  0.938847  1
  Nd  Nd2  1  0.561506  0.938847  0.938847  1
  Nd  Nd3  1  0.938847  0.938847  0.561506  1
  Nd  Nd4  1  0.561042  0.939966  0.561042  1
  Nd  Nd5  1  0.939966  0.561042  0.561042  1
  Nd  Nd6  1  0.190704  0.190704  0.810141  1
  Nd  Nd7  1  0.810299  0.190965  0.810299  1
  Nd  Nd8  1  0.190964  0.810300  0.810299  1
  Nd  Nd9  1  0.810299  0.810300  0.190965  1
  Nd  Nd10  1  0.190703  0.810141  0.190703  1
  Nd  Nd11  1  0.810141  0.190704  0.190704  1
  Nd  Nd12  1  0.346079  0.346079  0.958573  1
  Nd  Nd13  1  0.346079  0.958573  0.346079  1
  Nd  Nd14  1  0.958573  0.346079  0.346079  1
  Th  Th15  1  0.341680  0.341680  0.341680  1
  Cd  Cd16  1  0.578490  0.578490  0.260871  1
  Cd  Cd17  1  0.578490  0.260871  0.578490  1
  Cd  Cd18  1  0.260871  0.578490  0.578490  1
  Cd  Cd19  1  0.579364  0.579364  0.579364  1
  Ru  Ru20  1  0.145928  0.145928  0.576213  1
  Ru  Ru21  1  0.145928  0.576213  0.145928  1
  Ru  Ru22  1  0.576213  0.145928  0.145928  1
  Ru  Ru23  1  0.137943  0.137943  0.137943  1
