# generated using pymatgen
data_Tm5ZrTi16Ir7
_symmetry_space_group_name_H-M   'P 1'
_cell_length_a   9.09301712
_cell_length_b   9.11575587
_cell_length_c   9.11575500
_cell_angle_alpha   59.83503245
_cell_angle_beta   60.08248530
_cell_angle_gamma   60.08248966
_symmetry_Int_Tables_number   1
_chemical_formula_structural   Tm5ZrTi16Ir7
_chemical_formula_sum   'Tm5 Zr1 Ti16 Ir7'
_cell_volume   534.28499073
_cell_formula_units_Z   1
loop_
 _symmetry_equiv_pos_site_id
 _symmetry_equiv_pos_as_xyz
  1  'x, y, z'
loop_
 _atom_site_type_symbol
 _atom_site_label
 _atom_site_symmetry_multiplicity
 _atom_site_fract_x
 _atom_site_fract_y
 _atom_site_fract_z
 _atom_site_occupancy
  Tm  Tm0  1  0.693536  0.698042  0.306525  1
  Tm  Tm1  1  0.301931  0.697989  0.306517  1
  Tm  Tm2  1  0.698908  0.301052  0.301054  1
  Tm  Tm3  1  0.301932  0.306517  0.697988  1
  Tm  Tm4  1  0.693537  0.306525  0.698041  1
  Zr  Zr5  1  0.301297  0.698734  0.698728  1
  Ti  Ti6  1  0.881709  0.881606  0.354960  1
  Ti  Ti7  1  0.881711  0.354955  0.881608  1
  Ti  Ti8  1  0.354197  0.879870  0.879864  1
  Ti  Ti9  1  0.886067  0.879881  0.879876  1
  Ti  Ti10  1  0.120148  0.114019  0.645697  1
  Ti  Ti11  1  0.120152  0.645698  0.114016  1
  Ti  Ti12  1  0.645013  0.118326  0.118314  1
  Ti  Ti13  1  0.118328  0.118309  0.118303  1
  Ti  Ti14  1  0.673217  0.672766  0.980786  1
  Ti  Ti15  1  0.673216  0.980788  0.672770  1
  Ti  Ti16  1  0.983403  0.673065  0.673068  1
  Ti  Ti17  1  0.670463  0.673064  0.673073  1
  Ti  Ti18  1  0.326921  0.329579  0.016615  1
  Ti  Ti19  1  0.326915  0.016624  0.329584  1
  Ti  Ti20  1  0.019261  0.326792  0.326804  1
  Ti  Ti21  1  0.327154  0.326779  0.326788  1
  Ir  Ir22  1  0.998996  0.000988  0.000985  1
  Ir  Ir23  1  0.000137  0.999863  0.499113  1
  Ir  Ir24  1  0.500893  0.999864  0.499110  1
  Ir  Ir25  1  0.999963  0.500042  0.500042  1
  Ir  Ir26  1  0.500894  0.499110  0.999865  1
  Ir  Ir27  1  0.000137  0.499113  0.999862  1
  Ir  Ir28  1  0.499967  0.000039  0.000041  1
