# generated using pymatgen
data_Tb5Y3(BBr6)2
_symmetry_space_group_name_H-M   'P 1'
_cell_length_a   3.96160500
_cell_length_b   13.16816657
_cell_length_c   13.64309100
_cell_angle_alpha   89.93857576
_cell_angle_beta   90.00000000
_cell_angle_gamma   90.00000000
_symmetry_Int_Tables_number   1
_chemical_formula_structural   Tb5Y3(BBr6)2
_chemical_formula_sum   'Tb5 Y3 B2 Br12'
_cell_volume   711.71973579
_cell_formula_units_Z   1
loop_
 _symmetry_equiv_pos_site_id
 _symmetry_equiv_pos_as_xyz
  1  'x, y, z'
loop_
 _atom_site_type_symbol
 _atom_site_label
 _atom_site_symmetry_multiplicity
 _atom_site_fract_x
 _atom_site_fract_y
 _atom_site_fract_z
 _atom_site_occupancy
  Tb  Tb0  1  0.000000  0.102419  0.081285  1
  Tb  Tb1  1  0.500000  0.123274  0.854615  1
  Tb  Tb2  1  0.500000  0.876238  0.144980  1
  Tb  Tb3  1  0.500000  0.623345  0.644988  1
  Tb  Tb4  1  0.500000  0.376719  0.355087  1
  Y  Y5  1  0.000000  0.897756  0.918819  1
  Y  Y6  1  0.000000  0.601931  0.419047  1
  Y  Y7  1  0.000000  0.398081  0.580988  1
  B  B8  1  0.500000  0.000021  0.000022  1
  B  B9  1  0.500000  0.500081  0.500116  1
  Br  Br10  1  0.500000  0.268466  0.681340  1
  Br  Br11  1  0.500000  0.731445  0.318613  1
  Br  Br12  1  0.500000  0.768222  0.818407  1
  Br  Br13  1  0.500000  0.232757  0.182413  1
  Br  Br14  1  0.000000  0.262205  0.930976  1
  Br  Br15  1  0.000000  0.737820  0.067918  1
  Br  Br16  1  0.000000  0.481879  0.238773  1
  Br  Br17  1  0.000000  0.518311  0.761298  1
  Br  Br18  1  0.000000  0.980733  0.261753  1
  Br  Br19  1  0.000000  0.018253  0.738417  1
  Br  Br20  1  0.000000  0.238192  0.432248  1
  Br  Br21  1  0.000000  0.761854  0.567894  1
