# generated using pymatgen
data_Er8In3Ir
_symmetry_space_group_name_H-M   'P 1'
_cell_length_a   10.34583300
_cell_length_b   10.34583258
_cell_length_c   7.00568400
_cell_angle_alpha   90.00000000
_cell_angle_beta   90.00000000
_cell_angle_gamma   119.99999816
_symmetry_Int_Tables_number   1
_chemical_formula_structural   Er8In3Ir
_chemical_formula_sum   'Er16 In6 Ir2'
_cell_volume   649.39971497
_cell_formula_units_Z   2
loop_
 _symmetry_equiv_pos_site_id
 _symmetry_equiv_pos_as_xyz
  1  'x, y, z'
loop_
 _atom_site_type_symbol
 _atom_site_label
 _atom_site_symmetry_multiplicity
 _atom_site_fract_x
 _atom_site_fract_y
 _atom_site_fract_z
 _atom_site_occupancy
  Er  Er0  1  0.533228  0.066456  0.792962  1
  Er  Er1  1  0.933544  0.466772  0.792962  1
  Er  Er2  1  0.533228  0.466772  0.792962  1
  Er  Er3  1  0.466772  0.933544  0.292962  1
  Er  Er4  1  0.066456  0.533228  0.292962  1
  Er  Er5  1  0.466772  0.533228  0.292962  1
  Er  Er6  1  0.823281  0.646562  0.499696  1
  Er  Er7  1  0.353438  0.176719  0.499696  1
  Er  Er8  1  0.823281  0.176719  0.499696  1
  Er  Er9  1  0.176719  0.353438  0.999696  1
  Er  Er10  1  0.646562  0.823281  0.999696  1
  Er  Er11  1  0.176719  0.823281  0.999696  1
  Er  Er12  1  0.666667  0.333333  0.174633  1
  Er  Er13  1  0.333333  0.666667  0.674633  1
  Er  Er14  1  0.000000  0.000000  0.778592  1
  Er  Er15  1  0.000000  0.000000  0.278592  1
  In  In16  1  0.837261  0.674524  0.038770  1
  In  In17  1  0.325476  0.162739  0.038770  1
  In  In18  1  0.837261  0.162739  0.038770  1
  In  In19  1  0.162739  0.325476  0.538770  1
  In  In20  1  0.674524  0.837261  0.538770  1
  In  In21  1  0.162739  0.837261  0.538770  1
  Ir  Ir22  1  0.666667  0.333333  0.570443  1
  Ir  Ir23  1  0.333333  0.666667  0.070443  1
