# generated using pymatgen
data_TbCeSn5Pd3
_symmetry_space_group_name_H-M   'P 1'
_cell_length_a   13.70343790
_cell_length_b   13.70343767
_cell_length_c   7.35245600
_cell_angle_alpha   90.00000000
_cell_angle_beta   90.00000000
_cell_angle_gamma   160.81890690
_symmetry_Int_Tables_number   1
_chemical_formula_structural   TbCeSn5Pd3
_chemical_formula_sum   'Tb2 Ce2 Sn10 Pd6'
_cell_volume   453.62770928
_cell_formula_units_Z   2
loop_
 _symmetry_equiv_pos_site_id
 _symmetry_equiv_pos_as_xyz
  1  'x, y, z'
loop_
 _atom_site_type_symbol
 _atom_site_label
 _atom_site_symmetry_multiplicity
 _atom_site_fract_x
 _atom_site_fract_y
 _atom_site_fract_z
 _atom_site_occupancy
  Tb  Tb0  1  0.478400  0.521600  0.740369  1
  Tb  Tb1  1  0.521600  0.478400  0.240369  1
  Ce  Ce2  1  0.172214  0.827786  0.745968  1
  Ce  Ce3  1  0.827786  0.172214  0.245968  1
  Sn  Sn4  1  0.881520  0.118480  0.739490  1
  Sn  Sn5  1  0.118480  0.881520  0.239490  1
  Sn  Sn6  1  0.702901  0.297099  0.044250  1
  Sn  Sn7  1  0.297099  0.702901  0.544250  1
  Sn  Sn8  1  0.597047  0.402953  0.604847  1
  Sn  Sn9  1  0.402953  0.597047  0.104847  1
  Sn  Sn10  1  0.952871  0.047129  0.403649  1
  Sn  Sn11  1  0.047129  0.952871  0.903649  1
  Sn  Sn12  1  0.288313  0.711687  0.975197  1
  Sn  Sn13  1  0.711687  0.288313  0.475197  1
  Pd  Pd14  1  0.048991  0.951009  0.520263  1
  Pd  Pd15  1  0.951009  0.048991  0.020263  1
  Pd  Pd16  1  0.779421  0.220579  0.768712  1
  Pd  Pd17  1  0.220579  0.779421  0.268712  1
  Pd  Pd18  1  0.397823  0.602177  0.485252  1
  Pd  Pd19  1  0.602177  0.397823  0.985252  1
