# generated using pymatgen
data_Ce4Ga18(IrOs)3
_symmetry_space_group_name_H-M   'P 1'
_cell_length_a   7.70224863
_cell_length_b   7.70224779
_cell_length_c   9.56896900
_cell_angle_alpha   90.03729090
_cell_angle_beta   90.03729834
_cell_angle_gamma   119.62198351
_symmetry_Int_Tables_number   1
_chemical_formula_structural   Ce4Ga18(IrOs)3
_chemical_formula_sum   'Ce4 Ga18 Ir3 Os3'
_cell_volume   493.48295301
_cell_formula_units_Z   1
loop_
 _symmetry_equiv_pos_site_id
 _symmetry_equiv_pos_as_xyz
  1  'x, y, z'
loop_
 _atom_site_type_symbol
 _atom_site_label
 _atom_site_symmetry_multiplicity
 _atom_site_fract_x
 _atom_site_fract_y
 _atom_site_fract_z
 _atom_site_occupancy
  Ce  Ce0  1  0.996803  0.671933  0.248686  1
  Ce  Ce1  1  0.000502  0.326831  0.751049  1
  Ce  Ce2  1  0.673169  0.999498  0.248951  1
  Ce  Ce3  1  0.328067  0.003197  0.751314  1
  Ga  Ga4  1  0.129025  0.129545  0.250065  1
  Ga  Ga5  1  0.870455  0.870975  0.749935  1
  Ga  Ga6  1  0.002666  0.335084  0.078469  1
  Ga  Ga7  1  0.995939  0.664227  0.921170  1
  Ga  Ga8  1  0.997527  0.665495  0.579125  1
  Ga  Ga9  1  0.334505  0.002473  0.420875  1
  Ga  Ga10  1  0.003105  0.335515  0.421315  1
  Ga  Ga11  1  0.664485  0.996895  0.578685  1
  Ga  Ga12  1  0.664916  0.997334  0.921531  1
  Ga  Ga13  1  0.335773  0.004061  0.078830  1
  Ga  Ga14  1  0.332688  0.332778  0.560471  1
  Ga  Ga15  1  0.667222  0.667312  0.439529  1
  Ga  Ga16  1  0.667178  0.664828  0.059074  1
  Ga  Ga17  1  0.335172  0.332822  0.940926  1
  Ga  Ga18  1  0.340537  0.546828  0.249964  1
  Ga  Ga19  1  0.659050  0.452282  0.750733  1
  Ga  Ga20  1  0.547718  0.340950  0.249267  1
  Ga  Ga21  1  0.453172  0.659463  0.750036  1
  Ir  Ir22  1  0.327977  0.672023  0.000000  1
  Ir  Ir23  1  0.328171  0.671829  0.500000  1
  Ir  Ir24  1  0.671512  0.328488  0.500000  1
  Os  Os25  1  0.672685  0.327315  0.000000  1
  Os  Os26  1  0.999849  0.000151  0.000000  1
  Os  Os27  1  0.000131  0.999869  0.500000  1
