# generated using pymatgen
data_Sc2PaTaTc4
_symmetry_space_group_name_H-M   'P 1'
_cell_length_a   6.52629200
_cell_length_b   4.63859400
_cell_length_c   9.15579600
_cell_angle_alpha   90.00000000
_cell_angle_beta   90.00027440
_cell_angle_gamma   90.00000000
_symmetry_Int_Tables_number   1
_chemical_formula_structural   Sc2PaTaTc4
_chemical_formula_sum   'Sc4 Pa2 Ta2 Tc8'
_cell_volume   277.17175431
_cell_formula_units_Z   2
loop_
 _symmetry_equiv_pos_site_id
 _symmetry_equiv_pos_as_xyz
  1  'x, y, z'
loop_
 _atom_site_type_symbol
 _atom_site_label
 _atom_site_symmetry_multiplicity
 _atom_site_fract_x
 _atom_site_fract_y
 _atom_site_fract_z
 _atom_site_occupancy
  Sc  Sc0  1  0.749966  0.249999  0.115653  1
  Sc  Sc1  1  0.249977  0.749999  0.384351  1
  Sc  Sc2  1  0.750033  0.249999  0.634653  1
  Sc  Sc3  1  0.250034  0.749999  0.865347  1
  Pa  Pa4  1  0.249969  0.249999  0.118877  1
  Pa  Pa5  1  0.749965  0.749999  0.381125  1
  Ta  Ta6  1  0.250020  0.249999  0.628609  1
  Ta  Ta7  1  0.750023  0.749999  0.871391  1
  Tc  Tc8  1  0.500044  0.749999  0.125338  1
  Tc  Tc9  1  0.999891  0.749999  0.125343  1
  Tc  Tc10  1  0.499892  0.249999  0.374655  1
  Tc  Tc11  1  0.000039  0.249999  0.374662  1
  Tc  Tc12  1  0.998150  0.749999  0.624822  1
  Tc  Tc13  1  0.501927  0.749999  0.624802  1
  Tc  Tc14  1  0.001923  0.249999  0.875196  1
  Tc  Tc15  1  0.498146  0.249999  0.875176  1
