# generated using pymatgen
data_V2Cd(SeO3)4
_symmetry_space_group_name_H-M   'P 1'
_cell_length_a   8.29529100
_cell_length_b   8.24556482
_cell_length_c   8.60924089
_cell_angle_alpha   88.43800984
_cell_angle_beta   90.00000000
_cell_angle_gamma   90.00000000
_symmetry_Int_Tables_number   1
_chemical_formula_structural   V2Cd(SeO3)4
_chemical_formula_sum   'V4 Cd2 Se8 O24'
_cell_volume   588.64775160
_cell_formula_units_Z   2
loop_
 _symmetry_equiv_pos_site_id
 _symmetry_equiv_pos_as_xyz
  1  'x, y, z'
loop_
 _atom_site_type_symbol
 _atom_site_label
 _atom_site_symmetry_multiplicity
 _atom_site_fract_x
 _atom_site_fract_y
 _atom_site_fract_z
 _atom_site_occupancy
  V  V0  1  0.760140  0.755700  0.998558  1
  V  V1  1  0.745739  0.242139  0.513116  1
  V  V2  1  0.239860  0.255700  0.998558  1
  V  V3  1  0.254261  0.742139  0.513116  1
  Cd  Cd4  1  0.613550  0.340463  0.161235  1
  Cd  Cd5  1  0.386450  0.840463  0.161235  1
  Se  Se6  1  0.078344  0.552774  0.187467  1
  Se  Se7  1  0.921656  0.052774  0.187467  1
  Se  Se8  1  0.573440  0.453709  0.812969  1
  Se  Se9  1  0.321613  0.169321  0.412576  1
  Se  Se10  1  0.056031  0.421527  0.685920  1
  Se  Se11  1  0.426560  0.953709  0.812969  1
  Se  Se12  1  0.678387  0.669321  0.412576  1
  Se  Se13  1  0.943969  0.921527  0.685920  1
  O  O14  1  0.973137  0.712623  0.103275  1
  O  O15  1  0.304002  0.016117  0.968489  1
  O  O16  1  0.165215  0.266541  0.780057  1
  O  O17  1  0.686758  0.457837  0.384908  1
  O  O18  1  0.774306  0.164387  0.284496  1
  O  O19  1  0.194815  0.495430  0.032917  1
  O  O20  1  0.214424  0.514708  0.585684  1
  O  O21  1  0.633583  0.730261  0.219529  1
  O  O22  1  0.712781  0.336125  0.725265  1
  O  O23  1  0.313242  0.957837  0.384908  1
  O  O24  1  0.978658  0.309475  0.534364  1
  O  O25  1  0.474389  0.308006  0.931165  1
  O  O26  1  0.834785  0.766541  0.780057  1
  O  O27  1  0.500289  0.693555  0.503913  1
  O  O28  1  0.287219  0.836125  0.725265  1
  O  O29  1  0.225694  0.664387  0.284496  1
  O  O30  1  0.366417  0.230261  0.219529  1
  O  O31  1  0.026863  0.212623  0.103275  1
  O  O32  1  0.021342  0.809475  0.534364  1
  O  O33  1  0.525611  0.808006  0.931165  1
  O  O34  1  0.695998  0.516116  0.968489  1
  O  O35  1  0.785576  0.014708  0.585684  1
  O  O36  1  0.499711  0.193555  0.503913  1
  O  O37  1  0.805185  0.995430  0.032917  1
