# generated using pymatgen
data_CuBi3IrRh3O14
_symmetry_space_group_name_H-M   'P 1'
_cell_length_a   7.15982832
_cell_length_b   7.34522917
_cell_length_c   7.34522908
_cell_angle_alpha   59.94894722
_cell_angle_beta   59.05674985
_cell_angle_gamma   59.05675393
_symmetry_Int_Tables_number   1
_chemical_formula_structural   CuBi3IrRh3O14
_chemical_formula_sum   'Cu1 Bi3 Ir1 Rh3 O14'
_cell_volume   269.08790651
_cell_formula_units_Z   1
loop_
 _symmetry_equiv_pos_site_id
 _symmetry_equiv_pos_as_xyz
  1  'x, y, z'
loop_
 _atom_site_type_symbol
 _atom_site_label
 _atom_site_symmetry_multiplicity
 _atom_site_fract_x
 _atom_site_fract_y
 _atom_site_fract_z
 _atom_site_occupancy
  Cu  Cu0  1  0.625000  0.125000  0.125000  1
  Bi  Bi1  1  0.125000  0.125000  0.125000  1
  Bi  Bi2  1  0.125000  0.625000  0.125000  1
  Bi  Bi3  1  0.125000  0.125000  0.625000  1
  Ir  Ir4  1  0.625000  0.625000  0.625000  1
  Rh  Rh5  1  0.625000  0.625000  0.125000  1
  Rh  Rh6  1  0.125000  0.625000  0.625000  1
  Rh  Rh7  1  0.625000  0.125000  0.625000  1
  O  O8  1  0.295547  0.235507  0.235507  1
  O  O9  1  0.285733  0.709866  0.290598  1
  O  O10  1  0.964267  0.959402  0.540134  1
  O  O11  1  0.545416  0.947490  0.553242  1
  O  O12  1  0.704584  0.696758  0.302510  1
  O  O13  1  0.960768  0.540076  0.540076  1
  O  O14  1  0.704584  0.302510  0.696758  1
  O  O15  1  0.285733  0.290598  0.709866  1
  O  O16  1  0.704151  0.295802  0.295802  1
  O  O17  1  0.289232  0.709924  0.709924  1
  O  O18  1  0.964267  0.540134  0.959402  1
  O  O19  1  0.545416  0.553242  0.947490  1
  O  O20  1  0.954453  0.014493  0.014493  1
  O  O21  1  0.545849  0.954198  0.954198  1
