# generated using pymatgen
data_Y7Tm(ZrGa5)4
_symmetry_space_group_name_H-M   'P 1'
_cell_length_a   5.97307247
_cell_length_b   9.43944853
_cell_length_c   11.38681421
_cell_angle_alpha   90.03333878
_cell_angle_beta   89.95894423
_cell_angle_gamma   89.98128518
_symmetry_Int_Tables_number   1
_chemical_formula_structural   Y7Tm(ZrGa5)4
_chemical_formula_sum   'Y7 Tm1 Zr4 Ga20'
_cell_volume   642.01685901
_cell_formula_units_Z   1
loop_
 _symmetry_equiv_pos_site_id
 _symmetry_equiv_pos_as_xyz
  1  'x, y, z'
loop_
 _atom_site_type_symbol
 _atom_site_label
 _atom_site_symmetry_multiplicity
 _atom_site_fract_x
 _atom_site_fract_y
 _atom_site_fract_z
 _atom_site_occupancy
  Y  Y0  1  0.885604  0.506288  0.352357  1
  Y  Y1  1  0.614266  0.993382  0.852229  1
  Y  Y2  1  0.114191  0.006350  0.647966  1
  Y  Y3  1  0.385952  0.493631  0.146976  1
  Y  Y4  1  0.113996  0.493651  0.647987  1
  Y  Y5  1  0.386016  0.006432  0.147419  1
  Y  Y6  1  0.885733  0.993835  0.352359  1
  Tm  Tm7  1  0.613750  0.506640  0.852548  1
  Zr  Zr8  1  0.857998  0.749739  0.075271  1
  Zr  Zr9  1  0.641648  0.749938  0.575800  1
  Zr  Zr10  1  0.142724  0.250004  0.924184  1
  Zr  Zr11  1  0.358373  0.250116  0.424515  1
  Ga  Ga12  1  0.875726  0.053843  0.088294  1
  Ga  Ga13  1  0.624202  0.446720  0.589464  1
  Ga  Ga14  1  0.124958  0.553197  0.911164  1
  Ga  Ga15  1  0.375736  0.946406  0.411713  1
  Ga  Ga16  1  0.124194  0.945942  0.911607  1
  Ga  Ga17  1  0.375770  0.553598  0.411655  1
  Ga  Ga18  1  0.875619  0.446463  0.087764  1
  Ga  Ga19  1  0.624127  0.053744  0.588356  1
  Ga  Ga20  1  0.160380  0.749960  0.254975  1
  Ga  Ga21  1  0.339985  0.748957  0.755572  1
  Ga  Ga22  1  0.838362  0.251166  0.745829  1
  Ga  Ga23  1  0.660614  0.250055  0.244732  1
  Ga  Ga24  1  0.391630  0.749603  0.000781  1
  Ga  Ga25  1  0.109139  0.750022  0.501308  1
  Ga  Ga26  1  0.609841  0.251160  0.997347  1
  Ga  Ga27  1  0.890706  0.250204  0.498974  1
  Ga  Ga28  1  0.604110  0.749957  0.293388  1
  Ga  Ga29  1  0.894318  0.748513  0.793857  1
  Ga  Ga30  1  0.396235  0.250358  0.706903  1
  Ga  Ga31  1  0.104094  0.250123  0.206703  1
