# generated using pymatgen
data_Pa4(CoTc)3
_symmetry_space_group_name_H-M   'P 1'
_cell_length_a   5.82175583
_cell_length_b   7.28037700
_cell_length_c   8.51608079
_cell_angle_alpha   90.00000000
_cell_angle_beta   89.37510806
_cell_angle_gamma   90.00000000
_symmetry_Int_Tables_number   1
_chemical_formula_structural   Pa4(CoTc)3
_chemical_formula_sum   'Pa8 Co6 Tc6'
_cell_volume   360.92901639
_cell_formula_units_Z   2
loop_
 _symmetry_equiv_pos_site_id
 _symmetry_equiv_pos_as_xyz
  1  'x, y, z'
loop_
 _atom_site_type_symbol
 _atom_site_label
 _atom_site_symmetry_multiplicity
 _atom_site_fract_x
 _atom_site_fract_y
 _atom_site_fract_z
 _atom_site_occupancy
  Pa  Pa0  1  0.752517  0.901922  0.860633  1
  Pa  Pa1  1  0.747483  0.401922  0.639367  1
  Pa  Pa2  1  0.247494  0.096678  0.145365  1
  Pa  Pa3  1  0.252506  0.596678  0.354635  1
  Pa  Pa4  1  0.751826  0.937152  0.399517  1
  Pa  Pa5  1  0.748174  0.437152  0.100483  1
  Pa  Pa6  1  0.251291  0.064811  0.602923  1
  Pa  Pa7  1  0.248709  0.564811  0.897077  1
  Co  Co8  1  0.753875  0.587760  0.365916  1
  Co  Co9  1  0.746125  0.087760  0.134084  1
  Co  Co10  1  0.253571  0.403686  0.622342  1
  Co  Co11  1  0.246429  0.903686  0.877658  1
  Co  Co12  1  0.506170  0.260619  0.377329  1
  Co  Co13  1  0.993830  0.760619  0.122671  1
  Tc  Tc14  1  0.998119  0.252109  0.378785  1
  Tc  Tc15  1  0.501881  0.752109  0.121215  1
  Tc  Tc16  1  0.498992  0.748637  0.615274  1
  Tc  Tc17  1  0.001008  0.248637  0.884726  1
  Tc  Tc18  1  0.001814  0.746627  0.617177  1
  Tc  Tc19  1  0.498186  0.246627  0.882823  1
