# generated using pymatgen
data_Pm4GaAu3
_symmetry_space_group_name_H-M   'P 1'
_cell_length_a   7.48073506
_cell_length_b   5.90588373
_cell_length_c   4.72771900
_cell_angle_alpha   90.00000000
_cell_angle_beta   90.00000000
_cell_angle_gamma   89.03769505
_symmetry_Int_Tables_number   1
_chemical_formula_structural   Pm4GaAu3
_chemical_formula_sum   'Pm4 Ga1 Au3'
_cell_volume   208.84282776
_cell_formula_units_Z   1
loop_
 _symmetry_equiv_pos_site_id
 _symmetry_equiv_pos_as_xyz
  1  'x, y, z'
loop_
 _atom_site_type_symbol
 _atom_site_label
 _atom_site_symmetry_multiplicity
 _atom_site_fract_x
 _atom_site_fract_y
 _atom_site_fract_z
 _atom_site_occupancy
  Pm  Pm0  1  0.100712  0.510409  0.000000  1
  Pm  Pm1  1  0.595913  0.733288  0.000000  1
  Pm  Pm2  1  0.234004  0.025019  0.499999  1
  Pm  Pm3  1  0.735488  0.237688  0.499999  1
  Ga  Ga4  1  0.881487  0.722878  0.499999  1
  Au  Au5  1  0.459603  0.225115  0.000000  1
  Au  Au6  1  0.954147  0.012248  0.000000  1
  Au  Au7  1  0.371978  0.533357  0.499999  1
