# generated using pymatgen
data_La17Yb3Sn11Bi5
_symmetry_space_group_name_H-M   'P 1'
_cell_length_a   8.61939962
_cell_length_b   8.61559960
_cell_length_c   16.46863400
_cell_angle_alpha   90.09154720
_cell_angle_beta   90.39188828
_cell_angle_gamma   89.85970204
_symmetry_Int_Tables_number   1
_chemical_formula_structural   La17Yb3Sn11Bi5
_chemical_formula_sum   'La17 Yb3 Sn11 Bi5'
_cell_volume   1222.94830032
_cell_formula_units_Z   1
loop_
 _symmetry_equiv_pos_site_id
 _symmetry_equiv_pos_as_xyz
  1  'x, y, z'
loop_
 _atom_site_type_symbol
 _atom_site_label
 _atom_site_symmetry_multiplicity
 _atom_site_fract_x
 _atom_site_fract_y
 _atom_site_fract_z
 _atom_site_occupancy
  La  La0  1  0.397996  0.838065  0.882335  1
  La  La1  1  0.895905  0.664231  0.617761  1
  La  La2  1  0.599609  0.162062  0.382152  1
  La  La3  1  0.097505  0.336675  0.118149  1
  La  La4  1  0.603898  0.167792  0.118174  1
  La  La5  1  0.108169  0.335264  0.382854  1
  La  La6  1  0.391157  0.839081  0.616530  1
  La  La7  1  0.892154  0.662421  0.883511  1
  La  La8  1  0.557234  0.327940  0.891591  1
  La  La9  1  0.050248  0.174734  0.606354  1
  La  La10  1  0.450237  0.678270  0.392302  1
  La  La11  1  0.949080  0.819792  0.110797  1
  La  La12  1  0.456726  0.672963  0.109724  1
  La  La13  1  0.962559  0.822758  0.393252  1
  La  La14  1  0.540099  0.322659  0.605383  1
  La  La15  1  0.046240  0.177895  0.891691  1
  La  La16  1  0.224544  0.500566  0.743477  1
  Yb  Yb17  1  0.728085  0.998754  0.748788  1
  Yb  Yb18  1  0.772687  0.497202  0.248991  1
  Yb  Yb19  1  0.272286  0.002106  0.253020  1
  Sn  Sn20  1  0.230664  0.524442  0.543600  1
  Sn  Sn21  1  0.269320  0.023156  0.455924  1
  Sn  Sn22  1  0.766499  0.480764  0.044867  1
  Sn  Sn23  1  0.595622  0.619436  0.749620  1
  Sn  Sn24  1  0.096188  0.878410  0.752241  1
  Sn  Sn25  1  0.402217  0.380262  0.249412  1
  Sn  Sn26  1  0.901969  0.118520  0.251228  1
  Sn  Sn27  1  0.346868  0.137101  0.751503  1
  Sn  Sn28  1  0.849971  0.364011  0.748973  1
  Sn  Sn29  1  0.655179  0.864073  0.250949  1
  Sn  Sn30  1  0.155308  0.635160  0.249785  1
  Bi  Bi31  1  0.264902  0.016747  0.046093  1
  Bi  Bi32  1  0.767441  0.478186  0.455579  1
  Bi  Bi33  1  0.732413  0.978164  0.544178  1
  Bi  Bi34  1  0.235043  0.518442  0.954499  1
  Bi  Bi35  1  0.733975  0.981899  0.954707  1
