# generated using pymatgen
data_Ba5Cd2(As2O)2
_symmetry_space_group_name_H-M   'P 1'
_cell_length_a   4.68471709
_cell_length_b   8.93049109
_cell_length_c   9.25287573
_cell_angle_alpha   82.30929899
_cell_angle_beta   75.33605452
_cell_angle_gamma   74.79414539
_symmetry_Int_Tables_number   1
_chemical_formula_structural   Ba5Cd2(As2O)2
_chemical_formula_sum   'Ba5 Cd2 As4 O2'
_cell_volume   360.44639569
_cell_formula_units_Z   1
loop_
 _symmetry_equiv_pos_site_id
 _symmetry_equiv_pos_as_xyz
  1  'x, y, z'
loop_
 _atom_site_type_symbol
 _atom_site_label
 _atom_site_symmetry_multiplicity
 _atom_site_fract_x
 _atom_site_fract_y
 _atom_site_fract_z
 _atom_site_occupancy
  Ba  Ba0  1  0.975440  0.347591  0.701528  1
  Ba  Ba1  1  0.024560  0.652409  0.298472  1
  Ba  Ba2  1  0.720630  0.911797  0.646942  1
  Ba  Ba3  1  0.279370  0.088203  0.353058  1
  Ba  Ba4  1  0.000000  0.000000  0.000000  1
  Cd  Cd5  1  0.734975  0.404238  0.125811  1
  Cd  Cd6  1  0.265025  0.595762  0.874189  1
  As  As7  1  0.641938  0.714723  0.001400  1
  As  As8  1  0.358062  0.285277  0.998600  1
  As  As9  1  0.595060  0.372666  0.437215  1
  As  As10  1  0.404940  0.627334  0.562785  1
  O  O11  1  0.867050  0.953385  0.312515  1
  O  O12  1  0.132950  0.046615  0.687485  1
