# generated using pymatgen
data_Y12InCo6
_symmetry_space_group_name_H-M   'P 1'
_cell_length_a   8.39587385
_cell_length_b   8.39587346
_cell_length_c   8.39587300
_cell_angle_alpha   109.47121712
_cell_angle_beta   109.47121616
_cell_angle_gamma   109.47122606
_symmetry_Int_Tables_number   1
_chemical_formula_structural   Y12InCo6
_chemical_formula_sum   'Y12 In1 Co6'
_cell_volume   455.59166771
_cell_formula_units_Z   1
loop_
 _symmetry_equiv_pos_site_id
 _symmetry_equiv_pos_as_xyz
  1  'x, y, z'
loop_
 _atom_site_type_symbol
 _atom_site_label
 _atom_site_symmetry_multiplicity
 _atom_site_fract_x
 _atom_site_fract_y
 _atom_site_fract_z
 _atom_site_occupancy
  Y  Y0  1  0.806397  0.698255  0.504653  1
  Y  Y1  1  0.193603  0.301745  0.495347  1
  Y  Y2  1  0.193603  0.698255  0.891859  1
  Y  Y3  1  0.806397  0.301745  0.108141  1
  Y  Y4  1  0.698255  0.504653  0.806397  1
  Y  Y5  1  0.301745  0.495347  0.193603  1
  Y  Y6  1  0.698255  0.891859  0.193603  1
  Y  Y7  1  0.301745  0.108141  0.806397  1
  Y  Y8  1  0.504653  0.806397  0.698255  1
  Y  Y9  1  0.495347  0.193603  0.301745  1
  Y  Y10  1  0.108141  0.806397  0.301745  1
  Y  Y11  1  0.891859  0.193603  0.698255  1
  In  In12  1  0.000000  0.000000  0.000000  1
  Co  Co13  1  0.887827  0.387827  0.500000  1
  Co  Co14  1  0.112173  0.612173  0.500000  1
  Co  Co15  1  0.387827  0.500000  0.887827  1
  Co  Co16  1  0.612173  0.500000  0.112173  1
  Co  Co17  1  0.500000  0.887827  0.387827  1
  Co  Co18  1  0.500000  0.112173  0.612173  1
