# generated using pymatgen
data_Nd2SiTc8Ge3
_symmetry_space_group_name_H-M   'P 1'
_cell_length_a   4.20147900
_cell_length_b   7.39984359
_cell_length_c   15.56599081
_cell_angle_alpha   89.66098318
_cell_angle_beta   90.00000000
_cell_angle_gamma   90.00000000
_symmetry_Int_Tables_number   1
_chemical_formula_structural   Nd2SiTc8Ge3
_chemical_formula_sum   'Nd4 Si2 Tc16 Ge6'
_cell_volume   483.94265710
_cell_formula_units_Z   2
loop_
 _symmetry_equiv_pos_site_id
 _symmetry_equiv_pos_as_xyz
  1  'x, y, z'
loop_
 _atom_site_type_symbol
 _atom_site_label
 _atom_site_symmetry_multiplicity
 _atom_site_fract_x
 _atom_site_fract_y
 _atom_site_fract_z
 _atom_site_occupancy
  Nd  Nd0  1  0.000000  0.582243  0.118773  1
  Nd  Nd1  1  0.000000  0.417757  0.881227  1
  Nd  Nd2  1  0.500000  0.081609  0.381212  1
  Nd  Nd3  1  0.500000  0.918391  0.618788  1
  Si  Si4  1  0.500000  0.795798  0.226183  1
  Si  Si5  1  0.500000  0.204202  0.773817  1
  Tc  Tc6  1  0.000000  0.130420  0.054219  1
  Tc  Tc7  1  0.000000  0.869580  0.945781  1
  Tc  Tc8  1  0.500000  0.631968  0.445655  1
  Tc  Tc9  1  0.500000  0.368032  0.554345  1
  Tc  Tc10  1  0.000000  0.727887  0.318437  1
  Tc  Tc11  1  0.000000  0.272113  0.681563  1
  Tc  Tc12  1  0.500000  0.224494  0.180259  1
  Tc  Tc13  1  0.500000  0.775506  0.819741  1
  Tc  Tc14  1  0.000000  0.441907  0.419509  1
  Tc  Tc15  1  0.000000  0.558093  0.580491  1
  Tc  Tc16  1  0.500000  0.935878  0.081393  1
  Tc  Tc17  1  0.500000  0.064122  0.918607  1
  Tc  Tc18  1  0.000000  0.986162  0.206198  1
  Tc  Tc19  1  0.000000  0.013838  0.793802  1
  Tc  Tc20  1  0.500000  0.495936  0.292867  1
  Tc  Tc21  1  0.500000  0.504064  0.707133  1
  Ge  Ge22  1  0.000000  0.827424  0.474927  1
  Ge  Ge23  1  0.000000  0.172576  0.525073  1
  Ge  Ge24  1  0.500000  0.326320  0.024945  1
  Ge  Ge25  1  0.500000  0.673680  0.975055  1
  Ge  Ge26  1  0.000000  0.293183  0.272991  1
  Ge  Ge27  1  0.000000  0.706817  0.727009  1
