# generated using pymatgen
data_Ca3Ce(CrAs3)4
_symmetry_space_group_name_H-M   'P 1'
_cell_length_a   5.59596100
_cell_length_b   5.67690115
_cell_length_c   12.47060440
_cell_angle_alpha   90.47529670
_cell_angle_beta   90.00000000
_cell_angle_gamma   90.00000000
_symmetry_Int_Tables_number   1
_chemical_formula_structural   Ca3Ce(CrAs3)4
_chemical_formula_sum   'Ca3 Ce1 Cr4 As12'
_cell_volume   396.14900637
_cell_formula_units_Z   1
loop_
 _symmetry_equiv_pos_site_id
 _symmetry_equiv_pos_as_xyz
  1  'x, y, z'
loop_
 _atom_site_type_symbol
 _atom_site_label
 _atom_site_symmetry_multiplicity
 _atom_site_fract_x
 _atom_site_fract_y
 _atom_site_fract_z
 _atom_site_occupancy
  Ca  Ca0  1  0.250000  0.503416  0.313699  1
  Ca  Ca1  1  0.750000  0.494781  0.689099  1
  Ca  Ca2  1  0.250000  0.004336  0.687620  1
  Ce  Ce3  1  0.750000  0.994217  0.306305  1
  Cr  Cr4  1  0.999788  0.751781  0.914164  1
  Cr  Cr5  1  0.000190  0.253446  0.087332  1
  Cr  Cr6  1  0.499810  0.253446  0.087332  1
  Cr  Cr7  1  0.500212  0.751781  0.914164  1
  As  As8  1  0.977174  0.759375  0.498563  1
  As  As9  1  0.982015  0.236727  0.494672  1
  As  As10  1  0.517985  0.236727  0.494672  1
  As  As11  1  0.522826  0.759375  0.498563  1
  As  As12  1  0.250000  0.612604  0.068623  1
  As  As13  1  0.750000  0.389289  0.933335  1
  As  As14  1  0.250000  0.113802  0.932663  1
  As  As15  1  0.750000  0.895342  0.067963  1
  As  As16  1  0.250000  0.999117  0.205356  1
  As  As17  1  0.750000  0.001761  0.797979  1
  As  As18  1  0.250000  0.498834  0.797345  1
  As  As19  1  0.750000  0.489845  0.210552  1
