# generated using pymatgen
data_YEr2V(Co4P3)2
_symmetry_space_group_name_H-M   'P 1'
_cell_length_a   3.68287400
_cell_length_b   10.53231100
_cell_length_c   12.20751300
_cell_angle_alpha   90.00000000
_cell_angle_beta   90.00000000
_cell_angle_gamma   90.00000000
_symmetry_Int_Tables_number   1
_chemical_formula_structural   YEr2V(Co4P3)2
_chemical_formula_sum   'Y2 Er4 V2 Co16 P12'
_cell_volume   473.51935004
_cell_formula_units_Z   2
loop_
 _symmetry_equiv_pos_site_id
 _symmetry_equiv_pos_as_xyz
  1  'x, y, z'
loop_
 _atom_site_type_symbol
 _atom_site_label
 _atom_site_symmetry_multiplicity
 _atom_site_fract_x
 _atom_site_fract_y
 _atom_site_fract_z
 _atom_site_occupancy
  Y  Y0  1  0.000000  0.500000  0.523376  1
  Y  Y1  1  0.500000  0.000000  0.476624  1
  Er  Er2  1  0.500000  0.818715  0.204183  1
  Er  Er3  1  0.500000  0.181285  0.204183  1
  Er  Er4  1  0.000000  0.681285  0.795817  1
  Er  Er5  1  0.000000  0.318715  0.795817  1
  V  V6  1  0.500000  0.500000  0.154060  1
  V  V7  1  0.000000  0.000000  0.845940  1
  Co  Co8  1  0.500000  0.500000  0.702686  1
  Co  Co9  1  0.000000  0.000000  0.297314  1
  Co  Co10  1  0.000000  0.500000  0.986662  1
  Co  Co11  1  0.500000  0.000000  0.013338  1
  Co  Co12  1  0.500000  0.332447  0.992819  1
  Co  Co13  1  0.500000  0.667553  0.992819  1
  Co  Co14  1  0.000000  0.167553  0.007181  1
  Co  Co15  1  0.000000  0.832447  0.007181  1
  Co  Co16  1  0.500000  0.295774  0.430949  1
  Co  Co17  1  0.500000  0.704226  0.430949  1
  Co  Co18  1  0.000000  0.204226  0.569051  1
  Co  Co19  1  0.000000  0.795774  0.569051  1
  Co  Co20  1  0.500000  0.878416  0.708162  1
  Co  Co21  1  0.500000  0.121584  0.708162  1
  Co  Co22  1  0.000000  0.621584  0.291838  1
  Co  Co23  1  0.000000  0.378416  0.291838  1
  P  P24  1  0.500000  0.500000  0.881770  1
  P  P25  1  0.000000  0.000000  0.118230  1
  P  P26  1  0.500000  0.500000  0.346802  1
  P  P27  1  0.000000  0.000000  0.653198  1
  P  P28  1  0.500000  0.311121  0.616716  1
  P  P29  1  0.500000  0.688879  0.616716  1
  P  P30  1  0.000000  0.188879  0.383284  1
  P  P31  1  0.000000  0.811121  0.383284  1
  P  P32  1  0.500000  0.845660  0.891770  1
  P  P33  1  0.500000  0.154340  0.891770  1
  P  P34  1  0.000000  0.654340  0.108230  1
  P  P35  1  0.000000  0.345660  0.108230  1
