# generated using pymatgen
data_Hf3TaAl3WN
_symmetry_space_group_name_H-M   'P 1'
_cell_length_a   7.93888600
_cell_length_b   7.93888654
_cell_length_c   5.39701200
_cell_angle_alpha   90.00000000
_cell_angle_beta   90.00000000
_cell_angle_gamma   120.00000608
_symmetry_Int_Tables_number   1
_chemical_formula_structural   Hf3TaAl3WN
_chemical_formula_sum   'Hf6 Ta2 Al6 W2 N2'
_cell_volume   294.57992660
_cell_formula_units_Z   2
loop_
 _symmetry_equiv_pos_site_id
 _symmetry_equiv_pos_as_xyz
  1  'x, y, z'
loop_
 _atom_site_type_symbol
 _atom_site_label
 _atom_site_symmetry_multiplicity
 _atom_site_fract_x
 _atom_site_fract_y
 _atom_site_fract_z
 _atom_site_occupancy
  Hf  Hf0  1  0.230521  0.000000  0.249134  1
  Hf  Hf1  1  0.000000  0.230521  0.249134  1
  Hf  Hf2  1  0.769479  0.769479  0.249134  1
  Hf  Hf3  1  0.769479  0.000000  0.750866  1
  Hf  Hf4  1  0.000000  0.769479  0.750866  1
  Hf  Hf5  1  0.230521  0.230521  0.750866  1
  Ta  Ta6  1  0.666667  0.333333  0.000000  1
  Ta  Ta7  1  0.333333  0.666667  0.000000  1
  Al  Al8  1  0.586907  0.000000  0.260994  1
  Al  Al9  1  0.000000  0.586907  0.260994  1
  Al  Al10  1  0.413093  0.413093  0.260994  1
  Al  Al11  1  0.413093  0.000000  0.739006  1
  Al  Al12  1  0.000000  0.413093  0.739006  1
  Al  Al13  1  0.586907  0.586907  0.739006  1
  W  W14  1  0.666667  0.333333  0.500000  1
  W  W15  1  0.333333  0.666667  0.500000  1
  N  N16  1  0.000000  0.000000  0.000000  1
  N  N17  1  0.000000  0.000000  0.500000  1
