# generated using pymatgen
data_HfSc2Ga5Ir
_symmetry_space_group_name_H-M   'P 1'
_cell_length_a   6.70077000
_cell_length_b   6.61281791
_cell_length_c   4.08365700
_cell_angle_alpha   90.00000000
_cell_angle_beta   90.00000000
_cell_angle_gamma   120.44096257
_symmetry_Int_Tables_number   1
_chemical_formula_structural   HfSc2Ga5Ir
_chemical_formula_sum   'Hf1 Sc2 Ga5 Ir1'
_cell_volume   156.00704329
_cell_formula_units_Z   1
loop_
 _symmetry_equiv_pos_site_id
 _symmetry_equiv_pos_as_xyz
  1  'x, y, z'
loop_
 _atom_site_type_symbol
 _atom_site_label
 _atom_site_symmetry_multiplicity
 _atom_site_fract_x
 _atom_site_fract_y
 _atom_site_fract_z
 _atom_site_occupancy
  Hf  Hf0  1  0.588893  0.000000  0.000000  1
  Sc  Sc1  1  0.003752  0.586333  0.000000  1
  Sc  Sc2  1  0.417419  0.413667  0.000000  1
  Ga  Ga3  1  0.241180  0.000000  0.500000  1
  Ga  Ga4  1  0.001875  0.248403  0.500000  1
  Ga  Ga5  1  0.753472  0.751597  0.500000  1
  Ga  Ga6  1  0.336778  0.671042  0.500000  1
  Ga  Ga7  1  0.665735  0.328958  0.500000  1
  Ir  Ir8  1  0.990896  0.000000  0.000000  1
