# generated using pymatgen
data_Nd2Al7Ga2Ir2Pt
_symmetry_space_group_name_H-M   'P 1'
_cell_length_a   7.61867690
_cell_length_b   7.62055245
_cell_length_c   9.65182400
_cell_angle_alpha   90.00000000
_cell_angle_beta   90.00000000
_cell_angle_gamma   119.59282011
_symmetry_Int_Tables_number   1
_chemical_formula_structural   Nd2Al7Ga2Ir2Pt
_chemical_formula_sum   'Nd4 Al14 Ga4 Ir4 Pt2'
_cell_volume   487.27414939
_cell_formula_units_Z   2
loop_
 _symmetry_equiv_pos_site_id
 _symmetry_equiv_pos_as_xyz
  1  'x, y, z'
loop_
 _atom_site_type_symbol
 _atom_site_label
 _atom_site_symmetry_multiplicity
 _atom_site_fract_x
 _atom_site_fract_y
 _atom_site_fract_z
 _atom_site_occupancy
  Nd  Nd0  1  0.998503  0.674085  0.250000  1
  Nd  Nd1  1  0.001497  0.325915  0.750000  1
  Nd  Nd2  1  0.670487  0.993871  0.250000  1
  Nd  Nd3  1  0.329513  0.006129  0.750000  1
  Al  Al4  1  0.001680  0.338116  0.073356  1
  Al  Al5  1  0.998320  0.661884  0.926644  1
  Al  Al6  1  0.998320  0.661884  0.573356  1
  Al  Al7  1  0.338953  0.003111  0.427000  1
  Al  Al8  1  0.001680  0.338116  0.426644  1
  Al  Al9  1  0.661047  0.996889  0.573000  1
  Al  Al10  1  0.661047  0.996889  0.927000  1
  Al  Al11  1  0.338953  0.003111  0.073000  1
  Al  Al12  1  0.337759  0.338417  0.553824  1
  Al  Al13  1  0.662241  0.661583  0.446176  1
  Al  Al14  1  0.662241  0.661583  0.053824  1
  Al  Al15  1  0.337759  0.338417  0.946176  1
  Al  Al16  1  0.548782  0.339011  0.250000  1
  Al  Al17  1  0.451218  0.660989  0.750000  1
  Ga  Ga18  1  0.136459  0.137475  0.250000  1
  Ga  Ga19  1  0.863541  0.862525  0.750000  1
  Ga  Ga20  1  0.338221  0.545126  0.250000  1
  Ga  Ga21  1  0.661779  0.454874  0.750000  1
  Ir  Ir22  1  0.670285  0.328946  0.002236  1
  Ir  Ir23  1  0.329715  0.671054  0.997764  1
  Ir  Ir24  1  0.329715  0.671054  0.502236  1
  Ir  Ir25  1  0.670285  0.328946  0.497764  1
  Pt  Pt26  1  0.000000  0.000000  0.000000  1
  Pt  Pt27  1  0.000000  0.000000  0.500000  1
