# generated using pymatgen
data_ZnGa5(CuPt2)6
_symmetry_space_group_name_H-M   'P 1'
_cell_length_a   4.03501034
_cell_length_b   7.05345000
_cell_length_c   12.10219401
_cell_angle_alpha   90.00000000
_cell_angle_beta   90.04689276
_cell_angle_gamma   90.00000000
_symmetry_Int_Tables_number   1
_chemical_formula_structural   ZnGa5(CuPt2)6
_chemical_formula_sum   'Zn1 Ga5 Cu6 Pt12'
_cell_volume   344.43732627
_cell_formula_units_Z   1
loop_
 _symmetry_equiv_pos_site_id
 _symmetry_equiv_pos_as_xyz
  1  'x, y, z'
loop_
 _atom_site_type_symbol
 _atom_site_label
 _atom_site_symmetry_multiplicity
 _atom_site_fract_x
 _atom_site_fract_y
 _atom_site_fract_z
 _atom_site_occupancy
  Zn  Zn0  1  0.000000  0.000000  0.000000  1
  Ga  Ga1  1  0.500094  0.500000  0.167871  1
  Ga  Ga2  1  0.000010  0.000000  0.331981  1
  Ga  Ga3  1  0.500001  0.500000  0.500000  1
  Ga  Ga4  1  0.999990  0.000000  0.668019  1
  Ga  Ga5  1  0.499906  0.500000  0.832128  1
  Cu  Cu6  1  0.000000  0.500000  0.000000  1
  Cu  Cu7  1  0.500593  0.000000  0.161789  1
  Cu  Cu8  1  0.999776  0.500000  0.333736  1
  Cu  Cu9  1  0.500001  0.000000  0.500000  1
  Cu  Cu10  1  0.000224  0.500000  0.666264  1
  Cu  Cu11  1  0.499407  0.000000  0.838211  1
  Pt  Pt12  1  0.499999  0.256830  0.000000  1
  Pt  Pt13  1  0.499999  0.743170  0.000000  1
  Pt  Pt14  1  0.000059  0.250985  0.167214  1
  Pt  Pt15  1  0.000059  0.749015  0.167214  1
  Pt  Pt16  1  0.499982  0.247870  0.333403  1
  Pt  Pt17  1  0.499982  0.752131  0.333403  1
  Pt  Pt18  1  0.000000  0.250195  0.500000  1
  Pt  Pt19  1  0.000000  0.749805  0.500000  1
  Pt  Pt20  1  0.500018  0.247870  0.666598  1
  Pt  Pt21  1  0.500018  0.752131  0.666598  1
  Pt  Pt22  1  0.999940  0.250985  0.832786  1
  Pt  Pt23  1  0.999940  0.749015  0.832786  1
