# generated using pymatgen
data_CsTm3S5
_symmetry_space_group_name_H-M   'P 1'
_cell_length_a   3.94911200
_cell_length_b   11.85593100
_cell_length_c   21.11591800
_cell_angle_alpha   90.00000000
_cell_angle_beta   90.00000000
_cell_angle_gamma   90.00000000
_symmetry_Int_Tables_number   1
_chemical_formula_structural   CsTm3S5
_chemical_formula_sum   'Cs4 Tm12 S20'
_cell_volume   988.65571410
_cell_formula_units_Z   4
loop_
 _symmetry_equiv_pos_site_id
 _symmetry_equiv_pos_as_xyz
  1  'x, y, z'
loop_
 _atom_site_type_symbol
 _atom_site_label
 _atom_site_symmetry_multiplicity
 _atom_site_fract_x
 _atom_site_fract_y
 _atom_site_fract_z
 _atom_site_occupancy
  Cs  Cs0  1  0.250000  0.854701  0.091997  1
  Cs  Cs1  1  0.750000  0.145299  0.908003  1
  Cs  Cs2  1  0.750000  0.354701  0.408003  1
  Cs  Cs3  1  0.250000  0.645299  0.591997  1
  Tm  Tm4  1  0.750000  0.797471  0.825291  1
  Tm  Tm5  1  0.250000  0.202529  0.174709  1
  Tm  Tm6  1  0.250000  0.297471  0.674709  1
  Tm  Tm7  1  0.750000  0.702529  0.325291  1
  Tm  Tm8  1  0.250000  0.957024  0.697685  1
  Tm  Tm9  1  0.750000  0.042976  0.302315  1
  Tm  Tm10  1  0.750000  0.457024  0.802315  1
  Tm  Tm11  1  0.250000  0.542976  0.197685  1
  Tm  Tm12  1  0.750000  0.391351  0.053511  1
  Tm  Tm13  1  0.250000  0.608649  0.946489  1
  Tm  Tm14  1  0.250000  0.891351  0.446489  1
  Tm  Tm15  1  0.750000  0.108649  0.553511  1
  S  S16  1  0.250000  0.950796  0.568727  1
  S  S17  1  0.750000  0.049204  0.431273  1
  S  S18  1  0.750000  0.450796  0.931273  1
  S  S19  1  0.250000  0.549204  0.068727  1
  S  S20  1  0.750000  0.762005  0.951197  1
  S  S21  1  0.250000  0.237995  0.048803  1
  S  S22  1  0.250000  0.262005  0.548803  1
  S  S23  1  0.750000  0.737995  0.451197  1
  S  S24  1  0.250000  0.946574  0.824472  1
  S  S25  1  0.750000  0.053426  0.175528  1
  S  S26  1  0.750000  0.446574  0.675528  1
  S  S27  1  0.250000  0.553426  0.324472  1
  S  S28  1  0.750000  0.125747  0.683416  1
  S  S29  1  0.250000  0.874253  0.316584  1
  S  S30  1  0.250000  0.625747  0.816584  1
  S  S31  1  0.750000  0.374253  0.183416  1
  S  S32  1  0.750000  0.690572  0.198765  1
  S  S33  1  0.250000  0.309428  0.801235  1
  S  S34  1  0.250000  0.190572  0.301235  1
  S  S35  1  0.750000  0.809428  0.698765  1
