# generated using pymatgen
data_TbHo3Th4(ReB6)4
_symmetry_space_group_name_H-M   'P 1'
_cell_length_a   3.77003000
_cell_length_b   9.26668408
_cell_length_c   11.69501110
_cell_angle_alpha   90.01507687
_cell_angle_beta   90.00000000
_cell_angle_gamma   90.00000000
_symmetry_Int_Tables_number   1
_chemical_formula_structural   TbHo3Th4(ReB6)4
_chemical_formula_sum   'Tb1 Ho3 Th4 Re4 B24'
_cell_volume   408.57311600
_cell_formula_units_Z   1
loop_
 _symmetry_equiv_pos_site_id
 _symmetry_equiv_pos_as_xyz
  1  'x, y, z'
loop_
 _atom_site_type_symbol
 _atom_site_label
 _atom_site_symmetry_multiplicity
 _atom_site_fract_x
 _atom_site_fract_y
 _atom_site_fract_z
 _atom_site_occupancy
  Tb  Tb0  1  0.000000  0.944696  0.372781  1
  Ho  Ho1  1  0.000000  0.055437  0.627665  1
  Ho  Ho2  1  0.000000  0.444687  0.127214  1
  Ho  Ho3  1  0.000000  0.555315  0.872663  1
  Th  Th4  1  0.000000  0.322334  0.414157  1
  Th  Th5  1  0.000000  0.677718  0.586036  1
  Th  Th6  1  0.000000  0.822120  0.085779  1
  Th  Th7  1  0.000000  0.177875  0.914058  1
  Re  Re8  1  0.000000  0.638374  0.319973  1
  Re  Re9  1  0.000000  0.361045  0.680049  1
  Re  Re10  1  0.000000  0.139479  0.179561  1
  Re  Re11  1  0.000000  0.860932  0.820097  1
  B  B12  1  0.500000  0.555863  0.429966  1
  B  B13  1  0.500000  0.443807  0.570148  1
  B  B14  1  0.500000  0.056212  0.069864  1
  B  B15  1  0.500000  0.943880  0.929905  1
  B  B16  1  0.500000  0.748776  0.417093  1
  B  B17  1  0.500000  0.250506  0.582962  1
  B  B18  1  0.500000  0.249700  0.082816  1
  B  B19  1  0.500000  0.750416  0.917088  1
  B  B20  1  0.500000  0.790131  0.266638  1
  B  B21  1  0.500000  0.209211  0.733245  1
  B  B22  1  0.500000  0.291153  0.233105  1
  B  B23  1  0.500000  0.709149  0.766824  1
  B  B24  1  0.500000  0.630284  0.186171  1
  B  B25  1  0.500000  0.369515  0.813714  1
  B  B26  1  0.500000  0.131139  0.313322  1
  B  B27  1  0.500000  0.869421  0.686392  1
  B  B28  1  0.500000  0.985624  0.213473  1
  B  B29  1  0.500000  0.014794  0.786068  1
  B  B30  1  0.500000  0.485010  0.285949  1
  B  B31  1  0.500000  0.514823  0.714011  1
  B  B32  1  0.500000  0.602803  0.028318  1
  B  B33  1  0.500000  0.397172  0.971599  1
  B  B34  1  0.500000  0.103835  0.472118  1
  B  B35  1  0.500000  0.896764  0.529176  1
