# generated using pymatgen
data_LaNdCo2Sn2C
_symmetry_space_group_name_H-M   'P 1'
_cell_length_a   5.96737553
_cell_length_b   5.96737554
_cell_length_c   7.37719606
_cell_angle_alpha   123.69293406
_cell_angle_beta   123.69293251
_cell_angle_gamma   42.72099253
_symmetry_Int_Tables_number   1
_chemical_formula_structural   LaNdCo2Sn2C
_chemical_formula_sum   'La1 Nd1 Co2 Sn2 C1'
_cell_volume   143.15489232
_cell_formula_units_Z   1
loop_
 _symmetry_equiv_pos_site_id
 _symmetry_equiv_pos_as_xyz
  1  'x, y, z'
loop_
 _atom_site_type_symbol
 _atom_site_label
 _atom_site_symmetry_multiplicity
 _atom_site_fract_x
 _atom_site_fract_y
 _atom_site_fract_z
 _atom_site_occupancy
  La  La0  1  0.558434  0.558434  0.827188  1
  Nd  Nd1  1  0.443616  0.443616  0.173580  1
  Co  Co2  1  0.180828  0.180828  0.246197  1
  Co  Co3  1  0.819086  0.819086  0.753866  1
  Sn  Sn4  1  0.827743  0.827743  0.400465  1
  Sn  Sn5  1  0.171800  0.171800  0.595909  1
  C  C6  1  0.998490  0.998490  0.002796  1
