# generated using pymatgen
data_Li2Er3Tm5(Sc5Si8)2
_symmetry_space_group_name_H-M   'P 1'
_cell_length_a   6.95213104
_cell_length_b   7.35566261
_cell_length_c   13.93153241
_cell_angle_alpha   90.02475731
_cell_angle_beta   90.01234577
_cell_angle_gamma   89.95431344
_symmetry_Int_Tables_number   1
_chemical_formula_structural   Li2Er3Tm5(Sc5Si8)2
_chemical_formula_sum   'Li2 Er3 Tm5 Sc10 Si16'
_cell_volume   712.42385203
_cell_formula_units_Z   1
loop_
 _symmetry_equiv_pos_site_id
 _symmetry_equiv_pos_as_xyz
  1  'x, y, z'
loop_
 _atom_site_type_symbol
 _atom_site_label
 _atom_site_symmetry_multiplicity
 _atom_site_fract_x
 _atom_site_fract_y
 _atom_site_fract_z
 _atom_site_occupancy
  Li  Li0  1  0.159780  0.506329  0.749968  1
  Li  Li1  1  0.840193  0.493660  0.250018  1
  Er  Er2  1  0.010067  0.184521  0.097997  1
  Er  Er3  1  0.989942  0.815559  0.902046  1
  Er  Er4  1  0.485286  0.674907  0.902920  1
  Tm  Tm5  1  0.989872  0.815399  0.598038  1
  Tm  Tm6  1  0.514689  0.325020  0.097131  1
  Tm  Tm7  1  0.010127  0.184592  0.401956  1
  Tm  Tm8  1  0.514707  0.325005  0.402907  1
  Tm  Tm9  1  0.485289  0.674980  0.597121  1
  Sc  Sc10  1  0.341146  0.003968  0.250039  1
  Sc  Sc11  1  0.658904  0.996104  0.749941  1
  Sc  Sc12  1  0.326501  0.181153  0.626242  1
  Sc  Sc13  1  0.673496  0.818839  0.373756  1
  Sc  Sc14  1  0.166022  0.674773  0.373125  1
  Sc  Sc15  1  0.673474  0.818834  0.126298  1
  Sc  Sc16  1  0.833992  0.325214  0.626861  1
  Sc  Sc17  1  0.326537  0.181164  0.873726  1
  Sc  Sc18  1  0.833977  0.325218  0.873088  1
  Sc  Sc19  1  0.166047  0.674708  0.126910  1
  Si  Si20  1  0.029267  0.100247  0.749917  1
  Si  Si21  1  0.970726  0.899769  0.250070  1
  Si  Si22  1  0.466632  0.610766  0.250019  1
  Si  Si23  1  0.533425  0.389127  0.749938  1
  Si  Si24  1  0.287176  0.876710  0.749861  1
  Si  Si25  1  0.712716  0.123405  0.250072  1
  Si  Si26  1  0.220105  0.371083  0.250065  1
  Si  Si27  1  0.780017  0.628863  0.749852  1
  Si  Si28  1  0.161126  0.461565  0.533470  1
  Si  Si29  1  0.838883  0.538435  0.466529  1
  Si  Si30  1  0.341951  0.967088  0.461229  1
  Si  Si31  1  0.838882  0.538406  0.033494  1
  Si  Si32  1  0.658038  0.032905  0.538759  1
  Si  Si33  1  0.160990  0.461461  0.966582  1
  Si  Si34  1  0.657866  0.033117  0.961284  1
  Si  Si35  1  0.342150  0.967108  0.038771  1
