# generated using pymatgen
data_CaHf7FeSi16Ru11
_symmetry_space_group_name_H-M   'P 1'
_cell_length_a   9.89306380
_cell_length_b   9.92353122
_cell_length_c   13.35403357
_cell_angle_alpha   53.90806451
_cell_angle_beta   53.78839926
_cell_angle_gamma   31.22080765
_symmetry_Int_Tables_number   1
_chemical_formula_structural   CaHf7FeSi16Ru11
_chemical_formula_sum   'Ca1 Hf7 Fe1 Si16 Ru11'
_cell_volume   537.15086838
_cell_formula_units_Z   1
loop_
 _symmetry_equiv_pos_site_id
 _symmetry_equiv_pos_as_xyz
  1  'x, y, z'
loop_
 _atom_site_type_symbol
 _atom_site_label
 _atom_site_symmetry_multiplicity
 _atom_site_fract_x
 _atom_site_fract_y
 _atom_site_fract_z
 _atom_site_occupancy
  Ca  Ca0  1  0.302073  0.559834  0.641364  1
  Hf  Hf1  1  0.444554  0.702157  0.853360  1
  Hf  Hf2  1  0.710777  0.442382  0.348507  1
  Hf  Hf3  1  0.552679  0.297150  0.150440  1
  Hf  Hf4  1  0.037271  0.296058  0.634851  1
  Hf  Hf5  1  0.705668  0.960498  0.865414  1
  Hf  Hf6  1  0.957976  0.707268  0.362267  1
  Hf  Hf7  1  0.294398  0.038678  0.136762  1
  Fe  Fe8  1  0.650477  0.825767  0.279271  1
  Si  Si9  1  0.871800  0.127397  0.249693  1
  Si  Si10  1  0.123793  0.877197  0.750836  1
  Si  Si11  1  0.380238  0.614206  0.251694  1
  Si  Si12  1  0.624467  0.379573  0.751402  1
  Si  Si13  1  0.970275  0.254942  0.894562  1
  Si  Si14  1  0.746492  0.024796  0.607423  1
  Si  Si15  1  0.019762  0.747984  0.111315  1
  Si  Si16  1  0.263025  0.971831  0.388855  1
  Si  Si17  1  0.575468  0.077011  0.071781  1
  Si  Si18  1  0.904171  0.439271  0.433257  1
  Si  Si19  1  0.423915  0.920229  0.933738  1
  Si  Si20  1  0.086005  0.571743  0.563870  1
  Si  Si21  1  0.391147  0.136862  0.393495  1
  Si  Si22  1  0.855696  0.614465  0.105275  1
  Si  Si23  1  0.613652  0.855148  0.603455  1
  Si  Si24  1  0.143724  0.387932  0.896349  1
  Ru  Ru25  1  0.171161  0.350411  0.221466  1
  Ru  Ru26  1  0.756331  0.486360  0.070529  1
  Ru  Ru27  1  0.827702  0.647079  0.782966  1
  Ru  Ru28  1  0.902232  0.145205  0.582454  1
  Ru  Ru29  1  0.861475  0.092554  0.919810  1
  Ru  Ru30  1  0.097745  0.866258  0.409432  1
  Ru  Ru31  1  0.138392  0.902731  0.084461  1
  Ru  Ru32  1  0.246683  0.509931  0.934048  1
  Ru  Ru33  1  0.480278  0.770690  0.563957  1
  Ru  Ru34  1  0.519831  0.232559  0.432296  1
  Ru  Ru35  1  0.348662  0.165841  0.719347  1
