# generated using pymatgen
data_LaPr11(OsPd)2
_symmetry_space_group_name_H-M   'P 1'
_cell_length_a   6.55678230
_cell_length_b   7.50995883
_cell_length_c   9.98688900
_cell_angle_alpha   90.00000000
_cell_angle_beta   90.00000000
_cell_angle_gamma   90.92074722
_symmetry_Int_Tables_number   1
_chemical_formula_structural   LaPr11(OsPd)2
_chemical_formula_sum   'La1 Pr11 Os2 Pd2'
_cell_volume   491.70255312
_cell_formula_units_Z   1
loop_
 _symmetry_equiv_pos_site_id
 _symmetry_equiv_pos_as_xyz
  1  'x, y, z'
loop_
 _atom_site_type_symbol
 _atom_site_label
 _atom_site_symmetry_multiplicity
 _atom_site_fract_x
 _atom_site_fract_y
 _atom_site_fract_z
 _atom_site_occupancy
  La  La0  1  0.845291  0.526385  0.250000  1
  Pr  Pr1  1  0.336673  0.674484  0.062332  1
  Pr  Pr2  1  0.168942  0.186462  0.433088  1
  Pr  Pr3  1  0.662985  0.326022  0.563794  1
  Pr  Pr4  1  0.831484  0.814324  0.933129  1
  Pr  Pr5  1  0.662985  0.326022  0.936206  1
  Pr  Pr6  1  0.831484  0.814324  0.566871  1
  Pr  Pr7  1  0.336673  0.674484  0.437668  1
  Pr  Pr8  1  0.168942  0.186462  0.066912  1
  Pr  Pr9  1  0.634347  0.037681  0.250000  1
  Pr  Pr10  1  0.148147  0.472998  0.750000  1
  Pr  Pr11  1  0.365922  0.960961  0.750000  1
  Os  Os12  1  0.442378  0.382400  0.250000  1
  Os  Os13  1  0.563621  0.619120  0.750000  1
  Pd  Pd14  1  0.069329  0.880527  0.250000  1
  Pd  Pd15  1  0.930795  0.117346  0.750000  1
