# generated using pymatgen
data_Ce4YHo5(Ga2Ru3)2
_symmetry_space_group_name_H-M   'P 1'
_cell_length_a   8.39816570
_cell_length_b   8.38743148
_cell_length_c   8.40738400
_cell_angle_alpha   110.05866521
_cell_angle_beta   110.37831166
_cell_angle_gamma   109.80225806
_symmetry_Int_Tables_number   1
_chemical_formula_structural   Ce4YHo5(Ga2Ru3)2
_chemical_formula_sum   'Ce4 Y1 Ho5 Ga4 Ru6'
_cell_volume   445.30666434
_cell_formula_units_Z   1
loop_
 _symmetry_equiv_pos_site_id
 _symmetry_equiv_pos_as_xyz
  1  'x, y, z'
loop_
 _atom_site_type_symbol
 _atom_site_label
 _atom_site_symmetry_multiplicity
 _atom_site_fract_x
 _atom_site_fract_y
 _atom_site_fract_z
 _atom_site_occupancy
  Ce  Ce0  1  0.501436  0.994092  0.705819  1
  Ce  Ce1  1  0.256220  0.204775  0.950686  1
  Ce  Ce2  1  0.942749  0.247441  0.193908  1
  Ce  Ce3  1  0.198020  0.944045  0.246924  1
  Y  Y4  1  0.768805  0.770537  0.770369  1
  Ho  Ho5  1  0.309983  0.563690  0.750917  1
  Ho  Ho6  1  0.756091  0.315342  0.564057  1
  Ho  Ho7  1  0.564609  0.747446  0.305151  1
  Ho  Ho8  1  0.729236  0.509206  0.999140  1
  Ho  Ho9  1  0.995467  0.727241  0.507870  1
  Ga  Ga10  1  0.405918  0.403564  0.407041  1
  Ga  Ga11  1  0.097483  0.499391  0.007453  1
  Ga  Ga12  1  0.001125  0.095184  0.503023  1
  Ga  Ga13  1  0.499637  0.002753  0.092425  1
  Ru  Ru14  1  0.883980  0.116664  0.752084  1
  Ru  Ru15  1  0.754540  0.896728  0.119514  1
  Ru  Ru16  1  0.118897  0.755089  0.901517  1
  Ru  Ru17  1  0.236377  0.613977  0.385402  1
  Ru  Ru18  1  0.374716  0.220065  0.609854  1
  Ru  Ru19  1  0.604707  0.372772  0.226848  1
