# generated using pymatgen
data_YbAg3Ru2(PtO7)2
_symmetry_space_group_name_H-M   'P 1'
_cell_length_a   7.24694703
_cell_length_b   7.18285944
_cell_length_c   7.11451500
_cell_angle_alpha   60.31426010
_cell_angle_beta   60.60269067
_cell_angle_gamma   60.80737937
_symmetry_Int_Tables_number   1
_chemical_formula_structural   YbAg3Ru2(PtO7)2
_chemical_formula_sum   'Yb1 Ag3 Ru2 Pt2 O14'
_cell_volume   265.25842851
_cell_formula_units_Z   1
loop_
 _symmetry_equiv_pos_site_id
 _symmetry_equiv_pos_as_xyz
  1  'x, y, z'
loop_
 _atom_site_type_symbol
 _atom_site_label
 _atom_site_symmetry_multiplicity
 _atom_site_fract_x
 _atom_site_fract_y
 _atom_site_fract_z
 _atom_site_occupancy
  Yb  Yb0  1  0.625000  0.125000  0.125000  1
  Ag  Ag1  1  0.125000  0.125000  0.125000  1
  Ag  Ag2  1  0.125000  0.125000  0.625000  1
  Ag  Ag3  1  0.125000  0.625000  0.125000  1
  Ru  Ru4  1  0.125000  0.625000  0.625000  1
  Ru  Ru5  1  0.625000  0.125000  0.625000  1
  Pt  Pt6  1  0.625000  0.625000  0.625000  1
  Pt  Pt7  1  0.625000  0.625000  0.125000  1
  O  O8  1  0.027804  0.988680  0.991757  1
  O  O9  1  0.222196  0.261320  0.258243  1
  O  O10  1  0.322561  0.321793  0.677823  1
  O  O11  1  0.532910  0.532648  0.967221  1
  O  O12  1  0.711932  0.291208  0.698470  1
  O  O13  1  0.711932  0.291208  0.298390  1
  O  O14  1  0.297747  0.710215  0.688772  1
  O  O15  1  0.297747  0.710215  0.303266  1
  O  O16  1  0.717090  0.717352  0.282779  1
  O  O17  1  0.952253  0.539785  0.561228  1
  O  O18  1  0.538068  0.958792  0.951610  1
  O  O19  1  0.927439  0.928207  0.572177  1
  O  O20  1  0.952253  0.539785  0.946734  1
  O  O21  1  0.538068  0.958792  0.551530  1
