# generated using pymatgen
data_Li4Tm3ScPt4
_symmetry_space_group_name_H-M   'P 1'
_cell_length_a   3.87911600
_cell_length_b   6.93318260
_cell_length_c   8.43305100
_cell_angle_alpha   90.34488334
_cell_angle_beta   90.00000000
_cell_angle_gamma   90.00000000
_symmetry_Int_Tables_number   1
_chemical_formula_structural   Li4Tm3ScPt4
_chemical_formula_sum   'Li4 Tm3 Sc1 Pt4'
_cell_volume   226.79958960
_cell_formula_units_Z   1
loop_
 _symmetry_equiv_pos_site_id
 _symmetry_equiv_pos_as_xyz
  1  'x, y, z'
loop_
 _atom_site_type_symbol
 _atom_site_label
 _atom_site_symmetry_multiplicity
 _atom_site_fract_x
 _atom_site_fract_y
 _atom_site_fract_z
 _atom_site_occupancy
  Li  Li0  1  0.250000  0.884239  0.945673  1
  Li  Li1  1  0.250000  0.374904  0.554402  1
  Li  Li2  1  0.750000  0.122992  0.057693  1
  Li  Li3  1  0.750000  0.621074  0.441378  1
  Tm  Tm4  1  0.250000  0.449583  0.181723  1
  Tm  Tm5  1  0.750000  0.052579  0.674388  1
  Tm  Tm6  1  0.750000  0.558443  0.824339  1
  Sc  Sc7  1  0.250000  0.939782  0.324124  1
  Pt  Pt8  1  0.250000  0.262723  0.871258  1
  Pt  Pt9  1  0.250000  0.758453  0.622533  1
  Pt  Pt10  1  0.750000  0.750602  0.135237  1
  Pt  Pt11  1  0.750000  0.224621  0.367251  1
