# generated using pymatgen
data_Cs12Na8Zr3SnP12
_symmetry_space_group_name_H-M   'P 1'
_cell_length_a   10.84493033
_cell_length_b   10.84493086
_cell_length_c   16.61152662
_cell_angle_alpha   90.01021630
_cell_angle_beta   90.01021842
_cell_angle_gamma   142.72269520
_symmetry_Int_Tables_number   1
_chemical_formula_structural   Cs12Na8Zr3SnP12
_chemical_formula_sum   'Cs12 Na8 Zr3 Sn1 P12'
_cell_volume   1183.31790001
_cell_formula_units_Z   1
loop_
 _symmetry_equiv_pos_site_id
 _symmetry_equiv_pos_as_xyz
  1  'x, y, z'
loop_
 _atom_site_type_symbol
 _atom_site_label
 _atom_site_symmetry_multiplicity
 _atom_site_fract_x
 _atom_site_fract_y
 _atom_site_fract_z
 _atom_site_occupancy
  Cs  Cs0  1  0.941454  0.605609  0.826833  1
  Cs  Cs1  1  0.551255  0.891063  0.324431  1
  Cs  Cs2  1  0.394391  0.058546  0.173167  1
  Cs  Cs3  1  0.051220  0.390734  0.174614  1
  Cs  Cs4  1  0.890628  0.551071  0.325390  1
  Cs  Cs5  1  0.448929  0.109372  0.674610  1
  Cs  Cs6  1  0.609266  0.948780  0.825386  1
  Cs  Cs7  1  0.281574  0.281587  0.316840  1
  Cs  Cs8  1  0.779358  0.776953  0.183585  1
  Cs  Cs9  1  0.223047  0.220642  0.816415  1
  Cs  Cs10  1  0.718413  0.718426  0.683160  1
  Cs  Cs11  1  0.108937  0.448745  0.675569  1
  Na  Na12  1  0.919341  0.080659  0.000000  1
  Na  Na13  1  0.580134  0.419866  0.500000  1
  Na  Na14  1  0.080522  0.919478  0.000000  1
  Na  Na15  1  0.419808  0.580192  0.500000  1
  Na  Na16  1  0.754085  0.245915  0.000000  1
  Na  Na17  1  0.745053  0.254947  0.500000  1
  Na  Na18  1  0.245673  0.754327  0.000000  1
  Na  Na19  1  0.254993  0.745007  0.500000  1
  Zr  Zr20  1  0.914168  0.085832  0.500000  1
  Zr  Zr21  1  0.417359  0.582641  0.000000  1
  Zr  Zr22  1  0.085813  0.914187  0.500000  1
  Sn  Sn23  1  0.584466  0.415534  0.000000  1
  P  P24  1  0.871209  0.560551  0.091370  1
  P  P25  1  0.439449  0.128791  0.908630  1
  P  P26  1  0.630190  0.941811  0.589674  1
  P  P27  1  0.941668  0.630091  0.589662  1
  P  P28  1  0.134007  0.443072  0.910999  1
  P  P29  1  0.556928  0.865993  0.089001  1
  P  P30  1  0.369909  0.058332  0.410338  1
  P  P31  1  0.197658  0.197637  0.581331  1
  P  P32  1  0.703269  0.704727  0.914800  1
  P  P33  1  0.295273  0.296731  0.085200  1
  P  P34  1  0.058189  0.369810  0.410326  1
  P  P35  1  0.802363  0.802342  0.418669  1
