# generated using pymatgen
data_Pr5Ho5(SnBi)4
_symmetry_space_group_name_H-M   'P 1'
_cell_length_a   8.34078000
_cell_length_b   8.36736045
_cell_length_c   15.92175300
_cell_angle_alpha   90.08141035
_cell_angle_beta   90.00000000
_cell_angle_gamma   90.00000000
_symmetry_Int_Tables_number   1
_chemical_formula_structural   Pr5Ho5(SnBi)4
_chemical_formula_sum   'Pr10 Ho10 Sn8 Bi8'
_cell_volume   1111.18299835
_cell_formula_units_Z   2
loop_
 _symmetry_equiv_pos_site_id
 _symmetry_equiv_pos_as_xyz
  1  'x, y, z'
loop_
 _atom_site_type_symbol
 _atom_site_label
 _atom_site_symmetry_multiplicity
 _atom_site_fract_x
 _atom_site_fract_y
 _atom_site_fract_z
 _atom_site_occupancy
  Pr  Pr0  1  0.382114  0.837370  0.620845  1
  Pr  Pr1  1  0.882114  0.662630  0.879155  1
  Pr  Pr2  1  0.542376  0.323197  0.894888  1
  Pr  Pr3  1  0.042376  0.176803  0.605112  1
  Pr  Pr4  1  0.456624  0.673712  0.392252  1
  Pr  Pr5  1  0.956624  0.826288  0.107748  1
  Pr  Pr6  1  0.460386  0.675287  0.106447  1
  Pr  Pr7  1  0.960386  0.824713  0.393553  1
  Pr  Pr8  1  0.540368  0.325034  0.606071  1
  Pr  Pr9  1  0.040368  0.174966  0.893929  1
  Ho  Ho10  1  0.377004  0.839029  0.874479  1
  Ho  Ho11  1  0.877004  0.660971  0.625521  1
  Ho  Ho12  1  0.622062  0.160248  0.374792  1
  Ho  Ho13  1  0.122062  0.339752  0.125208  1
  Ho  Ho14  1  0.619658  0.160113  0.127208  1
  Ho  Ho15  1  0.119658  0.339887  0.372792  1
  Ho  Ho16  1  0.210707  0.497149  0.749501  1
  Ho  Ho17  1  0.710707  0.002851  0.750499  1
  Ho  Ho18  1  0.788797  0.501350  0.251408  1
  Ho  Ho19  1  0.288797  0.998650  0.248592  1
  Sn  Sn20  1  0.576720  0.626551  0.751219  1
  Sn  Sn21  1  0.076720  0.873449  0.748781  1
  Sn  Sn22  1  0.423168  0.369894  0.250495  1
  Sn  Sn23  1  0.923168  0.130106  0.249505  1
  Sn  Sn24  1  0.348007  0.141956  0.750747  1
  Sn  Sn25  1  0.848007  0.358044  0.749253  1
  Sn  Sn26  1  0.650982  0.859382  0.250687  1
  Sn  Sn27  1  0.150982  0.640618  0.249313  1
  Bi  Bi28  1  0.280780  0.030951  0.044720  1
  Bi  Bi29  1  0.780780  0.469049  0.455280  1
  Bi  Bi30  1  0.725752  0.972058  0.543925  1
  Bi  Bi31  1  0.225752  0.527942  0.956075  1
  Bi  Bi32  1  0.712708  0.974040  0.957218  1
  Bi  Bi33  1  0.212708  0.525960  0.542782  1
  Bi  Bi34  1  0.281787  0.035740  0.451166  1
  Bi  Bi35  1  0.781787  0.464260  0.048834  1
