# generated using pymatgen
data_LiTbDy(ScSi2)2
_symmetry_space_group_name_H-M   'P 1'
_cell_length_a   6.90134414
_cell_length_b   7.40830310
_cell_length_c   14.08504710
_cell_angle_alpha   89.99958483
_cell_angle_beta   90.01353509
_cell_angle_gamma   89.98130087
_symmetry_Int_Tables_number   1
_chemical_formula_structural   LiTbDy(ScSi2)2
_chemical_formula_sum   'Li4 Tb4 Dy4 Sc8 Si16'
_cell_volume   720.12965421
_cell_formula_units_Z   4
loop_
 _symmetry_equiv_pos_site_id
 _symmetry_equiv_pos_as_xyz
  1  'x, y, z'
loop_
 _atom_site_type_symbol
 _atom_site_label
 _atom_site_symmetry_multiplicity
 _atom_site_fract_x
 _atom_site_fract_y
 _atom_site_fract_z
 _atom_site_occupancy
  Li  Li0  1  0.159154  0.505082  0.749967  1
  Li  Li1  1  0.840826  0.494812  0.250023  1
  Li  Li2  1  0.340908  0.005203  0.250031  1
  Li  Li3  1  0.659076  0.994895  0.749974  1
  Tb  Tb4  1  0.013748  0.181784  0.099313  1
  Tb  Tb5  1  0.986227  0.818340  0.900703  1
  Tb  Tb6  1  0.486242  0.681644  0.900808  1
  Tb  Tb7  1  0.986231  0.818266  0.599237  1
  Dy  Dy8  1  0.513797  0.318150  0.099355  1
  Dy  Dy9  1  0.013808  0.181935  0.400606  1
  Dy  Dy10  1  0.513791  0.318077  0.400706  1
  Dy  Dy11  1  0.486185  0.681802  0.599277  1
  Sc  Sc12  1  0.330342  0.179282  0.626439  1
  Sc  Sc13  1  0.669693  0.820803  0.373518  1
  Sc  Sc14  1  0.169852  0.679148  0.373500  1
  Sc  Sc15  1  0.669685  0.820778  0.126565  1
  Sc  Sc16  1  0.830202  0.320824  0.626402  1
  Sc  Sc17  1  0.330369  0.179250  0.873531  1
  Sc  Sc18  1  0.830205  0.320798  0.873510  1
  Sc  Sc19  1  0.169824  0.679111  0.126532  1
  Si  Si20  1  0.031808  0.104868  0.749959  1
  Si  Si21  1  0.968265  0.895399  0.250125  1
  Si  Si22  1  0.468437  0.604427  0.250037  1
  Si  Si23  1  0.531639  0.395302  0.749872  1
  Si  Si24  1  0.282289  0.882295  0.749878  1
  Si  Si25  1  0.717791  0.118093  0.250161  1
  Si  Si26  1  0.218216  0.381916  0.250121  1
  Si  Si27  1  0.781863  0.617696  0.749836  1
  Si  Si28  1  0.158093  0.462891  0.535189  1
  Si  Si29  1  0.841910  0.536593  0.464613  1
  Si  Si30  1  0.342078  0.963207  0.464668  1
  Si  Si31  1  0.841935  0.536830  0.035333  1
  Si  Si32  1  0.657687  0.037015  0.535176  1
  Si  Si33  1  0.157832  0.462959  0.964825  1
  Si  Si34  1  0.657656  0.037251  0.964884  1
  Si  Si35  1  0.342337  0.963273  0.035326  1
