# generated using pymatgen
data_Lu12Tc3Pd2
_symmetry_space_group_name_H-M   'P 1'
_cell_length_a   8.09984607
_cell_length_b   8.09984635
_cell_length_c   8.09984654
_cell_angle_alpha   110.74334149
_cell_angle_beta   110.74335576
_cell_angle_gamma   106.95586324
_symmetry_Int_Tables_number   1
_chemical_formula_structural   Lu12Tc3Pd2
_chemical_formula_sum   'Lu12 Tc3 Pd2'
_cell_volume   408.49215705
_cell_formula_units_Z   1
loop_
 _symmetry_equiv_pos_site_id
 _symmetry_equiv_pos_as_xyz
  1  'x, y, z'
loop_
 _atom_site_type_symbol
 _atom_site_label
 _atom_site_symmetry_multiplicity
 _atom_site_fract_x
 _atom_site_fract_y
 _atom_site_fract_z
 _atom_site_occupancy
  Lu  Lu0  1  0.320712  0.320712  0.641425  1
  Lu  Lu1  1  0.679288  0.679288  0.358575  1
  Lu  Lu2  1  0.679288  0.320712  0.000000  1
  Lu  Lu3  1  0.320712  0.679288  0.000000  1
  Lu  Lu4  1  0.181973  0.437357  0.255384  1
  Lu  Lu5  1  0.818027  0.562643  0.744616  1
  Lu  Lu6  1  0.181973  0.926586  0.744616  1
  Lu  Lu7  1  0.926586  0.181973  0.744616  1
  Lu  Lu8  1  0.818027  0.073414  0.255384  1
  Lu  Lu9  1  0.073414  0.818027  0.255384  1
  Lu  Lu10  1  0.437357  0.181973  0.255384  1
  Lu  Lu11  1  0.562643  0.818027  0.744616  1
  Tc  Tc12  1  0.333887  0.333887  0.000000  1
  Tc  Tc13  1  0.666113  0.666113  0.000000  1
  Tc  Tc14  1  0.000000  0.000000  0.000000  1
  Pd  Pd15  1  0.000000  0.500000  0.500000  1
  Pd  Pd16  1  0.500000  0.000000  0.500000  1
