# generated using pymatgen
data_Tm8Hf3Si16Mo9
_symmetry_space_group_name_H-M   'P 1'
_cell_length_a   6.94719591
_cell_length_b   6.94719626
_cell_length_c   12.83205006
_cell_angle_alpha   89.92859769
_cell_angle_beta   90.07140499
_cell_angle_gamma   89.74595414
_symmetry_Int_Tables_number   1
_chemical_formula_structural   Tm8Hf3Si16Mo9
_chemical_formula_sum   'Tm8 Hf3 Si16 Mo9'
_cell_volume   619.31302293
_cell_formula_units_Z   1
loop_
 _symmetry_equiv_pos_site_id
 _symmetry_equiv_pos_as_xyz
  1  'x, y, z'
loop_
 _atom_site_type_symbol
 _atom_site_label
 _atom_site_symmetry_multiplicity
 _atom_site_fract_x
 _atom_site_fract_y
 _atom_site_fract_z
 _atom_site_occupancy
  Tm  Tm0  1  0.000732  0.338244  0.216838  1
  Tm  Tm1  1  0.004218  0.660113  0.720802  1
  Tm  Tm2  1  0.160461  0.497718  0.468714  1
  Tm  Tm3  1  0.499408  0.841504  0.030789  1
  Tm  Tm4  1  0.841504  0.499408  0.969211  1
  Tm  Tm5  1  0.497718  0.160461  0.531286  1
  Tm  Tm6  1  0.338244  0.000732  0.783162  1
  Tm  Tm7  1  0.660113  0.004218  0.279198  1
  Hf  Hf8  1  0.831816  0.831816  0.500000  1
  Hf  Hf9  1  0.330313  0.668875  0.247669  1
  Hf  Hf10  1  0.668875  0.330313  0.752331  1
  Si  Si11  1  0.369382  0.294766  0.317885  1
  Si  Si12  1  0.628813  0.706906  0.818618  1
  Si  Si13  1  0.204715  0.870698  0.569115  1
  Si  Si14  1  0.126973  0.803847  0.933499  1
  Si  Si15  1  0.803847  0.126973  0.066501  1
  Si  Si16  1  0.870698  0.204715  0.430885  1
  Si  Si17  1  0.294766  0.369382  0.682115  1
  Si  Si18  1  0.706906  0.628813  0.181382  1
  Si  Si19  1  0.288977  0.046485  0.182795  1
  Si  Si20  1  0.707110  0.958172  0.688760  1
  Si  Si21  1  0.456719  0.792207  0.437571  1
  Si  Si22  1  0.210448  0.532828  0.058416  1
  Si  Si23  1  0.532828  0.210448  0.941584  1
  Si  Si24  1  0.792207  0.456719  0.562429  1
  Si  Si25  1  0.046485  0.288977  0.817205  1
  Si  Si26  1  0.958172  0.707110  0.311240  1
  Mo  Mo27  1  0.167777  0.167777  0.000000  1
  Mo  Mo28  1  0.159869  0.995863  0.375349  1
  Mo  Mo29  1  0.832675  0.002057  0.877416  1
  Mo  Mo30  1  0.505277  0.659150  0.626810  1
  Mo  Mo31  1  0.345040  0.499846  0.873121  1
  Mo  Mo32  1  0.499846  0.345040  0.126879  1
  Mo  Mo33  1  0.659150  0.505277  0.373190  1
  Mo  Mo34  1  0.995863  0.159869  0.624651  1
  Mo  Mo35  1  0.002057  0.832675  0.122584  1
