# generated using pymatgen
data_NaSb11
_symmetry_space_group_name_H-M   'P 1'
_cell_length_a   4.38456700
_cell_length_b   4.38456726
_cell_length_c   21.56605900
_cell_angle_alpha   90.00000000
_cell_angle_beta   90.00000000
_cell_angle_gamma   119.99999046
_symmetry_Int_Tables_number   1
_chemical_formula_structural   NaSb11
_chemical_formula_sum   'Na1 Sb11'
_cell_volume   359.04998283
_cell_formula_units_Z   1
loop_
 _symmetry_equiv_pos_site_id
 _symmetry_equiv_pos_as_xyz
  1  'x, y, z'
loop_
 _atom_site_type_symbol
 _atom_site_label
 _atom_site_symmetry_multiplicity
 _atom_site_fract_x
 _atom_site_fract_y
 _atom_site_fract_z
 _atom_site_occupancy
  Na  Na0  1  0.000000  0.000000  0.000000  1
  Sb  Sb1  1  0.666667  0.333333  0.166775  1
  Sb  Sb2  1  0.333333  0.666667  0.833225  1
  Sb  Sb3  1  0.666667  0.333333  0.419963  1
  Sb  Sb4  1  0.333333  0.666667  0.580037  1
  Sb  Sb5  1  0.000000  0.000000  0.500000  1
  Sb  Sb6  1  0.666667  0.333333  0.906573  1
  Sb  Sb7  1  0.333333  0.666667  0.093427  1
  Sb  Sb8  1  0.000000  0.000000  0.742520  1
  Sb  Sb9  1  0.000000  0.000000  0.257480  1
  Sb  Sb10  1  0.666667  0.333333  0.666543  1
  Sb  Sb11  1  0.333333  0.666667  0.333457  1
