# generated using pymatgen
data_NdSmOsC2
_symmetry_space_group_name_H-M   'P 1'
_cell_length_a   5.35186500
_cell_length_b   6.54398600
_cell_length_c   10.04864400
_cell_angle_alpha   90.00000000
_cell_angle_beta   90.00000000
_cell_angle_gamma   90.00000000
_symmetry_Int_Tables_number   1
_chemical_formula_structural   NdSmOsC2
_chemical_formula_sum   'Nd4 Sm4 Os4 C8'
_cell_volume   351.92893227
_cell_formula_units_Z   4
loop_
 _symmetry_equiv_pos_site_id
 _symmetry_equiv_pos_as_xyz
  1  'x, y, z'
loop_
 _atom_site_type_symbol
 _atom_site_label
 _atom_site_symmetry_multiplicity
 _atom_site_fract_x
 _atom_site_fract_y
 _atom_site_fract_z
 _atom_site_occupancy
  Nd  Nd0  1  0.750000  0.479594  0.782182  1
  Nd  Nd1  1  0.250000  0.020406  0.282182  1
  Nd  Nd2  1  0.750000  0.979594  0.717818  1
  Nd  Nd3  1  0.250000  0.520406  0.217818  1
  Sm  Sm4  1  0.750000  0.810752  0.049614  1
  Sm  Sm5  1  0.250000  0.189248  0.950386  1
  Sm  Sm6  1  0.750000  0.310752  0.450386  1
  Sm  Sm7  1  0.250000  0.689248  0.549614  1
  Os  Os8  1  0.750000  0.769049  0.360300  1
  Os  Os9  1  0.250000  0.730951  0.860300  1
  Os  Os10  1  0.250000  0.230951  0.639700  1
  Os  Os11  1  0.750000  0.269049  0.139700  1
  C  C12  1  0.250000  0.967710  0.743063  1
  C  C13  1  0.750000  0.532290  0.243063  1
  C  C14  1  0.250000  0.467710  0.756937  1
  C  C15  1  0.750000  0.032290  0.256937  1
  C  C16  1  0.250000  0.320446  0.457011  1
  C  C17  1  0.750000  0.179554  0.957011  1
  C  C18  1  0.250000  0.820446  0.042989  1
  C  C19  1  0.750000  0.679554  0.542989  1
