# generated using pymatgen
data_Er8HfZrIr6
_symmetry_space_group_name_H-M   'P 1'
_cell_length_a   10.76575500
_cell_length_b   10.76575500
_cell_length_c   6.22555500
_cell_angle_alpha   90.00000000
_cell_angle_beta   90.00000000
_cell_angle_gamma   90.00000000
_symmetry_Int_Tables_number   1
_chemical_formula_structural   Er8HfZrIr6
_chemical_formula_sum   'Er16 Hf2 Zr2 Ir12'
_cell_volume   721.55104280
_cell_formula_units_Z   2
loop_
 _symmetry_equiv_pos_site_id
 _symmetry_equiv_pos_as_xyz
  1  'x, y, z'
loop_
 _atom_site_type_symbol
 _atom_site_label
 _atom_site_symmetry_multiplicity
 _atom_site_fract_x
 _atom_site_fract_y
 _atom_site_fract_z
 _atom_site_occupancy
  Er  Er0  1  0.289976  0.086446  0.374386  1
  Er  Er1  1  0.289976  0.913554  0.874386  1
  Er  Er2  1  0.710024  0.086446  0.874386  1
  Er  Er3  1  0.710024  0.913554  0.374386  1
  Er  Er4  1  0.586566  0.789754  0.874522  1
  Er  Er5  1  0.586566  0.210246  0.374522  1
  Er  Er6  1  0.413434  0.789754  0.374522  1
  Er  Er7  1  0.413434  0.210246  0.874522  1
  Er  Er8  1  0.210246  0.413434  0.625478  1
  Er  Er9  1  0.210246  0.586566  0.125478  1
  Er  Er10  1  0.789754  0.413434  0.125478  1
  Er  Er11  1  0.789754  0.586566  0.625478  1
  Er  Er12  1  0.913554  0.710024  0.125614  1
  Er  Er13  1  0.913554  0.289976  0.625614  1
  Er  Er14  1  0.086446  0.710024  0.625614  1
  Er  Er15  1  0.086446  0.289976  0.125614  1
  Hf  Hf16  1  0.500000  0.500000  0.000000  1
  Hf  Hf17  1  0.500000  0.500000  0.500000  1
  Zr  Zr18  1  0.000000  0.000000  0.500000  1
  Zr  Zr19  1  0.000000  0.000000  0.000000  1
  Ir  Ir20  1  0.853614  0.146386  0.250000  1
  Ir  Ir21  1  0.853614  0.853614  0.750000  1
  Ir  Ir22  1  0.146386  0.146386  0.750000  1
  Ir  Ir23  1  0.146386  0.853614  0.250000  1
  Ir  Ir24  1  0.644114  0.355886  0.750000  1
  Ir  Ir25  1  0.644114  0.644114  0.250000  1
  Ir  Ir26  1  0.355886  0.355886  0.250000  1
  Ir  Ir27  1  0.355886  0.644114  0.750000  1
  Ir  Ir28  1  0.500000  0.000000  0.122333  1
  Ir  Ir29  1  0.500000  0.000000  0.622333  1
  Ir  Ir30  1  0.000000  0.500000  0.877667  1
  Ir  Ir31  1  0.000000  0.500000  0.377667  1
