# generated using pymatgen
data_Mg3Zn2Pt5
_symmetry_space_group_name_H-M   'P 1'
_cell_length_a   4.12382600
_cell_length_b   3.62080400
_cell_length_c   20.50082500
_cell_angle_alpha   90.00000000
_cell_angle_beta   90.00000000
_cell_angle_gamma   90.00000000
_symmetry_Int_Tables_number   1
_chemical_formula_structural   Mg3Zn2Pt5
_chemical_formula_sum   'Mg6 Zn4 Pt10'
_cell_volume   306.10941490
_cell_formula_units_Z   2
loop_
 _symmetry_equiv_pos_site_id
 _symmetry_equiv_pos_as_xyz
  1  'x, y, z'
loop_
 _atom_site_type_symbol
 _atom_site_label
 _atom_site_symmetry_multiplicity
 _atom_site_fract_x
 _atom_site_fract_y
 _atom_site_fract_z
 _atom_site_occupancy
  Mg  Mg0  1  0.500000  0.000000  0.102823  1
  Mg  Mg1  1  0.500000  0.000000  0.301129  1
  Mg  Mg2  1  0.500000  0.000000  0.500000  1
  Mg  Mg3  1  0.500000  0.000000  0.698871  1
  Mg  Mg4  1  0.500000  0.000000  0.897177  1
  Mg  Mg5  1  0.000000  0.000000  0.000000  1
  Zn  Zn6  1  0.000000  0.000000  0.201969  1
  Zn  Zn7  1  0.000000  0.000000  0.400642  1
  Zn  Zn8  1  0.000000  0.000000  0.599358  1
  Zn  Zn9  1  0.000000  0.000000  0.798031  1
  Pt  Pt10  1  0.500000  0.500000  0.000000  1
  Pt  Pt11  1  0.500000  0.500000  0.201805  1
  Pt  Pt12  1  0.500000  0.500000  0.400516  1
  Pt  Pt13  1  0.500000  0.500000  0.599484  1
  Pt  Pt14  1  0.500000  0.500000  0.798195  1
  Pt  Pt15  1  0.000000  0.500000  0.102344  1
  Pt  Pt16  1  0.000000  0.500000  0.301278  1
  Pt  Pt17  1  0.000000  0.500000  0.500000  1
  Pt  Pt18  1  0.000000  0.500000  0.698722  1
  Pt  Pt19  1  0.000000  0.500000  0.897656  1
