# generated using pymatgen
data_Gd3Mg2TiGa3
_symmetry_space_group_name_H-M   'P 1'
_cell_length_a   7.39388200
_cell_length_b   7.52395755
_cell_length_c   4.29830500
_cell_angle_alpha   90.00000000
_cell_angle_beta   90.00000000
_cell_angle_gamma   119.43123836
_symmetry_Int_Tables_number   1
_chemical_formula_structural   Gd3Mg2TiGa3
_chemical_formula_sum   'Gd3 Mg2 Ti1 Ga3'
_cell_volume   208.26070178
_cell_formula_units_Z   1
loop_
 _symmetry_equiv_pos_site_id
 _symmetry_equiv_pos_as_xyz
  1  'x, y, z'
loop_
 _atom_site_type_symbol
 _atom_site_label
 _atom_site_symmetry_multiplicity
 _atom_site_fract_x
 _atom_site_fract_y
 _atom_site_fract_z
 _atom_site_occupancy
  Gd  Gd0  1  0.412757  0.417789  0.000000  1
  Gd  Gd1  1  0.995004  0.582228  0.000000  1
  Gd  Gd2  1  0.573613  0.000005  0.000000  1
  Mg  Mg3  1  0.761421  0.756794  0.500000  1
  Mg  Mg4  1  0.004595  0.243196  0.500000  1
  Ti  Ti5  1  0.247800  0.999991  0.500000  1
  Ga  Ga6  1  0.016251  0.999960  0.000000  1
  Ga  Ga7  1  0.655727  0.322896  0.500000  1
  Ga  Ga8  1  0.332831  0.677140  0.500000  1
