# generated using pymatgen
data_Gd3Cr6InO24
_symmetry_space_group_name_H-M   'P 1'
_cell_length_a   9.47689271
_cell_length_b   9.47689176
_cell_length_c   10.09437439
_cell_angle_alpha   117.99629796
_cell_angle_beta   62.00369112
_cell_angle_gamma   120.00000882
_symmetry_Int_Tables_number   1
_chemical_formula_structural   Gd3Cr6InO24
_chemical_formula_sum   'Gd3 Cr6 In1 O24'
_cell_volume   659.78999329
_cell_formula_units_Z   1
loop_
 _symmetry_equiv_pos_site_id
 _symmetry_equiv_pos_as_xyz
  1  'x, y, z'
loop_
 _atom_site_type_symbol
 _atom_site_label
 _atom_site_symmetry_multiplicity
 _atom_site_fract_x
 _atom_site_fract_y
 _atom_site_fract_z
 _atom_site_occupancy
  Gd  Gd0  1  0.645933  0.354068  0.062205  1
  Gd  Gd1  1  0.856513  0.143488  0.430465  1
  Gd  Gd2  1  0.139910  0.860091  0.580270  1
  Cr  Cr3  1  0.246461  0.024758  0.244168  1
  Cr  Cr4  1  0.975241  0.465870  0.244168  1
  Cr  Cr5  1  0.534130  0.753538  0.244168  1
  Cr  Cr6  1  0.465212  0.264769  0.754044  1
  Cr  Cr7  1  0.045512  0.534788  0.754044  1
  Cr  Cr8  1  0.735231  0.954488  0.754044  1
  In  In9  1  0.350522  0.649479  0.948434  1
  O  O10  1  0.161146  0.489054  0.099639  1
  O  O11  1  0.510945  0.771731  0.099639  1
  O  O12  1  0.228269  0.838853  0.099639  1
  O  O13  1  0.444274  0.166411  0.200814  1
  O  O14  1  0.833589  0.478677  0.200814  1
  O  O15  1  0.521323  0.555726  0.200814  1
  O  O16  1  0.108138  0.099647  0.267751  1
  O  O17  1  0.900352  0.276241  0.267751  1
  O  O18  1  0.723759  0.891862  0.267751  1
  O  O19  1  0.201273  0.995756  0.411594  1
  O  O20  1  0.004245  0.617110  0.411594  1
  O  O21  1  0.382890  0.798727  0.411594  1
  O  O22  1  0.621976  0.225427  0.588785  1
  O  O23  1  0.014665  0.378024  0.588785  1
  O  O24  1  0.774572  0.985334  0.588785  1
  O  O25  1  0.277635  0.123474  0.726519  1
  O  O26  1  0.119319  0.722365  0.726519  1
  O  O27  1  0.876528  0.880681  0.726519  1
  O  O28  1  0.475335  0.463656  0.804282  1
  O  O29  1  0.184040  0.524665  0.804282  1
  O  O30  1  0.536343  0.815958  0.804282  1
  O  O31  1  0.758823  0.141561  0.895282  1
  O  O32  1  0.487456  0.241177  0.895282  1
  O  O33  1  0.858439  0.512545  0.895282  1
