# generated using pymatgen
data_Tb4TlSe3
_symmetry_space_group_name_H-M   'P 1'
_cell_length_a   7.23814242
_cell_length_b   7.23814192
_cell_length_c   7.23814200
_cell_angle_alpha   131.77389863
_cell_angle_beta   131.77389507
_cell_angle_gamma   70.58636733
_symmetry_Int_Tables_number   1
_chemical_formula_structural   Tb4TlSe3
_chemical_formula_sum   'Tb4 Tl1 Se3'
_cell_volume   206.63648561
_cell_formula_units_Z   1
loop_
 _symmetry_equiv_pos_site_id
 _symmetry_equiv_pos_as_xyz
  1  'x, y, z'
loop_
 _atom_site_type_symbol
 _atom_site_label
 _atom_site_symmetry_multiplicity
 _atom_site_fract_x
 _atom_site_fract_y
 _atom_site_fract_z
 _atom_site_occupancy
  Tb  Tb0  1  0.245443  0.245443  0.000000  1
  Tb  Tb1  1  0.754557  0.754557  0.000000  1
  Tb  Tb2  1  0.500001  0.000000  0.500001  1
  Tb  Tb3  1  0.000000  0.500001  0.500001  1
  Tl  Tl4  1  0.500000  0.500000  0.000000  1
  Se  Se5  1  0.000000  0.000000  0.000000  1
  Se  Se6  1  0.750001  0.250000  0.500001  1
  Se  Se7  1  0.250000  0.750001  0.500001  1
