# generated using pymatgen
data_Hf18V2Fe2Mo5Os
_symmetry_space_group_name_H-M   'P 1'
_cell_length_a   8.35774600
_cell_length_b   8.65371709
_cell_length_c   8.63624113
_cell_angle_alpha   120.06934776
_cell_angle_beta   90.00000000
_cell_angle_gamma   90.00000000
_symmetry_Int_Tables_number   1
_chemical_formula_structural   Hf18V2Fe2Mo5Os
_chemical_formula_sum   'Hf18 V2 Fe2 Mo5 Os1'
_cell_volume   540.55930282
_cell_formula_units_Z   1
loop_
 _symmetry_equiv_pos_site_id
 _symmetry_equiv_pos_as_xyz
  1  'x, y, z'
loop_
 _atom_site_type_symbol
 _atom_site_label
 _atom_site_symmetry_multiplicity
 _atom_site_fract_x
 _atom_site_fract_y
 _atom_site_fract_z
 _atom_site_occupancy
  Hf  Hf0  1  0.558340  0.798797  0.597597  1
  Hf  Hf1  1  0.560034  0.799511  0.200757  1
  Hf  Hf2  1  0.560031  0.401232  0.200759  1
  Hf  Hf3  1  0.443660  0.201075  0.402129  1
  Hf  Hf4  1  0.441813  0.200959  0.798059  1
  Hf  Hf5  1  0.441824  0.597098  0.798060  1
  Hf  Hf6  1  0.056340  0.201075  0.402129  1
  Hf  Hf7  1  0.058187  0.200959  0.798059  1
  Hf  Hf8  1  0.058176  0.597098  0.798060  1
  Hf  Hf9  1  0.941660  0.798797  0.597597  1
  Hf  Hf10  1  0.939966  0.799511  0.200757  1
  Hf  Hf11  1  0.939969  0.401232  0.200759  1
  Hf  Hf12  1  0.750000  0.457801  0.915570  1
  Hf  Hf13  1  0.750000  0.457804  0.540853  1
  Hf  Hf14  1  0.750000  0.083043  0.540849  1
  Hf  Hf15  1  0.250000  0.540950  0.081903  1
  Hf  Hf16  1  0.250000  0.540786  0.458038  1
  Hf  Hf17  1  0.250000  0.917246  0.458028  1
  V  V18  1  0.501111  0.001184  0.002385  1
  V  V19  1  0.998889  0.001184  0.002385  1
  Fe  Fe20  1  0.750000  0.667222  0.334462  1
  Fe  Fe21  1  0.250000  0.331505  0.662956  1
  Mo  Mo22  1  0.750000  0.112708  0.891029  1
  Mo  Mo23  1  0.750000  0.778313  0.891025  1
  Mo  Mo24  1  0.250000  0.888275  0.776535  1
  Mo  Mo25  1  0.250000  0.889370  0.112110  1
  Mo  Mo26  1  0.250000  0.222745  0.112092  1
  Os  Os27  1  0.750000  0.112521  0.225056  1
