# generated using pymatgen
data_Hf18ReNi2Mo7
_symmetry_space_group_name_H-M   'P 1'
_cell_length_a   8.49328400
_cell_length_b   8.65807049
_cell_length_c   8.65016023
_cell_angle_alpha   119.82970847
_cell_angle_beta   90.00000000
_cell_angle_gamma   90.00000000
_symmetry_Int_Tables_number   1
_chemical_formula_structural   Hf18ReNi2Mo7
_chemical_formula_sum   'Hf18 Re1 Ni2 Mo7'
_cell_volume   551.81592429
_cell_formula_units_Z   1
loop_
 _symmetry_equiv_pos_site_id
 _symmetry_equiv_pos_as_xyz
  1  'x, y, z'
loop_
 _atom_site_type_symbol
 _atom_site_label
 _atom_site_symmetry_multiplicity
 _atom_site_fract_x
 _atom_site_fract_y
 _atom_site_fract_z
 _atom_site_occupancy
  Hf  Hf0  1  0.556801  0.799912  0.599567  1
  Hf  Hf1  1  0.556917  0.799936  0.200323  1
  Hf  Hf2  1  0.556007  0.399337  0.199663  1
  Hf  Hf3  1  0.441945  0.199858  0.399218  1
  Hf  Hf4  1  0.441858  0.199808  0.800690  1
  Hf  Hf5  1  0.443496  0.599798  0.799902  1
  Hf  Hf6  1  0.058055  0.199858  0.399218  1
  Hf  Hf7  1  0.058142  0.199808  0.800690  1
  Hf  Hf8  1  0.056504  0.599798  0.799902  1
  Hf  Hf9  1  0.943199  0.799912  0.599567  1
  Hf  Hf10  1  0.943083  0.799936  0.200323  1
  Hf  Hf11  1  0.943993  0.399337  0.199663  1
  Hf  Hf12  1  0.750000  0.457338  0.915386  1
  Hf  Hf13  1  0.750000  0.457191  0.541913  1
  Hf  Hf14  1  0.750000  0.085159  0.542505  1
  Hf  Hf15  1  0.250000  0.541355  0.084892  1
  Hf  Hf16  1  0.250000  0.541490  0.456579  1
  Hf  Hf17  1  0.250000  0.914986  0.457579  1
  Re  Re18  1  0.250000  0.225947  0.113119  1
  Ni  Ni19  1  0.750000  0.665446  0.332643  1
  Ni  Ni20  1  0.250000  0.333906  0.666919  1
  Mo  Mo21  1  0.750000  0.112222  0.223762  1
  Mo  Mo22  1  0.750000  0.111994  0.888371  1
  Mo  Mo23  1  0.750000  0.775364  0.887553  1
  Mo  Mo24  1  0.250000  0.889652  0.777145  1
  Mo  Mo25  1  0.250000  0.889920  0.112543  1
  Mo  Mo26  1  0.499982  0.000366  0.000180  1
  Mo  Mo27  1  0.000018  0.000366  0.000180  1
