# generated using pymatgen
data_Np2Si3Ni8
_symmetry_space_group_name_H-M   'P 1'
_cell_length_a   9.73899500
_cell_length_b   9.73899500
_cell_length_c   7.30031300
_cell_angle_alpha   90.00000000
_cell_angle_beta   90.00000000
_cell_angle_gamma   90.00000000
_symmetry_Int_Tables_number   1
_chemical_formula_structural   Np2Si3Ni8
_chemical_formula_sum   'Np8 Si12 Ni32'
_cell_volume   692.42025978
_cell_formula_units_Z   4
loop_
 _symmetry_equiv_pos_site_id
 _symmetry_equiv_pos_as_xyz
  1  'x, y, z'
loop_
 _atom_site_type_symbol
 _atom_site_label
 _atom_site_symmetry_multiplicity
 _atom_site_fract_x
 _atom_site_fract_y
 _atom_site_fract_z
 _atom_site_occupancy
  Np  Np0  1  0.500000  0.698872  0.636516  1
  Np  Np1  1  0.500000  0.301128  0.636516  1
  Np  Np2  1  0.198872  0.000000  0.136516  1
  Np  Np3  1  0.801128  0.000000  0.136516  1
  Np  Np4  1  0.000000  0.801128  0.863484  1
  Np  Np5  1  0.000000  0.198872  0.863484  1
  Np  Np6  1  0.301128  0.500000  0.363484  1
  Np  Np7  1  0.698872  0.500000  0.363484  1
  Si  Si8  1  0.500000  0.000000  0.257353  1
  Si  Si9  1  0.500000  0.000000  0.757353  1
  Si  Si10  1  0.000000  0.500000  0.242647  1
  Si  Si11  1  0.000000  0.500000  0.742647  1
  Si  Si12  1  0.295144  0.704856  0.000000  1
  Si  Si13  1  0.295144  0.295144  0.000000  1
  Si  Si14  1  0.704856  0.704856  0.000000  1
  Si  Si15  1  0.704856  0.295144  0.000000  1
  Si  Si16  1  0.204856  0.795144  0.500000  1
  Si  Si17  1  0.204856  0.204856  0.500000  1
  Si  Si18  1  0.795144  0.795144  0.500000  1
  Si  Si19  1  0.795144  0.204856  0.500000  1
  Ni  Ni20  1  0.500000  0.859734  0.003257  1
  Ni  Ni21  1  0.500000  0.140266  0.003257  1
  Ni  Ni22  1  0.359734  0.000000  0.503257  1
  Ni  Ni23  1  0.640266  0.000000  0.503257  1
  Ni  Ni24  1  0.000000  0.640266  0.496743  1
  Ni  Ni25  1  0.000000  0.359734  0.496743  1
  Ni  Ni26  1  0.140266  0.500000  0.996743  1
  Ni  Ni27  1  0.859734  0.500000  0.996743  1
  Ni  Ni28  1  0.372367  0.792106  0.287402  1
  Ni  Ni29  1  0.372367  0.207894  0.287402  1
  Ni  Ni30  1  0.627633  0.792106  0.287402  1
  Ni  Ni31  1  0.627633  0.207894  0.287402  1
  Ni  Ni32  1  0.292106  0.872367  0.787402  1
  Ni  Ni33  1  0.292106  0.127633  0.787402  1
  Ni  Ni34  1  0.707894  0.872367  0.787402  1
  Ni  Ni35  1  0.707894  0.127633  0.787402  1
  Ni  Ni36  1  0.127633  0.707894  0.212598  1
  Ni  Ni37  1  0.127633  0.292106  0.212598  1
  Ni  Ni38  1  0.872367  0.707894  0.212598  1
  Ni  Ni39  1  0.872367  0.292106  0.212598  1
  Ni  Ni40  1  0.207894  0.627633  0.712598  1
  Ni  Ni41  1  0.207894  0.372367  0.712598  1
  Ni  Ni42  1  0.792106  0.627633  0.712598  1
  Ni  Ni43  1  0.792106  0.372367  0.712598  1
  Ni  Ni44  1  0.500000  0.621169  0.120381  1
  Ni  Ni45  1  0.500000  0.378831  0.120381  1
  Ni  Ni46  1  0.121169  0.000000  0.620381  1
  Ni  Ni47  1  0.878831  0.000000  0.620381  1
  Ni  Ni48  1  0.000000  0.878831  0.379619  1
  Ni  Ni49  1  0.000000  0.121169  0.379619  1
  Ni  Ni50  1  0.378831  0.500000  0.879619  1
  Ni  Ni51  1  0.621169  0.500000  0.879619  1
