# generated using pymatgen
data_Sm2AlGaRh2
_symmetry_space_group_name_H-M   'P 1'
_cell_length_a   4.30533400
_cell_length_b   6.99809296
_cell_length_c   7.97761248
_cell_angle_alpha   89.90875722
_cell_angle_beta   90.00000000
_cell_angle_gamma   90.00000000
_symmetry_Int_Tables_number   1
_chemical_formula_structural   Sm2AlGaRh2
_chemical_formula_sum   'Sm4 Al2 Ga2 Rh4'
_cell_volume   240.35819903
_cell_formula_units_Z   2
loop_
 _symmetry_equiv_pos_site_id
 _symmetry_equiv_pos_as_xyz
  1  'x, y, z'
loop_
 _atom_site_type_symbol
 _atom_site_label
 _atom_site_symmetry_multiplicity
 _atom_site_fract_x
 _atom_site_fract_y
 _atom_site_fract_z
 _atom_site_occupancy
  Sm  Sm0  1  0.250000  0.534894  0.187054  1
  Sm  Sm1  1  0.750000  0.465106  0.812946  1
  Sm  Sm2  1  0.250000  0.033763  0.319480  1
  Sm  Sm3  1  0.750000  0.966237  0.680520  1
  Al  Al4  1  0.250000  0.136935  0.936814  1
  Al  Al5  1  0.750000  0.863065  0.063186  1
  Ga  Ga6  1  0.250000  0.644590  0.565408  1
  Ga  Ga7  1  0.750000  0.355410  0.434592  1
  Rh  Rh8  1  0.750000  0.733318  0.379369  1
  Rh  Rh9  1  0.250000  0.266682  0.620631  1
  Rh  Rh10  1  0.750000  0.230187  0.111468  1
  Rh  Rh11  1  0.250000  0.769813  0.888532  1
