# generated using pymatgen
data_LuZn(GaNi)2
_symmetry_space_group_name_H-M   'P 1'
_cell_length_a   8.82987400
_cell_length_b   8.82987420
_cell_length_c   4.11097500
_cell_angle_alpha   90.00000000
_cell_angle_beta   90.00000000
_cell_angle_gamma   119.99999177
_symmetry_Int_Tables_number   1
_chemical_formula_structural   LuZn(GaNi)2
_chemical_formula_sum   'Lu3 Zn3 Ga6 Ni6'
_cell_volume   277.57766988
_cell_formula_units_Z   3
loop_
 _symmetry_equiv_pos_site_id
 _symmetry_equiv_pos_as_xyz
  1  'x, y, z'
loop_
 _atom_site_type_symbol
 _atom_site_label
 _atom_site_symmetry_multiplicity
 _atom_site_fract_x
 _atom_site_fract_y
 _atom_site_fract_z
 _atom_site_occupancy
  Lu  Lu0  1  0.666667  0.333333  0.500000  1
  Lu  Lu1  1  0.333333  0.666667  0.500000  1
  Lu  Lu2  1  0.000000  0.000000  0.000000  1
  Zn  Zn3  1  0.292873  0.292873  0.500000  1
  Zn  Zn4  1  0.707127  0.000000  0.500000  1
  Zn  Zn5  1  0.000000  0.707127  0.500000  1
  Ga  Ga6  1  0.489568  0.489568  0.000000  1
  Ga  Ga7  1  0.510432  0.000000  0.000000  1
  Ga  Ga8  1  0.000000  0.510432  0.000000  1
  Ga  Ga9  1  0.711475  0.711475  0.500000  1
  Ga  Ga10  1  0.288525  0.000000  0.500000  1
  Ga  Ga11  1  0.000000  0.288525  0.500000  1
  Ni  Ni12  1  0.823595  0.192458  0.000000  1
  Ni  Ni13  1  0.807542  0.631137  0.000000  1
  Ni  Ni14  1  0.368863  0.176405  0.000000  1
  Ni  Ni15  1  0.192458  0.823595  0.000000  1
  Ni  Ni16  1  0.631137  0.807542  0.000000  1
  Ni  Ni17  1  0.176405  0.368863  0.000000  1
