# generated using pymatgen
data_TmLuTh(InRh)3
_symmetry_space_group_name_H-M   'P 1'
_cell_length_a   7.55469902
_cell_length_b   7.78146758
_cell_length_c   3.85065500
_cell_angle_alpha   90.00000000
_cell_angle_beta   90.00000000
_cell_angle_gamma   121.00829102
_symmetry_Int_Tables_number   1
_chemical_formula_structural   TmLuTh(InRh)3
_chemical_formula_sum   'Tm1 Lu1 Th1 In3 Rh3'
_cell_volume   194.01759490
_cell_formula_units_Z   1
loop_
 _symmetry_equiv_pos_site_id
 _symmetry_equiv_pos_as_xyz
  1  'x, y, z'
loop_
 _atom_site_type_symbol
 _atom_site_label
 _atom_site_symmetry_multiplicity
 _atom_site_fract_x
 _atom_site_fract_y
 _atom_site_fract_z
 _atom_site_occupancy
  Tm  Tm0  1  0.404009  0.999134  0.500000  1
  Lu  Lu1  1  0.596165  0.595366  0.500000  1
  Th  Th2  1  0.999945  0.418248  0.500000  1
  In  In3  1  0.270855  0.258265  0.000000  1
  In  In4  1  0.999808  0.756375  0.000000  1
  In  In5  1  0.729502  0.987190  0.000000  1
  Rh  Rh6  1  0.317233  0.649111  0.000000  1
  Rh  Rh7  1  0.999579  0.003859  0.500000  1
  Rh  Rh8  1  0.682904  0.332453  0.000000  1
