# generated using pymatgen
data_Tm12CoTcNi3Sb
_symmetry_space_group_name_H-M   'P 1'
_cell_length_a   8.20633425
_cell_length_b   8.20633625
_cell_length_c   8.20633479
_cell_angle_alpha   111.67383990
_cell_angle_beta   109.95787027
_cell_angle_gamma   106.81895177
_symmetry_Int_Tables_number   1
_chemical_formula_structural   Tm12CoTcNi3Sb
_chemical_formula_sum   'Tm12 Co1 Tc1 Ni3 Sb1'
_cell_volume   424.64792676
_cell_formula_units_Z   1
loop_
 _symmetry_equiv_pos_site_id
 _symmetry_equiv_pos_as_xyz
  1  'x, y, z'
loop_
 _atom_site_type_symbol
 _atom_site_label
 _atom_site_symmetry_multiplicity
 _atom_site_fract_x
 _atom_site_fract_y
 _atom_site_fract_z
 _atom_site_occupancy
  Tm  Tm0  1  0.414223  0.220751  0.193472  1
  Tm  Tm1  1  0.584940  0.778146  0.806793  1
  Tm  Tm2  1  0.027280  0.220751  0.806528  1
  Tm  Tm3  1  0.971353  0.778146  0.193207  1
  Tm  Tm4  1  0.178397  0.278925  0.460637  1
  Tm  Tm5  1  0.818288  0.717760  0.539363  1
  Tm  Tm6  1  0.178397  0.717760  0.899471  1
  Tm  Tm7  1  0.818288  0.278925  0.100529  1
  Tm  Tm8  1  0.318670  0.625643  0.306971  1
  Tm  Tm9  1  0.685801  0.376658  0.690858  1
  Tm  Tm10  1  0.318670  0.011699  0.693029  1
  Tm  Tm11  1  0.685801  0.994942  0.309142  1
  Co  Co12  1  0.885017  0.385017  0.500000  1
  Tc  Tc13  1  0.998604  0.998604  0.000000  1
  Ni  Ni14  1  0.358339  0.999189  0.359149  1
  Ni  Ni15  1  0.640039  0.999189  0.640851  1
  Ni  Ni16  1  0.118315  0.618315  0.500000  1
  Sb  Sb17  1  0.499578  0.499578  0.000000  1
