# generated using pymatgen
data_AgPtBr18
_symmetry_space_group_name_H-M   'P 1'
_cell_length_a   9.33243870
_cell_length_b   9.33243986
_cell_length_c   9.33244075
_cell_angle_alpha   93.57125650
_cell_angle_beta   93.57126428
_cell_angle_gamma   93.57127687
_symmetry_Int_Tables_number   1
_chemical_formula_structural   AgPtBr18
_chemical_formula_sum   'Ag1 Pt1 Br18'
_cell_volume   807.86150252
_cell_formula_units_Z   1
loop_
 _symmetry_equiv_pos_site_id
 _symmetry_equiv_pos_as_xyz
  1  'x, y, z'
loop_
 _atom_site_type_symbol
 _atom_site_label
 _atom_site_symmetry_multiplicity
 _atom_site_fract_x
 _atom_site_fract_y
 _atom_site_fract_z
 _atom_site_occupancy
  Ag  Ag0  1  0.500000  0.500000  0.500000  1
  Pt  Pt1  1  0.000000  0.000000  0.000000  1
  Br  Br2  1  0.268926  0.996769  0.032441  1
  Br  Br3  1  0.996769  0.032441  0.268926  1
  Br  Br4  1  0.032441  0.268926  0.996769  1
  Br  Br5  1  0.731074  0.003231  0.967559  1
  Br  Br6  1  0.003231  0.967559  0.731074  1
  Br  Br7  1  0.967559  0.731074  0.003231  1
  Br  Br8  1  0.236028  0.107000  0.635922  1
  Br  Br9  1  0.107000  0.635922  0.236028  1
  Br  Br10  1  0.635922  0.236028  0.107000  1
  Br  Br11  1  0.763972  0.893000  0.364078  1
  Br  Br12  1  0.893000  0.364078  0.763972  1
  Br  Br13  1  0.364078  0.763972  0.893000  1
  Br  Br14  1  0.533640  0.454943  0.205869  1
  Br  Br15  1  0.454943  0.205869  0.533640  1
  Br  Br16  1  0.205869  0.533640  0.454943  1
  Br  Br17  1  0.466360  0.545057  0.794131  1
  Br  Br18  1  0.545057  0.794131  0.466360  1
  Br  Br19  1  0.794131  0.466360  0.545057  1
