# generated using pymatgen
data_Y2Zr3Si12Ir19
_symmetry_space_group_name_H-M   'P 1'
_cell_length_a   12.78023300
_cell_length_b   12.78023237
_cell_length_c   3.94504100
_cell_angle_alpha   90.00000000
_cell_angle_beta   90.00000000
_cell_angle_gamma   119.99999905
_symmetry_Int_Tables_number   1
_chemical_formula_structural   Y2Zr3Si12Ir19
_chemical_formula_sum   'Y2 Zr3 Si12 Ir19'
_cell_volume   558.03273837
_cell_formula_units_Z   1
loop_
 _symmetry_equiv_pos_site_id
 _symmetry_equiv_pos_as_xyz
  1  'x, y, z'
loop_
 _atom_site_type_symbol
 _atom_site_label
 _atom_site_symmetry_multiplicity
 _atom_site_fract_x
 _atom_site_fract_y
 _atom_site_fract_z
 _atom_site_occupancy
  Y  Y0  1  0.333333  0.666667  0.500000  1
  Y  Y1  1  0.666667  0.333333  0.500000  1
  Zr  Zr2  1  0.000000  0.814372  0.000000  1
  Zr  Zr3  1  0.185628  0.185628  0.000000  1
  Zr  Zr4  1  0.814372  0.000000  0.000000  1
  Si  Si5  1  0.000000  0.634387  0.500000  1
  Si  Si6  1  0.365613  0.365613  0.500000  1
  Si  Si7  1  0.634387  0.000000  0.500000  1
  Si  Si8  1  0.519120  0.686552  0.000000  1
  Si  Si9  1  0.313448  0.832568  0.000000  1
  Si  Si10  1  0.167432  0.480880  0.000000  1
  Si  Si11  1  0.480880  0.167432  0.000000  1
  Si  Si12  1  0.686552  0.519120  0.000000  1
  Si  Si13  1  0.832568  0.313448  0.000000  1
  Si  Si14  1  0.000000  0.177412  0.500000  1
  Si  Si15  1  0.822588  0.822588  0.500000  1
  Si  Si16  1  0.177412  0.000000  0.500000  1
  Ir  Ir17  1  0.513802  0.873246  0.000000  1
  Ir  Ir18  1  0.126754  0.640556  0.000000  1
  Ir  Ir19  1  0.359444  0.486198  0.000000  1
  Ir  Ir20  1  0.486198  0.359444  0.000000  1
  Ir  Ir21  1  0.873246  0.513802  0.000000  1
  Ir  Ir22  1  0.640556  0.126754  0.000000  1
  Ir  Ir23  1  0.000000  0.446835  0.500000  1
  Ir  Ir24  1  0.553165  0.553165  0.500000  1
  Ir  Ir25  1  0.446835  0.000000  0.500000  1
  Ir  Ir26  1  0.000000  0.279725  0.000000  1
  Ir  Ir27  1  0.720275  0.720275  0.000000  1
  Ir  Ir28  1  0.279725  0.000000  0.000000  1
  Ir  Ir29  1  0.628408  0.809244  0.500000  1
  Ir  Ir30  1  0.190756  0.819163  0.500000  1
  Ir  Ir31  1  0.180837  0.371592  0.500000  1
  Ir  Ir32  1  0.371592  0.180837  0.500000  1
  Ir  Ir33  1  0.809244  0.628408  0.500000  1
  Ir  Ir34  1  0.819163  0.190756  0.500000  1
  Ir  Ir35  1  0.000000  0.000000  0.500000  1
