# generated using pymatgen
data_SmTm2Cd3Sn2Au
_symmetry_space_group_name_H-M   'P 1'
_cell_length_a   7.49527292
_cell_length_b   7.49527217
_cell_length_c   4.53828000
_cell_angle_alpha   90.00000000
_cell_angle_beta   90.00000000
_cell_angle_gamma   120.49847123
_symmetry_Int_Tables_number   1
_chemical_formula_structural   SmTm2Cd3Sn2Au
_chemical_formula_sum   'Sm1 Tm2 Cd3 Sn2 Au1'
_cell_volume   219.68143664
_cell_formula_units_Z   1
loop_
 _symmetry_equiv_pos_site_id
 _symmetry_equiv_pos_as_xyz
  1  'x, y, z'
loop_
 _atom_site_type_symbol
 _atom_site_label
 _atom_site_symmetry_multiplicity
 _atom_site_fract_x
 _atom_site_fract_y
 _atom_site_fract_z
 _atom_site_occupancy
  Sm  Sm0  1  0.410545  0.410545  0.000000  1
  Tm  Tm1  1  0.594831  0.000798  0.000000  1
  Tm  Tm2  1  0.000798  0.594831  0.000000  1
  Cd  Cd3  1  0.239634  0.000527  0.500000  1
  Cd  Cd4  1  0.000527  0.239634  0.500000  1
  Cd  Cd5  1  0.758358  0.758358  0.500000  1
  Sn  Sn6  1  0.331335  0.670577  0.500000  1
  Sn  Sn7  1  0.670577  0.331335  0.500000  1
  Au  Au8  1  0.993395  0.993395  0.000000  1
