# generated using pymatgen
data_Tb3Y(Lu3Pt4)2
_symmetry_space_group_name_H-M   'P 1'
_cell_length_a   7.47266900
_cell_length_b   7.52071313
_cell_length_c   14.58244600
_cell_angle_alpha   90.03138018
_cell_angle_beta   90.00000000
_cell_angle_gamma   90.00000000
_symmetry_Int_Tables_number   1
_chemical_formula_structural   Tb3Y(Lu3Pt4)2
_chemical_formula_sum   'Tb6 Y2 Lu12 Pt16'
_cell_volume   819.53042360
_cell_formula_units_Z   2
loop_
 _symmetry_equiv_pos_site_id
 _symmetry_equiv_pos_as_xyz
  1  'x, y, z'
loop_
 _atom_site_type_symbol
 _atom_site_label
 _atom_site_symmetry_multiplicity
 _atom_site_fract_x
 _atom_site_fract_y
 _atom_site_fract_z
 _atom_site_occupancy
  Tb  Tb0  1  0.998808  0.821158  0.406365  1
  Tb  Tb1  1  0.498808  0.678842  0.093635  1
  Tb  Tb2  1  0.501258  0.322303  0.593204  1
  Tb  Tb3  1  0.001258  0.177697  0.906796  1
  Tb  Tb4  1  0.001239  0.178472  0.593575  1
  Tb  Tb5  1  0.501239  0.321528  0.906425  1
  Y  Y6  1  0.498814  0.678792  0.406176  1
  Y  Y7  1  0.998814  0.821208  0.093824  1
  Lu  Lu8  1  0.680892  0.991187  0.249944  1
  Lu  Lu9  1  0.180892  0.508813  0.250056  1
  Lu  Lu10  1  0.819361  0.491331  0.749944  1
  Lu  Lu11  1  0.319361  0.008669  0.750056  1
  Lu  Lu12  1  0.655755  0.832881  0.622482  1
  Lu  Lu13  1  0.155755  0.667119  0.877518  1
  Lu  Lu14  1  0.843287  0.333440  0.377217  1
  Lu  Lu15  1  0.343287  0.166560  0.122783  1
  Lu  Lu16  1  0.343798  0.166603  0.377030  1
  Lu  Lu17  1  0.843798  0.333397  0.122970  1
  Lu  Lu18  1  0.156532  0.666621  0.622717  1
  Lu  Lu19  1  0.656532  0.833379  0.877283  1
  Pt  Pt20  1  0.815902  0.641503  0.249882  1
  Pt  Pt21  1  0.315902  0.858497  0.250118  1
  Pt  Pt22  1  0.684446  0.140948  0.749856  1
  Pt  Pt23  1  0.184446  0.359052  0.750144  1
  Pt  Pt24  1  0.545037  0.380564  0.250156  1
  Pt  Pt25  1  0.045037  0.119436  0.249844  1
  Pt  Pt26  1  0.954383  0.879992  0.749919  1
  Pt  Pt27  1  0.454383  0.620008  0.750081  1
  Pt  Pt28  1  0.819239  0.536213  0.541624  1
  Pt  Pt29  1  0.319239  0.963787  0.958376  1
  Pt  Pt30  1  0.680089  0.035029  0.456849  1
  Pt  Pt31  1  0.180089  0.464971  0.043151  1
  Pt  Pt32  1  0.181474  0.464793  0.457053  1
  Pt  Pt33  1  0.681474  0.035207  0.042947  1
  Pt  Pt34  1  0.319684  0.963813  0.541990  1
  Pt  Pt35  1  0.819684  0.536187  0.958010  1
