# generated using pymatgen
data_Hf3Zr7Sn3B2Sb3
_symmetry_space_group_name_H-M   'P 1'
_cell_length_a   8.51167100
_cell_length_b   8.51167184
_cell_length_c   5.79972600
_cell_angle_alpha   90.00000000
_cell_angle_beta   90.00000000
_cell_angle_gamma   120.00000061
_symmetry_Int_Tables_number   1
_chemical_formula_structural   Hf3Zr7Sn3B2Sb3
_chemical_formula_sum   'Hf3 Zr7 Sn3 B2 Sb3'
_cell_volume   363.88806000
_cell_formula_units_Z   1
loop_
 _symmetry_equiv_pos_site_id
 _symmetry_equiv_pos_as_xyz
  1  'x, y, z'
loop_
 _atom_site_type_symbol
 _atom_site_label
 _atom_site_symmetry_multiplicity
 _atom_site_fract_x
 _atom_site_fract_y
 _atom_site_fract_z
 _atom_site_occupancy
  Hf  Hf0  1  0.230561  0.230561  0.250000  1
  Hf  Hf1  1  0.769439  0.000000  0.250000  1
  Hf  Hf2  1  0.000000  0.769439  0.250000  1
  Zr  Zr3  1  0.666667  0.333333  0.000806  1
  Zr  Zr4  1  0.333333  0.666667  0.000806  1
  Zr  Zr5  1  0.333333  0.666667  0.499194  1
  Zr  Zr6  1  0.666667  0.333333  0.499194  1
  Zr  Zr7  1  0.768535  0.768535  0.750000  1
  Zr  Zr8  1  0.231465  0.000000  0.750000  1
  Zr  Zr9  1  0.000000  0.231465  0.750000  1
  Sn  Sn10  1  0.601244  0.601244  0.250000  1
  Sn  Sn11  1  0.398756  0.000000  0.250000  1
  Sn  Sn12  1  0.000000  0.398756  0.250000  1
  B  B13  1  0.000000  0.000000  0.003681  1
  B  B14  1  0.000000  0.000000  0.496319  1
  Sb  Sb15  1  0.400972  0.400972  0.750000  1
  Sb  Sb16  1  0.599028  0.000000  0.750000  1
  Sb  Sb17  1  0.000000  0.599028  0.750000  1
