# generated using pymatgen
data_Tb2Er6Zn3Si12Au
_symmetry_space_group_name_H-M   'P 1'
_cell_length_a   8.11906400
_cell_length_b   8.11906305
_cell_length_c   7.98580500
_cell_angle_alpha   90.00000000
_cell_angle_beta   90.00000000
_cell_angle_gamma   120.00001204
_symmetry_Int_Tables_number   1
_chemical_formula_structural   Tb2Er6Zn3Si12Au
_chemical_formula_sum   'Tb2 Er6 Zn3 Si12 Au1'
_cell_volume   455.89114722
_cell_formula_units_Z   1
loop_
 _symmetry_equiv_pos_site_id
 _symmetry_equiv_pos_as_xyz
  1  'x, y, z'
loop_
 _atom_site_type_symbol
 _atom_site_label
 _atom_site_symmetry_multiplicity
 _atom_site_fract_x
 _atom_site_fract_y
 _atom_site_fract_z
 _atom_site_occupancy
  Tb  Tb0  1  0.000000  0.000000  0.251285  1
  Tb  Tb1  1  0.000000  0.000000  0.748412  1
  Er  Er2  1  0.501634  0.003266  0.252427  1
  Er  Er3  1  0.501108  0.002218  0.747759  1
  Er  Er4  1  0.996734  0.498366  0.252427  1
  Er  Er5  1  0.997782  0.498892  0.747759  1
  Er  Er6  1  0.501634  0.498366  0.252427  1
  Er  Er7  1  0.501108  0.498892  0.747759  1
  Zn  Zn8  1  0.666667  0.333333  0.999973  1
  Zn  Zn9  1  0.666667  0.333333  0.500252  1
  Zn  Zn10  1  0.333333  0.666667  0.499984  1
  Si  Si11  1  0.163494  0.326989  0.999488  1
  Si  Si12  1  0.832829  0.665661  0.000032  1
  Si  Si13  1  0.673011  0.836506  0.999488  1
  Si  Si14  1  0.832553  0.665105  0.501007  1
  Si  Si15  1  0.334339  0.167171  0.000032  1
  Si  Si16  1  0.166607  0.333214  0.499003  1
  Si  Si17  1  0.163494  0.836506  0.999488  1
  Si  Si18  1  0.334895  0.167447  0.501007  1
  Si  Si19  1  0.832829  0.167171  0.000032  1
  Si  Si20  1  0.666786  0.833393  0.499003  1
  Si  Si21  1  0.832553  0.167447  0.501007  1
  Si  Si22  1  0.166607  0.833393  0.499003  1
  Au  Au23  1  0.333333  0.666667  0.000939  1
