# generated using pymatgen
data_Ho7ErVOs3C8
_symmetry_space_group_name_H-M   'P 1'
_cell_length_a   5.07100800
_cell_length_b   6.49681529
_cell_length_c   9.77079348
_cell_angle_alpha   89.84018647
_cell_angle_beta   90.00000000
_cell_angle_gamma   90.00000000
_symmetry_Int_Tables_number   1
_chemical_formula_structural   Ho7ErVOs3C8
_chemical_formula_sum   'Ho7 Er1 V1 Os3 C8'
_cell_volume   321.90146970
_cell_formula_units_Z   1
loop_
 _symmetry_equiv_pos_site_id
 _symmetry_equiv_pos_as_xyz
  1  'x, y, z'
loop_
 _atom_site_type_symbol
 _atom_site_label
 _atom_site_symmetry_multiplicity
 _atom_site_fract_x
 _atom_site_fract_y
 _atom_site_fract_z
 _atom_site_occupancy
  Ho  Ho0  1  0.250000  0.683475  0.557746  1
  Ho  Ho1  1  0.750000  0.819040  0.054818  1
  Ho  Ho2  1  0.250000  0.176573  0.942515  1
  Ho  Ho3  1  0.250000  0.532595  0.213837  1
  Ho  Ho4  1  0.750000  0.468516  0.779518  1
  Ho  Ho5  1  0.750000  0.972832  0.716572  1
  Ho  Ho6  1  0.250000  0.029130  0.283205  1
  Er  Er7  1  0.750000  0.321453  0.444124  1
  V  V8  1  0.250000  0.722945  0.866796  1
  Os  Os9  1  0.750000  0.277912  0.134227  1
  Os  Os10  1  0.750000  0.777195  0.364999  1
  Os  Os11  1  0.250000  0.225293  0.634243  1
  C  C12  1  0.250000  0.458912  0.762110  1
  C  C13  1  0.750000  0.541920  0.242831  1
  C  C14  1  0.750000  0.043147  0.259140  1
  C  C15  1  0.250000  0.956582  0.741602  1
  C  C16  1  0.250000  0.819471  0.051584  1
  C  C17  1  0.750000  0.174610  0.950583  1
  C  C18  1  0.750000  0.675344  0.551366  1
  C  C19  1  0.250000  0.323056  0.448184  1
