# generated using pymatgen
data_HoEr3(TcC2)2
_symmetry_space_group_name_H-M   'P 1'
_cell_length_a   5.04826900
_cell_length_b   6.53763595
_cell_length_c   9.81087201
_cell_angle_alpha   89.90278502
_cell_angle_beta   90.00000000
_cell_angle_gamma   90.00000000
_symmetry_Int_Tables_number   1
_chemical_formula_structural   HoEr3(TcC2)2
_chemical_formula_sum   'Ho2 Er6 Tc4 C8'
_cell_volume   323.79505096
_cell_formula_units_Z   2
loop_
 _symmetry_equiv_pos_site_id
 _symmetry_equiv_pos_as_xyz
  1  'x, y, z'
loop_
 _atom_site_type_symbol
 _atom_site_label
 _atom_site_symmetry_multiplicity
 _atom_site_fract_x
 _atom_site_fract_y
 _atom_site_fract_z
 _atom_site_occupancy
  Ho  Ho0  1  0.750000  0.965698  0.715870  1
  Ho  Ho1  1  0.250000  0.034302  0.284130  1
  Er  Er2  1  0.250000  0.675292  0.558460  1
  Er  Er3  1  0.750000  0.324708  0.441540  1
  Er  Er4  1  0.750000  0.824759  0.058486  1
  Er  Er5  1  0.250000  0.175241  0.941514  1
  Er  Er6  1  0.250000  0.534387  0.216259  1
  Er  Er7  1  0.750000  0.465613  0.783741  1
  Tc  Tc8  1  0.250000  0.716236  0.867424  1
  Tc  Tc9  1  0.750000  0.283764  0.132576  1
  Tc  Tc10  1  0.750000  0.783064  0.367245  1
  Tc  Tc11  1  0.250000  0.216936  0.632755  1
  C  C12  1  0.250000  0.449057  0.758808  1
  C  C13  1  0.750000  0.550943  0.241192  1
  C  C14  1  0.750000  0.051002  0.258565  1
  C  C15  1  0.250000  0.948998  0.741435  1
  C  C16  1  0.250000  0.822855  0.050530  1
  C  C17  1  0.750000  0.177145  0.949470  1
  C  C18  1  0.750000  0.675755  0.550384  1
  C  C19  1  0.250000  0.324245  0.449616  1
