# generated using pymatgen
data_Tb5YbDyFeI12
_symmetry_space_group_name_H-M   'P 1'
_cell_length_a   9.76078432
_cell_length_b   9.83829078
_cell_length_c   9.77831680
_cell_angle_alpha   107.12013580
_cell_angle_beta   106.74345034
_cell_angle_gamma   106.92714389
_symmetry_Int_Tables_number   1
_chemical_formula_structural   Tb5YbDyFeI12
_chemical_formula_sum   'Tb5 Yb1 Dy1 Fe1 I12'
_cell_volume   783.49013485
_cell_formula_units_Z   1
loop_
 _symmetry_equiv_pos_site_id
 _symmetry_equiv_pos_as_xyz
  1  'x, y, z'
loop_
 _atom_site_type_symbol
 _atom_site_label
 _atom_site_symmetry_multiplicity
 _atom_site_fract_x
 _atom_site_fract_y
 _atom_site_fract_z
 _atom_site_occupancy
  Tb  Tb0  1  0.024283  0.093349  0.286646  1
  Tb  Tb1  1  0.286293  0.024407  0.092981  1
  Tb  Tb2  1  0.901538  0.697920  0.974896  1
  Tb  Tb3  1  0.975893  0.907195  0.713453  1
  Tb  Tb4  1  0.713712  0.975427  0.907091  1
  Yb  Yb5  1  0.499946  0.500138  0.499775  1
  Dy  Dy6  1  0.098019  0.300350  0.025088  1
  Fe  Fe7  1  0.000004  0.999878  0.000092  1
  I  I8  1  0.457098  0.378091  0.150657  1
  I  I9  1  0.150301  0.456012  0.378033  1
  I  I10  1  0.378569  0.151884  0.455862  1
  I  I11  1  0.541653  0.621728  0.848547  1
  I  I12  1  0.849544  0.544124  0.620745  1
  I  I13  1  0.621497  0.848527  0.544247  1
  I  I14  1  0.775215  0.317325  0.927385  1
  I  I15  1  0.928300  0.777729  0.318807  1
  I  I16  1  0.317061  0.927405  0.775961  1
  I  I17  1  0.225808  0.682190  0.072880  1
  I  I18  1  0.072245  0.223475  0.682713  1
  I  I19  1  0.683023  0.072845  0.224142  1
