# generated using pymatgen
data_Ho2Er2Ga4IrPd3
_symmetry_space_group_name_H-M   'P 1'
_cell_length_a   4.43861100
_cell_length_b   6.84723941
_cell_length_c   7.66409676
_cell_angle_alpha   89.66261539
_cell_angle_beta   90.00000000
_cell_angle_gamma   90.00000000
_symmetry_Int_Tables_number   1
_chemical_formula_structural   Ho2Er2Ga4IrPd3
_chemical_formula_sum   'Ho2 Er2 Ga4 Ir1 Pd3'
_cell_volume   232.92496969
_cell_formula_units_Z   1
loop_
 _symmetry_equiv_pos_site_id
 _symmetry_equiv_pos_as_xyz
  1  'x, y, z'
loop_
 _atom_site_type_symbol
 _atom_site_label
 _atom_site_symmetry_multiplicity
 _atom_site_fract_x
 _atom_site_fract_y
 _atom_site_fract_z
 _atom_site_occupancy
  Ho  Ho0  1  0.750000  0.023350  0.690391  1
  Ho  Ho1  1  0.750000  0.519205  0.805636  1
  Er  Er2  1  0.250000  0.989033  0.306431  1
  Er  Er3  1  0.250000  0.478852  0.198169  1
  Ga  Ga4  1  0.250000  0.330099  0.569608  1
  Ga  Ga5  1  0.250000  0.830338  0.930348  1
  Ga  Ga6  1  0.750000  0.663204  0.428580  1
  Ga  Ga7  1  0.750000  0.171055  0.072870  1
  Ir  Ir8  1  0.750000  0.271293  0.395428  1
  Pd  Pd9  1  0.250000  0.223979  0.896693  1
  Pd  Pd10  1  0.250000  0.723969  0.603616  1
  Pd  Pd11  1  0.750000  0.775624  0.102229  1
