# generated using pymatgen
data_Ac2Cu7Ir3
_symmetry_space_group_name_H-M   'P 1'
_cell_length_a   4.12346600
_cell_length_b   5.22658390
_cell_length_c   9.36923183
_cell_angle_alpha   88.68462195
_cell_angle_beta   90.00000000
_cell_angle_gamma   90.00000000
_symmetry_Int_Tables_number   1
_chemical_formula_structural   Ac2Cu7Ir3
_chemical_formula_sum   'Ac2 Cu7 Ir3'
_cell_volume   201.86911140
_cell_formula_units_Z   1
loop_
 _symmetry_equiv_pos_site_id
 _symmetry_equiv_pos_as_xyz
  1  'x, y, z'
loop_
 _atom_site_type_symbol
 _atom_site_label
 _atom_site_symmetry_multiplicity
 _atom_site_fract_x
 _atom_site_fract_y
 _atom_site_fract_z
 _atom_site_occupancy
  Ac  Ac0  1  0.000000  0.249306  0.753554  1
  Ac  Ac1  1  0.000000  0.750694  0.246446  1
  Cu  Cu2  1  0.500000  0.500000  0.500000  1
  Cu  Cu3  1  0.500000  0.500000  0.000000  1
  Cu  Cu4  1  0.500000  0.000000  0.500000  1
  Cu  Cu5  1  0.000000  0.253546  0.085148  1
  Cu  Cu6  1  0.000000  0.751883  0.580101  1
  Cu  Cu7  1  0.000000  0.746454  0.914852  1
  Cu  Cu8  1  0.000000  0.248117  0.419899  1
  Ir  Ir9  1  0.500000  0.249407  0.254365  1
  Ir  Ir10  1  0.500000  0.750593  0.745635  1
  Ir  Ir11  1  0.500000  0.000000  0.000000  1
