# generated using pymatgen
data_Na4ScP12Ir17Rh2
_symmetry_space_group_name_H-M   'P 1'
_cell_length_a   12.61186338
_cell_length_b   12.62109932
_cell_length_c   3.95420100
_cell_angle_alpha   90.00000000
_cell_angle_beta   90.00000000
_cell_angle_gamma   119.94765349
_symmetry_Int_Tables_number   1
_chemical_formula_structural   Na4ScP12Ir17Rh2
_chemical_formula_sum   'Na4 Sc1 P12 Ir17 Rh2'
_cell_volume   545.37428235
_cell_formula_units_Z   1
loop_
 _symmetry_equiv_pos_site_id
 _symmetry_equiv_pos_as_xyz
  1  'x, y, z'
loop_
 _atom_site_type_symbol
 _atom_site_label
 _atom_site_symmetry_multiplicity
 _atom_site_fract_x
 _atom_site_fract_y
 _atom_site_fract_z
 _atom_site_occupancy
  Na  Na0  1  0.333210  0.666619  0.000000  1
  Na  Na1  1  0.821692  0.000181  0.500000  1
  Na  Na2  1  0.999689  0.821478  0.500000  1
  Na  Na3  1  0.178343  0.178134  0.500000  1
  Sc  Sc4  1  0.666557  0.333076  0.000000  1
  P  P5  1  0.179486  0.000260  0.000000  1
  P  P6  1  0.000537  0.179637  0.000000  1
  P  P7  1  0.821426  0.821220  0.000000  1
  P  P8  1  0.172392  0.485627  0.500000  1
  P  P9  1  0.513694  0.687502  0.500000  1
  P  P10  1  0.313079  0.827364  0.500000  1
  P  P11  1  0.691858  0.517005  0.500000  1
  P  P12  1  0.826096  0.308606  0.500000  1
  P  P13  1  0.482534  0.173745  0.500000  1
  P  P14  1  0.638724  0.997196  0.000000  1
  P  P15  1  0.003164  0.641532  0.000000  1
  P  P16  1  0.357461  0.360557  0.000000  1
  Ir  Ir17  1  0.541487  0.540087  0.000000  1
  Ir  Ir18  1  0.360172  0.488182  0.500000  1
  Ir  Ir19  1  0.512365  0.871977  0.500000  1
  Ir  Ir20  1  0.127642  0.640451  0.500000  1
  Ir  Ir21  1  0.865032  0.501921  0.500000  1
  Ir  Ir22  1  0.636899  0.134672  0.500000  1
  Ir  Ir23  1  0.498268  0.363517  0.500000  1
  Ir  Ir24  1  0.180689  0.379168  0.000000  1
  Ir  Ir25  1  0.621181  0.801362  0.000000  1
  Ir  Ir26  1  0.198720  0.819853  0.000000  1
  Ir  Ir27  1  0.804334  0.620239  0.000000  1
  Ir  Ir28  1  0.815833  0.195718  0.000000  1
  Ir  Ir29  1  0.380215  0.184730  0.000000  1
  Ir  Ir30  1  0.288166  0.000748  0.500000  1
  Ir  Ir31  1  0.999476  0.287573  0.500000  1
  Ir  Ir32  1  0.710393  0.709785  0.500000  1
  Ir  Ir33  1  0.000181  0.000203  0.000000  1
  Rh  Rh34  1  0.459995  0.001304  0.000000  1
  Rh  Rh35  1  0.999007  0.458767  0.000000  1
