# generated using pymatgen
data_Y4Tc4Ir3Ru
_symmetry_space_group_name_H-M   'P 1'
_cell_length_a   5.39592842
_cell_length_b   5.39592810
_cell_length_c   9.11659700
_cell_angle_alpha   90.00000000
_cell_angle_beta   90.00000000
_cell_angle_gamma   123.82167610
_symmetry_Int_Tables_number   1
_chemical_formula_structural   Y4Tc4Ir3Ru
_chemical_formula_sum   'Y4 Tc4 Ir3 Ru1'
_cell_volume   220.51998942
_cell_formula_units_Z   1
loop_
 _symmetry_equiv_pos_site_id
 _symmetry_equiv_pos_as_xyz
  1  'x, y, z'
loop_
 _atom_site_type_symbol
 _atom_site_label
 _atom_site_symmetry_multiplicity
 _atom_site_fract_x
 _atom_site_fract_y
 _atom_site_fract_z
 _atom_site_occupancy
  Y  Y0  1  0.336071  0.663929  0.432960  1
  Y  Y1  1  0.664533  0.335467  0.565817  1
  Y  Y2  1  0.664533  0.335467  0.934183  1
  Y  Y3  1  0.336071  0.663929  0.067040  1
  Tc  Tc4  1  0.827183  0.661124  0.250000  1
  Tc  Tc5  1  0.338876  0.172817  0.250000  1
  Tc  Tc6  1  0.171418  0.340554  0.750000  1
  Tc  Tc7  1  0.659446  0.828582  0.750000  1
  Ir  Ir8  1  0.001685  0.998315  0.499305  1
  Ir  Ir9  1  0.001685  0.998315  0.000695  1
  Ir  Ir10  1  0.827615  0.172385  0.250000  1
  Ru  Ru11  1  0.170885  0.829115  0.750000  1
