# generated using pymatgen
data_Ho4Lu(GeB4)2
_symmetry_space_group_name_H-M   'P 1'
_cell_length_a   7.21138400
_cell_length_b   7.21138400
_cell_length_c   8.03965100
_cell_angle_alpha   90.00000000
_cell_angle_beta   90.00000000
_cell_angle_gamma   90.00000000
_symmetry_Int_Tables_number   1
_chemical_formula_structural   Ho4Lu(GeB4)2
_chemical_formula_sum   'Ho8 Lu2 Ge4 B16'
_cell_volume   418.09448651
_cell_formula_units_Z   2
loop_
 _symmetry_equiv_pos_site_id
 _symmetry_equiv_pos_as_xyz
  1  'x, y, z'
loop_
 _atom_site_type_symbol
 _atom_site_label
 _atom_site_symmetry_multiplicity
 _atom_site_fract_x
 _atom_site_fract_y
 _atom_site_fract_z
 _atom_site_occupancy
  Ho  Ho0  1  0.680392  0.180392  0.222442  1
  Ho  Ho1  1  0.319608  0.819608  0.777558  1
  Ho  Ho2  1  0.319608  0.819608  0.222442  1
  Ho  Ho3  1  0.819608  0.680392  0.222442  1
  Ho  Ho4  1  0.819608  0.680392  0.777558  1
  Ho  Ho5  1  0.680392  0.180392  0.777558  1
  Ho  Ho6  1  0.180392  0.319608  0.777558  1
  Ho  Ho7  1  0.180392  0.319608  0.222442  1
  Lu  Lu8  1  0.000000  0.000000  0.500000  1
  Lu  Lu9  1  0.500000  0.500000  0.500000  1
  Ge  Ge10  1  0.121811  0.621811  0.500000  1
  Ge  Ge11  1  0.878189  0.378189  0.500000  1
  Ge  Ge12  1  0.378189  0.121811  0.500000  1
  Ge  Ge13  1  0.621811  0.878189  0.500000  1
  B  B14  1  0.172370  0.039271  0.000000  1
  B  B15  1  0.827630  0.960729  0.000000  1
  B  B16  1  0.960729  0.172370  0.000000  1
  B  B17  1  0.327630  0.539271  0.000000  1
  B  B18  1  0.039271  0.827630  0.000000  1
  B  B19  1  0.672370  0.460729  0.000000  1
  B  B20  1  0.539271  0.672370  0.000000  1
  B  B21  1  0.460729  0.327630  0.000000  1
  B  B22  1  0.090117  0.590117  0.000000  1
  B  B23  1  0.909883  0.409883  0.000000  1
  B  B24  1  0.409883  0.090117  0.000000  1
  B  B25  1  0.590117  0.909883  0.000000  1
  B  B26  1  0.000000  0.000000  0.164414  1
  B  B27  1  0.000000  0.000000  0.835586  1
  B  B28  1  0.500000  0.500000  0.835586  1
  B  B29  1  0.500000  0.500000  0.164414  1
