# generated using pymatgen
data_Hf3TiCrSi3N
_symmetry_space_group_name_H-M   'P 1'
_cell_length_a   7.61028000
_cell_length_b   7.61027880
_cell_length_c   5.23646200
_cell_angle_alpha   90.00000000
_cell_angle_beta   90.00000000
_cell_angle_gamma   119.99999653
_symmetry_Int_Tables_number   1
_chemical_formula_structural   Hf3TiCrSi3N
_chemical_formula_sum   'Hf6 Ti2 Cr2 Si6 N2'
_cell_volume   262.64540438
_cell_formula_units_Z   2
loop_
 _symmetry_equiv_pos_site_id
 _symmetry_equiv_pos_as_xyz
  1  'x, y, z'
loop_
 _atom_site_type_symbol
 _atom_site_label
 _atom_site_symmetry_multiplicity
 _atom_site_fract_x
 _atom_site_fract_y
 _atom_site_fract_z
 _atom_site_occupancy
  Hf  Hf0  1  0.237899  0.000000  0.249765  1
  Hf  Hf1  1  0.762101  0.000000  0.750235  1
  Hf  Hf2  1  0.000000  0.237899  0.249765  1
  Hf  Hf3  1  0.000000  0.762101  0.750235  1
  Hf  Hf4  1  0.762101  0.762101  0.249765  1
  Hf  Hf5  1  0.237899  0.237899  0.750235  1
  Ti  Ti6  1  0.666667  0.333333  0.500000  1
  Ti  Ti7  1  0.333333  0.666667  0.500000  1
  Cr  Cr8  1  0.333333  0.666667  0.000000  1
  Cr  Cr9  1  0.666667  0.333333  0.000000  1
  Si  Si10  1  0.587980  0.000000  0.231890  1
  Si  Si11  1  0.412020  0.000000  0.768110  1
  Si  Si12  1  0.000000  0.587980  0.231890  1
  Si  Si13  1  0.000000  0.412020  0.768110  1
  Si  Si14  1  0.412020  0.412020  0.231890  1
  Si  Si15  1  0.587980  0.587980  0.768110  1
  N  N16  1  0.000000  0.000000  0.000000  1
  N  N17  1  0.000000  0.000000  0.500000  1
