# generated using pymatgen
data_U2Mn3P
_symmetry_space_group_name_H-M   'P 1'
_cell_length_a   5.13012300
_cell_length_b   5.13012289
_cell_length_c   7.65758200
_cell_angle_alpha   90.00000000
_cell_angle_beta   90.00000000
_cell_angle_gamma   119.99999428
_symmetry_Int_Tables_number   1
_chemical_formula_structural   U2Mn3P
_chemical_formula_sum   'U4 Mn6 P2'
_cell_volume   174.53312267
_cell_formula_units_Z   2
loop_
 _symmetry_equiv_pos_site_id
 _symmetry_equiv_pos_as_xyz
  1  'x, y, z'
loop_
 _atom_site_type_symbol
 _atom_site_label
 _atom_site_symmetry_multiplicity
 _atom_site_fract_x
 _atom_site_fract_y
 _atom_site_fract_z
 _atom_site_occupancy
  U  U0  1  0.333333  0.666667  0.424080  1
  U  U1  1  0.666667  0.333333  0.575920  1
  U  U2  1  0.666667  0.333333  0.924080  1
  U  U3  1  0.333333  0.666667  0.075920  1
  Mn  Mn4  1  0.832198  0.167802  0.250000  1
  Mn  Mn5  1  0.832198  0.664396  0.250000  1
  Mn  Mn6  1  0.335604  0.167802  0.250000  1
  Mn  Mn7  1  0.167802  0.832198  0.750000  1
  Mn  Mn8  1  0.167802  0.335604  0.750000  1
  Mn  Mn9  1  0.664396  0.832198  0.750000  1
  P  P10  1  0.000000  0.000000  0.500000  1
  P  P11  1  0.000000  0.000000  0.000000  1
