# generated using pymatgen
data_Nd3Be2As2(PPd10)2
_symmetry_space_group_name_H-M   'P 1'
_cell_length_a   8.84594775
_cell_length_b   8.65149425
_cell_length_c   8.76844153
_cell_angle_alpha   61.03121774
_cell_angle_beta   58.83182446
_cell_angle_gamma   60.13695169
_symmetry_Int_Tables_number   1
_chemical_formula_structural   Nd3Be2As2(PPd10)2
_chemical_formula_sum   'Nd3 Be2 As2 P2 Pd20'
_cell_volume   474.15497339
_cell_formula_units_Z   1
loop_
 _symmetry_equiv_pos_site_id
 _symmetry_equiv_pos_as_xyz
  1  'x, y, z'
loop_
 _atom_site_type_symbol
 _atom_site_label
 _atom_site_symmetry_multiplicity
 _atom_site_fract_x
 _atom_site_fract_y
 _atom_site_fract_z
 _atom_site_occupancy
  Nd  Nd0  1  0.250000  0.250000  0.250000  1
  Nd  Nd1  1  0.750000  0.750000  0.750000  1
  Nd  Nd2  1  0.000000  0.000000  0.000000  1
  Be  Be3  1  0.731600  0.268400  0.268400  1
  Be  Be4  1  0.268400  0.731600  0.731600  1
  As  As5  1  0.264993  0.735007  0.264993  1
  As  As6  1  0.735007  0.264993  0.735007  1
  P  P7  1  0.267252  0.267252  0.732748  1
  P  P8  1  0.732748  0.732748  0.267252  1
  Pd  Pd9  1  0.391940  0.376895  0.387011  1
  Pd  Pd10  1  0.608060  0.623105  0.612989  1
  Pd  Pd11  1  0.376895  0.391940  0.844156  1
  Pd  Pd12  1  0.387011  0.844156  0.391940  1
  Pd  Pd13  1  0.623105  0.608060  0.155844  1
  Pd  Pd14  1  0.612989  0.155844  0.608060  1
  Pd  Pd15  1  0.844156  0.387011  0.376895  1
  Pd  Pd16  1  0.155844  0.612989  0.623105  1
  Pd  Pd17  1  0.347299  0.009998  0.990002  1
  Pd  Pd18  1  0.652701  0.990002  0.009998  1
  Pd  Pd19  1  0.009998  0.347299  0.652701  1
  Pd  Pd20  1  0.990002  0.652701  0.347299  1
  Pd  Pd21  1  0.997733  0.344216  0.002267  1
  Pd  Pd22  1  0.655784  0.002267  0.344216  1
  Pd  Pd23  1  0.002267  0.655784  0.997733  1
  Pd  Pd24  1  0.344216  0.997733  0.655784  1
  Pd  Pd25  1  0.985455  0.014545  0.346576  1
  Pd  Pd26  1  0.014545  0.985455  0.653424  1
  Pd  Pd27  1  0.653424  0.346576  0.014545  1
  Pd  Pd28  1  0.346576  0.653424  0.985455  1
