# generated using pymatgen
data_Ba7ThSb6
_symmetry_space_group_name_H-M   'P 1'
_cell_length_a   9.05993010
_cell_length_b   9.05992854
_cell_length_c   8.91079400
_cell_angle_alpha   109.13811974
_cell_angle_beta   109.13811632
_cell_angle_gamma   109.80225504
_symmetry_Int_Tables_number   1
_chemical_formula_structural   Ba7ThSb6
_chemical_formula_sum   'Ba7 Th1 Sb6'
_cell_volume   565.34430182
_cell_formula_units_Z   1
loop_
 _symmetry_equiv_pos_site_id
 _symmetry_equiv_pos_as_xyz
  1  'x, y, z'
loop_
 _atom_site_type_symbol
 _atom_site_label
 _atom_site_symmetry_multiplicity
 _atom_site_fract_x
 _atom_site_fract_y
 _atom_site_fract_z
 _atom_site_occupancy
  Ba  Ba0  1  0.144287  0.502462  0.001649  1
  Ba  Ba1  1  0.358175  0.355713  0.357361  1
  Ba  Ba2  1  0.997538  0.141825  0.499186  1
  Ba  Ba3  1  0.871291  0.861088  0.866427  1
  Ba  Ba4  1  0.989798  0.628709  0.495136  1
  Ba  Ba5  1  0.500000  0.000000  0.140085  1
  Ba  Ba6  1  0.638912  0.510202  0.005339  1
  Th  Th7  1  0.500000  0.000000  0.641440  1
  Sb  Sb8  1  0.853347  0.236337  0.092896  1
  Sb  Sb9  1  0.149767  0.881957  0.278700  1
  Sb  Sb10  1  0.382990  0.646653  0.739548  1
  Sb  Sb11  1  0.263663  0.117010  0.856558  1
  Sb  Sb12  1  0.732190  0.350233  0.628934  1
  Sb  Sb13  1  0.618043  0.767810  0.396743  1
