# generated using pymatgen
data_Li2Tb(NdAu2)5
_symmetry_space_group_name_H-M   'P 1'
_cell_length_a   8.59220935
_cell_length_b   8.59221027
_cell_length_c   13.61112700
_cell_angle_alpha   90.01644413
_cell_angle_beta   89.98355587
_cell_angle_gamma   127.96574978
_symmetry_Int_Tables_number   1
_chemical_formula_structural   Li2Tb(NdAu2)5
_chemical_formula_sum   'Li4 Tb2 Nd10 Au20'
_cell_volume   792.20697422
_cell_formula_units_Z   2
loop_
 _symmetry_equiv_pos_site_id
 _symmetry_equiv_pos_as_xyz
  1  'x, y, z'
loop_
 _atom_site_type_symbol
 _atom_site_label
 _atom_site_symmetry_multiplicity
 _atom_site_fract_x
 _atom_site_fract_y
 _atom_site_fract_z
 _atom_site_occupancy
  Li  Li0  1  0.721498  0.278502  0.250336  1
  Li  Li1  1  0.278502  0.721498  0.749664  1
  Li  Li2  1  0.531028  0.468972  0.250945  1
  Li  Li3  1  0.468972  0.531028  0.749055  1
  Tb  Tb4  1  0.883346  0.116654  0.549941  1
  Tb  Tb5  1  0.116654  0.883346  0.450059  1
  Nd  Nd6  1  0.929265  0.070735  0.250778  1
  Nd  Nd7  1  0.070735  0.929265  0.749222  1
  Nd  Nd8  1  0.315910  0.684090  0.251803  1
  Nd  Nd9  1  0.684090  0.315910  0.748197  1
  Nd  Nd10  1  0.630275  0.369725  0.463321  1
  Nd  Nd11  1  0.369725  0.630275  0.536679  1
  Nd  Nd12  1  0.629803  0.370197  0.036805  1
  Nd  Nd13  1  0.370197  0.629803  0.963195  1
  Nd  Nd14  1  0.881936  0.118064  0.948677  1
  Nd  Nd15  1  0.118064  0.881936  0.051323  1
  Au  Au16  1  0.325001  0.070027  0.254012  1
  Au  Au17  1  0.070027  0.325001  0.745988  1
  Au  Au18  1  0.674999  0.929973  0.745988  1
  Au  Au19  1  0.929973  0.674999  0.254012  1
  Au  Au20  1  0.578170  0.007752  0.396419  1
  Au  Au21  1  0.007752  0.578170  0.603581  1
  Au  Au22  1  0.573721  0.006663  0.106535  1
  Au  Au23  1  0.006663  0.573721  0.893465  1
  Au  Au24  1  0.421830  0.992248  0.603581  1
  Au  Au25  1  0.992248  0.421830  0.396419  1
  Au  Au26  1  0.426279  0.993337  0.893465  1
  Au  Au27  1  0.993337  0.426279  0.106535  1
  Au  Au28  1  0.691054  0.741518  0.392814  1
  Au  Au29  1  0.741518  0.691054  0.607186  1
  Au  Au30  1  0.685286  0.738074  0.109571  1
  Au  Au31  1  0.738074  0.685286  0.890429  1
  Au  Au32  1  0.308946  0.258482  0.607186  1
  Au  Au33  1  0.258482  0.308946  0.392814  1
  Au  Au34  1  0.314714  0.261926  0.890429  1
  Au  Au35  1  0.261926  0.314714  0.109571  1
