# generated using pymatgen
data_LiTmLu3Al3B16
_symmetry_space_group_name_H-M   'P 1'
_cell_length_a   3.48536700
_cell_length_b   5.90753194
_cell_length_c   11.42637704
_cell_angle_alpha   90.15010305
_cell_angle_beta   90.00000000
_cell_angle_gamma   90.00000000
_symmetry_Int_Tables_number   1
_chemical_formula_structural   LiTmLu3Al3B16
_chemical_formula_sum   'Li1 Tm1 Lu3 Al3 B16'
_cell_volume   235.26734624
_cell_formula_units_Z   1
loop_
 _symmetry_equiv_pos_site_id
 _symmetry_equiv_pos_as_xyz
  1  'x, y, z'
loop_
 _atom_site_type_symbol
 _atom_site_label
 _atom_site_symmetry_multiplicity
 _atom_site_fract_x
 _atom_site_fract_y
 _atom_site_fract_z
 _atom_site_occupancy
  Li  Li0  1  0.000000  0.636008  0.088509  1
  Tm  Tm1  1  0.000000  0.872428  0.851831  1
  Lu  Lu2  1  0.000000  0.629951  0.345647  1
  Lu  Lu3  1  0.000000  0.370178  0.651902  1
  Lu  Lu4  1  0.000000  0.124947  0.149148  1
  Al  Al5  1  0.000000  0.369907  0.916747  1
  Al  Al6  1  0.000000  0.138306  0.408170  1
  Al  Al7  1  0.000000  0.860673  0.589691  1
  B  B8  1  0.500000  0.788338  0.185350  1
  B  B9  1  0.500000  0.210181  0.812822  1
  B  B10  1  0.500000  0.292285  0.311584  1
  B  B11  1  0.500000  0.708642  0.687424  1
  B  B12  1  0.500000  0.865887  0.031768  1
  B  B13  1  0.500000  0.131737  0.969715  1
  B  B14  1  0.500000  0.367243  0.469153  1
  B  B15  1  0.500000  0.632399  0.530451  1
  B  B16  1  0.500000  0.885177  0.452173  1
  B  B17  1  0.500000  0.114702  0.547306  1
  B  B18  1  0.500000  0.387335  0.047929  1
  B  B19  1  0.500000  0.614432  0.954215  1
  B  B20  1  0.500000  0.970960  0.305446  1
  B  B21  1  0.500000  0.026647  0.693639  1
  B  B22  1  0.500000  0.476334  0.192376  1
  B  B23  1  0.500000  0.525304  0.807003  1
