# generated using pymatgen
data_Rb2Ca(ICl)2
_symmetry_space_group_name_H-M   'P 1'
_cell_length_a   10.19721733
_cell_length_b   10.19721677
_cell_length_c   7.67388700
_cell_angle_alpha   90.00000000
_cell_angle_beta   90.00000000
_cell_angle_gamma   135.73318482
_symmetry_Int_Tables_number   1
_chemical_formula_structural   Rb2Ca(ICl)2
_chemical_formula_sum   'Rb4 Ca2 I4 Cl4'
_cell_volume   556.97352734
_cell_formula_units_Z   2
loop_
 _symmetry_equiv_pos_site_id
 _symmetry_equiv_pos_as_xyz
  1  'x, y, z'
loop_
 _atom_site_type_symbol
 _atom_site_label
 _atom_site_symmetry_multiplicity
 _atom_site_fract_x
 _atom_site_fract_y
 _atom_site_fract_z
 _atom_site_occupancy
  Rb  Rb0  1  0.133453  0.866547  0.500000  1
  Rb  Rb1  1  0.866547  0.133453  0.500000  1
  Rb  Rb2  1  0.366547  0.633453  0.000000  1
  Rb  Rb3  1  0.633453  0.366547  0.000000  1
  Ca  Ca4  1  0.500000  0.500000  0.500000  1
  Ca  Ca5  1  0.000000  0.000000  0.000000  1
  I  I6  1  0.333515  0.666485  0.500000  1
  I  I7  1  0.666485  0.333515  0.500000  1
  I  I8  1  0.166485  0.833515  0.000000  1
  I  I9  1  0.833515  0.166485  0.000000  1
  Cl  Cl10  1  0.749642  0.749642  0.748981  1
  Cl  Cl11  1  0.250358  0.250358  0.251019  1
  Cl  Cl12  1  0.750358  0.750358  0.248981  1
  Cl  Cl13  1  0.249642  0.249642  0.751019  1
