# generated using pymatgen
data_Tb5Hf2P12Ir17
_symmetry_space_group_name_H-M   'P 1'
_cell_length_a   12.66319000
_cell_length_b   12.89670999
_cell_length_c   3.98483900
_cell_angle_alpha   90.00000000
_cell_angle_beta   90.00000000
_cell_angle_gamma   119.40281316
_symmetry_Int_Tables_number   1
_chemical_formula_structural   Tb5Hf2P12Ir17
_chemical_formula_sum   'Tb5 Hf2 P12 Ir17'
_cell_volume   566.95106052
_cell_formula_units_Z   1
loop_
 _symmetry_equiv_pos_site_id
 _symmetry_equiv_pos_as_xyz
  1  'x, y, z'
loop_
 _atom_site_type_symbol
 _atom_site_label
 _atom_site_symmetry_multiplicity
 _atom_site_fract_x
 _atom_site_fract_y
 _atom_site_fract_z
 _atom_site_occupancy
  Tb  Tb0  1  0.330280  0.661688  0.500000  1
  Tb  Tb1  1  0.668592  0.338312  0.500000  1
  Tb  Tb2  1  0.000054  0.815295  0.000000  1
  Tb  Tb3  1  0.184760  0.184705  0.000000  1
  Tb  Tb4  1  0.812955  0.000000  0.000000  1
  Hf  Hf5  1  0.997651  0.446860  0.500000  1
  Hf  Hf6  1  0.550790  0.553140  0.500000  1
  P  P7  1  0.005408  0.650811  0.500000  1
  P  P8  1  0.354597  0.349189  0.500000  1
  P  P9  1  0.644970  0.000000  0.500000  1
  P  P10  1  0.515089  0.685901  0.000000  1
  P  P11  1  0.309652  0.825370  0.000000  1
  P  P12  1  0.164764  0.480920  0.000000  1
  P  P13  1  0.484282  0.174630  0.000000  1
  P  P14  1  0.683844  0.519080  0.000000  1
  P  P15  1  0.829189  0.314099  0.000000  1
  P  P16  1  0.999467  0.174145  0.500000  1
  P  P17  1  0.825322  0.825855  0.500000  1
  P  P18  1  0.181563  0.000000  0.500000  1
  Ir  Ir19  1  0.505218  0.864756  0.000000  1
  Ir  Ir20  1  0.127211  0.642697  0.000000  1
  Ir  Ir21  1  0.356153  0.495477  0.000000  1
  Ir  Ir22  1  0.484515  0.357303  0.000000  1
  Ir  Ir23  1  0.860678  0.504523  0.000000  1
  Ir  Ir24  1  0.640463  0.135244  0.000000  1
  Ir  Ir25  1  0.464934  0.000000  0.500000  1
  Ir  Ir26  1  0.997078  0.279822  0.000000  1
  Ir  Ir27  1  0.717256  0.720178  0.000000  1
  Ir  Ir28  1  0.289806  0.000000  0.000000  1
  Ir  Ir29  1  0.623656  0.807201  0.500000  1
  Ir  Ir30  1  0.204005  0.825505  0.500000  1
  Ir  Ir31  1  0.177329  0.367308  0.500000  1
  Ir  Ir32  1  0.378500  0.174495  0.500000  1
  Ir  Ir33  1  0.810021  0.632692  0.500000  1
  Ir  Ir34  1  0.816455  0.192799  0.500000  1
  Ir  Ir35  1  0.003490  0.000000  0.500000  1
