# generated using pymatgen
data_Tb3Yb3Mn3Si24Os5
_symmetry_space_group_name_H-M   'P 1'
_cell_length_a   10.08738445
_cell_length_b   10.08852263
_cell_length_c   8.08575338
_cell_angle_alpha   89.89754207
_cell_angle_beta   90.09748083
_cell_angle_gamma   132.71922663
_symmetry_Int_Tables_number   1
_chemical_formula_structural   Tb3Yb3Mn3Si24Os5
_chemical_formula_sum   'Tb3 Yb3 Mn3 Si24 Os5'
_cell_volume   604.54438627
_cell_formula_units_Z   1
loop_
 _symmetry_equiv_pos_site_id
 _symmetry_equiv_pos_as_xyz
  1  'x, y, z'
loop_
 _atom_site_type_symbol
 _atom_site_label
 _atom_site_symmetry_multiplicity
 _atom_site_fract_x
 _atom_site_fract_y
 _atom_site_fract_z
 _atom_site_occupancy
  Tb  Tb0  1  0.998263  0.499032  0.249385  1
  Tb  Tb1  1  0.498733  0.997602  0.249392  1
  Tb  Tb2  1  0.002101  0.501616  0.750394  1
  Yb  Yb3  1  0.498205  0.498239  0.499127  1
  Yb  Yb4  1  0.999332  0.999420  0.997683  1
  Yb  Yb5  1  0.502662  0.003236  0.750625  1
  Mn  Mn6  1  0.875972  0.875901  0.375208  1
  Mn  Mn7  1  0.377888  0.377807  0.125781  1
  Mn  Mn8  1  0.625479  0.625923  0.877302  1
  Si  Si9  1  0.796009  0.200311  0.500594  1
  Si  Si10  1  0.300553  0.703809  0.998900  1
  Si  Si11  1  0.204374  0.799175  0.501148  1
  Si  Si12  1  0.699864  0.297685  0.999366  1
  Si  Si13  1  0.340023  0.340965  0.839926  1
  Si  Si14  1  0.666969  0.668765  0.167413  1
  Si  Si15  1  0.166452  0.164497  0.325878  1
  Si  Si16  1  0.826165  0.825337  0.665591  1
  Si  Si17  1  0.128604  0.895046  0.733352  1
  Si  Si18  1  0.097095  0.870289  0.267659  1
  Si  Si19  1  0.594678  0.368225  0.233681  1
  Si  Si20  1  0.632908  0.405663  0.766935  1
  Si  Si21  1  0.870078  0.096159  0.267232  1
  Si  Si22  1  0.895641  0.128703  0.733276  1
  Si  Si23  1  0.404297  0.632289  0.767079  1
  Si  Si24  1  0.369100  0.596015  0.233009  1
  Si  Si25  1  0.349673  0.116254  0.511112  1
  Si  Si26  1  0.881699  0.654296  0.485168  1
  Si  Si27  1  0.380334  0.152455  0.018431  1
  Si  Si28  1  0.846669  0.620438  0.982054  1
  Si  Si29  1  0.653546  0.880764  0.484924  1
  Si  Si30  1  0.116226  0.348497  0.512018  1
  Si  Si31  1  0.619847  0.847648  0.983612  1
  Si  Si32  1  0.153602  0.381466  0.017622  1
  Os  Os33  1  0.673875  0.329338  0.499595  1
  Os  Os34  1  0.171109  0.826278  0.002200  1
  Os  Os35  1  0.327924  0.671732  0.499080  1
  Os  Os36  1  0.827851  0.173406  0.001731  1
  Os  Os37  1  0.126205  0.125722  0.626518  1
