# generated using pymatgen
data_Yb9Lu(Sn3H)2
_symmetry_space_group_name_H-M   'P 1'
_cell_length_a   9.34735298
_cell_length_b   9.34735298
_cell_length_c   9.34735327
_cell_angle_alpha   128.72708091
_cell_angle_beta   128.72707400
_cell_angle_gamma   75.45011266
_symmetry_Int_Tables_number   1
_chemical_formula_structural   Yb9Lu(Sn3H)2
_chemical_formula_sum   'Yb9 Lu1 Sn6 H2'
_cell_volume   483.69420220
_cell_formula_units_Z   1
loop_
 _symmetry_equiv_pos_site_id
 _symmetry_equiv_pos_as_xyz
  1  'x, y, z'
loop_
 _atom_site_type_symbol
 _atom_site_label
 _atom_site_symmetry_multiplicity
 _atom_site_fract_x
 _atom_site_fract_y
 _atom_site_fract_z
 _atom_site_occupancy
  Yb  Yb0  1  0.000000  0.000000  0.000000  1
  Yb  Yb1  1  0.509615  0.009607  0.823639  1
  Yb  Yb2  1  0.185967  0.685975  0.176361  1
  Yb  Yb3  1  0.009607  0.185967  0.499992  1
  Yb  Yb4  1  0.685975  0.509615  0.500008  1
  Yb  Yb5  1  0.490385  0.990393  0.176361  1
  Yb  Yb6  1  0.814033  0.314025  0.823639  1
  Yb  Yb7  1  0.990393  0.814033  0.500008  1
  Yb  Yb8  1  0.314025  0.490385  0.499992  1
  Lu  Lu9  1  0.500000  0.500000  0.000000  1
  Sn  Sn10  1  0.252320  0.252320  0.000000  1
  Sn  Sn11  1  0.747680  0.747680  0.000000  1
  Sn  Sn12  1  0.865036  0.375192  0.240228  1
  Sn  Sn13  1  0.134964  0.624808  0.759772  1
  Sn  Sn14  1  0.375192  0.134964  0.510156  1
  Sn  Sn15  1  0.624808  0.865036  0.489844  1
  H  H16  1  0.250000  0.750000  0.500000  1
  H  H17  1  0.750000  0.250000  0.500000  1
