# generated using pymatgen
data_Nd2Sn4Hg
_symmetry_space_group_name_H-M   'P 1'
_cell_length_a   17.33690707
_cell_length_b   17.33690690
_cell_length_c   4.63290300
_cell_angle_alpha   90.00000000
_cell_angle_beta   90.00000000
_cell_angle_gamma   164.02038198
_symmetry_Int_Tables_number   1
_chemical_formula_structural   Nd2Sn4Hg
_chemical_formula_sum   'Nd4 Sn8 Hg2'
_cell_volume   383.34992146
_cell_formula_units_Z   2
loop_
 _symmetry_equiv_pos_site_id
 _symmetry_equiv_pos_as_xyz
  1  'x, y, z'
loop_
 _atom_site_type_symbol
 _atom_site_label
 _atom_site_symmetry_multiplicity
 _atom_site_fract_x
 _atom_site_fract_y
 _atom_site_fract_z
 _atom_site_occupancy
  Nd  Nd0  1  0.928829  0.071171  0.500000  1
  Nd  Nd1  1  0.071171  0.928829  0.500000  1
  Nd  Nd2  1  0.797305  0.202695  0.500000  1
  Nd  Nd3  1  0.202695  0.797305  0.500000  1
  Sn  Sn4  1  0.637587  0.362413  0.500000  1
  Sn  Sn5  1  0.362413  0.637587  0.500000  1
  Sn  Sn6  1  0.719208  0.280792  0.000000  1
  Sn  Sn7  1  0.280792  0.719208  0.000000  1
  Sn  Sn8  1  0.568129  0.431871  0.000000  1
  Sn  Sn9  1  0.431871  0.568129  0.000000  1
  Sn  Sn10  1  0.862474  0.137526  0.000000  1
  Sn  Sn11  1  0.137526  0.862474  0.000000  1
  Hg  Hg12  1  0.500000  0.500000  0.500000  1
  Hg  Hg13  1  0.000000  0.000000  0.000000  1
