# generated using pymatgen
data_Hf3Mn7NbSi
_symmetry_space_group_name_H-M   'P 1'
_cell_length_a   4.89114800
_cell_length_b   4.89114590
_cell_length_c   8.05454500
_cell_angle_alpha   90.00000000
_cell_angle_beta   90.00000000
_cell_angle_gamma   120.00001418
_symmetry_Int_Tables_number   1
_chemical_formula_structural   Hf3Mn7NbSi
_chemical_formula_sum   'Hf3 Mn7 Nb1 Si1'
_cell_volume   166.87566296
_cell_formula_units_Z   1
loop_
 _symmetry_equiv_pos_site_id
 _symmetry_equiv_pos_as_xyz
  1  'x, y, z'
loop_
 _atom_site_type_symbol
 _atom_site_label
 _atom_site_symmetry_multiplicity
 _atom_site_fract_x
 _atom_site_fract_y
 _atom_site_fract_z
 _atom_site_occupancy
  Hf  Hf0  1  0.333333  0.666667  0.436008  1
  Hf  Hf1  1  0.666667  0.333333  0.935610  1
  Hf  Hf2  1  0.666667  0.333333  0.562311  1
  Mn  Mn3  1  0.171728  0.343455  0.750541  1
  Mn  Mn4  1  0.829126  0.170874  0.248577  1
  Mn  Mn5  1  0.341747  0.170874  0.248577  1
  Mn  Mn6  1  0.656545  0.828272  0.750541  1
  Mn  Mn7  1  0.000000  0.000000  0.499050  1
  Mn  Mn8  1  0.829126  0.658253  0.248577  1
  Mn  Mn9  1  0.171728  0.828272  0.750541  1
  Nb  Nb10  1  0.333333  0.666667  0.069859  1
  Si  Si11  1  0.000000  0.000000  0.999809  1
