# generated using pymatgen
data_Li4La3SmPt4
_symmetry_space_group_name_H-M   'P 1'
_cell_length_a   4.10086400
_cell_length_b   7.25614970
_cell_length_c   8.66501300
_cell_angle_alpha   90.35680646
_cell_angle_beta   90.00000000
_cell_angle_gamma   90.00000000
_symmetry_Int_Tables_number   1
_chemical_formula_structural   Li4La3SmPt4
_chemical_formula_sum   'Li4 La3 Sm1 Pt4'
_cell_volume   257.83531311
_cell_formula_units_Z   1
loop_
 _symmetry_equiv_pos_site_id
 _symmetry_equiv_pos_as_xyz
  1  'x, y, z'
loop_
 _atom_site_type_symbol
 _atom_site_label
 _atom_site_symmetry_multiplicity
 _atom_site_fract_x
 _atom_site_fract_y
 _atom_site_fract_z
 _atom_site_occupancy
  Li  Li0  1  0.250000  0.876621  0.948419  1
  Li  Li1  1  0.750000  0.123388  0.057152  1
  Li  Li2  1  0.750000  0.628089  0.443130  1
  Li  Li3  1  0.250000  0.372041  0.553337  1
  La  La4  1  0.250000  0.454411  0.188087  1
  La  La5  1  0.750000  0.547439  0.814582  1
  La  La6  1  0.750000  0.044784  0.683650  1
  Sm  Sm7  1  0.250000  0.953242  0.315794  1
  Pt  Pt8  1  0.250000  0.751696  0.614593  1
  Pt  Pt9  1  0.750000  0.244037  0.378671  1
  Pt  Pt10  1  0.750000  0.751896  0.122140  1
  Pt  Pt11  1  0.250000  0.252358  0.880450  1
