# generated using pymatgen
data_Nd3In2PdPt2Pb
_symmetry_space_group_name_H-M   'P 1'
_cell_length_a   7.85324800
_cell_length_b   7.90394305
_cell_length_c   3.99755000
_cell_angle_alpha   90.00000000
_cell_angle_beta   90.00000000
_cell_angle_gamma   120.21376428
_symmetry_Int_Tables_number   1
_chemical_formula_structural   Nd3In2PdPt2Pb
_chemical_formula_sum   'Nd3 In2 Pd1 Pt2 Pb1'
_cell_volume   214.42633939
_cell_formula_units_Z   1
loop_
 _symmetry_equiv_pos_site_id
 _symmetry_equiv_pos_as_xyz
  1  'x, y, z'
loop_
 _atom_site_type_symbol
 _atom_site_label
 _atom_site_symmetry_multiplicity
 _atom_site_fract_x
 _atom_site_fract_y
 _atom_site_fract_z
 _atom_site_occupancy
  Nd  Nd0  1  0.000000  0.591861  0.500000  1
  Nd  Nd1  1  0.586716  0.997594  0.500000  1
  Nd  Nd2  1  0.413284  0.410879  0.500000  1
  In  In3  1  0.256619  0.000059  0.000000  1
  In  In4  1  0.743381  0.743440  0.000000  1
  Pd  Pd5  1  0.000000  0.989509  0.500000  1
  Pt  Pt6  1  0.659539  0.336220  0.000000  1
  Pt  Pt7  1  0.340461  0.676682  0.000000  1
  Pb  Pb8  1  0.000000  0.253755  0.000000  1
