# generated using pymatgen
data_Sm8Sc(IrO8)3
_symmetry_space_group_name_H-M   'P 1'
_cell_length_a   5.37106336
_cell_length_b   9.23607612
_cell_length_c   10.09097000
_cell_angle_alpha   89.33742294
_cell_angle_beta   90.24810532
_cell_angle_gamma   90.53579391
_symmetry_Int_Tables_number   1
_chemical_formula_structural   Sm8Sc(IrO8)3
_chemical_formula_sum   'Sm8 Sc1 Ir3 O24'
_cell_volume   500.52847900
_cell_formula_units_Z   1
loop_
 _symmetry_equiv_pos_site_id
 _symmetry_equiv_pos_as_xyz
  1  'x, y, z'
loop_
 _atom_site_type_symbol
 _atom_site_label
 _atom_site_symmetry_multiplicity
 _atom_site_fract_x
 _atom_site_fract_y
 _atom_site_fract_z
 _atom_site_occupancy
  Sm  Sm0  1  0.041577  0.217415  0.129101  1
  Sm  Sm1  1  0.462485  0.764697  0.635109  1
  Sm  Sm2  1  0.965936  0.716320  0.379102  1
  Sm  Sm3  1  0.525318  0.291452  0.852890  1
  Sm  Sm4  1  0.043264  0.120957  0.539653  1
  Sm  Sm5  1  0.473660  0.899120  0.037769  1
  Sm  Sm6  1  0.981974  0.600486  0.955346  1
  Sm  Sm7  1  0.515790  0.410328  0.469172  1
  Sc  Sc8  1  0.030983  0.489090  0.647354  1
  Ir  Ir9  1  0.553307  0.000811  0.356536  1
  Ir  Ir10  1  0.955075  0.998169  0.856213  1
  Ir  Ir11  1  0.459212  0.503314  0.145556  1
  O  O12  1  0.444028  0.157430  0.459114  1
  O  O13  1  0.062154  0.850930  0.984114  1
  O  O14  1  0.567577  0.652817  0.024795  1
  O  O15  1  0.906580  0.340235  0.502960  1
  O  O16  1  0.726819  0.388288  0.078691  1
  O  O17  1  0.755178  0.617108  0.554086  1
  O  O18  1  0.279277  0.893266  0.434894  1
  O  O19  1  0.224597  0.109647  0.936673  1
  O  O20  1  0.251352  0.407817  0.006491  1
  O  O21  1  0.251016  0.600746  0.503918  1
  O  O22  1  0.758694  0.919016  0.498311  1
  O  O23  1  0.745802  0.091779  0.993934  1
  O  O24  1  0.187431  0.630665  0.181778  1
  O  O25  1  0.309890  0.324860  0.664627  1
  O  O26  1  0.835879  0.119003  0.312541  1
  O  O27  1  0.682852  0.868210  0.825756  1
  O  O28  1  0.346761  0.057350  0.208807  1
  O  O29  1  0.165181  0.945283  0.716980  1
  O  O30  1  0.663009  0.563883  0.285104  1
  O  O31  1  0.798776  0.459529  0.803929  1
  O  O32  1  0.318115  0.360110  0.260992  1
  O  O33  1  0.216921  0.634818  0.774929  1
  O  O34  1  0.670148  0.852562  0.242452  1
  O  O35  1  0.823378  0.142483  0.740327  1
