# generated using pymatgen
data_Pr8Ho12In9Bi7
_symmetry_space_group_name_H-M   'P 1'
_cell_length_a   8.38621339
_cell_length_b   8.37904810
_cell_length_c   15.73010600
_cell_angle_alpha   90.04049453
_cell_angle_beta   90.04326794
_cell_angle_gamma   90.00230801
_symmetry_Int_Tables_number   1
_chemical_formula_structural   Pr8Ho12In9Bi7
_chemical_formula_sum   'Pr8 Ho12 In9 Bi7'
_cell_volume   1105.33013132
_cell_formula_units_Z   1
loop_
 _symmetry_equiv_pos_site_id
 _symmetry_equiv_pos_as_xyz
  1  'x, y, z'
loop_
 _atom_site_type_symbol
 _atom_site_label
 _atom_site_symmetry_multiplicity
 _atom_site_fract_x
 _atom_site_fract_y
 _atom_site_fract_z
 _atom_site_occupancy
  Pr  Pr0  1  0.475484  0.677689  0.598636  1
  Pr  Pr1  1  0.975304  0.820316  0.899404  1
  Pr  Pr2  1  0.523461  0.318522  0.099937  1
  Pr  Pr3  1  0.022620  0.183882  0.398932  1
  Pr  Pr4  1  0.516455  0.319580  0.402147  1
  Pr  Pr5  1  0.024415  0.180661  0.100664  1
  Pr  Pr6  1  0.475336  0.681231  0.899784  1
  Pr  Pr7  1  0.978635  0.818694  0.600134  1
  Ho  Ho8  1  0.629061  0.161728  0.625120  1
  Ho  Ho9  1  0.129304  0.339185  0.874258  1
  Ho  Ho10  1  0.369928  0.838989  0.124524  1
  Ho  Ho11  1  0.874114  0.660252  0.373436  1
  Ho  Ho12  1  0.367995  0.836479  0.376105  1
  Ho  Ho13  1  0.869596  0.660853  0.125337  1
  Ho  Ho14  1  0.631741  0.159799  0.874256  1
  Ho  Ho15  1  0.134600  0.340859  0.625516  1
  Ho  Ho16  1  0.797259  0.495102  0.749678  1
  Ho  Ho17  1  0.298745  0.004150  0.749193  1
  Ho  Ho18  1  0.202003  0.506497  0.252941  1
  Ho  Ho19  1  0.700758  0.996774  0.251914  1
  In  In20  1  0.206938  0.538693  0.457320  1
  In  In21  1  0.431759  0.378081  0.750691  1
  In  In22  1  0.931347  0.120463  0.749774  1
  In  In23  1  0.568900  0.622381  0.250404  1
  In  In24  1  0.069172  0.880517  0.248121  1
  In  In25  1  0.673642  0.860687  0.749469  1
  In  In26  1  0.174726  0.639372  0.750982  1
  In  In27  1  0.325498  0.137249  0.249646  1
  In  In28  1  0.821989  0.361192  0.249144  1
  Bi  Bi29  1  0.708786  0.960308  0.457457  1
  Bi  Bi30  1  0.208075  0.537856  0.043633  1
  Bi  Bi31  1  0.291867  0.039257  0.956535  1
  Bi  Bi32  1  0.800140  0.460135  0.541652  1
  Bi  Bi33  1  0.290829  0.039451  0.542837  1
  Bi  Bi34  1  0.791311  0.461772  0.956627  1
  Bi  Bi35  1  0.708208  0.961348  0.043792  1
