# generated using pymatgen
data_Ta3P6OsO24
_symmetry_space_group_name_H-M   'P 1'
_cell_length_a   8.74866807
_cell_length_b   9.02641184
_cell_length_c   8.74600122
_cell_angle_alpha   90.14152364
_cell_angle_beta   59.81317462
_cell_angle_gamma   118.99326388
_symmetry_Int_Tables_number   1
_chemical_formula_structural   Ta3P6OsO24
_chemical_formula_sum   'Ta3 P6 Os1 O24'
_cell_volume   494.88743029
_cell_formula_units_Z   1
loop_
 _symmetry_equiv_pos_site_id
 _symmetry_equiv_pos_as_xyz
  1  'x, y, z'
loop_
 _atom_site_type_symbol
 _atom_site_label
 _atom_site_symmetry_multiplicity
 _atom_site_fract_x
 _atom_site_fract_y
 _atom_site_fract_z
 _atom_site_occupancy
  Ta  Ta0  1  0.284302  0.925929  0.357903  1
  Ta  Ta1  1  0.283017  0.423851  0.859047  1
  Ta  Ta2  1  0.713442  0.570471  0.143276  1
  P  P3  1  0.781882  0.753919  0.751397  1
  P  P4  1  0.501526  0.246865  0.534618  1
  P  P5  1  0.503819  0.753790  0.467747  1
  P  P6  1  0.211125  0.247181  0.254224  1
  P  P7  1  0.782435  0.246922  0.963690  1
  P  P8  1  0.220156  0.752891  0.028693  1
  Os  Os9  1  0.711167  0.068290  0.644237  1
  O  O10  1  0.662333  0.920745  0.477487  1
  O  O11  1  0.004357  0.715645  0.080314  1
  O  O12  1  0.219663  0.582939  0.002043  1
  O  O13  1  0.226347  0.780056  0.202029  1
  O  O14  1  0.986228  0.274478  0.934983  1
  O  O15  1  0.783382  0.414481  0.004224  1
  O  O16  1  0.782000  0.232020  0.792202  1
  O  O17  1  0.796153  0.717628  0.915714  1
  O  O18  1  0.982190  0.780280  0.571359  1
  O  O19  1  0.660577  0.233842  0.547041  1
  O  O20  1  0.776570  0.918182  0.743905  1
  O  O21  1  0.585162  0.583696  0.778463  1
  O  O22  1  0.588735  0.082870  0.141745  1
  O  O23  1  0.625484  0.414303  0.368853  1
  O  O24  1  0.210151  0.274255  0.078491  1
  O  O25  1  0.353559  0.274434  0.711484  1
  O  O26  1  0.633353  0.717236  0.289199  1
  O  O27  1  0.352421  0.082268  0.506272  1
  O  O28  1  0.394289  0.915495  0.856631  1
  O  O29  1  0.362646  0.584284  0.637167  1
  O  O30  1  0.225498  0.083395  0.269473  1
  O  O31  1  0.420418  0.415746  0.210329  1
  O  O32  1  0.350932  0.779231  0.446328  1
  O  O33  1  0.026811  0.232385  0.427300  1
