# generated using pymatgen
data_Dy5Co2As12Ru17
_symmetry_space_group_name_H-M   'P 1'
_cell_length_a   12.91466356
_cell_length_b   12.95651956
_cell_length_c   4.02961800
_cell_angle_alpha   90.00000000
_cell_angle_beta   90.00000000
_cell_angle_gamma   120.10725982
_symmetry_Int_Tables_number   1
_chemical_formula_structural   Dy5Co2As12Ru17
_chemical_formula_sum   'Dy5 Co2 As12 Ru17'
_cell_volume   583.30480189
_cell_formula_units_Z   1
loop_
 _symmetry_equiv_pos_site_id
 _symmetry_equiv_pos_as_xyz
  1  'x, y, z'
loop_
 _atom_site_type_symbol
 _atom_site_label
 _atom_site_symmetry_multiplicity
 _atom_site_fract_x
 _atom_site_fract_y
 _atom_site_fract_z
 _atom_site_occupancy
  Dy  Dy0  1  0.667833  0.332851  0.000000  1
  Dy  Dy1  1  0.332167  0.665019  0.000000  1
  Dy  Dy2  1  0.184603  0.184403  0.500000  1
  Dy  Dy3  1  0.815397  0.999800  0.500000  1
  Dy  Dy4  1  0.000000  0.813665  0.500000  1
  Co  Co5  1  0.000000  0.279009  0.500000  1
  Co  Co6  1  0.000000  0.003070  0.000000  1
  As  As7  1  0.370235  0.371145  0.000000  1
  As  As8  1  0.629765  0.000910  0.000000  1
  As  As9  1  0.000000  0.628025  0.000000  1
  As  As10  1  0.838011  0.311963  0.500000  1
  As  As11  1  0.689046  0.520773  0.500000  1
  As  As12  1  0.480228  0.168980  0.500000  1
  As  As13  1  0.310954  0.831726  0.500000  1
  As  As14  1  0.519772  0.688750  0.500000  1
  As  As15  1  0.161989  0.473952  0.500000  1
  As  As16  1  0.826262  0.826133  0.000000  1
  As  As17  1  0.173738  0.999871  0.000000  1
  As  As18  1  0.000000  0.177521  0.000000  1
  Ru  Ru19  1  0.558226  0.560093  0.000000  1
  Ru  Ru20  1  0.441774  0.001867  0.000000  1
  Ru  Ru21  1  0.000000  0.438949  0.000000  1
  Ru  Ru22  1  0.821440  0.193891  0.000000  1
  Ru  Ru23  1  0.807552  0.625225  0.000000  1
  Ru  Ru24  1  0.374455  0.182719  0.000000  1
  Ru  Ru25  1  0.192448  0.817674  0.000000  1
  Ru  Ru26  1  0.625545  0.808264  0.000000  1
  Ru  Ru27  1  0.178560  0.372451  0.000000  1
  Ru  Ru28  1  0.640848  0.126528  0.500000  1
  Ru  Ru29  1  0.876025  0.512376  0.500000  1
  Ru  Ru30  1  0.485865  0.362875  0.500000  1
  Ru  Ru31  1  0.123975  0.636351  0.500000  1
  Ru  Ru32  1  0.514135  0.877010  0.500000  1
  Ru  Ru33  1  0.359152  0.485680  0.500000  1
  Ru  Ru34  1  0.720401  0.720443  0.500000  1
  Ru  Ru35  1  0.279599  0.000042  0.500000  1
