# generated using pymatgen
data_Cs4(CuO2)3
_symmetry_space_group_name_H-M   'P 1'
_cell_length_a   6.13670323
_cell_length_b   6.13670794
_cell_length_c   8.16659806
_cell_angle_alpha   88.10927105
_cell_angle_beta   88.10918796
_cell_angle_gamma   64.80346262
_symmetry_Int_Tables_number   1
_chemical_formula_structural   Cs4(CuO2)3
_chemical_formula_sum   'Cs4 Cu3 O6'
_cell_volume   278.07236022
_cell_formula_units_Z   1
loop_
 _symmetry_equiv_pos_site_id
 _symmetry_equiv_pos_as_xyz
  1  'x, y, z'
loop_
 _atom_site_type_symbol
 _atom_site_label
 _atom_site_symmetry_multiplicity
 _atom_site_fract_x
 _atom_site_fract_y
 _atom_site_fract_z
 _atom_site_occupancy
  Cs  Cs0  1  0.680286  0.680286  0.620940  1
  Cs  Cs1  1  0.319714  0.319714  0.379060  1
  Cs  Cs2  1  0.655777  0.655777  0.117996  1
  Cs  Cs3  1  0.344223  0.344223  0.882004  1
  Cu  Cu4  1  0.000000  0.000000  0.000000  1
  Cu  Cu5  1  0.969829  0.969829  0.328742  1
  Cu  Cu6  1  0.030171  0.030171  0.671258  1
  O  O7  1  0.133446  0.752090  0.156788  1
  O  O8  1  0.752090  0.133447  0.156788  1
  O  O9  1  0.866554  0.247910  0.843212  1
  O  O10  1  0.247910  0.866553  0.843212  1
  O  O11  1  0.188406  0.811595  0.500000  1
  O  O12  1  0.811594  0.188405  0.500000  1
