# generated using pymatgen
data_NdTl3Pd4F28
_symmetry_space_group_name_H-M   'P 1'
_cell_length_a   5.53325352
_cell_length_b   8.87430363
_cell_length_c   11.96762600
_cell_angle_alpha   62.51936277
_cell_angle_beta   89.87810310
_cell_angle_gamma   89.96671611
_symmetry_Int_Tables_number   1
_chemical_formula_structural   NdTl3Pd4F28
_chemical_formula_sum   'Nd1 Tl3 Pd4 F28'
_cell_volume   521.34730062
_cell_formula_units_Z   1
loop_
 _symmetry_equiv_pos_site_id
 _symmetry_equiv_pos_as_xyz
  1  'x, y, z'
loop_
 _atom_site_type_symbol
 _atom_site_label
 _atom_site_symmetry_multiplicity
 _atom_site_fract_x
 _atom_site_fract_y
 _atom_site_fract_z
 _atom_site_occupancy
  Nd  Nd0  1  0.760735  0.813330  0.765212  1
  Tl  Tl1  1  0.267335  0.191734  0.736007  1
  Tl  Tl2  1  0.236029  0.185711  0.237323  1
  Tl  Tl3  1  0.736449  0.815720  0.262780  1
  Pd  Pd4  1  0.762613  0.268380  0.957585  1
  Pd  Pd5  1  0.256471  0.724225  0.540112  1
  Pd  Pd6  1  0.241031  0.724579  0.049430  1
  Pd  Pd7  1  0.737871  0.277286  0.452965  1
  F  F8  1  0.424627  0.704821  0.917762  1
  F  F9  1  0.920317  0.307549  0.579384  1
  F  F10  1  0.577637  0.298921  0.083559  1
  F  F11  1  0.071798  0.694078  0.414358  1
  F  F12  1  0.430736  0.283025  0.532277  1
  F  F13  1  0.939085  0.722563  0.966688  1
  F  F14  1  0.565246  0.719043  0.461313  1
  F  F15  1  0.069638  0.273612  0.037349  1
  F  F16  1  0.782422  0.514513  0.860752  1
  F  F17  1  0.283733  0.476365  0.644350  1
  F  F18  1  0.217456  0.474317  0.145604  1
  F  F19  1  0.712993  0.524542  0.351472  1
  F  F20  1  0.754653  0.022153  0.046473  1
  F  F21  1  0.250229  0.970232  0.452772  1
  F  F22  1  0.246510  0.969984  0.961112  1
  F  F23  1  0.744732  0.031047  0.546434  1
  F  F24  1  0.959173  0.721456  0.627763  1
  F  F25  1  0.457419  0.278232  0.871830  1
  F  F26  1  0.043459  0.279104  0.368915  1
  F  F27  1  0.545669  0.719163  0.133173  1
  F  F28  1  0.066965  0.736668  0.187803  1
  F  F29  1  0.563617  0.257906  0.315890  1
  F  F30  1  0.937590  0.255167  0.818178  1
  F  F31  1  0.433198  0.742593  0.674450  1
  F  F32  1  0.398379  0.966774  0.227254  1
  F  F33  1  0.898625  0.034248  0.272813  1
  F  F34  1  0.597329  0.045840  0.770968  1
  F  F35  1  0.108231  0.975118  0.727891  1
