# generated using pymatgen
data_Tb3GaSiAg3Ge
_symmetry_space_group_name_H-M   'P 1'
_cell_length_a   7.18365600
_cell_length_b   7.18365536
_cell_length_c   4.20824600
_cell_angle_alpha   90.00000000
_cell_angle_beta   90.00000000
_cell_angle_gamma   119.99998454
_symmetry_Int_Tables_number   1
_chemical_formula_structural   Tb3GaSiAg3Ge
_chemical_formula_sum   'Tb3 Ga1 Si1 Ag3 Ge1'
_cell_volume   188.07143332
_cell_formula_units_Z   1
loop_
 _symmetry_equiv_pos_site_id
 _symmetry_equiv_pos_as_xyz
  1  'x, y, z'
loop_
 _atom_site_type_symbol
 _atom_site_label
 _atom_site_symmetry_multiplicity
 _atom_site_fract_x
 _atom_site_fract_y
 _atom_site_fract_z
 _atom_site_occupancy
  Tb  Tb0  1  0.576302  0.998046  0.000000  1
  Tb  Tb1  1  0.001954  0.578256  0.000000  1
  Tb  Tb2  1  0.421744  0.423698  0.000000  1
  Ga  Ga3  1  0.000000  0.000000  0.000000  1
  Si  Si4  1  0.333333  0.666667  0.500000  1
  Ag  Ag5  1  0.246742  0.994176  0.500000  1
  Ag  Ag6  1  0.005824  0.252566  0.500000  1
  Ag  Ag7  1  0.747434  0.753258  0.500000  1
  Ge  Ge8  1  0.666667  0.333333  0.500000  1
