# generated using pymatgen
data_Nd2GaTc16C3
_symmetry_space_group_name_H-M   'P 1'
_cell_length_a   7.04015769
_cell_length_b   6.98188476
_cell_length_c   6.98188451
_cell_angle_alpha   82.87434681
_cell_angle_beta   82.71083898
_cell_angle_gamma   82.71083508
_symmetry_Int_Tables_number   1
_chemical_formula_structural   Nd2GaTc16C3
_chemical_formula_sum   'Nd2 Ga1 Tc16 C3'
_cell_volume   335.62164768
_cell_formula_units_Z   1
loop_
 _symmetry_equiv_pos_site_id
 _symmetry_equiv_pos_as_xyz
  1  'x, y, z'
loop_
 _atom_site_type_symbol
 _atom_site_label
 _atom_site_symmetry_multiplicity
 _atom_site_fract_x
 _atom_site_fract_y
 _atom_site_fract_z
 _atom_site_occupancy
  Nd  Nd0  1  0.653074  0.651374  0.651374  1
  Nd  Nd1  1  0.346926  0.348626  0.348626  1
  Ga  Ga2  1  0.500000  0.000000  0.000000  1
  Tc  Tc3  1  0.000000  0.000000  0.500000  1
  Tc  Tc4  1  0.000000  0.500000  0.000000  1
  Tc  Tc5  1  0.721986  0.275371  0.002827  1
  Tc  Tc6  1  0.000000  0.723986  0.276014  1
  Tc  Tc7  1  0.278014  0.997173  0.724629  1
  Tc  Tc8  1  0.000000  0.276014  0.723986  1
  Tc  Tc9  1  0.721986  0.002827  0.275371  1
  Tc  Tc10  1  0.278014  0.724629  0.997173  1
  Tc  Tc11  1  0.347447  0.858688  0.349805  1
  Tc  Tc12  1  0.347447  0.349805  0.858688  1
  Tc  Tc13  1  0.860725  0.351822  0.351822  1
  Tc  Tc14  1  0.652553  0.141312  0.650195  1
  Tc  Tc15  1  0.652553  0.650195  0.141312  1
  Tc  Tc16  1  0.139275  0.648178  0.648178  1
  Tc  Tc17  1  0.908178  0.900667  0.900667  1
  Tc  Tc18  1  0.091822  0.099333  0.099333  1
  C  C19  1  0.500000  0.500000  0.000000  1
  C  C20  1  0.000000  0.500000  0.500000  1
  C  C21  1  0.500000  0.000000  0.500000  1
