# generated using pymatgen
data_Ba2Cu2P4Pd
_symmetry_space_group_name_H-M   'P 1'
_cell_length_a   8.48396101
_cell_length_b   8.48396029
_cell_length_c   8.48396069
_cell_angle_alpha   136.91975958
_cell_angle_beta   112.16491109
_cell_angle_gamma   83.81888688
_symmetry_Int_Tables_number   1
_chemical_formula_structural   Ba2Cu2P4Pd
_chemical_formula_sum   'Ba4 Cu4 P8 Pd2'
_cell_volume   372.41461490
_cell_formula_units_Z   2
loop_
 _symmetry_equiv_pos_site_id
 _symmetry_equiv_pos_as_xyz
  1  'x, y, z'
loop_
 _atom_site_type_symbol
 _atom_site_label
 _atom_site_symmetry_multiplicity
 _atom_site_fract_x
 _atom_site_fract_y
 _atom_site_fract_z
 _atom_site_occupancy
  Ba  Ba0  1  0.095486  0.891377  0.204109  1
  Ba  Ba1  1  0.904514  0.108623  0.795891  1
  Ba  Ba2  1  0.312733  0.608623  0.704109  1
  Ba  Ba3  1  0.687267  0.391377  0.295891  1
  Cu  Cu4  1  0.278088  0.028088  0.750000  1
  Cu  Cu5  1  0.721912  0.471912  0.750000  1
  Cu  Cu6  1  0.278088  0.528088  0.250000  1
  Cu  Cu7  1  0.721912  0.971912  0.250000  1
  P  P8  1  0.491185  0.126389  0.364795  1
  P  P9  1  0.508815  0.873611  0.635205  1
  P  P10  1  0.238406  0.373611  0.864795  1
  P  P11  1  0.761594  0.626389  0.135205  1
  P  P12  1  0.971115  0.338221  0.632894  1
  P  P13  1  0.028885  0.661779  0.367106  1
  P  P14  1  0.705327  0.838221  0.867106  1
  P  P15  1  0.294673  0.161779  0.132894  1
  Pd  Pd16  1  0.500000  0.750000  0.250000  1
  Pd  Pd17  1  0.500000  0.250000  0.750000  1
