# generated using pymatgen
data_Y2Al7Ni2Au
_symmetry_space_group_name_H-M   'P 1'
_cell_length_a   7.98344786
_cell_length_b   7.98344807
_cell_length_c   6.53041199
_cell_angle_alpha   88.54810281
_cell_angle_beta   91.45189918
_cell_angle_gamma   150.48109895
_symmetry_Int_Tables_number   1
_chemical_formula_structural   Y2Al7Ni2Au
_chemical_formula_sum   'Y2 Al7 Ni2 Au1'
_cell_volume   205.00497184
_cell_formula_units_Z   1
loop_
 _symmetry_equiv_pos_site_id
 _symmetry_equiv_pos_as_xyz
  1  'x, y, z'
loop_
 _atom_site_type_symbol
 _atom_site_label
 _atom_site_symmetry_multiplicity
 _atom_site_fract_x
 _atom_site_fract_y
 _atom_site_fract_z
 _atom_site_occupancy
  Y  Y0  1  0.622071  0.377929  0.233632  1
  Y  Y1  1  0.377929  0.622071  0.766368  1
  Al  Al2  1  0.188078  0.811922  0.943609  1
  Al  Al3  1  0.811922  0.188078  0.056391  1
  Al  Al4  1  0.813012  0.186988  0.454031  1
  Al  Al5  1  0.186988  0.813012  0.545969  1
  Al  Al6  1  0.000000  0.000000  0.000000  1
  Al  Al7  1  0.573179  0.426821  0.725091  1
  Al  Al8  1  0.426821  0.573179  0.274909  1
  Ni  Ni9  1  0.723405  0.276595  0.748397  1
  Ni  Ni10  1  0.276595  0.723405  0.251603  1
  Au  Au11  1  0.000000  0.000000  0.500000  1
