# generated using pymatgen
data_ErZr3(Nb3Si4)2
_symmetry_space_group_name_H-M   'P 1'
_cell_length_a   6.93213018
_cell_length_b   6.92991863
_cell_length_c   12.86635000
_cell_angle_alpha   90.00000000
_cell_angle_beta   90.00000000
_cell_angle_gamma   90.04101142
_symmetry_Int_Tables_number   1
_chemical_formula_structural   ErZr3(Nb3Si4)2
_chemical_formula_sum   'Er2 Zr6 Nb12 Si16'
_cell_volume   618.08769160
_cell_formula_units_Z   2
loop_
 _symmetry_equiv_pos_site_id
 _symmetry_equiv_pos_as_xyz
  1  'x, y, z'
loop_
 _atom_site_type_symbol
 _atom_site_label
 _atom_site_symmetry_multiplicity
 _atom_site_fract_x
 _atom_site_fract_y
 _atom_site_fract_z
 _atom_site_occupancy
  Er  Er0  1  0.338499  0.997735  0.781321  1
  Er  Er1  1  0.661501  0.002265  0.281321  1
  Zr  Zr2  1  0.004032  0.342997  0.216889  1
  Zr  Zr3  1  0.995968  0.657003  0.716889  1
  Zr  Zr4  1  0.159325  0.502421  0.468434  1
  Zr  Zr5  1  0.497920  0.840418  0.033037  1
  Zr  Zr6  1  0.840675  0.497579  0.968434  1
  Zr  Zr7  1  0.502080  0.159582  0.533037  1
  Nb  Nb8  1  0.169296  0.170278  0.000250  1
  Nb  Nb9  1  0.830704  0.829722  0.500250  1
  Nb  Nb10  1  0.328257  0.667399  0.250285  1
  Nb  Nb11  1  0.671743  0.332601  0.750285  1
  Nb  Nb12  1  0.152491  0.993804  0.376041  1
  Nb  Nb13  1  0.847509  0.006196  0.876041  1
  Nb  Nb14  1  0.506785  0.654007  0.625530  1
  Nb  Nb15  1  0.347573  0.496997  0.874421  1
  Nb  Nb16  1  0.493215  0.345993  0.125530  1
  Nb  Nb17  1  0.652427  0.503003  0.374421  1
  Nb  Nb18  1  0.997123  0.156447  0.623258  1
  Nb  Nb19  1  0.002877  0.843553  0.123258  1
  Si  Si20  1  0.293806  0.043563  0.186591  1
  Si  Si21  1  0.706194  0.956437  0.686591  1
  Si  Si22  1  0.455164  0.797120  0.437409  1
  Si  Si23  1  0.202535  0.543870  0.062928  1
  Si  Si24  1  0.544836  0.202880  0.937409  1
  Si  Si25  1  0.797465  0.456130  0.562928  1
  Si  Si26  1  0.044325  0.300613  0.813272  1
  Si  Si27  1  0.955675  0.699387  0.313272  1
  Si  Si28  1  0.362087  0.293400  0.322374  1
  Si  Si29  1  0.637913  0.706600  0.822374  1
  Si  Si30  1  0.205803  0.864813  0.570066  1
  Si  Si31  1  0.131834  0.789982  0.930475  1
  Si  Si32  1  0.794197  0.135187  0.070066  1
  Si  Si33  1  0.868166  0.210018  0.430475  1
  Si  Si34  1  0.293195  0.369182  0.677424  1
  Si  Si35  1  0.706805  0.630818  0.177424  1
