# generated using pymatgen
data_Y8ErTm11Sn16
_symmetry_space_group_name_H-M   'P 1'
_cell_length_a   7.99104404
_cell_length_b   8.12045004
_cell_length_c   15.35146802
_cell_angle_alpha   89.99652483
_cell_angle_beta   89.99541382
_cell_angle_gamma   89.98881919
_symmetry_Int_Tables_number   1
_chemical_formula_structural   Y8ErTm11Sn16
_chemical_formula_sum   'Y8 Er1 Tm11 Sn16'
_cell_volume   996.17015219
_cell_formula_units_Z   1
loop_
 _symmetry_equiv_pos_site_id
 _symmetry_equiv_pos_as_xyz
  1  'x, y, z'
loop_
 _atom_site_type_symbol
 _atom_site_label
 _atom_site_symmetry_multiplicity
 _atom_site_fract_x
 _atom_site_fract_y
 _atom_site_fract_z
 _atom_site_occupancy
  Y  Y0  1  0.522289  0.321116  0.902646  1
  Y  Y1  1  0.022271  0.178951  0.597340  1
  Y  Y2  1  0.477702  0.678932  0.402652  1
  Y  Y3  1  0.977732  0.821095  0.097341  1
  Y  Y4  1  0.477737  0.678902  0.097418  1
  Y  Y5  1  0.977706  0.821066  0.402658  1
  Y  Y6  1  0.522287  0.321066  0.597336  1
  Y  Y7  1  0.022233  0.178961  0.902662  1
  Er  Er8  1  0.367373  0.836617  0.877299  1
  Tm  Tm9  1  0.867340  0.663314  0.622705  1
  Tm  Tm10  1  0.632681  0.163324  0.377285  1
  Tm  Tm11  1  0.132680  0.336684  0.122748  1
  Tm  Tm12  1  0.632661  0.163299  0.122705  1
  Tm  Tm13  1  0.132681  0.336692  0.377289  1
  Tm  Tm14  1  0.367314  0.836703  0.622696  1
  Tm  Tm15  1  0.867278  0.663322  0.877267  1
  Tm  Tm16  1  0.198152  0.504078  0.749945  1
  Tm  Tm17  1  0.698286  0.995874  0.749963  1
  Tm  Tm18  1  0.801783  0.495813  0.250003  1
  Tm  Tm19  1  0.301781  0.004196  0.250007  1
  Sn  Sn20  1  0.293961  0.036946  0.041984  1
  Sn  Sn21  1  0.794013  0.463188  0.458164  1
  Sn  Sn22  1  0.705975  0.963214  0.541815  1
  Sn  Sn23  1  0.205825  0.536509  0.958243  1
  Sn  Sn24  1  0.706250  0.963287  0.958229  1
  Sn  Sn25  1  0.205987  0.536798  0.541816  1
  Sn  Sn26  1  0.294010  0.036791  0.458173  1
  Sn  Sn27  1  0.794033  0.463209  0.041828  1
  Sn  Sn28  1  0.564570  0.620660  0.749920  1
  Sn  Sn29  1  0.064261  0.879196  0.749931  1
  Sn  Sn30  1  0.435600  0.379166  0.250001  1
  Sn  Sn31  1  0.935597  0.120829  0.250004  1
  Sn  Sn32  1  0.331132  0.147745  0.749933  1
  Sn  Sn33  1  0.831147  0.352422  0.749997  1
  Sn  Sn34  1  0.668834  0.852404  0.250008  1
  Sn  Sn35  1  0.168841  0.647632  0.249991  1
