# generated using pymatgen
data_Hf2Zr2CN3
_symmetry_space_group_name_H-M   'P 1'
_cell_length_a   10.80003956
_cell_length_b   10.80003967
_cell_length_c   10.80004022
_cell_angle_alpha   17.35233037
_cell_angle_beta   17.35232828
_cell_angle_gamma   17.35232151
_symmetry_Int_Tables_number   1
_chemical_formula_structural   Hf2Zr2CN3
_chemical_formula_sum   'Hf2 Zr2 C1 N3'
_cell_volume   97.78323197
_cell_formula_units_Z   1
loop_
 _symmetry_equiv_pos_site_id
 _symmetry_equiv_pos_as_xyz
  1  'x, y, z'
loop_
 _atom_site_type_symbol
 _atom_site_label
 _atom_site_symmetry_multiplicity
 _atom_site_fract_x
 _atom_site_fract_y
 _atom_site_fract_z
 _atom_site_occupancy
  Hf  Hf0  1  0.374435  0.374435  0.374435  1
  Hf  Hf1  1  0.625565  0.625565  0.625565  1
  Zr  Zr2  1  0.874370  0.874370  0.874370  1
  Zr  Zr3  1  0.125630  0.125630  0.125630  1
  C  C4  1  0.000000  0.000000  0.000000  1
  N  N5  1  0.250813  0.250813  0.250813  1
  N  N6  1  0.500000  0.500000  0.500000  1
  N  N7  1  0.749187  0.749187  0.749187  1
