# generated using pymatgen
data_Tb16Hg4Pd3Rh
_symmetry_space_group_name_H-M   'P 1'
_cell_length_a   9.69206962
_cell_length_b   9.69693584
_cell_length_c   9.69693600
_cell_angle_alpha   59.99999945
_cell_angle_beta   59.98338931
_cell_angle_gamma   59.98339023
_symmetry_Int_Tables_number   1
_chemical_formula_structural   Tb16Hg4Pd3Rh
_chemical_formula_sum   'Tb16 Hg4 Pd3 Rh1'
_cell_volume   644.26048577
_cell_formula_units_Z   1
loop_
 _symmetry_equiv_pos_site_id
 _symmetry_equiv_pos_as_xyz
  1  'x, y, z'
loop_
 _atom_site_type_symbol
 _atom_site_label
 _atom_site_symmetry_multiplicity
 _atom_site_fract_x
 _atom_site_fract_y
 _atom_site_fract_z
 _atom_site_occupancy
  Tb  Tb0  1  0.316926  0.894358  0.894358  1
  Tb  Tb1  1  0.683082  0.315327  0.686264  1
  Tb  Tb2  1  0.314816  0.684582  0.316021  1
  Tb  Tb3  1  0.060030  0.439861  0.439861  1
  Tb  Tb4  1  0.683082  0.315327  0.315327  1
  Tb  Tb5  1  0.442825  0.061198  0.434779  1
  Tb  Tb6  1  0.442825  0.061198  0.061198  1
  Tb  Tb7  1  0.893142  0.898537  0.898537  1
  Tb  Tb8  1  0.060030  0.439861  0.060248  1
  Tb  Tb9  1  0.893142  0.309786  0.898537  1
  Tb  Tb10  1  0.314816  0.684582  0.684582  1
  Tb  Tb11  1  0.893142  0.898537  0.309786  1
  Tb  Tb12  1  0.442825  0.434779  0.061198  1
  Tb  Tb13  1  0.314816  0.316021  0.684582  1
  Tb  Tb14  1  0.683082  0.686264  0.315327  1
  Tb  Tb15  1  0.060030  0.060248  0.439861  1
  Hg  Hg16  1  0.007021  0.664326  0.664326  1
  Hg  Hg17  1  0.664395  0.008521  0.663542  1
  Hg  Hg18  1  0.664395  0.663542  0.008521  1
  Hg  Hg19  1  0.664395  0.663542  0.663542  1
  Pd  Pd20  1  0.106867  0.105034  0.683064  1
  Pd  Pd21  1  0.106867  0.683064  0.105034  1
  Pd  Pd22  1  0.106867  0.105034  0.105034  1
  Rh  Rh23  1  0.680587  0.106471  0.106471  1
