# generated using pymatgen
data_AcTh(ZnSn)2
_symmetry_space_group_name_H-M   'P 1'
_cell_length_a   4.64746900
_cell_length_b   4.64746820
_cell_length_c   17.24036100
_cell_angle_alpha   90.00000000
_cell_angle_beta   90.00000000
_cell_angle_gamma   120.00001284
_symmetry_Int_Tables_number   1
_chemical_formula_structural   AcTh(ZnSn)2
_chemical_formula_sum   'Ac2 Th2 Zn4 Sn4'
_cell_volume   322.48525256
_cell_formula_units_Z   2
loop_
 _symmetry_equiv_pos_site_id
 _symmetry_equiv_pos_as_xyz
  1  'x, y, z'
loop_
 _atom_site_type_symbol
 _atom_site_label
 _atom_site_symmetry_multiplicity
 _atom_site_fract_x
 _atom_site_fract_y
 _atom_site_fract_z
 _atom_site_occupancy
  Ac  Ac0  1  0.000000  0.000000  0.500000  1
  Ac  Ac1  1  0.000000  0.000000  0.000000  1
  Th  Th2  1  0.000000  0.000000  0.750000  1
  Th  Th3  1  0.000000  0.000000  0.250000  1
  Zn  Zn4  1  0.333333  0.666667  0.158489  1
  Zn  Zn5  1  0.666667  0.333333  0.658489  1
  Zn  Zn6  1  0.666667  0.333333  0.841511  1
  Zn  Zn7  1  0.333333  0.666667  0.341511  1
  Sn  Sn8  1  0.666667  0.333333  0.373884  1
  Sn  Sn9  1  0.666667  0.333333  0.126116  1
  Sn  Sn10  1  0.333333  0.666667  0.873884  1
  Sn  Sn11  1  0.333333  0.666667  0.626116  1
