# generated using pymatgen
data_Ca6MnSi24Ru7
_symmetry_space_group_name_H-M   'P 1'
_cell_length_a   10.16624892
_cell_length_b   10.16624949
_cell_length_c   8.15390152
_cell_angle_alpha   90.00377799
_cell_angle_beta   90.00378428
_cell_angle_gamma   132.66799456
_symmetry_Int_Tables_number   1
_chemical_formula_structural   Ca6MnSi24Ru7
_chemical_formula_sum   'Ca6 Mn1 Si24 Ru7'
_cell_volume   619.65158817
_cell_formula_units_Z   1
loop_
 _symmetry_equiv_pos_site_id
 _symmetry_equiv_pos_as_xyz
  1  'x, y, z'
loop_
 _atom_site_type_symbol
 _atom_site_label
 _atom_site_symmetry_multiplicity
 _atom_site_fract_x
 _atom_site_fract_y
 _atom_site_fract_z
 _atom_site_occupancy
  Ca  Ca0  1  0.497813  0.996755  0.250346  1
  Ca  Ca1  1  0.003159  0.502153  0.749770  1
  Ca  Ca2  1  0.502153  0.003159  0.749770  1
  Ca  Ca3  1  0.996755  0.497813  0.250346  1
  Ca  Ca4  1  0.500469  0.500469  0.498277  1
  Ca  Ca5  1  0.001814  0.001814  0.999643  1
  Mn  Mn6  1  0.622416  0.622416  0.877003  1
  Si  Si7  1  0.385475  0.151824  0.011559  1
  Si  Si8  1  0.652688  0.885046  0.492862  1
  Si  Si9  1  0.113664  0.346454  0.508124  1
  Si  Si10  1  0.846502  0.616685  0.987085  1
  Si  Si11  1  0.616685  0.846502  0.987085  1
  Si  Si12  1  0.346454  0.113664  0.508124  1
  Si  Si13  1  0.885046  0.652688  0.492862  1
  Si  Si14  1  0.151824  0.385475  0.011559  1
  Si  Si15  1  0.603284  0.370736  0.231859  1
  Si  Si16  1  0.874411  0.107044  0.269957  1
  Si  Si17  1  0.892615  0.124727  0.731375  1
  Si  Si18  1  0.630011  0.401413  0.767093  1
  Si  Si19  1  0.401413  0.630011  0.767093  1
  Si  Si20  1  0.124727  0.892615  0.731375  1
  Si  Si21  1  0.704854  0.294991  0.999533  1
  Si  Si22  1  0.794538  0.204716  0.501126  1
  Si  Si23  1  0.294991  0.704854  0.999533  1
  Si  Si24  1  0.204716  0.794538  0.501126  1
  Si  Si25  1  0.166192  0.166192  0.333410  1
  Si  Si26  1  0.668580  0.668580  0.160911  1
  Si  Si27  1  0.338769  0.338769  0.830867  1
  Si  Si28  1  0.828288  0.828288  0.671604  1
  Si  Si29  1  0.370736  0.603284  0.231859  1
  Si  Si30  1  0.107044  0.874411  0.269957  1
  Ru  Ru31  1  0.124937  0.124937  0.626965  1
  Ru  Ru32  1  0.872519  0.872519  0.375475  1
  Ru  Ru33  1  0.375295  0.375295  0.123613  1
  Ru  Ru34  1  0.330613  0.669566  0.500249  1
  Ru  Ru35  1  0.169283  0.829696  0.000176  1
  Ru  Ru36  1  0.669566  0.330613  0.500249  1
  Ru  Ru37  1  0.829696  0.169283  0.000176  1
