# generated using pymatgen
data_Tm8MgSc9(Si8W)2
_symmetry_space_group_name_H-M   'P 1'
_cell_length_a   6.92622806
_cell_length_b   7.24740546
_cell_length_c   13.75739500
_cell_angle_alpha   90.00000000
_cell_angle_beta   90.00000000
_cell_angle_gamma   89.95364183
_symmetry_Int_Tables_number   1
_chemical_formula_structural   Tm8MgSc9(Si8W)2
_chemical_formula_sum   'Tm8 Mg1 Sc9 Si16 W2'
_cell_volume   690.58224927
_cell_formula_units_Z   1
loop_
 _symmetry_equiv_pos_site_id
 _symmetry_equiv_pos_as_xyz
  1  'x, y, z'
loop_
 _atom_site_type_symbol
 _atom_site_label
 _atom_site_symmetry_multiplicity
 _atom_site_fract_x
 _atom_site_fract_y
 _atom_site_fract_z
 _atom_site_occupancy
  Tm  Tm0  1  0.014741  0.178425  0.095088  1
  Tm  Tm1  1  0.989539  0.820315  0.902129  1
  Tm  Tm2  1  0.485424  0.674555  0.904655  1
  Tm  Tm3  1  0.989539  0.820315  0.597871  1
  Tm  Tm4  1  0.512193  0.321851  0.097868  1
  Tm  Tm5  1  0.014741  0.178425  0.404912  1
  Tm  Tm6  1  0.512193  0.321851  0.402132  1
  Tm  Tm7  1  0.485424  0.674555  0.595345  1
  Mg  Mg8  1  0.843707  0.490687  0.250000  1
  Sc  Sc9  1  0.653001  0.992591  0.750000  1
  Sc  Sc10  1  0.324245  0.175649  0.624226  1
  Sc  Sc11  1  0.678793  0.826778  0.372970  1
  Sc  Sc12  1  0.170999  0.675351  0.375856  1
  Sc  Sc13  1  0.678793  0.826778  0.127030  1
  Sc  Sc14  1  0.824878  0.326958  0.627579  1
  Sc  Sc15  1  0.324245  0.175649  0.875774  1
  Sc  Sc16  1  0.824878  0.326958  0.872421  1
  Sc  Sc17  1  0.170999  0.675351  0.124144  1
  Si  Si18  1  0.030005  0.120432  0.750000  1
  Si  Si19  1  0.985873  0.907021  0.250000  1
  Si  Si20  1  0.463208  0.622668  0.250000  1
  Si  Si21  1  0.515470  0.395766  0.750000  1
  Si  Si22  1  0.280926  0.855681  0.750000  1
  Si  Si23  1  0.711896  0.124223  0.250000  1
  Si  Si24  1  0.228520  0.359829  0.250000  1
  Si  Si25  1  0.788487  0.629565  0.750000  1
  Si  Si26  1  0.151584  0.467242  0.547426  1
  Si  Si27  1  0.839956  0.536969  0.465341  1
  Si  Si28  1  0.349021  0.967988  0.451045  1
  Si  Si29  1  0.839956  0.536969  0.034659  1
  Si  Si30  1  0.657511  0.033701  0.537927  1
  Si  Si31  1  0.151584  0.467242  0.952574  1
  Si  Si32  1  0.657511  0.033701  0.962073  1
  Si  Si33  1  0.349021  0.967988  0.048955  1
  W  W34  1  0.149348  0.494375  0.750000  1
  W  W35  1  0.351791  0.995598  0.250000  1
