# generated using pymatgen
data_Cu2Sn3OsS8
_symmetry_space_group_name_H-M   'P 1'
_cell_length_a   7.44341811
_cell_length_b   7.44341805
_cell_length_c   7.44341821
_cell_angle_alpha   59.06237156
_cell_angle_beta   59.06237100
_cell_angle_gamma   59.06237292
_symmetry_Int_Tables_number   1
_chemical_formula_structural   Cu2Sn3OsS8
_chemical_formula_sum   'Cu2 Sn3 Os1 S8'
_cell_volume   285.37528985
_cell_formula_units_Z   1
loop_
 _symmetry_equiv_pos_site_id
 _symmetry_equiv_pos_as_xyz
  1  'x, y, z'
loop_
 _atom_site_type_symbol
 _atom_site_label
 _atom_site_symmetry_multiplicity
 _atom_site_fract_x
 _atom_site_fract_y
 _atom_site_fract_z
 _atom_site_occupancy
  Cu  Cu0  1  0.376975  0.376975  0.376975  1
  Cu  Cu1  1  0.623025  0.623025  0.623025  1
  Sn  Sn2  1  0.500000  0.000000  0.000000  1
  Sn  Sn3  1  0.000000  0.000000  0.500000  1
  Sn  Sn4  1  0.000000  0.500000  0.000000  1
  Os  Os5  1  0.000000  0.000000  0.000000  1
  S  S6  1  0.251979  0.251979  0.251979  1
  S  S7  1  0.774496  0.229120  0.229120  1
  S  S8  1  0.229120  0.229120  0.774496  1
  S  S9  1  0.229120  0.774496  0.229120  1
  S  S10  1  0.748021  0.748021  0.748021  1
  S  S11  1  0.225504  0.770880  0.770880  1
  S  S12  1  0.770880  0.770880  0.225504  1
  S  S13  1  0.770880  0.225504  0.770880  1
