# generated using pymatgen
data_Ce8Fe3Si12Pt
_symmetry_space_group_name_H-M   'P 1'
_cell_length_a   8.12047000
_cell_length_b   8.12046923
_cell_length_c   8.21243800
_cell_angle_alpha   90.00000000
_cell_angle_beta   90.00000000
_cell_angle_gamma   119.99999499
_symmetry_Int_Tables_number   1
_chemical_formula_structural   Ce8Fe3Si12Pt
_chemical_formula_sum   'Ce8 Fe3 Si12 Pt1'
_cell_volume   468.99158341
_cell_formula_units_Z   1
loop_
 _symmetry_equiv_pos_site_id
 _symmetry_equiv_pos_as_xyz
  1  'x, y, z'
loop_
 _atom_site_type_symbol
 _atom_site_label
 _atom_site_symmetry_multiplicity
 _atom_site_fract_x
 _atom_site_fract_y
 _atom_site_fract_z
 _atom_site_occupancy
  Ce  Ce0  1  0.000000  0.000000  0.250866  1
  Ce  Ce1  1  0.000000  0.000000  0.748714  1
  Ce  Ce2  1  0.502023  0.497977  0.255503  1
  Ce  Ce3  1  0.502023  0.004045  0.255503  1
  Ce  Ce4  1  0.995955  0.497977  0.255503  1
  Ce  Ce5  1  0.503443  0.496557  0.745829  1
  Ce  Ce6  1  0.503443  0.006886  0.745829  1
  Ce  Ce7  1  0.993114  0.496557  0.745829  1
  Fe  Fe8  1  0.333333  0.666667  0.491582  1
  Fe  Fe9  1  0.666667  0.333333  0.522014  1
  Fe  Fe10  1  0.666667  0.333333  0.976739  1
  Si  Si11  1  0.169923  0.830077  0.501802  1
  Si  Si12  1  0.169923  0.339847  0.501802  1
  Si  Si13  1  0.660153  0.830077  0.501802  1
  Si  Si14  1  0.830534  0.169466  0.497328  1
  Si  Si15  1  0.830534  0.661065  0.497328  1
  Si  Si16  1  0.338935  0.169466  0.497328  1
  Si  Si17  1  0.828320  0.171680  0.003881  1
  Si  Si18  1  0.828320  0.656638  0.003881  1
  Si  Si19  1  0.343362  0.171680  0.003881  1
  Si  Si20  1  0.163095  0.836905  0.998330  1
  Si  Si21  1  0.163095  0.326193  0.998330  1
  Si  Si22  1  0.673807  0.836905  0.998330  1
  Pt  Pt23  1  0.333333  0.666667  0.002067  1
