# generated using pymatgen
data_Tm3U(VB4)4
_symmetry_space_group_name_H-M   'P 1'
_cell_length_a   3.44473900
_cell_length_b   5.95177692
_cell_length_c   11.52650465
_cell_angle_alpha   90.11344198
_cell_angle_beta   90.00000000
_cell_angle_gamma   90.00000000
_symmetry_Int_Tables_number   1
_chemical_formula_structural   Tm3U(VB4)4
_chemical_formula_sum   'Tm3 U1 V4 B16'
_cell_volume   236.31960125
_cell_formula_units_Z   1
loop_
 _symmetry_equiv_pos_site_id
 _symmetry_equiv_pos_as_xyz
  1  'x, y, z'
loop_
 _atom_site_type_symbol
 _atom_site_label
 _atom_site_symmetry_multiplicity
 _atom_site_fract_x
 _atom_site_fract_y
 _atom_site_fract_z
 _atom_site_occupancy
  Tm  Tm0  1  0.000000  0.624222  0.349442  1
  Tm  Tm1  1  0.000000  0.377365  0.649090  1
  Tm  Tm2  1  0.000000  0.125387  0.152228  1
  U  U3  1  0.000000  0.874139  0.848693  1
  V  V4  1  0.000000  0.628383  0.081619  1
  V  V5  1  0.000000  0.371848  0.915355  1
  V  V6  1  0.000000  0.127626  0.417416  1
  V  V7  1  0.000000  0.873926  0.585195  1
  B  B8  1  0.500000  0.784439  0.186820  1
  B  B9  1  0.500000  0.212609  0.814488  1
  B  B10  1  0.500000  0.286187  0.313617  1
  B  B11  1  0.500000  0.715593  0.686679  1
  B  B12  1  0.500000  0.864576  0.032151  1
  B  B13  1  0.500000  0.133412  0.966730  1
  B  B14  1  0.500000  0.365608  0.467385  1
  B  B15  1  0.500000  0.634371  0.532617  1
  B  B16  1  0.500000  0.884395  0.452538  1
  B  B17  1  0.500000  0.115167  0.547044  1
  B  B18  1  0.500000  0.384521  0.047525  1
  B  B19  1  0.500000  0.614295  0.952438  1
  B  B20  1  0.500000  0.975386  0.307151  1
  B  B21  1  0.500000  0.023488  0.692700  1
  B  B22  1  0.500000  0.476321  0.193287  1
  B  B23  1  0.500000  0.526735  0.807792  1
