# generated using pymatgen
data_NaSrPuSe3
_symmetry_space_group_name_H-M   'P 1'
_cell_length_a   7.48925700
_cell_length_b   7.48925704
_cell_length_c   7.39364668
_cell_angle_alpha   80.69929906
_cell_angle_beta   80.69930042
_cell_angle_gamma   120.59501220
_symmetry_Int_Tables_number   1
_chemical_formula_structural   NaSrPuSe3
_chemical_formula_sum   'Na2 Sr2 Pu2 Se6'
_cell_volume   337.44761644
_cell_formula_units_Z   2
loop_
 _symmetry_equiv_pos_site_id
 _symmetry_equiv_pos_as_xyz
  1  'x, y, z'
loop_
 _atom_site_type_symbol
 _atom_site_label
 _atom_site_symmetry_multiplicity
 _atom_site_fract_x
 _atom_site_fract_y
 _atom_site_fract_z
 _atom_site_occupancy
  Na  Na0  1  0.000000  0.000000  0.000000  1
  Na  Na1  1  0.500000  0.500000  0.500000  1
  Sr  Sr2  1  0.838908  0.161092  0.500000  1
  Sr  Sr3  1  0.161092  0.838908  0.500000  1
  Pu  Pu4  1  0.334188  0.665812  0.000000  1
  Pu  Pu5  1  0.665812  0.334188  0.000000  1
  Se  Se6  1  0.573664  0.926541  0.232715  1
  Se  Se7  1  0.728153  0.728153  0.764099  1
  Se  Se8  1  0.426336  0.073459  0.767285  1
  Se  Se9  1  0.073459  0.426336  0.767285  1
  Se  Se10  1  0.926541  0.573664  0.232715  1
  Se  Se11  1  0.271847  0.271847  0.235901  1
