# generated using pymatgen
data_Ni(IrCl5)2
_symmetry_space_group_name_H-M   'P 1'
_cell_length_a   9.24276968
_cell_length_b   9.24276978
_cell_length_c   12.54992300
_cell_angle_alpha   87.05514097
_cell_angle_beta   87.05513473
_cell_angle_gamma   141.04846598
_symmetry_Int_Tables_number   1
_chemical_formula_structural   Ni(IrCl5)2
_chemical_formula_sum   'Ni2 Ir4 Cl20'
_cell_volume   665.95515952
_cell_formula_units_Z   2
loop_
 _symmetry_equiv_pos_site_id
 _symmetry_equiv_pos_as_xyz
  1  'x, y, z'
loop_
 _atom_site_type_symbol
 _atom_site_label
 _atom_site_symmetry_multiplicity
 _atom_site_fract_x
 _atom_site_fract_y
 _atom_site_fract_z
 _atom_site_occupancy
  Ni  Ni0  1  0.551984  0.448016  0.250000  1
  Ni  Ni1  1  0.448016  0.551984  0.750000  1
  Ir  Ir2  1  0.954634  0.045366  0.250000  1
  Ir  Ir3  1  0.045366  0.954634  0.750000  1
  Ir  Ir4  1  0.751736  0.248264  0.250000  1
  Ir  Ir5  1  0.248264  0.751736  0.750000  1
  Cl  Cl6  1  0.033117  0.739832  0.643888  1
  Cl  Cl7  1  0.260168  0.966883  0.856112  1
  Cl  Cl8  1  0.966883  0.260168  0.356112  1
  Cl  Cl9  1  0.739832  0.033117  0.143888  1
  Cl  Cl10  1  0.692475  0.611712  0.855161  1
  Cl  Cl11  1  0.388288  0.307525  0.644839  1
  Cl  Cl12  1  0.307525  0.388288  0.144839  1
  Cl  Cl13  1  0.611712  0.692475  0.355161  1
  Cl  Cl14  1  0.907110  0.413895  0.852431  1
  Cl  Cl15  1  0.586105  0.092890  0.647569  1
  Cl  Cl16  1  0.092890  0.586105  0.147569  1
  Cl  Cl17  1  0.413895  0.907110  0.352431  1
  Cl  Cl18  1  0.813919  0.904651  0.642355  1
  Cl  Cl19  1  0.095349  0.186081  0.857645  1
  Cl  Cl20  1  0.186081  0.095349  0.357645  1
  Cl  Cl21  1  0.904651  0.813919  0.142355  1
  Cl  Cl22  1  0.238181  0.544381  0.643443  1
  Cl  Cl23  1  0.455619  0.761819  0.856557  1
  Cl  Cl24  1  0.761819  0.455619  0.356557  1
  Cl  Cl25  1  0.544381  0.238181  0.143443  1
