# generated using pymatgen
data_Zr12Ti4Pt7RhN4
_symmetry_space_group_name_H-M   'P 1'
_cell_length_a   8.71439876
_cell_length_b   8.71229844
_cell_length_c   8.71229800
_cell_angle_alpha   60.00000168
_cell_angle_beta   60.00797415
_cell_angle_gamma   60.00797709
_symmetry_Int_Tables_number   1
_chemical_formula_structural   Zr12Ti4Pt7RhN4
_chemical_formula_sum   'Zr12 Ti4 Pt7 Rh1 N4'
_cell_volume   467.77848907
_cell_formula_units_Z   1
loop_
 _symmetry_equiv_pos_site_id
 _symmetry_equiv_pos_as_xyz
  1  'x, y, z'
loop_
 _atom_site_type_symbol
 _atom_site_label
 _atom_site_symmetry_multiplicity
 _atom_site_fract_x
 _atom_site_fract_y
 _atom_site_fract_z
 _atom_site_occupancy
  Zr  Zr0  1  0.814309  0.813965  0.185863  1
  Zr  Zr1  1  0.186230  0.185672  0.814049  1
  Zr  Zr2  1  0.814309  0.185863  0.813965  1
  Zr  Zr3  1  0.186230  0.814049  0.185672  1
  Zr  Zr4  1  0.186230  0.814049  0.814049  1
  Zr  Zr5  1  0.814309  0.185863  0.185863  1
  Zr  Zr6  1  0.435693  0.435840  0.064234  1
  Zr  Zr7  1  0.061801  0.066777  0.435711  1
  Zr  Zr8  1  0.435693  0.064234  0.435840  1
  Zr  Zr9  1  0.061801  0.435711  0.066777  1
  Zr  Zr10  1  0.061801  0.435711  0.435711  1
  Zr  Zr11  1  0.435693  0.064234  0.064234  1
  Ti  Ti12  1  0.124895  0.625035  0.625035  1
  Ti  Ti13  1  0.626570  0.128067  0.622681  1
  Ti  Ti14  1  0.626570  0.622681  0.128067  1
  Ti  Ti15  1  0.626570  0.622681  0.622681  1
  Pt  Pt16  1  0.413190  0.763025  0.411892  1
  Pt  Pt17  1  0.413190  0.411892  0.763025  1
  Pt  Pt18  1  0.413190  0.411892  0.411892  1
  Pt  Pt19  1  0.486642  0.837786  0.837786  1
  Pt  Pt20  1  0.838155  0.486262  0.837792  1
  Pt  Pt21  1  0.838155  0.837792  0.486262  1
  Pt  Pt22  1  0.838155  0.837792  0.837792  1
  Rh  Rh23  1  0.760948  0.413017  0.413017  1
  N  N24  1  0.624859  0.125047  0.125047  1
  N  N25  1  0.124938  0.624892  0.125085  1
  N  N26  1  0.124938  0.125085  0.624892  1
  N  N27  1  0.124938  0.125085  0.125085  1
