# generated using pymatgen
data_RbV(WS3)2
_symmetry_space_group_name_H-M   'P 1'
_cell_length_a   5.50048700
_cell_length_b   5.50048770
_cell_length_c   17.61637800
_cell_angle_alpha   90.00000000
_cell_angle_beta   90.00000000
_cell_angle_gamma   120.00000178
_symmetry_Int_Tables_number   1
_chemical_formula_structural   RbV(WS3)2
_chemical_formula_sum   'Rb2 V2 W4 S12'
_cell_volume   461.58276594
_cell_formula_units_Z   2
loop_
 _symmetry_equiv_pos_site_id
 _symmetry_equiv_pos_as_xyz
  1  'x, y, z'
loop_
 _atom_site_type_symbol
 _atom_site_label
 _atom_site_symmetry_multiplicity
 _atom_site_fract_x
 _atom_site_fract_y
 _atom_site_fract_z
 _atom_site_occupancy
  Rb  Rb0  1  0.000000  0.000000  0.500000  1
  Rb  Rb1  1  0.000000  0.000000  0.000000  1
  V  V2  1  0.666667  0.333333  0.250000  1
  V  V3  1  0.333333  0.666667  0.750000  1
  W  W4  1  0.000000  0.000000  0.250000  1
  W  W5  1  0.000000  0.000000  0.750000  1
  W  W6  1  0.333333  0.666667  0.250000  1
  W  W7  1  0.666667  0.333333  0.750000  1
  S  S8  1  0.341776  0.007346  0.162399  1
  S  S9  1  0.992654  0.334430  0.162399  1
  S  S10  1  0.665570  0.658224  0.162399  1
  S  S11  1  0.334430  0.341776  0.662399  1
  S  S12  1  0.665570  0.658224  0.337601  1
  S  S13  1  0.658224  0.992654  0.662399  1
  S  S14  1  0.007346  0.665570  0.662399  1
  S  S15  1  0.007346  0.665570  0.837601  1
  S  S16  1  0.334430  0.341776  0.837601  1
  S  S17  1  0.992654  0.334430  0.337601  1
  S  S18  1  0.341776  0.007346  0.337601  1
  S  S19  1  0.658224  0.992654  0.837601  1
