# generated using pymatgen
data_Pr3Sn3Hg2
_symmetry_space_group_name_H-M   'P 1'
_cell_length_a   6.64819576
_cell_length_b   6.64819598
_cell_length_c   10.47649100
_cell_angle_alpha   90.00000000
_cell_angle_beta   90.00000000
_cell_angle_gamma   103.06038173
_symmetry_Int_Tables_number   1
_chemical_formula_structural   Pr3Sn3Hg2
_chemical_formula_sum   'Pr6 Sn6 Hg4'
_cell_volume   451.06743118
_cell_formula_units_Z   2
loop_
 _symmetry_equiv_pos_site_id
 _symmetry_equiv_pos_as_xyz
  1  'x, y, z'
loop_
 _atom_site_type_symbol
 _atom_site_label
 _atom_site_symmetry_multiplicity
 _atom_site_fract_x
 _atom_site_fract_y
 _atom_site_fract_z
 _atom_site_occupancy
  Pr  Pr0  1  0.625951  0.625951  0.250000  1
  Pr  Pr1  1  0.374049  0.374049  0.750000  1
  Pr  Pr2  1  0.796291  0.203709  0.000000  1
  Pr  Pr3  1  0.203709  0.796291  0.000000  1
  Pr  Pr4  1  0.203709  0.796291  0.500000  1
  Pr  Pr5  1  0.796291  0.203709  0.500000  1
  Sn  Sn6  1  0.068392  0.492367  0.250000  1
  Sn  Sn7  1  0.931608  0.507633  0.750000  1
  Sn  Sn8  1  0.492367  0.068392  0.250000  1
  Sn  Sn9  1  0.507633  0.931608  0.750000  1
  Sn  Sn10  1  0.017939  0.017939  0.250000  1
  Sn  Sn11  1  0.982061  0.982061  0.750000  1
  Hg  Hg12  1  0.312338  0.312338  0.043041  1
  Hg  Hg13  1  0.687662  0.687662  0.956959  1
  Hg  Hg14  1  0.687662  0.687662  0.543041  1
  Hg  Hg15  1  0.312338  0.312338  0.456959  1
