# generated using pymatgen
data_Ho8Ti10NbSi16W
_symmetry_space_group_name_H-M   'P 1'
_cell_length_a   7.02661745
_cell_length_b   7.02661739
_cell_length_c   12.92641806
_cell_angle_alpha   90.02201607
_cell_angle_beta   89.97798285
_cell_angle_gamma   90.07313597
_symmetry_Int_Tables_number   1
_chemical_formula_structural   Ho8Ti10NbSi16W
_chemical_formula_sum   'Ho8 Ti10 Nb1 Si16 W1'
_cell_volume   638.21997951
_cell_formula_units_Z   1
loop_
 _symmetry_equiv_pos_site_id
 _symmetry_equiv_pos_as_xyz
  1  'x, y, z'
loop_
 _atom_site_type_symbol
 _atom_site_label
 _atom_site_symmetry_multiplicity
 _atom_site_fract_x
 _atom_site_fract_y
 _atom_site_fract_z
 _atom_site_occupancy
  Ho  Ho0  1  0.341106  0.002748  0.467261  1
  Ho  Ho1  1  0.497652  0.840407  0.717086  1
  Ho  Ho2  1  0.500996  0.159685  0.215495  1
  Ho  Ho3  1  0.840407  0.497652  0.282914  1
  Ho  Ho4  1  0.159685  0.500996  0.784505  1
  Ho  Ho5  1  0.658259  0.998289  0.967457  1
  Ho  Ho6  1  0.002748  0.341106  0.532739  1
  Ho  Ho7  1  0.998289  0.658259  0.032543  1
  Ti  Ti8  1  0.174091  0.826913  0.249390  1
  Ti  Ti9  1  0.826913  0.174091  0.750610  1
  Ti  Ti10  1  0.153675  0.009071  0.876910  1
  Ti  Ti11  1  0.491891  0.651606  0.123971  1
  Ti  Ti12  1  0.507474  0.348813  0.625389  1
  Ti  Ti13  1  0.651606  0.491891  0.876029  1
  Ti  Ti14  1  0.348813  0.507474  0.374611  1
  Ti  Ti15  1  0.847480  0.991624  0.376122  1
  Ti  Ti16  1  0.009071  0.153675  0.123090  1
  Ti  Ti17  1  0.991624  0.847480  0.623878  1
  Nb  Nb18  1  0.673332  0.673332  0.500000  1
  Si  Si19  1  0.202383  0.130865  0.684415  1
  Si  Si20  1  0.369546  0.700704  0.934356  1
  Si  Si21  1  0.630764  0.296393  0.434048  1
  Si  Si22  1  0.700704  0.369546  0.065644  1
  Si  Si23  1  0.296393  0.630764  0.565952  1
  Si  Si24  1  0.797427  0.869407  0.183949  1
  Si  Si25  1  0.130865  0.202383  0.315585  1
  Si  Si26  1  0.869407  0.797427  0.816051  1
  Si  Si27  1  0.290917  0.953924  0.064699  1
  Si  Si28  1  0.545858  0.792498  0.313590  1
  Si  Si29  1  0.452737  0.208473  0.815768  1
  Si  Si30  1  0.792498  0.545858  0.686410  1
  Si  Si31  1  0.208473  0.452737  0.184232  1
  Si  Si32  1  0.708588  0.048268  0.565202  1
  Si  Si33  1  0.953924  0.290917  0.935301  1
  Si  Si34  1  0.048268  0.708588  0.434798  1
  W  W35  1  0.326135  0.326135  0.000000  1
