# generated using pymatgen
data_TbY2SiPd5
_symmetry_space_group_name_H-M   'P 1'
_cell_length_a   8.24295506
_cell_length_b   8.24295677
_cell_length_c   8.24295631
_cell_angle_alpha   127.47412211
_cell_angle_beta   125.66079156
_cell_angle_gamma   78.96618411
_symmetry_Int_Tables_number   1
_chemical_formula_structural   TbY2SiPd5
_chemical_formula_sum   'Tb2 Y4 Si2 Pd10'
_cell_volume   349.37025468
_cell_formula_units_Z   2
loop_
 _symmetry_equiv_pos_site_id
 _symmetry_equiv_pos_as_xyz
  1  'x, y, z'
loop_
 _atom_site_type_symbol
 _atom_site_label
 _atom_site_symmetry_multiplicity
 _atom_site_fract_x
 _atom_site_fract_y
 _atom_site_fract_z
 _atom_site_occupancy
  Tb  Tb0  1  0.389470  0.250000  0.139470  1
  Tb  Tb1  1  0.610530  0.750000  0.860530  1
  Y  Y2  1  0.225024  0.449748  0.775275  1
  Y  Y3  1  0.774976  0.550252  0.224725  1
  Y  Y4  1  0.825526  0.050252  0.775275  1
  Y  Y5  1  0.174474  0.949748  0.224725  1
  Si  Si6  1  0.782354  0.250000  0.532354  1
  Si  Si7  1  0.217646  0.750000  0.467646  1
  Pd  Pd8  1  0.167708  0.400616  0.356334  1
  Pd  Pd9  1  0.832292  0.188626  0.232909  1
  Pd  Pd10  1  0.455717  0.099384  0.767091  1
  Pd  Pd11  1  0.544283  0.311374  0.643666  1
  Pd  Pd12  1  0.000000  0.500000  0.000000  1
  Pd  Pd13  1  0.000000  0.000000  0.500000  1
  Pd  Pd14  1  0.455717  0.688626  0.356334  1
  Pd  Pd15  1  0.544283  0.900616  0.232909  1
  Pd  Pd16  1  0.167708  0.811374  0.767091  1
  Pd  Pd17  1  0.832292  0.599384  0.643666  1
