# generated using pymatgen
data_Lu4CoTc6Ru
_symmetry_space_group_name_H-M   'P 1'
_cell_length_a   5.20963700
_cell_length_b   5.20963763
_cell_length_c   8.97531000
_cell_angle_alpha   90.00000000
_cell_angle_beta   90.00000000
_cell_angle_gamma   119.99998966
_symmetry_Int_Tables_number   1
_chemical_formula_structural   Lu4CoTc6Ru
_chemical_formula_sum   'Lu4 Co1 Tc6 Ru1'
_cell_volume   210.95756971
_cell_formula_units_Z   1
loop_
 _symmetry_equiv_pos_site_id
 _symmetry_equiv_pos_as_xyz
  1  'x, y, z'
loop_
 _atom_site_type_symbol
 _atom_site_label
 _atom_site_symmetry_multiplicity
 _atom_site_fract_x
 _atom_site_fract_y
 _atom_site_fract_z
 _atom_site_occupancy
  Lu  Lu0  1  0.333333  0.666667  0.436635  1
  Lu  Lu1  1  0.666667  0.333333  0.563365  1
  Lu  Lu2  1  0.666667  0.333333  0.937862  1
  Lu  Lu3  1  0.333333  0.666667  0.062138  1
  Co  Co4  1  0.000000  0.000000  0.000000  1
  Tc  Tc5  1  0.830299  0.169701  0.246010  1
  Tc  Tc6  1  0.830299  0.660598  0.246010  1
  Tc  Tc7  1  0.339402  0.169701  0.246010  1
  Tc  Tc8  1  0.169701  0.830299  0.753990  1
  Tc  Tc9  1  0.169701  0.339402  0.753990  1
  Tc  Tc10  1  0.660598  0.830299  0.753990  1
  Ru  Ru11  1  0.000000  0.000000  0.500000  1
