# generated using pymatgen
data_Nb8NiIrS16
_symmetry_space_group_name_H-M   'P 1'
_cell_length_a   6.72158100
_cell_length_b   6.72158097
_cell_length_c   11.95243100
_cell_angle_alpha   90.00000000
_cell_angle_beta   90.00000000
_cell_angle_gamma   120.00001491
_symmetry_Int_Tables_number   1
_chemical_formula_structural   Nb8NiIrS16
_chemical_formula_sum   'Nb8 Ni1 Ir1 S16'
_cell_volume   467.65941597
_cell_formula_units_Z   1
loop_
 _symmetry_equiv_pos_site_id
 _symmetry_equiv_pos_as_xyz
  1  'x, y, z'
loop_
 _atom_site_type_symbol
 _atom_site_label
 _atom_site_symmetry_multiplicity
 _atom_site_fract_x
 _atom_site_fract_y
 _atom_site_fract_z
 _atom_site_occupancy
  Nb  Nb0  1  0.000000  0.000000  0.252665  1
  Nb  Nb1  1  0.000000  0.000000  0.747335  1
  Nb  Nb2  1  0.507609  0.015219  0.250364  1
  Nb  Nb3  1  0.984781  0.492391  0.250364  1
  Nb  Nb4  1  0.507609  0.492391  0.250364  1
  Nb  Nb5  1  0.492391  0.984781  0.749636  1
  Nb  Nb6  1  0.015219  0.507609  0.749636  1
  Nb  Nb7  1  0.492391  0.507609  0.749636  1
  Ni  Ni8  1  0.000000  0.000000  0.500000  1
  Ir  Ir9  1  0.000000  0.000000  0.000000  1
  S  S10  1  0.333333  0.666667  0.886080  1
  S  S11  1  0.666667  0.333333  0.113920  1
  S  S12  1  0.666667  0.333333  0.385915  1
  S  S13  1  0.333333  0.666667  0.614085  1
  S  S14  1  0.167270  0.832730  0.380593  1
  S  S15  1  0.167270  0.334539  0.380593  1
  S  S16  1  0.665461  0.832730  0.380593  1
  S  S17  1  0.832730  0.167270  0.619407  1
  S  S18  1  0.832730  0.665461  0.619407  1
  S  S19  1  0.334539  0.167270  0.619407  1
  S  S20  1  0.833948  0.166052  0.879366  1
  S  S21  1  0.833948  0.667895  0.879366  1
  S  S22  1  0.332105  0.166052  0.879366  1
  S  S23  1  0.166052  0.833948  0.120634  1
  S  S24  1  0.166052  0.332105  0.120634  1
  S  S25  1  0.667895  0.833948  0.120634  1
