# generated using pymatgen
data_Hf5Sc(GaPt)6
_symmetry_space_group_name_H-M   'P 1'
_cell_length_a   7.18302839
_cell_length_b   7.19464838
_cell_length_c   7.04108700
_cell_angle_alpha   90.00000000
_cell_angle_beta   90.00000000
_cell_angle_gamma   119.83570833
_symmetry_Int_Tables_number   1
_chemical_formula_structural   Hf5Sc(GaPt)6
_chemical_formula_sum   'Hf5 Sc1 Ga6 Pt6'
_cell_volume   315.64876955
_cell_formula_units_Z   1
loop_
 _symmetry_equiv_pos_site_id
 _symmetry_equiv_pos_as_xyz
  1  'x, y, z'
loop_
 _atom_site_type_symbol
 _atom_site_label
 _atom_site_symmetry_multiplicity
 _atom_site_fract_x
 _atom_site_fract_y
 _atom_site_fract_z
 _atom_site_occupancy
  Hf  Hf0  1  0.594173  0.979515  0.750000  1
  Hf  Hf1  1  0.386392  0.405965  0.750000  1
  Hf  Hf2  1  0.020657  0.615452  0.750000  1
  Hf  Hf3  1  0.977752  0.589771  0.250000  1
  Hf  Hf4  1  0.612718  0.023124  0.250000  1
  Sc  Sc5  1  0.407263  0.387315  0.250000  1
  Ga  Ga6  1  0.269201  0.003632  0.001994  1
  Ga  Ga7  1  0.269201  0.003632  0.498006  1
  Ga  Ga8  1  0.001593  0.267784  0.498242  1
  Ga  Ga9  1  0.001593  0.267784  0.001758  1
  Ga  Ga10  1  0.730025  0.729606  0.998209  1
  Ga  Ga11  1  0.730025  0.729606  0.501791  1
  Pt  Pt12  1  0.669479  0.333139  0.533164  1
  Pt  Pt13  1  0.000905  0.000710  0.750000  1
  Pt  Pt14  1  0.669479  0.333139  0.966836  1
  Pt  Pt15  1  0.332941  0.667937  0.027324  1
  Pt  Pt16  1  0.332941  0.667937  0.472676  1
  Pt  Pt17  1  0.993662  0.993952  0.250000  1
