# generated using pymatgen
data_Cs3Li2TaAs3
_symmetry_space_group_name_H-M   'P 1'
_cell_length_a   10.23265560
_cell_length_b   10.23265612
_cell_length_c   17.60295300
_cell_angle_alpha   90.00000000
_cell_angle_beta   90.00000000
_cell_angle_gamma   142.40475879
_symmetry_Int_Tables_number   1
_chemical_formula_structural   Cs3Li2TaAs3
_chemical_formula_sum   'Cs12 Li8 Ta4 As12'
_cell_volume   1124.47187231
_cell_formula_units_Z   4
loop_
 _symmetry_equiv_pos_site_id
 _symmetry_equiv_pos_as_xyz
  1  'x, y, z'
loop_
 _atom_site_type_symbol
 _atom_site_label
 _atom_site_symmetry_multiplicity
 _atom_site_fract_x
 _atom_site_fract_y
 _atom_site_fract_z
 _atom_site_occupancy
  Cs  Cs0  1  0.948930  0.609045  0.832922  1
  Cs  Cs1  1  0.551070  0.890955  0.332922  1
  Cs  Cs2  1  0.390955  0.051070  0.167078  1
  Cs  Cs3  1  0.051070  0.390955  0.167078  1
  Cs  Cs4  1  0.890955  0.551070  0.332922  1
  Cs  Cs5  1  0.448930  0.109045  0.667078  1
  Cs  Cs6  1  0.609045  0.948930  0.832922  1
  Cs  Cs7  1  0.283052  0.283052  0.320107  1
  Cs  Cs8  1  0.783052  0.783052  0.179893  1
  Cs  Cs9  1  0.216948  0.216948  0.820107  1
  Cs  Cs10  1  0.716948  0.716948  0.679893  1
  Cs  Cs11  1  0.109045  0.448930  0.667078  1
  Li  Li12  1  0.918179  0.081821  0.000000  1
  Li  Li13  1  0.581821  0.418179  0.500000  1
  Li  Li14  1  0.081821  0.918179  0.000000  1
  Li  Li15  1  0.418179  0.581821  0.500000  1
  Li  Li16  1  0.748295  0.251705  0.000000  1
  Li  Li17  1  0.751705  0.248295  0.500000  1
  Li  Li18  1  0.251705  0.748295  0.000000  1
  Li  Li19  1  0.248295  0.751705  0.500000  1
  Ta  Ta20  1  0.582141  0.417859  0.000000  1
  Ta  Ta21  1  0.917859  0.082141  0.500000  1
  Ta  Ta22  1  0.417859  0.582141  0.000000  1
  Ta  Ta23  1  0.082141  0.917859  0.500000  1
  As  As24  1  0.885455  0.568210  0.077425  1
  As  As25  1  0.431790  0.114545  0.922575  1
  As  As26  1  0.614545  0.931790  0.577425  1
  As  As27  1  0.931790  0.614545  0.577425  1
  As  As28  1  0.114545  0.431790  0.922575  1
  As  As29  1  0.568210  0.885455  0.077425  1
  As  As30  1  0.385455  0.068210  0.422575  1
  As  As31  1  0.219157  0.219157  0.581638  1
  As  As32  1  0.719157  0.719157  0.918362  1
  As  As33  1  0.280843  0.280843  0.081638  1
  As  As34  1  0.068210  0.385455  0.422575  1
  As  As35  1  0.780843  0.780843  0.418362  1
