# generated using pymatgen
data_Zr4Al3CrTc4
_symmetry_space_group_name_H-M   'P 1'
_cell_length_a   5.19885652
_cell_length_b   5.19885571
_cell_length_c   8.69142400
_cell_angle_alpha   90.00000000
_cell_angle_beta   90.00000000
_cell_angle_gamma   119.91259142
_symmetry_Int_Tables_number   1
_chemical_formula_structural   Zr4Al3CrTc4
_chemical_formula_sum   'Zr4 Al3 Cr1 Tc4'
_cell_volume   203.61933391
_cell_formula_units_Z   1
loop_
 _symmetry_equiv_pos_site_id
 _symmetry_equiv_pos_as_xyz
  1  'x, y, z'
loop_
 _atom_site_type_symbol
 _atom_site_label
 _atom_site_symmetry_multiplicity
 _atom_site_fract_x
 _atom_site_fract_y
 _atom_site_fract_z
 _atom_site_occupancy
  Zr  Zr0  1  0.335872  0.664128  0.431678  1
  Zr  Zr1  1  0.668379  0.331621  0.938344  1
  Zr  Zr2  1  0.668379  0.331621  0.561656  1
  Zr  Zr3  1  0.335872  0.664128  0.068322  1
  Al  Al4  1  0.995874  0.004126  0.001158  1
  Al  Al5  1  0.995874  0.004126  0.498842  1
  Al  Al6  1  0.169862  0.830138  0.750000  1
  Cr  Cr7  1  0.824521  0.175479  0.250000  1
  Tc  Tc8  1  0.173078  0.338984  0.750000  1
  Tc  Tc9  1  0.338662  0.167388  0.250000  1
  Tc  Tc10  1  0.661016  0.826922  0.750000  1
  Tc  Tc11  1  0.832612  0.661338  0.250000  1
