# generated using pymatgen
data_Y8In(Pd5Pt)4
_symmetry_space_group_name_H-M   'P 1'
_cell_length_a   8.41851802
_cell_length_b   8.41851802
_cell_length_c   8.42813700
_cell_angle_alpha   90.00000000
_cell_angle_beta   90.00000000
_cell_angle_gamma   89.99230931
_symmetry_Int_Tables_number   1
_chemical_formula_structural   Y8In(Pd5Pt)4
_chemical_formula_sum   'Y8 In1 Pd20 Pt4'
_cell_volume   597.31424782
_cell_formula_units_Z   1
loop_
 _symmetry_equiv_pos_site_id
 _symmetry_equiv_pos_as_xyz
  1  'x, y, z'
loop_
 _atom_site_type_symbol
 _atom_site_label
 _atom_site_symmetry_multiplicity
 _atom_site_fract_x
 _atom_site_fract_y
 _atom_site_fract_z
 _atom_site_occupancy
  Y  Y0  1  0.747937  0.747937  0.251392  1
  Y  Y1  1  0.747571  0.252037  0.748093  1
  Y  Y2  1  0.252037  0.747571  0.748093  1
  Y  Y3  1  0.747937  0.747937  0.748608  1
  Y  Y4  1  0.747571  0.252037  0.251907  1
  Y  Y5  1  0.252363  0.252363  0.747792  1
  Y  Y6  1  0.252037  0.747571  0.251907  1
  Y  Y7  1  0.252363  0.252363  0.252208  1
  In  In8  1  0.000287  0.000287  0.000000  1
  Pd  Pd9  1  0.999866  0.999866  0.310968  1
  Pd  Pd10  1  0.734017  0.000196  0.500000  1
  Pd  Pd11  1  0.733779  0.500079  0.000000  1
  Pd  Pd12  1  0.500074  0.000214  0.733893  1
  Pd  Pd13  1  0.000196  0.734017  0.500000  1
  Pd  Pd14  1  0.500074  0.000214  0.266107  1
  Pd  Pd15  1  0.000125  0.265794  0.500000  1
  Pd  Pd16  1  0.500079  0.733779  0.000000  1
  Pd  Pd17  1  0.500036  0.744951  0.500000  1
  Pd  Pd18  1  0.744951  0.500036  0.500000  1
  Pd  Pd19  1  0.311351  0.999863  0.000000  1
  Pd  Pd20  1  0.999866  0.999866  0.689032  1
  Pd  Pd21  1  0.000214  0.500074  0.266107  1
  Pd  Pd22  1  0.999863  0.311351  0.000000  1
  Pd  Pd23  1  0.999862  0.689203  0.000000  1
  Pd  Pd24  1  0.689203  0.999862  0.000000  1
  Pd  Pd25  1  0.265911  0.500058  0.000000  1
  Pd  Pd26  1  0.265794  0.000125  0.500000  1
  Pd  Pd27  1  0.000214  0.500074  0.733893  1
  Pd  Pd28  1  0.500058  0.265911  0.000000  1
  Pt  Pt29  1  0.254665  0.499938  0.500000  1
  Pt  Pt30  1  0.499881  0.499881  0.745048  1
  Pt  Pt31  1  0.499881  0.499881  0.254952  1
  Pt  Pt32  1  0.499938  0.254665  0.500000  1
