# generated using pymatgen
data_K3Pb(IO3)6
_symmetry_space_group_name_H-M   'P 1'
_cell_length_a   7.20748829
_cell_length_b   7.25744773
_cell_length_c   10.96157706
_cell_angle_alpha   98.58410182
_cell_angle_beta   108.56258228
_cell_angle_gamma   103.24258480
_symmetry_Int_Tables_number   1
_chemical_formula_structural   K3Pb(IO3)6
_chemical_formula_sum   'K3 Pb1 I6 O18'
_cell_volume   513.52899461
_cell_formula_units_Z   1
loop_
 _symmetry_equiv_pos_site_id
 _symmetry_equiv_pos_as_xyz
  1  'x, y, z'
loop_
 _atom_site_type_symbol
 _atom_site_label
 _atom_site_symmetry_multiplicity
 _atom_site_fract_x
 _atom_site_fract_y
 _atom_site_fract_z
 _atom_site_occupancy
  K  K0  1  0.369339  0.535972  0.289464  1
  K  K1  1  0.630661  0.464028  0.710536  1
  K  K2  1  0.000000  0.500000  0.500000  1
  Pb  Pb3  1  0.000000  0.000000  0.000000  1
  I  I4  1  0.560532  0.031393  0.198201  1
  I  I5  1  0.439468  0.968607  0.801799  1
  I  I6  1  0.774173  0.529339  0.105454  1
  I  I7  1  0.225827  0.470661  0.894546  1
  I  I8  1  0.131325  0.065558  0.384835  1
  I  I9  1  0.868675  0.934442  0.615165  1
  O  O10  1  0.588290  0.653797  0.126799  1
  O  O11  1  0.411710  0.346203  0.873201  1
  O  O12  1  0.011299  0.355647  0.737430  1
  O  O13  1  0.988701  0.644353  0.262570  1
  O  O14  1  0.609142  0.297029  0.237400  1
  O  O15  1  0.390858  0.702971  0.762600  1
  O  O16  1  0.054449  0.135836  0.223066  1
  O  O17  1  0.945551  0.864164  0.776934  1
  O  O18  1  0.324974  0.952095  0.042011  1
  O  O19  1  0.675026  0.047905  0.957989  1
  O  O20  1  0.293393  0.307294  0.481804  1
  O  O21  1  0.706607  0.692706  0.518196  1
  O  O22  1  0.887950  0.078575  0.407060  1
  O  O23  1  0.112050  0.921425  0.592940  1
  O  O24  1  0.562706  0.038060  0.687129  1
  O  O25  1  0.437294  0.961940  0.312871  1
  O  O26  1  0.131785  0.339819  0.007567  1
  O  O27  1  0.868215  0.660181  0.992433  1
