# generated using pymatgen
data_Ce4Tm5Lu(CoBi2)2
_symmetry_space_group_name_H-M   'P 1'
_cell_length_a   7.89516642
_cell_length_b   9.02874000
_cell_length_c   12.02666336
_cell_angle_alpha   90.00000000
_cell_angle_beta   89.99828069
_cell_angle_gamma   90.00000000
_symmetry_Int_Tables_number   1
_chemical_formula_structural   Ce4Tm5Lu(CoBi2)2
_chemical_formula_sum   'Ce8 Tm10 Lu2 Co4 Bi8'
_cell_volume   857.30151309
_cell_formula_units_Z   2
loop_
 _symmetry_equiv_pos_site_id
 _symmetry_equiv_pos_as_xyz
  1  'x, y, z'
loop_
 _atom_site_type_symbol
 _atom_site_label
 _atom_site_symmetry_multiplicity
 _atom_site_fract_x
 _atom_site_fract_y
 _atom_site_fract_z
 _atom_site_occupancy
  Ce  Ce0  1  0.656439  0.013985  0.551131  1
  Ce  Ce1  1  0.343561  0.986015  0.448869  1
  Ce  Ce2  1  0.156246  0.985904  0.948838  1
  Ce  Ce3  1  0.343561  0.513985  0.448869  1
  Ce  Ce4  1  0.843754  0.014096  0.051162  1
  Ce  Ce5  1  0.656439  0.486015  0.551131  1
  Ce  Ce6  1  0.843754  0.485904  0.051162  1
  Ce  Ce7  1  0.156246  0.514096  0.948838  1
  Tm  Tm8  1  0.832142  0.750000  0.791106  1
  Tm  Tm9  1  0.167858  0.250000  0.208894  1
  Tm  Tm10  1  0.332606  0.250000  0.709572  1
  Tm  Tm11  1  0.667394  0.750000  0.290428  1
  Tm  Tm12  1  0.368256  0.750000  0.700809  1
  Tm  Tm13  1  0.631744  0.250000  0.299191  1
  Tm  Tm14  1  0.867889  0.250000  0.799971  1
  Tm  Tm15  1  0.132111  0.750000  0.200029  1
  Tm  Tm16  1  0.979255  0.750000  0.499198  1
  Tm  Tm17  1  0.020745  0.250000  0.500802  1
  Lu  Lu18  1  0.477900  0.250000  0.000568  1
  Lu  Lu19  1  0.522100  0.750000  0.999432  1
  Co  Co20  1  0.631160  0.750000  0.538360  1
  Co  Co21  1  0.368840  0.250000  0.461640  1
  Co  Co22  1  0.132257  0.250000  0.961790  1
  Co  Co23  1  0.867743  0.750000  0.038210  1
  Bi  Bi24  1  0.564939  0.492386  0.825828  1
  Bi  Bi25  1  0.435061  0.507614  0.174172  1
  Bi  Bi26  1  0.065326  0.507542  0.675100  1
  Bi  Bi27  1  0.435061  0.992386  0.174172  1
  Bi  Bi28  1  0.934674  0.492458  0.324900  1
  Bi  Bi29  1  0.564939  0.007614  0.825828  1
  Bi  Bi30  1  0.934674  0.007542  0.324900  1
  Bi  Bi31  1  0.065326  0.992458  0.675100  1
