# generated using pymatgen
data_ZrSc3Ni14
_symmetry_space_group_name_H-M   'P 1'
_cell_length_a   4.71417081
_cell_length_b   4.71417162
_cell_length_c   12.08241963
_cell_angle_alpha   86.86521906
_cell_angle_beta   86.86521999
_cell_angle_gamma   120.47759072
_symmetry_Int_Tables_number   1
_chemical_formula_structural   ZrSc3Ni14
_chemical_formula_sum   'Zr1 Sc3 Ni14'
_cell_volume   230.00298408
_cell_formula_units_Z   1
loop_
 _symmetry_equiv_pos_site_id
 _symmetry_equiv_pos_as_xyz
  1  'x, y, z'
loop_
 _atom_site_type_symbol
 _atom_site_label
 _atom_site_symmetry_multiplicity
 _atom_site_fract_x
 _atom_site_fract_y
 _atom_site_fract_z
 _atom_site_occupancy
  Zr  Zr0  1  0.273805  0.273805  0.114191  1
  Sc  Sc1  1  0.727281  0.727281  0.884548  1
  Sc  Sc2  1  0.791393  0.791393  0.615090  1
  Sc  Sc3  1  0.207667  0.207667  0.386786  1
  Ni  Ni4  1  0.375187  0.044816  0.921578  1
  Ni  Ni5  1  0.044816  0.375187  0.921578  1
  Ni  Ni6  1  0.263729  0.761143  0.749871  1
  Ni  Ni7  1  0.761143  0.263729  0.749871  1
  Ni  Ni8  1  0.259816  0.259816  0.748900  1
  Ni  Ni9  1  0.138735  0.475749  0.578039  1
  Ni  Ni10  1  0.475749  0.138735  0.578039  1
  Ni  Ni11  1  0.860605  0.523933  0.421971  1
  Ni  Ni12  1  0.523933  0.860605  0.421971  1
  Ni  Ni13  1  0.739989  0.739989  0.251103  1
  Ni  Ni14  1  0.737550  0.239229  0.250370  1
  Ni  Ni15  1  0.239229  0.737550  0.250370  1
  Ni  Ni16  1  0.623806  0.955568  0.077861  1
  Ni  Ni17  1  0.955568  0.623806  0.077861  1
