# generated using pymatgen
data_Ho2IrOs2Ru
_symmetry_space_group_name_H-M   'P 1'
_cell_length_a   5.32630576
_cell_length_b   5.24933955
_cell_length_c   8.97333300
_cell_angle_alpha   90.00000000
_cell_angle_beta   90.00000000
_cell_angle_gamma   120.42627206
_symmetry_Int_Tables_number   1
_chemical_formula_structural   Ho2IrOs2Ru
_chemical_formula_sum   'Ho4 Ir2 Os4 Ru2'
_cell_volume   216.33841093
_cell_formula_units_Z   2
loop_
 _symmetry_equiv_pos_site_id
 _symmetry_equiv_pos_as_xyz
  1  'x, y, z'
loop_
 _atom_site_type_symbol
 _atom_site_label
 _atom_site_symmetry_multiplicity
 _atom_site_fract_x
 _atom_site_fract_y
 _atom_site_fract_z
 _atom_site_occupancy
  Ho  Ho0  1  0.666565  0.333443  0.567958  1
  Ho  Ho1  1  0.332866  0.665638  0.431488  1
  Ho  Ho2  1  0.332866  0.665638  0.068512  1
  Ho  Ho3  1  0.666565  0.333443  0.932042  1
  Ir  Ir4  1  0.998814  0.997252  0.498764  1
  Ir  Ir5  1  0.998814  0.997252  0.001236  1
  Os  Os6  1  0.171344  0.342303  0.750000  1
  Os  Os7  1  0.170577  0.829434  0.750000  1
  Os  Os8  1  0.658641  0.829223  0.750000  1
  Os  Os9  1  0.829706  0.660263  0.250000  1
  Ru  Ru10  1  0.831165  0.173023  0.250000  1
  Ru  Ru11  1  0.342075  0.173088  0.250000  1
