# generated using pymatgen
data_LaNd7SnPd24
_symmetry_space_group_name_H-M   'P 1'
_cell_length_a   8.55658801
_cell_length_b   8.55658802
_cell_length_c   8.55658800
_cell_angle_alpha   89.99708050
_cell_angle_beta   89.99708050
_cell_angle_gamma   89.99708035
_symmetry_Int_Tables_number   1
_chemical_formula_structural   LaNd7SnPd24
_chemical_formula_sum   'La1 Nd7 Sn1 Pd24'
_cell_volume   626.47228635
_cell_formula_units_Z   1
loop_
 _symmetry_equiv_pos_site_id
 _symmetry_equiv_pos_as_xyz
  1  'x, y, z'
loop_
 _atom_site_type_symbol
 _atom_site_label
 _atom_site_symmetry_multiplicity
 _atom_site_fract_x
 _atom_site_fract_y
 _atom_site_fract_z
 _atom_site_occupancy
  La  La0  1  0.252007  0.252007  0.252007  1
  Nd  Nd1  1  0.748125  0.748125  0.748125  1
  Nd  Nd2  1  0.747848  0.747848  0.251980  1
  Nd  Nd3  1  0.747848  0.251980  0.747848  1
  Nd  Nd4  1  0.252100  0.252100  0.748121  1
  Nd  Nd5  1  0.252100  0.748121  0.252100  1
  Nd  Nd6  1  0.251980  0.747848  0.747848  1
  Nd  Nd7  1  0.748121  0.252100  0.252100  1
  Sn  Sn8  1  0.999825  0.999825  0.999825  1
  Pd  Pd9  1  0.266774  0.500281  0.999815  1
  Pd  Pd10  1  0.733284  0.500037  0.999836  1
  Pd  Pd11  1  0.999815  0.266774  0.500281  1
  Pd  Pd12  1  0.500281  0.266774  0.999815  1
  Pd  Pd13  1  0.999836  0.733284  0.500037  1
  Pd  Pd14  1  0.500037  0.733284  0.999836  1
  Pd  Pd15  1  0.500281  0.999815  0.266774  1
  Pd  Pd16  1  0.266774  0.999815  0.500281  1
  Pd  Pd17  1  0.500037  0.999836  0.733284  1
  Pd  Pd18  1  0.733284  0.999836  0.500037  1
  Pd  Pd19  1  0.999815  0.500281  0.266774  1
  Pd  Pd20  1  0.999836  0.500037  0.733284  1
  Pd  Pd21  1  0.255252  0.500176  0.500176  1
  Pd  Pd22  1  0.744709  0.500109  0.500109  1
  Pd  Pd23  1  0.500176  0.255252  0.500176  1
  Pd  Pd24  1  0.500109  0.744709  0.500109  1
  Pd  Pd25  1  0.500176  0.500176  0.255252  1
  Pd  Pd26  1  0.500109  0.500109  0.744709  1
  Pd  Pd27  1  0.312339  0.999573  0.999573  1
  Pd  Pd28  1  0.687792  0.000091  0.000091  1
  Pd  Pd29  1  0.999573  0.312339  0.999573  1
  Pd  Pd30  1  0.000091  0.687792  0.000091  1
  Pd  Pd31  1  0.999573  0.999573  0.312339  1
  Pd  Pd32  1  0.000091  0.000091  0.687792  1
