# generated using pymatgen
data_Dy4Tm4Sc12Si15Ag
_symmetry_space_group_name_H-M   'P 1'
_cell_length_a   7.11170669
_cell_length_b   7.35397946
_cell_length_c   14.03883241
_cell_angle_alpha   89.87474549
_cell_angle_beta   89.59577832
_cell_angle_gamma   90.22132384
_symmetry_Int_Tables_number   1
_chemical_formula_structural   Dy4Tm4Sc12Si15Ag
_chemical_formula_sum   'Dy4 Tm4 Sc12 Si15 Ag1'
_cell_volume   734.19619075
_cell_formula_units_Z   1
loop_
 _symmetry_equiv_pos_site_id
 _symmetry_equiv_pos_as_xyz
  1  'x, y, z'
loop_
 _atom_site_type_symbol
 _atom_site_label
 _atom_site_symmetry_multiplicity
 _atom_site_fract_x
 _atom_site_fract_y
 _atom_site_fract_z
 _atom_site_occupancy
  Dy  Dy0  1  0.011622  0.175361  0.097436  1
  Dy  Dy1  1  0.988331  0.826298  0.904227  1
  Dy  Dy2  1  0.488004  0.676653  0.904561  1
  Dy  Dy3  1  0.989805  0.830730  0.597175  1
  Tm  Tm4  1  0.511627  0.323012  0.096761  1
  Tm  Tm5  1  0.007783  0.172180  0.398443  1
  Tm  Tm6  1  0.510971  0.321862  0.400428  1
  Tm  Tm7  1  0.494743  0.678792  0.599765  1
  Sc  Sc8  1  0.164031  0.502146  0.752895  1
  Sc  Sc9  1  0.836779  0.497653  0.251157  1
  Sc  Sc10  1  0.337017  0.000824  0.249119  1
  Sc  Sc11  1  0.665622  0.996223  0.751154  1
  Sc  Sc12  1  0.343125  0.173879  0.626574  1
  Sc  Sc13  1  0.663539  0.823200  0.373661  1
  Sc  Sc14  1  0.166534  0.674678  0.371619  1
  Sc  Sc15  1  0.669139  0.824253  0.124978  1
  Sc  Sc16  1  0.826713  0.325875  0.625197  1
  Sc  Sc17  1  0.329524  0.175478  0.876276  1
  Sc  Sc18  1  0.830513  0.322997  0.876040  1
  Sc  Sc19  1  0.169033  0.675671  0.125389  1
  Si  Si20  1  0.037299  0.121593  0.750012  1
  Si  Si21  1  0.964142  0.883968  0.248951  1
  Si  Si22  1  0.466337  0.612607  0.248069  1
  Si  Si23  1  0.535058  0.386942  0.752189  1
  Si  Si24  1  0.287251  0.873436  0.750548  1
  Si  Si25  1  0.711161  0.128786  0.248843  1
  Si  Si26  1  0.214640  0.369296  0.248735  1
  Si  Si27  1  0.788487  0.628351  0.752084  1
  Si  Si28  1  0.833173  0.535677  0.458973  1
  Si  Si29  1  0.335878  0.962445  0.460849  1
  Si  Si30  1  0.841579  0.534786  0.039353  1
  Si  Si31  1  0.660162  0.036346  0.537309  1
  Si  Si32  1  0.155965  0.464401  0.962085  1
  Si  Si33  1  0.657559  0.036376  0.961270  1
  Si  Si34  1  0.342529  0.965289  0.040110  1
  Ag  Ag35  1  0.164323  0.461932  0.537767  1
