# generated using pymatgen
data_Ba2Mn3V2Fe(PO4)6
_symmetry_space_group_name_H-M   'P 1'
_cell_length_a   9.32873759
_cell_length_b   9.32873701
_cell_length_c   9.32873800
_cell_angle_alpha   137.69211609
_cell_angle_beta   110.15158374
_cell_angle_gamma   85.17897724
_symmetry_Int_Tables_number   1
_chemical_formula_structural   Ba2Mn3V2Fe(PO4)6
_chemical_formula_sum   'Ba2 Mn3 V2 Fe1 P6 O24'
_cell_volume   493.92776038
_cell_formula_units_Z   1
loop_
 _symmetry_equiv_pos_site_id
 _symmetry_equiv_pos_as_xyz
  1  'x, y, z'
loop_
 _atom_site_type_symbol
 _atom_site_label
 _atom_site_symmetry_multiplicity
 _atom_site_fract_x
 _atom_site_fract_y
 _atom_site_fract_z
 _atom_site_occupancy
  Ba  Ba0  1  0.750142  0.140764  0.390814  1
  Ba  Ba1  1  0.249951  0.859328  0.609186  1
  Mn  Mn2  1  0.616247  0.616247  0.500000  1
  Mn  Mn3  1  0.882969  0.382969  0.000000  1
  Mn  Mn4  1  0.117078  0.617078  0.000000  1
  V  V5  1  0.000416  0.000760  0.000231  1
  V  V6  1  0.500530  0.500186  0.999769  1
  Fe  Fe7  1  0.381621  0.381621  0.500000  1
  P  P8  1  0.822815  0.822815  0.500000  1
  P  P9  1  0.677011  0.177011  0.000000  1
  P  P10  1  0.322925  0.822925  0.000000  1
  P  P11  1  0.178022  0.178022  0.500000  1
  P  P12  1  0.748815  0.648306  0.897999  1
  P  P13  1  0.250307  0.350816  0.102001  1
  O  O14  1  0.631408  0.507636  0.641959  1
  O  O15  1  0.134778  0.491947  0.126674  1
  O  O16  1  0.365678  0.489450  0.358041  1
  O  O17  1  0.865272  0.508103  0.873326  1
  O  O18  1  0.156665  0.128263  0.970495  1
  O  O19  1  0.842263  0.869866  0.026744  1
  O  O20  1  0.657767  0.686170  0.029505  1
  O  O21  1  0.343123  0.315519  0.973256  1
  O  O22  1  0.861306  0.796161  0.658100  1
  O  O23  1  0.861874  0.204127  0.065526  1
  O  O24  1  0.362112  0.704670  0.066331  1
  O  O25  1  0.362884  0.298079  0.657486  1
  O  O26  1  0.140592  0.205396  0.342514  1
  O  O27  1  0.138338  0.795780  0.933669  1
  O  O28  1  0.638600  0.296347  0.934474  1
  O  O29  1  0.638060  0.703205  0.341900  1
  O  O30  1  0.847163  0.064375  0.643487  1
  O  O31  1  0.578954  0.935576  0.782724  1
  O  O32  1  0.348624  0.700945  0.782090  1
  O  O33  1  0.079744  0.296597  0.643244  1
  O  O34  1  0.153353  0.936499  0.356756  1
  O  O35  1  0.418855  0.066535  0.217910  1
  O  O36  1  0.652853  0.296231  0.217276  1
  O  O37  1  0.920887  0.703676  0.356513  1
