# generated using pymatgen
data_TbDy(Y5Ru2)2
_symmetry_space_group_name_H-M   'P 1'
_cell_length_a   6.36419700
_cell_length_b   7.32919601
_cell_length_c   9.25290500
_cell_angle_alpha   90.00000000
_cell_angle_beta   90.00000000
_cell_angle_gamma   89.99564024
_symmetry_Int_Tables_number   1
_chemical_formula_structural   TbDy(Y5Ru2)2
_chemical_formula_sum   'Tb1 Dy1 Y10 Ru4'
_cell_volume   431.59663805
_cell_formula_units_Z   1
loop_
 _symmetry_equiv_pos_site_id
 _symmetry_equiv_pos_as_xyz
  1  'x, y, z'
loop_
 _atom_site_type_symbol
 _atom_site_label
 _atom_site_symmetry_multiplicity
 _atom_site_fract_x
 _atom_site_fract_y
 _atom_site_fract_z
 _atom_site_occupancy
  Tb  Tb0  1  0.136243  0.456806  0.750000  1
  Dy  Dy1  1  0.363746  0.956803  0.750000  1
  Y  Y2  1  0.328979  0.676386  0.064777  1
  Y  Y3  1  0.171067  0.176299  0.435234  1
  Y  Y4  1  0.670892  0.323687  0.565472  1
  Y  Y5  1  0.829021  0.823742  0.934489  1
  Y  Y6  1  0.670892  0.323687  0.934528  1
  Y  Y7  1  0.829021  0.823742  0.565511  1
  Y  Y8  1  0.328979  0.676386  0.435223  1
  Y  Y9  1  0.171067  0.176299  0.064766  1
  Y  Y10  1  0.865183  0.541994  0.250000  1
  Y  Y11  1  0.634808  0.041986  0.250000  1
  Ru  Ru12  1  0.038618  0.885390  0.250000  1
  Ru  Ru13  1  0.461382  0.385369  0.250000  1
  Ru  Ru14  1  0.966377  0.115647  0.750000  1
  Ru  Ru15  1  0.533724  0.615775  0.750000  1
