# generated using pymatgen
data_Pr8Cd2TcAg
_symmetry_space_group_name_H-M   'P 1'
_cell_length_a   10.11119304
_cell_length_b   10.11119388
_cell_length_c   10.27549100
_cell_angle_alpha   59.46101143
_cell_angle_beta   59.46100862
_cell_angle_gamma   59.49833665
_symmetry_Int_Tables_number   1
_chemical_formula_structural   Pr8Cd2TcAg
_chemical_formula_sum   'Pr16 Cd4 Tc2 Ag2'
_cell_volume   733.93794071
_cell_formula_units_Z   2
loop_
 _symmetry_equiv_pos_site_id
 _symmetry_equiv_pos_as_xyz
  1  'x, y, z'
loop_
 _atom_site_type_symbol
 _atom_site_label
 _atom_site_symmetry_multiplicity
 _atom_site_fract_x
 _atom_site_fract_y
 _atom_site_fract_z
 _atom_site_occupancy
  Pr  Pr0  1  0.348808  0.348808  0.369952  1
  Pr  Pr1  1  0.348808  0.348808  0.932433  1
  Pr  Pr2  1  0.340307  0.956481  0.351607  1
  Pr  Pr3  1  0.956481  0.340307  0.351607  1
  Pr  Pr4  1  0.820980  0.188429  0.194173  1
  Pr  Pr5  1  0.188429  0.820980  0.796417  1
  Pr  Pr6  1  0.188429  0.820980  0.194173  1
  Pr  Pr7  1  0.820980  0.188429  0.796417  1
  Pr  Pr8  1  0.188825  0.188825  0.811175  1
  Pr  Pr9  1  0.802448  0.802448  0.197552  1
  Pr  Pr10  1  0.935330  0.554516  0.568290  1
  Pr  Pr11  1  0.554516  0.935330  0.941863  1
  Pr  Pr12  1  0.554516  0.935330  0.568290  1
  Pr  Pr13  1  0.935330  0.554516  0.941863  1
  Pr  Pr14  1  0.561803  0.561803  0.938197  1
  Pr  Pr15  1  0.936696  0.936696  0.563304  1
  Cd  Cd16  1  0.580365  0.580365  0.578006  1
  Cd  Cd17  1  0.580365  0.580365  0.261264  1
  Cd  Cd18  1  0.583415  0.257121  0.579732  1
  Cd  Cd19  1  0.257121  0.583415  0.579732  1
  Tc  Tc20  1  0.145396  0.145396  0.132768  1
  Tc  Tc21  1  0.145396  0.145396  0.576439  1
  Ag  Ag22  1  0.157245  0.568010  0.137373  1
  Ag  Ag23  1  0.568010  0.157245  0.137373  1
