# generated using pymatgen
data_Y8Sc12Ga15Si
_symmetry_space_group_name_H-M   'P 1'
_cell_length_a   7.28289411
_cell_length_b   7.53133405
_cell_length_c   14.46323500
_cell_angle_alpha   90.00000000
_cell_angle_beta   90.00000000
_cell_angle_gamma   90.14512108
_symmetry_Int_Tables_number   1
_chemical_formula_structural   Y8Sc12Ga15Si
_chemical_formula_sum   'Y8 Sc12 Ga15 Si1'
_cell_volume   793.30457045
_cell_formula_units_Z   1
loop_
 _symmetry_equiv_pos_site_id
 _symmetry_equiv_pos_as_xyz
  1  'x, y, z'
loop_
 _atom_site_type_symbol
 _atom_site_label
 _atom_site_symmetry_multiplicity
 _atom_site_fract_x
 _atom_site_fract_y
 _atom_site_fract_z
 _atom_site_occupancy
  Y  Y0  1  0.011546  0.178974  0.095180  1
  Y  Y1  1  0.986996  0.818567  0.903473  1
  Y  Y2  1  0.488685  0.679386  0.903980  1
  Y  Y3  1  0.986996  0.818567  0.596527  1
  Y  Y4  1  0.511758  0.320082  0.094637  1
  Y  Y5  1  0.011546  0.178974  0.404820  1
  Y  Y6  1  0.511758  0.320082  0.405363  1
  Y  Y7  1  0.488685  0.679386  0.596020  1
  Sc  Sc8  1  0.159320  0.501848  0.750000  1
  Sc  Sc9  1  0.836267  0.497875  0.250000  1
  Sc  Sc10  1  0.337580  0.001522  0.250000  1
  Sc  Sc11  1  0.664646  0.995701  0.750000  1
  Sc  Sc12  1  0.332790  0.173238  0.623812  1
  Sc  Sc13  1  0.669928  0.827508  0.375955  1
  Sc  Sc14  1  0.169880  0.672061  0.375234  1
  Sc  Sc15  1  0.669928  0.827508  0.124045  1
  Sc  Sc16  1  0.828250  0.330210  0.624154  1
  Sc  Sc17  1  0.332790  0.173238  0.876188  1
  Sc  Sc18  1  0.828250  0.330210  0.875846  1
  Sc  Sc19  1  0.169880  0.672061  0.124766  1
  Ga  Ga20  1  0.032425  0.119778  0.750000  1
  Ga  Ga21  1  0.968176  0.882305  0.250000  1
  Ga  Ga22  1  0.468087  0.617352  0.250000  1
  Ga  Ga23  1  0.531312  0.388636  0.750000  1
  Ga  Ga24  1  0.285454  0.872478  0.750000  1
  Ga  Ga25  1  0.715232  0.128152  0.250000  1
  Ga  Ga26  1  0.215585  0.370560  0.250000  1
  Ga  Ga27  1  0.160936  0.464720  0.540973  1
  Ga  Ga28  1  0.838953  0.535303  0.459548  1
  Ga  Ga29  1  0.338418  0.963380  0.460092  1
  Ga  Ga30  1  0.838953  0.535303  0.040452  1
  Ga  Ga31  1  0.662700  0.035642  0.541329  1
  Ga  Ga32  1  0.160936  0.464720  0.959027  1
  Ga  Ga33  1  0.662700  0.035642  0.958671  1
  Ga  Ga34  1  0.338418  0.963380  0.039908  1
  Si  Si35  1  0.784237  0.625649  0.750000  1
