# generated using pymatgen
data_La2PPt8
_symmetry_space_group_name_H-M   'P 1'
_cell_length_a   9.25898133
_cell_length_b   9.25898066
_cell_length_c   4.32096100
_cell_angle_alpha   90.00000000
_cell_angle_beta   90.00000000
_cell_angle_gamma   145.68958517
_symmetry_Int_Tables_number   1
_chemical_formula_structural   La2PPt8
_chemical_formula_sum   'La2 P1 Pt8'
_cell_volume   208.80285458
_cell_formula_units_Z   1
loop_
 _symmetry_equiv_pos_site_id
 _symmetry_equiv_pos_as_xyz
  1  'x, y, z'
loop_
 _atom_site_type_symbol
 _atom_site_label
 _atom_site_symmetry_multiplicity
 _atom_site_fract_x
 _atom_site_fract_y
 _atom_site_fract_z
 _atom_site_occupancy
  La  La0  1  0.619384  0.372225  0.500000  1
  La  La1  1  0.372225  0.619384  0.500000  1
  P  P2  1  0.221809  0.221809  0.000000  1
  Pt  Pt3  1  0.110404  0.890606  0.000000  1
  Pt  Pt4  1  0.890606  0.110404  0.000000  1
  Pt  Pt5  1  0.490532  0.985675  0.000000  1
  Pt  Pt6  1  0.985675  0.490532  0.000000  1
  Pt  Pt7  1  0.194193  0.792175  0.500000  1
  Pt  Pt8  1  0.792175  0.194193  0.500000  1
  Pt  Pt9  1  0.004717  0.004717  0.500000  1
  Pt  Pt10  1  0.631878  0.631878  0.000000  1
