# generated using pymatgen
data_HfZr7Nb2Ga2Sn5Sb
_symmetry_space_group_name_H-M   'P 1'
_cell_length_a   8.65396600
_cell_length_b   8.65396479
_cell_length_c   5.82261000
_cell_angle_alpha   90.00000000
_cell_angle_beta   90.00000000
_cell_angle_gamma   120.00000463
_symmetry_Int_Tables_number   1
_chemical_formula_structural   HfZr7Nb2Ga2Sn5Sb
_chemical_formula_sum   'Hf1 Zr7 Nb2 Ga2 Sn5 Sb1'
_cell_volume   377.64055020
_cell_formula_units_Z   1
loop_
 _symmetry_equiv_pos_site_id
 _symmetry_equiv_pos_as_xyz
  1  'x, y, z'
loop_
 _atom_site_type_symbol
 _atom_site_label
 _atom_site_symmetry_multiplicity
 _atom_site_fract_x
 _atom_site_fract_y
 _atom_site_fract_z
 _atom_site_occupancy
  Hf  Hf0  1  0.666523  0.333595  0.499262  1
  Zr  Zr1  1  0.731723  0.731549  0.749192  1
  Zr  Zr2  1  0.267878  0.000800  0.749252  1
  Zr  Zr3  1  0.000364  0.267678  0.749253  1
  Zr  Zr4  1  0.268625  0.268448  0.251171  1
  Zr  Zr5  1  0.731946  0.999965  0.250656  1
  Zr  Zr6  1  0.999612  0.731757  0.250731  1
  Zr  Zr7  1  0.333590  0.666367  0.499466  1
  Nb  Nb8  1  0.665809  0.333440  0.000389  1
  Nb  Nb9  1  0.333417  0.665957  0.000486  1
  Ga  Ga10  1  0.999281  0.999269  0.000875  1
  Ga  Ga11  1  0.999512  0.999537  0.499404  1
  Sn  Sn12  1  0.610110  0.000458  0.754481  1
  Sn  Sn13  1  0.999526  0.609654  0.754529  1
  Sn  Sn14  1  0.611612  0.611125  0.245727  1
  Sn  Sn15  1  0.390053  0.999834  0.245541  1
  Sn  Sn16  1  0.998954  0.389654  0.245411  1
  Sb  Sb17  1  0.391466  0.390914  0.754175  1
