# generated using pymatgen
data_Dy4TaTi5Si8
_symmetry_space_group_name_H-M   'P 1'
_cell_length_a   7.04355072
_cell_length_b   7.04269100
_cell_length_c   12.97355332
_cell_angle_alpha   90.00000000
_cell_angle_beta   90.05178240
_cell_angle_gamma   90.00000000
_symmetry_Int_Tables_number   1
_chemical_formula_structural   Dy4TaTi5Si8
_chemical_formula_sum   'Dy8 Ta2 Ti10 Si16'
_cell_volume   643.56000161
_cell_formula_units_Z   2
loop_
 _symmetry_equiv_pos_site_id
 _symmetry_equiv_pos_as_xyz
  1  'x, y, z'
loop_
 _atom_site_type_symbol
 _atom_site_label
 _atom_site_symmetry_multiplicity
 _atom_site_fract_x
 _atom_site_fract_y
 _atom_site_fract_z
 _atom_site_occupancy
  Dy  Dy0  1  0.997909  0.659525  0.033315  1
  Dy  Dy1  1  0.502091  0.159525  0.216685  1
  Dy  Dy2  1  0.840083  0.497700  0.283081  1
  Dy  Dy3  1  0.340217  0.002401  0.466653  1
  Dy  Dy4  1  0.002515  0.339680  0.533134  1
  Dy  Dy5  1  0.497485  0.839680  0.716866  1
  Dy  Dy6  1  0.159783  0.502401  0.783347  1
  Dy  Dy7  1  0.659917  0.997700  0.966918  1
  Ta  Ta8  1  0.326943  0.327141  0.000016  1
  Ta  Ta9  1  0.173057  0.827141  0.249984  1
  Ti  Ti10  1  0.008786  0.153245  0.124003  1
  Ti  Ti11  1  0.491215  0.653245  0.125997  1
  Ti  Ti12  1  0.346610  0.508580  0.373428  1
  Ti  Ti13  1  0.847619  0.991810  0.375748  1
  Ti  Ti14  1  0.672421  0.672830  0.500009  1
  Ti  Ti15  1  0.992194  0.847659  0.623712  1
  Ti  Ti16  1  0.507805  0.347659  0.626288  1
  Ti  Ti17  1  0.827579  0.172830  0.749991  1
  Ti  Ti18  1  0.652381  0.491812  0.874251  1
  Ti  Ti19  1  0.153390  0.008580  0.876573  1
  Si  Si20  1  0.292234  0.953978  0.064403  1
  Si  Si21  1  0.702108  0.370150  0.065117  1
  Si  Si22  1  0.797891  0.870150  0.184883  1
  Si  Si23  1  0.207766  0.453978  0.185597  1
  Si  Si24  1  0.546178  0.791628  0.315009  1
  Si  Si25  1  0.129720  0.202042  0.315335  1
  Si  Si26  1  0.629779  0.297858  0.434936  1
  Si  Si27  1  0.046008  0.707943  0.435619  1
  Si  Si28  1  0.708481  0.046284  0.564923  1
  Si  Si29  1  0.298118  0.629547  0.565159  1
  Si  Si30  1  0.201882  0.129547  0.684841  1
  Si  Si31  1  0.791519  0.546284  0.685077  1
  Si  Si32  1  0.453992  0.207943  0.814381  1
  Si  Si33  1  0.870221  0.797857  0.815064  1
  Si  Si34  1  0.370280  0.702042  0.934665  1
  Si  Si35  1  0.953822  0.291628  0.934991  1
