# generated using pymatgen
data_Tb2Hf3Co9As7
_symmetry_space_group_name_H-M   'P 1'
_cell_length_a   3.81383100
_cell_length_b   9.69733795
_cell_length_c   9.69733800
_cell_angle_alpha   120.00000017
_cell_angle_beta   90.00000000
_cell_angle_gamma   90.00000000
_symmetry_Int_Tables_number   1
_chemical_formula_structural   Tb2Hf3Co9As7
_chemical_formula_sum   'Tb2 Hf3 Co9 As7'
_cell_volume   310.59691630
_cell_formula_units_Z   1
loop_
 _symmetry_equiv_pos_site_id
 _symmetry_equiv_pos_as_xyz
  1  'x, y, z'
loop_
 _atom_site_type_symbol
 _atom_site_label
 _atom_site_symmetry_multiplicity
 _atom_site_fract_x
 _atom_site_fract_y
 _atom_site_fract_z
 _atom_site_occupancy
  Tb  Tb0  1  0.000000  0.666667  0.333333  1
  Tb  Tb1  1  0.500000  0.333333  0.666667  1
  Hf  Hf2  1  0.500000  0.768733  0.888059  1
  Hf  Hf3  1  0.500000  0.119325  0.231267  1
  Hf  Hf4  1  0.500000  0.111941  0.880675  1
  Co  Co5  1  0.000000  0.577332  0.935991  1
  Co  Co6  1  0.000000  0.358660  0.422668  1
  Co  Co7  1  0.000000  0.064009  0.641340  1
  Co  Co8  1  0.000000  0.878414  0.162941  1
  Co  Co9  1  0.000000  0.284527  0.121586  1
  Co  Co10  1  0.000000  0.837059  0.715473  1
  Co  Co11  1  0.500000  0.948298  0.390620  1
  Co  Co12  1  0.500000  0.442322  0.051702  1
  Co  Co13  1  0.500000  0.609380  0.557678  1
  As  As14  1  0.000000  0.000000  0.000000  1
  As  As15  1  0.500000  0.713097  0.132722  1
  As  As16  1  0.500000  0.419626  0.286903  1
  As  As17  1  0.500000  0.867278  0.580374  1
  As  As18  1  0.000000  0.572768  0.681315  1
  As  As19  1  0.000000  0.108548  0.427232  1
  As  As20  1  0.000000  0.318685  0.891452  1
