# generated using pymatgen
data_Ac2SbS5Br
_symmetry_space_group_name_H-M   'P 1'
_cell_length_a   5.56481400
_cell_length_b   9.25665400
_cell_length_c   18.66975900
_cell_angle_alpha   90.00000000
_cell_angle_beta   90.00000000
_cell_angle_gamma   90.00000000
_symmetry_Int_Tables_number   1
_chemical_formula_structural   Ac2SbS5Br
_chemical_formula_sum   'Ac8 Sb4 S20 Br4'
_cell_volume   961.70836932
_cell_formula_units_Z   4
loop_
 _symmetry_equiv_pos_site_id
 _symmetry_equiv_pos_as_xyz
  1  'x, y, z'
loop_
 _atom_site_type_symbol
 _atom_site_label
 _atom_site_symmetry_multiplicity
 _atom_site_fract_x
 _atom_site_fract_y
 _atom_site_fract_z
 _atom_site_occupancy
  Ac  Ac0  1  0.749999  0.226240  0.032106  1
  Ac  Ac1  1  0.749999  0.659614  0.200120  1
  Ac  Ac2  1  0.749999  0.159614  0.299879  1
  Ac  Ac3  1  0.749999  0.726241  0.467894  1
  Ac  Ac4  1  0.250000  0.273760  0.532106  1
  Ac  Ac5  1  0.250000  0.840385  0.700121  1
  Ac  Ac6  1  0.250000  0.340386  0.799879  1
  Ac  Ac7  1  0.250000  0.773760  0.967894  1
  Sb  Sb8  1  0.250000  0.984133  0.166204  1
  Sb  Sb9  1  0.250000  0.484133  0.333795  1
  Sb  Sb10  1  0.749999  0.515867  0.666204  1
  Sb  Sb11  1  0.749999  0.015867  0.833796  1
  S  S12  1  0.250000  0.072059  0.044044  1
  S  S13  1  0.250000  0.723195  0.139538  1
  S  S14  1  0.749999  0.985124  0.154873  1
  S  S15  1  0.561471  0.348742  0.174438  1
  S  S16  1  0.938529  0.348742  0.174438  1
  S  S17  1  0.561471  0.848742  0.325563  1
  S  S18  1  0.938529  0.848742  0.325563  1
  S  S19  1  0.749999  0.485123  0.345126  1
  S  S20  1  0.250000  0.223195  0.360462  1
  S  S21  1  0.250000  0.572059  0.455956  1
  S  S22  1  0.749999  0.427941  0.544044  1
  S  S23  1  0.749999  0.776805  0.639538  1
  S  S24  1  0.250000  0.514876  0.654874  1
  S  S25  1  0.061470  0.151259  0.674437  1
  S  S26  1  0.438529  0.151259  0.674437  1
  S  S27  1  0.061470  0.651259  0.825563  1
  S  S28  1  0.438529  0.651259  0.825563  1
  S  S29  1  0.250000  0.014877  0.845126  1
  S  S30  1  0.749999  0.276805  0.860462  1
  S  S31  1  0.749999  0.927941  0.955956  1
  Br  Br32  1  0.749999  0.599126  0.027721  1
  Br  Br33  1  0.749999  0.099126  0.472279  1
  Br  Br34  1  0.250000  0.900874  0.527721  1
  Br  Br35  1  0.250000  0.400874  0.972279  1
