# generated using pymatgen
data_Tb2Mn2Fe6Co4P7
_symmetry_space_group_name_H-M   'P 1'
_cell_length_a   9.00734588
_cell_length_b   9.03842824
_cell_length_c   3.61398200
_cell_angle_alpha   90.00000000
_cell_angle_beta   90.00000000
_cell_angle_gamma   119.93950639
_symmetry_Int_Tables_number   1
_chemical_formula_structural   Tb2Mn2Fe6Co4P7
_chemical_formula_sum   'Tb2 Mn2 Fe6 Co4 P7'
_cell_volume   254.95925600
_cell_formula_units_Z   1
loop_
 _symmetry_equiv_pos_site_id
 _symmetry_equiv_pos_as_xyz
  1  'x, y, z'
loop_
 _atom_site_type_symbol
 _atom_site_label
 _atom_site_symmetry_multiplicity
 _atom_site_fract_x
 _atom_site_fract_y
 _atom_site_fract_z
 _atom_site_occupancy
  Tb  Tb0  1  0.669669  0.335265  0.000000  1
  Tb  Tb1  1  0.332280  0.667041  0.500000  1
  Mn  Mn2  1  0.772944  0.894152  0.500000  1
  Mn  Mn3  1  0.118715  0.220686  0.500000  1
  Fe  Fe4  1  0.370372  0.429931  0.000000  1
  Fe  Fe5  1  0.276229  0.120206  0.000000  1
  Fe  Fe6  1  0.844148  0.725580  0.000000  1
  Fe  Fe7  1  0.880708  0.152652  0.000000  1
  Fe  Fe8  1  0.950914  0.387211  0.500000  1
  Fe  Fe9  1  0.100963  0.874351  0.500000  1
  Co  Co10  1  0.059547  0.632111  0.000000  1
  Co  Co11  1  0.568451  0.940431  0.000000  1
  Co  Co12  1  0.436302  0.050462  0.500000  1
  Co  Co13  1  0.614883  0.563811  0.500000  1
  P  P14  1  0.295978  0.890393  0.000000  1
  P  P15  1  0.587738  0.697795  0.000000  1
  P  P16  1  0.109632  0.410101  0.000000  1
  P  P17  1  0.404850  0.289799  0.500000  1
  P  P18  1  0.889008  0.601261  0.500000  1
  P  P19  1  0.715076  0.119287  0.500000  1
  P  P20  1  0.001591  0.997472  0.000000  1
