# generated using pymatgen
data_Na5Ge4As8Rh19
_symmetry_space_group_name_H-M   'P 1'
_cell_length_a   13.08367057
_cell_length_b   13.07797592
_cell_length_c   4.00608600
_cell_angle_alpha   90.00000000
_cell_angle_beta   90.00000000
_cell_angle_gamma   119.92971976
_symmetry_Int_Tables_number   1
_chemical_formula_structural   Na5Ge4As8Rh19
_chemical_formula_sum   'Na5 Ge4 As8 Rh19'
_cell_volume   594.05706030
_cell_formula_units_Z   1
loop_
 _symmetry_equiv_pos_site_id
 _symmetry_equiv_pos_as_xyz
  1  'x, y, z'
loop_
 _atom_site_type_symbol
 _atom_site_label
 _atom_site_symmetry_multiplicity
 _atom_site_fract_x
 _atom_site_fract_y
 _atom_site_fract_z
 _atom_site_occupancy
  Na  Na0  1  0.999124  0.181169  0.500000  1
  Na  Na1  1  0.817633  0.818145  0.500000  1
  Na  Na2  1  0.181907  0.000357  0.500000  1
  Na  Na3  1  0.666700  0.333169  0.000000  1
  Na  Na4  1  0.334509  0.667628  0.000000  1
  Ge  Ge5  1  0.483758  0.319531  0.500000  1
  Ge  Ge6  1  0.680705  0.164080  0.500000  1
  Ge  Ge7  1  0.836149  0.516385  0.500000  1
  Ge  Ge8  1  0.517047  0.836226  0.500000  1
  As  As9  1  0.819832  0.999416  0.000000  1
  As  As10  1  0.179263  0.179286  0.000000  1
  As  As11  1  0.999691  0.820523  0.000000  1
  As  As12  1  0.365763  0.000806  0.000000  1
  As  As13  1  0.165679  0.682228  0.500000  1
  As  As14  1  0.318158  0.483847  0.500000  1
  As  As15  1  0.998407  0.363369  0.000000  1
  As  As16  1  0.635757  0.635027  0.000000  1
  Rh  Rh17  1  0.803941  0.179645  0.000000  1
  Rh  Rh18  1  0.374885  0.195607  0.000000  1
  Rh  Rh19  1  0.646518  0.520695  0.500000  1
  Rh  Rh20  1  0.874858  0.353982  0.500000  1
  Rh  Rh21  1  0.352900  0.873617  0.500000  1
  Rh  Rh22  1  0.517078  0.643903  0.500000  1
  Rh  Rh23  1  0.127755  0.482877  0.500000  1
  Rh  Rh24  1  0.820504  0.624745  0.000000  1
  Rh  Rh25  1  0.623674  0.818593  0.000000  1
  Rh  Rh26  1  0.180157  0.803343  0.000000  1
  Rh  Rh27  1  0.196253  0.377419  0.000000  1
  Rh  Rh28  1  0.001994  0.717383  0.500000  1
  Rh  Rh29  1  0.282404  0.284823  0.500000  1
  Rh  Rh30  1  0.718057  0.999884  0.500000  1
  Rh  Rh31  1  0.998609  0.547725  0.000000  1
  Rh  Rh32  1  0.451820  0.450176  0.000000  1
  Rh  Rh33  1  0.549487  0.998972  0.000000  1
  Rh  Rh34  1  0.999839  0.999962  0.000000  1
  Rh  Rh35  1  0.479188  0.125458  0.500000  1
