# generated using pymatgen
data_TmTh3Al17GaIr6
_symmetry_space_group_name_H-M   'P 1'
_cell_length_a   7.63256694
_cell_length_b   7.64210753
_cell_length_c   9.50339000
_cell_angle_alpha   90.00000000
_cell_angle_beta   90.00000000
_cell_angle_gamma   119.46353804
_symmetry_Int_Tables_number   1
_chemical_formula_structural   TmTh3Al17GaIr6
_chemical_formula_sum   'Tm1 Th3 Al17 Ga1 Ir6'
_cell_volume   482.63114554
_cell_formula_units_Z   1
loop_
 _symmetry_equiv_pos_site_id
 _symmetry_equiv_pos_as_xyz
  1  'x, y, z'
loop_
 _atom_site_type_symbol
 _atom_site_label
 _atom_site_symmetry_multiplicity
 _atom_site_fract_x
 _atom_site_fract_y
 _atom_site_fract_z
 _atom_site_occupancy
  Tm  Tm0  1  0.328359  0.005961  0.750000  1
  Th  Th1  1  0.994729  0.672929  0.250000  1
  Th  Th2  1  0.003703  0.328900  0.750000  1
  Th  Th3  1  0.671801  0.993926  0.250000  1
  Al  Al4  1  0.870234  0.868834  0.750000  1
  Al  Al5  1  0.005948  0.336150  0.074367  1
  Al  Al6  1  0.000704  0.669685  0.922102  1
  Al  Al7  1  0.000704  0.669685  0.577898  1
  Al  Al8  1  0.335699  0.004462  0.432051  1
  Al  Al9  1  0.005948  0.336150  0.425633  1
  Al  Al10  1  0.658857  0.995352  0.577873  1
  Al  Al11  1  0.658857  0.995352  0.922127  1
  Al  Al12  1  0.335699  0.004462  0.067949  1
  Al  Al13  1  0.336185  0.332359  0.555033  1
  Al  Al14  1  0.662974  0.662831  0.455021  1
  Al  Al15  1  0.662974  0.662831  0.044979  1
  Al  Al16  1  0.336185  0.332359  0.944967  1
  Al  Al17  1  0.340793  0.544569  0.250000  1
  Al  Al18  1  0.656326  0.449792  0.750000  1
  Al  Al19  1  0.544313  0.337358  0.250000  1
  Al  Al20  1  0.452912  0.662456  0.750000  1
  Ga  Ga21  1  0.138790  0.135789  0.250000  1
  Ir  Ir22  1  0.673330  0.328108  0.000029  1
  Ir  Ir23  1  0.327077  0.671126  0.000330  1
  Ir  Ir24  1  0.327077  0.671126  0.499670  1
  Ir  Ir25  1  0.673330  0.328108  0.499971  1
  Ir  Ir26  1  0.998247  0.999672  0.997831  1
  Ir  Ir27  1  0.998247  0.999672  0.502169  1
