# generated using pymatgen
data_Nb4VFe6Si
_symmetry_space_group_name_H-M   'P 1'
_cell_length_a   4.86133900
_cell_length_b   4.86133956
_cell_length_c   7.91520100
_cell_angle_alpha   90.00000000
_cell_angle_beta   90.00000000
_cell_angle_gamma   119.99998942
_symmetry_Int_Tables_number   1
_chemical_formula_structural   Nb4VFe6Si
_chemical_formula_sum   'Nb4 V1 Fe6 Si1'
_cell_volume   161.99607413
_cell_formula_units_Z   1
loop_
 _symmetry_equiv_pos_site_id
 _symmetry_equiv_pos_as_xyz
  1  'x, y, z'
loop_
 _atom_site_type_symbol
 _atom_site_label
 _atom_site_symmetry_multiplicity
 _atom_site_fract_x
 _atom_site_fract_y
 _atom_site_fract_z
 _atom_site_occupancy
  Nb  Nb0  1  0.666667  0.333333  0.924622  1
  Nb  Nb1  1  0.333333  0.666667  0.450511  1
  Nb  Nb2  1  0.666667  0.333333  0.549489  1
  Nb  Nb3  1  0.333333  0.666667  0.075378  1
  V  V4  1  0.000000  0.000000  0.500000  1
  Fe  Fe5  1  0.170699  0.829301  0.753936  1
  Fe  Fe6  1  0.658602  0.829301  0.753936  1
  Fe  Fe7  1  0.829301  0.170699  0.246064  1
  Fe  Fe8  1  0.170699  0.341398  0.753936  1
  Fe  Fe9  1  0.829301  0.658602  0.246064  1
  Fe  Fe10  1  0.341398  0.170699  0.246064  1
  Si  Si11  1  0.000000  0.000000  0.000000  1
