# generated using pymatgen
data_AcEr(CuP)3
_symmetry_space_group_name_H-M   'P 1'
_cell_length_a   4.07482500
_cell_length_b   11.00664600
_cell_length_c   12.85285500
_cell_angle_alpha   90.00000000
_cell_angle_beta   90.00000000
_cell_angle_gamma   90.00000000
_symmetry_Int_Tables_number   1
_chemical_formula_structural   AcEr(CuP)3
_chemical_formula_sum   'Ac4 Er4 Cu12 P12'
_cell_volume   576.45255548
_cell_formula_units_Z   4
loop_
 _symmetry_equiv_pos_site_id
 _symmetry_equiv_pos_as_xyz
  1  'x, y, z'
loop_
 _atom_site_type_symbol
 _atom_site_label
 _atom_site_symmetry_multiplicity
 _atom_site_fract_x
 _atom_site_fract_y
 _atom_site_fract_z
 _atom_site_occupancy
  Ac  Ac0  1  0.250000  0.935897  0.798221  1
  Ac  Ac1  1  0.750000  0.435897  0.701779  1
  Ac  Ac2  1  0.250000  0.564103  0.298221  1
  Ac  Ac3  1  0.750000  0.064103  0.201779  1
  Er  Er4  1  0.250000  0.848738  0.499387  1
  Er  Er5  1  0.750000  0.348738  0.000613  1
  Er  Er6  1  0.250000  0.651262  0.999387  1
  Er  Er7  1  0.750000  0.151262  0.500613  1
  Cu  Cu8  1  0.250000  0.378432  0.509187  1
  Cu  Cu9  1  0.750000  0.878432  0.990813  1
  Cu  Cu10  1  0.250000  0.121568  0.009187  1
  Cu  Cu11  1  0.750000  0.621568  0.490813  1
  Cu  Cu12  1  0.250000  0.263283  0.332525  1
  Cu  Cu13  1  0.750000  0.763283  0.167475  1
  Cu  Cu14  1  0.250000  0.236717  0.832525  1
  Cu  Cu15  1  0.750000  0.736717  0.667475  1
  Cu  Cu16  1  0.250000  0.855753  0.275981  1
  Cu  Cu17  1  0.750000  0.355753  0.224019  1
  Cu  Cu18  1  0.250000  0.644247  0.775981  1
  Cu  Cu19  1  0.750000  0.144247  0.724019  1
  P  P20  1  0.250000  0.226250  0.644928  1
  P  P21  1  0.750000  0.726250  0.855072  1
  P  P22  1  0.250000  0.273750  0.144928  1
  P  P23  1  0.750000  0.773750  0.355072  1
  P  P24  1  0.250000  0.611512  0.589477  1
  P  P25  1  0.750000  0.111512  0.910523  1
  P  P26  1  0.250000  0.888488  0.089477  1
  P  P27  1  0.750000  0.388488  0.410523  1
  P  P28  1  0.250000  0.057485  0.376954  1
  P  P29  1  0.750000  0.557485  0.123046  1
  P  P30  1  0.250000  0.442515  0.876954  1
  P  P31  1  0.750000  0.942515  0.623046  1
