# generated using pymatgen
data_Dy3Lu9Tc3Rh
_symmetry_space_group_name_H-M   'P 1'
_cell_length_a   6.17797877
_cell_length_b   7.35503304
_cell_length_c   8.92777700
_cell_angle_alpha   90.00000000
_cell_angle_beta   90.00000000
_cell_angle_gamma   90.05768276
_symmetry_Int_Tables_number   1
_chemical_formula_structural   Dy3Lu9Tc3Rh
_chemical_formula_sum   'Dy3 Lu9 Tc3 Rh1'
_cell_volume   405.67117799
_cell_formula_units_Z   1
loop_
 _symmetry_equiv_pos_site_id
 _symmetry_equiv_pos_as_xyz
  1  'x, y, z'
loop_
 _atom_site_type_symbol
 _atom_site_label
 _atom_site_symmetry_multiplicity
 _atom_site_fract_x
 _atom_site_fract_y
 _atom_site_fract_z
 _atom_site_occupancy
  Dy  Dy0  1  0.621798  0.035878  0.250000  1
  Dy  Dy1  1  0.129246  0.456774  0.750000  1
  Dy  Dy2  1  0.377519  0.963156  0.750000  1
  Lu  Lu3  1  0.333690  0.674515  0.065703  1
  Lu  Lu4  1  0.156263  0.177127  0.436690  1
  Lu  Lu5  1  0.659835  0.325519  0.560425  1
  Lu  Lu6  1  0.843164  0.824805  0.939464  1
  Lu  Lu7  1  0.659835  0.325519  0.939575  1
  Lu  Lu8  1  0.843164  0.824805  0.560536  1
  Lu  Lu9  1  0.333690  0.674515  0.434297  1
  Lu  Lu10  1  0.156263  0.177127  0.063310  1
  Lu  Lu11  1  0.875009  0.540081  0.250000  1
  Tc  Tc12  1  0.043548  0.881174  0.250000  1
  Tc  Tc13  1  0.462498  0.383865  0.250000  1
  Tc  Tc14  1  0.954297  0.117551  0.750000  1
  Rh  Rh15  1  0.550181  0.617584  0.750000  1
