# generated using pymatgen
data_Ca3Er3(Si3Os)8
_symmetry_space_group_name_H-M   'P 1'
_cell_length_a   10.15522949
_cell_length_b   10.15523073
_cell_length_c   8.15939101
_cell_angle_alpha   90.01458186
_cell_angle_beta   90.01458924
_cell_angle_gamma   132.61648478
_symmetry_Int_Tables_number   1
_chemical_formula_structural   Ca3Er3(Si3Os)8
_chemical_formula_sum   'Ca3 Er3 Si24 Os8'
_cell_volume   619.23766228
_cell_formula_units_Z   1
loop_
 _symmetry_equiv_pos_site_id
 _symmetry_equiv_pos_as_xyz
  1  'x, y, z'
loop_
 _atom_site_type_symbol
 _atom_site_label
 _atom_site_symmetry_multiplicity
 _atom_site_fract_x
 _atom_site_fract_y
 _atom_site_fract_z
 _atom_site_occupancy
  Ca  Ca0  1  0.499469  0.999671  0.750227  1
  Ca  Ca1  1  0.000329  0.500531  0.249773  1
  Ca  Ca2  1  0.999909  0.000091  0.000000  1
  Er  Er3  1  0.499628  0.999604  0.249880  1
  Er  Er4  1  0.000396  0.500372  0.750120  1
  Er  Er5  1  0.499989  0.500011  0.500000  1
  Si  Si6  1  0.795176  0.204824  0.500000  1
  Si  Si7  1  0.704515  0.295485  0.000000  1
  Si  Si8  1  0.205407  0.794593  0.500000  1
  Si  Si9  1  0.294866  0.705134  0.000000  1
  Si  Si10  1  0.664221  0.671844  0.166290  1
  Si  Si11  1  0.169727  0.161462  0.331139  1
  Si  Si12  1  0.838538  0.830273  0.668861  1
  Si  Si13  1  0.328156  0.335779  0.833710  1
  Si  Si14  1  0.846714  0.613910  0.992152  1
  Si  Si15  1  0.111431  0.345154  0.506972  1
  Si  Si16  1  0.654846  0.888569  0.493028  1
  Si  Si17  1  0.386090  0.153286  0.007848  1
  Si  Si18  1  0.153532  0.387223  0.005613  1
  Si  Si19  1  0.889488  0.655216  0.496010  1
  Si  Si20  1  0.122291  0.888861  0.729489  1
  Si  Si21  1  0.388870  0.622825  0.771872  1
  Si  Si22  1  0.377175  0.611130  0.228128  1
  Si  Si23  1  0.111139  0.877709  0.270511  1
  Si  Si24  1  0.875942  0.109139  0.270392  1
  Si  Si25  1  0.609323  0.375336  0.228314  1
  Si  Si26  1  0.624664  0.390677  0.771686  1
  Si  Si27  1  0.890861  0.124058  0.729608  1
  Si  Si28  1  0.612777  0.846468  0.994387  1
  Si  Si29  1  0.344784  0.110512  0.503990  1
  Os  Os30  1  0.625768  0.624563  0.871896  1
  Os  Os31  1  0.128064  0.129628  0.624565  1
  Os  Os32  1  0.375437  0.374232  0.128104  1
  Os  Os33  1  0.870372  0.871936  0.375435  1
  Os  Os34  1  0.169962  0.830038  0.000000  1
  Os  Os35  1  0.331299  0.668701  0.500000  1
  Os  Os36  1  0.829044  0.170956  0.000000  1
  Os  Os37  1  0.669809  0.330191  0.500000  1
