# generated using pymatgen
data_Eu6Th2Pd24Pb
_symmetry_space_group_name_H-M   'P 1'
_cell_length_a   8.54123929
_cell_length_b   8.54123929
_cell_length_c   8.54123929
_cell_angle_alpha   89.38932872
_cell_angle_beta   89.38932872
_cell_angle_gamma   89.38932872
_symmetry_Int_Tables_number   1
_chemical_formula_structural   Eu6Th2Pd24Pb
_chemical_formula_sum   'Eu6 Th2 Pd24 Pb1'
_cell_volume   623.00162773
_cell_formula_units_Z   1
loop_
 _symmetry_equiv_pos_site_id
 _symmetry_equiv_pos_as_xyz
  1  'x, y, z'
loop_
 _atom_site_type_symbol
 _atom_site_label
 _atom_site_symmetry_multiplicity
 _atom_site_fract_x
 _atom_site_fract_y
 _atom_site_fract_z
 _atom_site_occupancy
  Eu  Eu0  1  0.749225  0.749225  0.247038  1
  Eu  Eu1  1  0.749225  0.247038  0.749225  1
  Eu  Eu2  1  0.250775  0.250775  0.752962  1
  Eu  Eu3  1  0.250775  0.752962  0.250775  1
  Eu  Eu4  1  0.247038  0.749225  0.749225  1
  Eu  Eu5  1  0.752962  0.250775  0.250775  1
  Th  Th6  1  0.256165  0.256165  0.256165  1
  Th  Th7  1  0.743835  0.743835  0.743835  1
  Pd  Pd8  1  0.269285  0.499871  0.005858  1
  Pd  Pd9  1  0.730715  0.500129  0.994142  1
  Pd  Pd10  1  0.005858  0.269285  0.499871  1
  Pd  Pd11  1  0.499871  0.269285  0.005858  1
  Pd  Pd12  1  0.994142  0.730715  0.500129  1
  Pd  Pd13  1  0.500129  0.730715  0.994142  1
  Pd  Pd14  1  0.499871  0.005858  0.269285  1
  Pd  Pd15  1  0.269285  0.005858  0.499871  1
  Pd  Pd16  1  0.500129  0.994142  0.730715  1
  Pd  Pd17  1  0.730715  0.994142  0.500129  1
  Pd  Pd18  1  0.005858  0.499871  0.269285  1
  Pd  Pd19  1  0.994142  0.500129  0.730715  1
  Pd  Pd20  1  0.256060  0.499587  0.499587  1
  Pd  Pd21  1  0.743940  0.500413  0.500413  1
  Pd  Pd22  1  0.499587  0.256060  0.499587  1
  Pd  Pd23  1  0.500413  0.743940  0.500413  1
  Pd  Pd24  1  0.499587  0.499587  0.256060  1
  Pd  Pd25  1  0.500413  0.500413  0.743940  1
  Pd  Pd26  1  0.321934  0.002846  0.002846  1
  Pd  Pd27  1  0.678066  0.997154  0.997154  1
  Pd  Pd28  1  0.002846  0.321934  0.002846  1
  Pd  Pd29  1  0.997154  0.678066  0.997154  1
  Pd  Pd30  1  0.002846  0.002846  0.321934  1
  Pd  Pd31  1  0.997154  0.997154  0.678066  1
  Pb  Pb32  1  0.000000  0.000000  0.000000  1
