# generated using pymatgen
data_Hf5Ti6NbSi6
_symmetry_space_group_name_H-M   'P 1'
_cell_length_a   7.86911180
_cell_length_b   7.86918806
_cell_length_c   7.86911132
_cell_angle_alpha   127.50920323
_cell_angle_beta   124.60402164
_cell_angle_gamma   79.81689010
_symmetry_Int_Tables_number   1
_chemical_formula_structural   Hf5Ti6NbSi6
_chemical_formula_sum   'Hf5 Ti6 Nb1 Si6'
_cell_volume   307.31809046
_cell_formula_units_Z   1
loop_
 _symmetry_equiv_pos_site_id
 _symmetry_equiv_pos_as_xyz
  1  'x, y, z'
loop_
 _atom_site_type_symbol
 _atom_site_label
 _atom_site_symmetry_multiplicity
 _atom_site_fract_x
 _atom_site_fract_y
 _atom_site_fract_z
 _atom_site_occupancy
  Hf  Hf0  1  0.547849  0.090345  0.042496  1
  Hf  Hf1  1  0.454356  0.499407  0.545052  1
  Hf  Hf2  1  0.952157  0.494668  0.042511  1
  Hf  Hf3  1  0.045648  0.090689  0.545041  1
  Hf  Hf4  1  0.750015  0.903366  0.653351  1
  Ti  Ti5  1  0.495675  0.246176  0.741878  1
  Ti  Ti6  1  0.004298  0.246176  0.250501  1
  Ti  Ti7  1  0.125247  0.747400  0.622742  1
  Ti  Ti8  1  0.875325  0.497449  0.622687  1
  Ti  Ti9  1  0.624659  0.747400  0.122153  1
  Ti  Ti10  1  0.374762  0.497449  0.122123  1
  Nb  Nb11  1  0.250010  0.902104  0.152095  1
  Si  Si12  1  0.750001  0.495182  0.245181  1
  Si  Si13  1  0.249982  0.501749  0.751767  1
  Si  Si14  1  0.331409  0.830189  0.492465  1
  Si  Si15  1  0.662308  0.161131  0.492554  1
  Si  Si16  1  0.837722  0.830189  0.998779  1
  Si  Si17  1  0.168578  0.161131  0.998824  1
