# generated using pymatgen
data_SmY19Sn16
_symmetry_space_group_name_H-M   'P 1'
_cell_length_a   8.06660145
_cell_length_b   8.20280988
_cell_length_c   15.51221089
_cell_angle_alpha   90.00531821
_cell_angle_beta   89.87756112
_cell_angle_gamma   89.94716364
_symmetry_Int_Tables_number   1
_chemical_formula_structural   SmY19Sn16
_chemical_formula_sum   'Sm1 Y19 Sn16'
_cell_volume   1026.42156584
_cell_formula_units_Z   1
loop_
 _symmetry_equiv_pos_site_id
 _symmetry_equiv_pos_as_xyz
  1  'x, y, z'
loop_
 _atom_site_type_symbol
 _atom_site_label
 _atom_site_symmetry_multiplicity
 _atom_site_fract_x
 _atom_site_fract_y
 _atom_site_fract_z
 _atom_site_occupancy
  Sm  Sm0  1  0.018438  0.178786  0.903459  1
  Y  Y1  1  0.366464  0.836135  0.877735  1
  Y  Y2  1  0.867015  0.663868  0.621739  1
  Y  Y3  1  0.633112  0.163418  0.377879  1
  Y  Y4  1  0.133834  0.336664  0.122602  1
  Y  Y5  1  0.633874  0.163494  0.122467  1
  Y  Y6  1  0.133006  0.336324  0.377776  1
  Y  Y7  1  0.366879  0.836297  0.621823  1
  Y  Y8  1  0.866526  0.663586  0.877751  1
  Y  Y9  1  0.520274  0.322489  0.902643  1
  Y  Y10  1  0.020876  0.178162  0.597733  1
  Y  Y11  1  0.479640  0.678061  0.402566  1
  Y  Y12  1  0.980096  0.821502  0.097707  1
  Y  Y13  1  0.480150  0.678308  0.097467  1
  Y  Y14  1  0.979487  0.821968  0.402513  1
  Y  Y15  1  0.520325  0.322150  0.596829  1
  Y  Y16  1  0.198946  0.502025  0.749592  1
  Y  Y17  1  0.698457  0.997608  0.749335  1
  Y  Y18  1  0.801262  0.498119  0.250202  1
  Y  Y19  1  0.301480  0.001914  0.250171  1
  Sn  Sn20  1  0.295076  0.034727  0.042773  1
  Sn  Sn21  1  0.792790  0.464426  0.458100  1
  Sn  Sn22  1  0.707590  0.964792  0.541692  1
  Sn  Sn23  1  0.207711  0.537086  0.958653  1
  Sn  Sn24  1  0.704210  0.961973  0.958865  1
  Sn  Sn25  1  0.207114  0.535507  0.541629  1
  Sn  Sn26  1  0.292758  0.035535  0.458152  1
  Sn  Sn27  1  0.793105  0.464332  0.041867  1
  Sn  Sn28  1  0.564481  0.618956  0.749910  1
  Sn  Sn29  1  0.064875  0.880206  0.749859  1
  Sn  Sn30  1  0.435623  0.381274  0.250102  1
  Sn  Sn31  1  0.935414  0.119056  0.250109  1
  Sn  Sn32  1  0.331121  0.146524  0.749506  1
  Sn  Sn33  1  0.828192  0.354681  0.748751  1
  Sn  Sn34  1  0.669894  0.853333  0.249992  1
  Sn  Sn35  1  0.169903  0.646713  0.250051  1
