# generated using pymatgen
data_CaTb4(RuO6)2
_symmetry_space_group_name_H-M   'P 1'
_cell_length_a   5.79762900
_cell_length_b   6.88125279
_cell_length_c   7.51764923
_cell_angle_alpha   106.03883411
_cell_angle_beta   90.00000000
_cell_angle_gamma   114.91433151
_symmetry_Int_Tables_number   1
_chemical_formula_structural   CaTb4(RuO6)2
_chemical_formula_sum   'Ca1 Tb4 Ru2 O12'
_cell_volume   259.07664603
_cell_formula_units_Z   1
loop_
 _symmetry_equiv_pos_site_id
 _symmetry_equiv_pos_as_xyz
  1  'x, y, z'
loop_
 _atom_site_type_symbol
 _atom_site_label
 _atom_site_symmetry_multiplicity
 _atom_site_fract_x
 _atom_site_fract_y
 _atom_site_fract_z
 _atom_site_occupancy
  Ca  Ca0  1  0.313520  0.627039  0.175964  1
  Tb  Tb1  1  0.698446  0.396891  0.361865  1
  Tb  Tb2  1  0.996480  0.992960  0.498982  1
  Tb  Tb3  1  0.301713  0.603427  0.637463  1
  Tb  Tb4  1  0.688589  0.377174  0.825364  1
  Ru  Ru5  1  0.228264  0.001061  0.000109  1
  Ru  Ru6  1  0.772797  0.001061  0.000109  1
  O  O7  1  0.420494  0.323185  0.080850  1
  O  O8  1  0.902690  0.323185  0.080850  1
  O  O9  1  0.501529  0.003058  0.169619  1
  O  O10  1  0.999354  0.998709  0.195754  1
  O  O11  1  0.093034  0.693348  0.435897  1
  O  O12  1  0.600315  0.693348  0.435897  1
  O  O13  1  0.404145  0.303026  0.574238  1
  O  O14  1  0.898881  0.303026  0.574238  1
  O  O15  1  0.004599  0.009197  0.806481  1
  O  O16  1  0.499131  0.998263  0.826111  1
  O  O17  1  0.087017  0.676020  0.910106  1
  O  O18  1  0.589002  0.676020  0.910106  1
