# generated using pymatgen
data_Tm10Si3Hg4Os
_symmetry_space_group_name_H-M   'P 1'
_cell_length_a   8.67079059
_cell_length_b   8.67079101
_cell_length_c   7.49345353
_cell_angle_alpha   90.25348654
_cell_angle_beta   90.25348182
_cell_angle_gamma   128.90968116
_symmetry_Int_Tables_number   1
_chemical_formula_structural   Tm10Si3Hg4Os
_chemical_formula_sum   'Tm10 Si3 Hg4 Os1'
_cell_volume   438.36175904
_cell_formula_units_Z   1
loop_
 _symmetry_equiv_pos_site_id
 _symmetry_equiv_pos_as_xyz
  1  'x, y, z'
loop_
 _atom_site_type_symbol
 _atom_site_label
 _atom_site_symmetry_multiplicity
 _atom_site_fract_x
 _atom_site_fract_y
 _atom_site_fract_z
 _atom_site_occupancy
  Tm  Tm0  1  0.552829  0.802019  0.168105  1
  Tm  Tm1  1  0.309889  0.053419  0.323615  1
  Tm  Tm2  1  0.202470  0.453076  0.826269  1
  Tm  Tm3  1  0.937143  0.687916  0.683476  1
  Tm  Tm4  1  0.687916  0.937143  0.683476  1
  Tm  Tm5  1  0.453076  0.202470  0.826269  1
  Tm  Tm6  1  0.802019  0.552829  0.168105  1
  Tm  Tm7  1  0.053419  0.309889  0.323615  1
  Tm  Tm8  1  0.505044  0.505044  0.508726  1
  Tm  Tm9  1  0.993139  0.993139  0.993803  1
  Si  Si10  1  0.118679  0.118679  0.612417  1
  Si  Si11  1  0.888995  0.888995  0.377596  1
  Si  Si12  1  0.377183  0.377183  0.124404  1
  Hg  Hg13  1  0.281007  0.717400  0.498591  1
  Hg  Hg14  1  0.216725  0.785298  0.001672  1
  Hg  Hg15  1  0.717400  0.281007  0.498591  1
  Hg  Hg16  1  0.785298  0.216725  0.001672  1
  Os  Os17  1  0.617768  0.617768  0.879598  1
