# generated using pymatgen
data_Ca13Gd7Si15Hg
_symmetry_space_group_name_H-M   'P 1'
_cell_length_a   7.49987195
_cell_length_b   7.79894144
_cell_length_c   15.27538600
_cell_angle_alpha   90.25116670
_cell_angle_beta   89.20005780
_cell_angle_gamma   90.28103556
_symmetry_Int_Tables_number   1
_chemical_formula_structural   Ca13Gd7Si15Hg
_chemical_formula_sum   'Ca13 Gd7 Si15 Hg1'
_cell_volume   893.36740632
_cell_formula_units_Z   1
loop_
 _symmetry_equiv_pos_site_id
 _symmetry_equiv_pos_as_xyz
  1  'x, y, z'
loop_
 _atom_site_type_symbol
 _atom_site_label
 _atom_site_symmetry_multiplicity
 _atom_site_fract_x
 _atom_site_fract_y
 _atom_site_fract_z
 _atom_site_occupancy
  Ca  Ca0  1  0.649894  0.980529  0.251861  1
  Ca  Ca1  1  0.154144  0.517680  0.250774  1
  Ca  Ca2  1  0.846696  0.484799  0.746551  1
  Ca  Ca3  1  0.350936  0.017954  0.747214  1
  Ca  Ca4  1  0.986470  0.823141  0.101063  1
  Ca  Ca5  1  0.473572  0.682672  0.404571  1
  Ca  Ca6  1  0.505222  0.317366  0.901025  1
  Ca  Ca7  1  0.027596  0.184001  0.595412  1
  Ca  Ca8  1  0.026958  0.172577  0.901483  1
  Ca  Ca9  1  0.527708  0.317021  0.595354  1
  Ca  Ca10  1  0.476589  0.681290  0.096541  1
  Ca  Ca11  1  0.973828  0.816943  0.404005  1
  Ca  Ca12  1  0.670208  0.830319  0.873262  1
  Gd  Gd13  1  0.181925  0.677481  0.620264  1
  Gd  Gd14  1  0.826539  0.316509  0.128600  1
  Gd  Gd15  1  0.317675  0.176274  0.380473  1
  Gd  Gd16  1  0.323470  0.178886  0.123320  1
  Gd  Gd17  1  0.817041  0.323443  0.380436  1
  Gd  Gd18  1  0.188023  0.675873  0.877098  1
  Gd  Gd19  1  0.683306  0.824371  0.620729  1
  Si  Si20  1  0.757320  0.606737  0.250581  1
  Si  Si21  1  0.257467  0.891847  0.252111  1
  Si  Si22  1  0.747764  0.113087  0.745930  1
  Si  Si23  1  0.237543  0.390731  0.747814  1
  Si  Si24  1  0.029596  0.110975  0.252327  1
  Si  Si25  1  0.529999  0.385413  0.253694  1
  Si  Si26  1  0.468754  0.609197  0.744096  1
  Si  Si27  1  0.974083  0.888866  0.749698  1
  Si  Si28  1  0.359702  0.965608  0.537788  1
  Si  Si29  1  0.645508  0.039552  0.036632  1
  Si  Si30  1  0.140017  0.466720  0.461156  1
  Si  Si31  1  0.155902  0.464833  0.039853  1
  Si  Si32  1  0.639995  0.033749  0.461658  1
  Si  Si33  1  0.355760  0.966753  0.965829  1
  Si  Si34  1  0.859829  0.536065  0.537320  1
  Hg  Hg35  1  0.832964  0.530738  0.963478  1
