# generated using pymatgen
data_HoCoNi4P3
_symmetry_space_group_name_H-M   'P 1'
_cell_length_a   3.69603900
_cell_length_b   10.30942300
_cell_length_c   11.82021900
_cell_angle_alpha   90.00000000
_cell_angle_beta   90.00000000
_cell_angle_gamma   90.00000000
_symmetry_Int_Tables_number   1
_chemical_formula_structural   HoCoNi4P3
_chemical_formula_sum   'Ho4 Co4 Ni16 P12'
_cell_volume   450.39797318
_cell_formula_units_Z   4
loop_
 _symmetry_equiv_pos_site_id
 _symmetry_equiv_pos_as_xyz
  1  'x, y, z'
loop_
 _atom_site_type_symbol
 _atom_site_label
 _atom_site_symmetry_multiplicity
 _atom_site_fract_x
 _atom_site_fract_y
 _atom_site_fract_z
 _atom_site_occupancy
  Ho  Ho0  1  0.250000  0.582258  0.703791  1
  Ho  Ho1  1  0.250000  0.917742  0.203791  1
  Ho  Ho2  1  0.750000  0.417742  0.296209  1
  Ho  Ho3  1  0.750000  0.082258  0.796209  1
  Co  Co4  1  0.250000  0.469029  0.932049  1
  Co  Co5  1  0.250000  0.030971  0.432049  1
  Co  Co6  1  0.750000  0.530971  0.067951  1
  Co  Co7  1  0.750000  0.969029  0.567951  1
  Ni  Ni8  1  0.250000  0.713755  0.991096  1
  Ni  Ni9  1  0.250000  0.786245  0.491096  1
  Ni  Ni10  1  0.750000  0.286245  0.008904  1
  Ni  Ni11  1  0.750000  0.213755  0.508904  1
  Ni  Ni12  1  0.250000  0.405368  0.487564  1
  Ni  Ni13  1  0.250000  0.094632  0.987564  1
  Ni  Ni14  1  0.750000  0.594632  0.512436  1
  Ni  Ni15  1  0.750000  0.905368  0.012436  1
  Ni  Ni16  1  0.250000  0.222046  0.178442  1
  Ni  Ni17  1  0.250000  0.277954  0.678442  1
  Ni  Ni18  1  0.750000  0.777954  0.821558  1
  Ni  Ni19  1  0.750000  0.722046  0.321558  1
  Ni  Ni20  1  0.250000  0.882359  0.699068  1
  Ni  Ni21  1  0.250000  0.617641  0.199068  1
  Ni  Ni22  1  0.750000  0.117641  0.300932  1
  Ni  Ni23  1  0.750000  0.382359  0.800932  1
  P  P24  1  0.250000  0.419985  0.111846  1
  P  P25  1  0.250000  0.080015  0.611846  1
  P  P26  1  0.750000  0.580015  0.888154  1
  P  P27  1  0.750000  0.919985  0.388154  1
  P  P28  1  0.250000  0.270924  0.870414  1
  P  P29  1  0.250000  0.229076  0.370414  1
  P  P30  1  0.750000  0.729076  0.129586  1
  P  P31  1  0.750000  0.770924  0.629586  1
  P  P32  1  0.250000  0.600956  0.392255  1
  P  P33  1  0.250000  0.899044  0.892255  1
  P  P34  1  0.750000  0.399044  0.607745  1
  P  P35  1  0.750000  0.100956  0.107745  1
