# generated using pymatgen
data_Hf5Zr15Si15Bi
_symmetry_space_group_name_H-M   'P 1'
_cell_length_a   7.19284602
_cell_length_b   7.16913630
_cell_length_c   13.07235200
_cell_angle_alpha   89.90252945
_cell_angle_beta   89.72974002
_cell_angle_gamma   90.18835761
_symmetry_Int_Tables_number   1
_chemical_formula_structural   Hf5Zr15Si15Bi
_chemical_formula_sum   'Hf5 Zr15 Si15 Bi1'
_cell_volume   674.08321970
_cell_formula_units_Z   1
loop_
 _symmetry_equiv_pos_site_id
 _symmetry_equiv_pos_as_xyz
  1  'x, y, z'
loop_
 _atom_site_type_symbol
 _atom_site_label
 _atom_site_symmetry_multiplicity
 _atom_site_fract_x
 _atom_site_fract_y
 _atom_site_fract_z
 _atom_site_occupancy
  Hf  Hf0  1  0.148457  0.999704  0.378056  1
  Hf  Hf1  1  0.648417  0.502787  0.374078  1
  Hf  Hf2  1  0.351049  0.499440  0.871043  1
  Hf  Hf3  1  0.015991  0.837712  0.126610  1
  Hf  Hf4  1  0.998490  0.146812  0.622436  1
  Zr  Zr5  1  0.676837  0.324655  0.748536  1
  Zr  Zr6  1  0.325455  0.676099  0.251563  1
  Zr  Zr7  1  0.823791  0.825007  0.500311  1
  Zr  Zr8  1  0.182428  0.174011  0.998084  1
  Zr  Zr9  1  0.498637  0.150461  0.534422  1
  Zr  Zr10  1  0.491953  0.840792  0.030843  1
  Zr  Zr11  1  0.647435  0.997915  0.291730  1
  Zr  Zr12  1  0.345400  0.994303  0.781799  1
  Zr  Zr13  1  0.850119  0.511782  0.961563  1
  Zr  Zr14  1  0.152454  0.498552  0.466352  1
  Zr  Zr15  1  0.000132  0.650811  0.714013  1
  Zr  Zr16  1  0.015465  0.360462  0.225420  1
  Zr  Zr17  1  0.487530  0.362804  0.125802  1
  Zr  Zr18  1  0.500520  0.645323  0.626190  1
  Zr  Zr19  1  0.852722  0.999900  0.872063  1
  Si  Si20  1  0.204960  0.856338  0.573197  1
  Si  Si21  1  0.641847  0.704727  0.821354  1
  Si  Si22  1  0.359786  0.294336  0.325450  1
  Si  Si23  1  0.856917  0.206616  0.427392  1
  Si  Si24  1  0.142872  0.794039  0.925986  1
  Si  Si25  1  0.706110  0.648125  0.178318  1
  Si  Si26  1  0.293173  0.353771  0.675804  1
  Si  Si27  1  0.537747  0.198714  0.928124  1
  Si  Si28  1  0.447492  0.797917  0.438529  1
  Si  Si29  1  0.698459  0.950234  0.685442  1
  Si  Si30  1  0.301138  0.051322  0.188336  1
  Si  Si31  1  0.800749  0.448897  0.561823  1
  Si  Si32  1  0.198231  0.548331  0.059771  1
  Si  Si33  1  0.948907  0.703764  0.315653  1
  Si  Si34  1  0.050369  0.300404  0.811623  1
  Bi  Bi35  1  0.797961  0.143134  0.082290  1
