# generated using pymatgen
data_ErLuZn4Ru
_symmetry_space_group_name_H-M   'P 1'
_cell_length_a   6.94314900
_cell_length_b   6.94314900
_cell_length_c   5.22619800
_cell_angle_alpha   90.00000000
_cell_angle_beta   90.00000000
_cell_angle_gamma   90.00000000
_symmetry_Int_Tables_number   1
_chemical_formula_structural   ErLuZn4Ru
_chemical_formula_sum   'Er2 Lu2 Zn8 Ru2'
_cell_volume   251.94098911
_cell_formula_units_Z   2
loop_
 _symmetry_equiv_pos_site_id
 _symmetry_equiv_pos_as_xyz
  1  'x, y, z'
loop_
 _atom_site_type_symbol
 _atom_site_label
 _atom_site_symmetry_multiplicity
 _atom_site_fract_x
 _atom_site_fract_y
 _atom_site_fract_z
 _atom_site_occupancy
  Er  Er0  1  0.000000  0.500000  0.764815  1
  Er  Er1  1  0.500000  0.000000  0.235185  1
  Lu  Lu2  1  0.000000  0.000000  0.000000  1
  Lu  Lu3  1  0.500000  0.500000  0.000000  1
  Zn  Zn4  1  0.188596  0.688596  0.285214  1
  Zn  Zn5  1  0.811404  0.688596  0.285214  1
  Zn  Zn6  1  0.811404  0.311404  0.285214  1
  Zn  Zn7  1  0.311404  0.188596  0.714786  1
  Zn  Zn8  1  0.188596  0.311404  0.285214  1
  Zn  Zn9  1  0.688596  0.188596  0.714786  1
  Zn  Zn10  1  0.688596  0.811404  0.714786  1
  Zn  Zn11  1  0.311404  0.811404  0.714786  1
  Ru  Ru12  1  0.500000  0.500000  0.500000  1
  Ru  Ru13  1  0.000000  0.000000  0.500000  1
