# generated using pymatgen
data_Ce2Ho7TmIr6
_symmetry_space_group_name_H-M   'P 1'
_cell_length_a   10.94584700
_cell_length_b   10.91418400
_cell_length_c   6.30603100
_cell_angle_alpha   90.00000000
_cell_angle_beta   90.00000000
_cell_angle_gamma   90.00000000
_symmetry_Int_Tables_number   1
_chemical_formula_structural   Ce2Ho7TmIr6
_chemical_formula_sum   'Ce4 Ho14 Tm2 Ir12'
_cell_volume   753.34991897
_cell_formula_units_Z   2
loop_
 _symmetry_equiv_pos_site_id
 _symmetry_equiv_pos_as_xyz
  1  'x, y, z'
loop_
 _atom_site_type_symbol
 _atom_site_label
 _atom_site_symmetry_multiplicity
 _atom_site_fract_x
 _atom_site_fract_y
 _atom_site_fract_z
 _atom_site_occupancy
  Ce  Ce0  1  0.293026  0.092530  0.380949  1
  Ce  Ce1  1  0.293026  0.907470  0.880949  1
  Ce  Ce2  1  0.706974  0.092530  0.880949  1
  Ce  Ce3  1  0.706974  0.907470  0.380949  1
  Ho  Ho4  1  0.588903  0.785692  0.878928  1
  Ho  Ho5  1  0.588903  0.214308  0.378928  1
  Ho  Ho6  1  0.411097  0.785692  0.378928  1
  Ho  Ho7  1  0.411097  0.214308  0.878928  1
  Ho  Ho8  1  0.207482  0.413248  0.621497  1
  Ho  Ho9  1  0.207482  0.586752  0.121497  1
  Ho  Ho10  1  0.792518  0.413248  0.121497  1
  Ho  Ho11  1  0.792518  0.586752  0.621497  1
  Ho  Ho12  1  0.912833  0.708249  0.117497  1
  Ho  Ho13  1  0.912833  0.291751  0.617497  1
  Ho  Ho14  1  0.087167  0.708249  0.617497  1
  Ho  Ho15  1  0.087167  0.291751  0.117497  1
  Ho  Ho16  1  0.000000  0.000000  0.496219  1
  Ho  Ho17  1  0.000000  0.000000  0.996219  1
  Tm  Tm18  1  0.500000  0.500000  0.010813  1
  Tm  Tm19  1  0.500000  0.500000  0.510813  1
  Ir  Ir20  1  0.844439  0.153644  0.243480  1
  Ir  Ir21  1  0.844439  0.846356  0.743480  1
  Ir  Ir22  1  0.155561  0.153644  0.743480  1
  Ir  Ir23  1  0.155561  0.846356  0.243480  1
  Ir  Ir24  1  0.652571  0.347347  0.756445  1
  Ir  Ir25  1  0.652571  0.652653  0.256445  1
  Ir  Ir26  1  0.347429  0.347347  0.256445  1
  Ir  Ir27  1  0.347429  0.652653  0.756445  1
  Ir  Ir28  1  0.500000  0.000000  0.120001  1
  Ir  Ir29  1  0.500000  0.000000  0.620001  1
  Ir  Ir30  1  0.000000  0.500000  0.875375  1
  Ir  Ir31  1  0.000000  0.500000  0.375375  1
