# generated using pymatgen
data_La4Mg(Sb4Au)2
_symmetry_space_group_name_H-M   'P 1'
_cell_length_a   11.64541950
_cell_length_b   11.64541985
_cell_length_c   11.64541950
_cell_angle_alpha   148.75883319
_cell_angle_beta   148.75882983
_cell_angle_gamma   44.76641835
_symmetry_Int_Tables_number   1
_chemical_formula_structural   La4Mg(Sb4Au)2
_chemical_formula_sum   'La4 Mg1 Sb8 Au2'
_cell_volume   423.51508929
_cell_formula_units_Z   1
loop_
 _symmetry_equiv_pos_site_id
 _symmetry_equiv_pos_as_xyz
  1  'x, y, z'
loop_
 _atom_site_type_symbol
 _atom_site_label
 _atom_site_symmetry_multiplicity
 _atom_site_fract_x
 _atom_site_fract_y
 _atom_site_fract_z
 _atom_site_occupancy
  La  La0  1  0.624088  0.624088  0.500016  1
  La  La1  1  0.124071  0.124071  0.499984  1
  La  La2  1  0.375912  0.875929  0.000000  1
  La  La3  1  0.875929  0.375912  0.000000  1
  Mg  Mg4  1  0.000000  0.000000  0.000000  1
  Sb  Sb5  1  0.338291  0.338291  0.511377  1
  Sb  Sb6  1  0.826914  0.826914  0.488623  1
  Sb  Sb7  1  0.661709  0.173086  0.000000  1
  Sb  Sb8  1  0.173086  0.661709  0.000000  1
  Sb  Sb9  1  0.250138  0.250138  0.000000  1
  Sb  Sb10  1  0.749862  0.749862  0.000000  1
  Sb  Sb11  1  0.750000  0.250000  0.500000  1
  Sb  Sb12  1  0.250000  0.750000  0.500000  1
  Au  Au13  1  0.000000  0.500000  0.500000  1
  Au  Au14  1  0.500000  0.000000  0.500000  1
