# generated using pymatgen
data_Al4Ir2RuRh
_symmetry_space_group_name_H-M   'P 1'
_cell_length_a   4.24504100
_cell_length_b   6.01569200
_cell_length_c   12.81533300
_cell_angle_alpha   90.00000000
_cell_angle_beta   90.00005997
_cell_angle_gamma   89.99997698
_symmetry_Int_Tables_number   1
_chemical_formula_structural   Al4Ir2RuRh
_chemical_formula_sum   'Al12 Ir6 Ru3 Rh3'
_cell_volume   327.26335423
_cell_formula_units_Z   3
loop_
 _symmetry_equiv_pos_site_id
 _symmetry_equiv_pos_as_xyz
  1  'x, y, z'
loop_
 _atom_site_type_symbol
 _atom_site_label
 _atom_site_symmetry_multiplicity
 _atom_site_fract_x
 _atom_site_fract_y
 _atom_site_fract_z
 _atom_site_occupancy
  Al  Al0  1  0.500005  0.248495  0.997837  1
  Al  Al1  1  0.500005  0.751505  0.997837  1
  Al  Al2  1  0.000144  0.248945  0.166667  1
  Al  Al3  1  0.000144  0.751055  0.166667  1
  Al  Al4  1  0.500150  0.248486  0.335499  1
  Al  Al5  1  0.500150  0.751515  0.335499  1
  Al  Al6  1  0.000004  0.247949  0.502359  1
  Al  Al7  1  0.000004  0.752051  0.502359  1
  Al  Al8  1  0.499863  0.248682  0.666664  1
  Al  Al9  1  0.499864  0.751318  0.666664  1
  Al  Al10  1  0.999868  0.247951  0.830972  1
  Al  Al11  1  0.999869  0.752049  0.830972  1
  Ir  Ir12  1  0.000003  0.000000  0.001882  1
  Ir  Ir13  1  0.500132  0.500000  0.166671  1
  Ir  Ir14  1  0.000118  0.000000  0.331451  1
  Ir  Ir15  1  0.500002  0.500000  0.498516  1
  Ir  Ir16  1  0.999877  0.999999  0.666666  1
  Ir  Ir17  1  0.499887  0.500001  0.834814  1
  Ru  Ru18  1  0.500004  0.000000  0.498171  1
  Ru  Ru19  1  0.999868  0.500000  0.666668  1
  Ru  Ru20  1  0.499880  0.000000  0.835164  1
  Rh  Rh21  1  0.000013  0.500000  0.001914  1
  Rh  Rh22  1  0.500048  0.000001  0.166664  1
  Rh  Rh23  1  0.000100  0.500000  0.331423  1
