# generated using pymatgen
data_Yb2TaN3
_symmetry_space_group_name_H-M   'P 1'
_cell_length_a   6.24058797
_cell_length_b   6.24058815
_cell_length_c   11.57615700
_cell_angle_alpha   90.00000000
_cell_angle_beta   90.00000000
_cell_angle_gamma   125.46116218
_symmetry_Int_Tables_number   1
_chemical_formula_structural   Yb2TaN3
_chemical_formula_sum   'Yb8 Ta4 N12'
_cell_volume   367.20729974
_cell_formula_units_Z   4
loop_
 _symmetry_equiv_pos_site_id
 _symmetry_equiv_pos_as_xyz
  1  'x, y, z'
loop_
 _atom_site_type_symbol
 _atom_site_label
 _atom_site_symmetry_multiplicity
 _atom_site_fract_x
 _atom_site_fract_y
 _atom_site_fract_z
 _atom_site_occupancy
  Yb  Yb0  1  0.532871  0.467129  0.647582  1
  Yb  Yb1  1  0.467129  0.532871  0.352418  1
  Yb  Yb2  1  0.967129  0.032871  0.147582  1
  Yb  Yb3  1  0.032871  0.967129  0.852418  1
  Yb  Yb4  1  0.873543  0.126457  0.579580  1
  Yb  Yb5  1  0.126457  0.873543  0.420420  1
  Yb  Yb6  1  0.626457  0.373543  0.079580  1
  Yb  Yb7  1  0.373543  0.626457  0.920420  1
  Ta  Ta8  1  0.751925  0.248075  0.841449  1
  Ta  Ta9  1  0.248075  0.751925  0.158551  1
  Ta  Ta10  1  0.748075  0.251925  0.341449  1
  Ta  Ta11  1  0.251925  0.748075  0.658551  1
  N  N12  1  0.843296  0.156704  0.980891  1
  N  N13  1  0.156704  0.843296  0.019109  1
  N  N14  1  0.656704  0.343296  0.480891  1
  N  N15  1  0.343296  0.656704  0.519109  1
  N  N16  1  0.577588  0.422412  0.862745  1
  N  N17  1  0.422412  0.577588  0.137255  1
  N  N18  1  0.922412  0.077588  0.362745  1
  N  N19  1  0.077588  0.922412  0.637255  1
  N  N20  1  0.576328  0.923672  0.750000  1
  N  N21  1  0.923672  0.576328  0.250000  1
  N  N22  1  0.423672  0.076328  0.250000  1
  N  N23  1  0.076328  0.423672  0.750000  1
