# generated using pymatgen
data_La8TbLu(In3Br)2
_symmetry_space_group_name_H-M   'P 1'
_cell_length_a   9.69615500
_cell_length_b   9.69615477
_cell_length_c   6.86732200
_cell_angle_alpha   90.00000000
_cell_angle_beta   90.00000000
_cell_angle_gamma   120.00000418
_symmetry_Int_Tables_number   1
_chemical_formula_structural   La8TbLu(In3Br)2
_chemical_formula_sum   'La8 Tb1 Lu1 In6 Br2'
_cell_volume   559.13555999
_cell_formula_units_Z   1
loop_
 _symmetry_equiv_pos_site_id
 _symmetry_equiv_pos_as_xyz
  1  'x, y, z'
loop_
 _atom_site_type_symbol
 _atom_site_label
 _atom_site_symmetry_multiplicity
 _atom_site_fract_x
 _atom_site_fract_y
 _atom_site_fract_z
 _atom_site_occupancy
  La  La0  1  0.732540  0.731979  0.254039  1
  La  La1  1  0.999439  0.731979  0.745961  1
  La  La2  1  0.732540  0.000561  0.745961  1
  La  La3  1  0.268021  0.267460  0.745961  1
  La  La4  1  0.999439  0.267460  0.254039  1
  La  La5  1  0.268021  0.000561  0.254039  1
  La  La6  1  0.333333  0.666667  0.000000  1
  La  La7  1  0.666667  0.333333  0.000000  1
  Tb  Tb8  1  0.333333  0.666667  0.500000  1
  Lu  Lu9  1  0.666667  0.333333  0.500000  1
  In  In10  1  0.393307  0.000546  0.743957  1
  In  In11  1  0.999454  0.606693  0.256043  1
  In  In12  1  0.607239  0.000546  0.256043  1
  In  In13  1  0.999454  0.392761  0.743957  1
  In  In14  1  0.393307  0.392761  0.256043  1
  In  In15  1  0.607239  0.606693  0.743957  1
  Br  Br16  1  0.000000  0.000000  0.500000  1
  Br  Br17  1  0.000000  0.000000  0.000000  1
