# generated using pymatgen
data_Y7Hf(Si4W3)4
_symmetry_space_group_name_H-M   'P 1'
_cell_length_a   6.74182708
_cell_length_b   6.90985179
_cell_length_c   12.92466374
_cell_angle_alpha   89.80402765
_cell_angle_beta   90.02198189
_cell_angle_gamma   90.15382235
_symmetry_Int_Tables_number   1
_chemical_formula_structural   Y7Hf(Si4W3)4
_chemical_formula_sum   'Y7 Hf1 Si16 W12'
_cell_volume   602.09006102
_cell_formula_units_Z   1
loop_
 _symmetry_equiv_pos_site_id
 _symmetry_equiv_pos_as_xyz
  1  'x, y, z'
loop_
 _atom_site_type_symbol
 _atom_site_label
 _atom_site_symmetry_multiplicity
 _atom_site_fract_x
 _atom_site_fract_y
 _atom_site_fract_z
 _atom_site_occupancy
  Y  Y0  1  0.996944  0.167110  0.093739  1
  Y  Y1  1  0.003660  0.832752  0.905141  1
  Y  Y2  1  0.503617  0.666950  0.906564  1
  Y  Y3  1  0.004547  0.832092  0.592914  1
  Y  Y4  1  0.497104  0.331660  0.093704  1
  Y  Y5  1  0.997184  0.168207  0.407900  1
  Y  Y6  1  0.497274  0.333467  0.408418  1
  Hf  Hf7  1  0.506564  0.670507  0.597395  1
  Si  Si8  1  0.034607  0.131043  0.749362  1
  Si  Si9  1  0.963045  0.868908  0.250505  1
  Si  Si10  1  0.464050  0.629159  0.249897  1
  Si  Si11  1  0.534716  0.372879  0.747834  1
  Si  Si12  1  0.304752  0.865654  0.748139  1
  Si  Si13  1  0.696765  0.131663  0.251211  1
  Si  Si14  1  0.198279  0.366251  0.250493  1
  Si  Si15  1  0.799642  0.633861  0.748869  1
  Si  Si16  1  0.169711  0.461240  0.546211  1
  Si  Si17  1  0.835655  0.543119  0.456091  1
  Si  Si18  1  0.338981  0.954505  0.456029  1
  Si  Si19  1  0.839179  0.542254  0.046186  1
  Si  Si20  1  0.659256  0.039238  0.546775  1
  Si  Si21  1  0.160056  0.457376  0.952320  1
  Si  Si22  1  0.660321  0.042466  0.951675  1
  Si  Si23  1  0.339356  0.958161  0.046697  1
  W  W24  1  0.166727  0.502688  0.746701  1
  W  W25  1  0.835010  0.500573  0.252003  1
  W  W26  1  0.333540  0.997811  0.250764  1
  W  W27  1  0.665808  0.996986  0.747600  1
  W  W28  1  0.331754  0.163522  0.624883  1
  W  W29  1  0.664703  0.833715  0.377314  1
  W  W30  1  0.167838  0.662949  0.374747  1
  W  W31  1  0.666859  0.834599  0.125652  1
  W  W32  1  0.831107  0.340422  0.625184  1
  W  W33  1  0.332877  0.165463  0.872666  1
  W  W34  1  0.831437  0.338494  0.873684  1
  W  W35  1  0.167076  0.662256  0.124735  1
