# generated using pymatgen
data_Tm2Lu10In2Tc3
_symmetry_space_group_name_H-M   'P 1'
_cell_length_a   8.31038983
_cell_length_b   8.31039063
_cell_length_c   8.31140416
_cell_angle_alpha   108.81167870
_cell_angle_beta   108.81168751
_cell_angle_gamma   110.79368538
_symmetry_Int_Tables_number   1
_chemical_formula_structural   Tm2Lu10In2Tc3
_chemical_formula_sum   'Tm2 Lu10 In2 Tc3'
_cell_volume   441.71945370
_cell_formula_units_Z   1
loop_
 _symmetry_equiv_pos_site_id
 _symmetry_equiv_pos_as_xyz
  1  'x, y, z'
loop_
 _atom_site_type_symbol
 _atom_site_label
 _atom_site_symmetry_multiplicity
 _atom_site_fract_x
 _atom_site_fract_y
 _atom_site_fract_z
 _atom_site_occupancy
  Tm  Tm0  1  0.305006  0.305006  0.610012  1
  Tm  Tm1  1  0.694994  0.694994  0.389988  1
  Lu  Lu2  1  0.694824  0.305176  0.000000  1
  Lu  Lu3  1  0.305176  0.694824  0.000000  1
  Lu  Lu4  1  0.189462  0.428650  0.238804  1
  Lu  Lu5  1  0.810538  0.571350  0.761196  1
  Lu  Lu6  1  0.189846  0.950657  0.761196  1
  Lu  Lu7  1  0.950657  0.189846  0.761196  1
  Lu  Lu8  1  0.810154  0.049343  0.238804  1
  Lu  Lu9  1  0.049343  0.810154  0.238804  1
  Lu  Lu10  1  0.428650  0.189462  0.238804  1
  Lu  Lu11  1  0.571350  0.810538  0.761196  1
  In  In12  1  0.000000  0.500000  0.500000  1
  In  In13  1  0.500000  0.000000  0.500000  1
  Tc  Tc14  1  0.370608  0.370608  0.000000  1
  Tc  Tc15  1  0.629392  0.629392  0.000000  1
  Tc  Tc16  1  0.000000  0.000000  0.000000  1
