# generated using pymatgen
data_Tb2Ho2MnOs7
_symmetry_space_group_name_H-M   'P 1'
_cell_length_a   5.34355300
_cell_length_b   5.34355306
_cell_length_c   8.74786300
_cell_angle_alpha   90.00000000
_cell_angle_beta   90.00000000
_cell_angle_gamma   119.99999345
_symmetry_Int_Tables_number   1
_chemical_formula_structural   Tb2Ho2MnOs7
_chemical_formula_sum   'Tb2 Ho2 Mn1 Os7'
_cell_volume   216.31811040
_cell_formula_units_Z   1
loop_
 _symmetry_equiv_pos_site_id
 _symmetry_equiv_pos_as_xyz
  1  'x, y, z'
loop_
 _atom_site_type_symbol
 _atom_site_label
 _atom_site_symmetry_multiplicity
 _atom_site_fract_x
 _atom_site_fract_y
 _atom_site_fract_z
 _atom_site_occupancy
  Tb  Tb0  1  0.666667  0.333333  0.935425  1
  Tb  Tb1  1  0.333333  0.666667  0.064575  1
  Ho  Ho2  1  0.333333  0.666667  0.431233  1
  Ho  Ho3  1  0.666667  0.333333  0.568767  1
  Mn  Mn4  1  0.000000  0.000000  0.500000  1
  Os  Os5  1  0.000000  0.000000  0.000000  1
  Os  Os6  1  0.829191  0.170809  0.253870  1
  Os  Os7  1  0.829191  0.658383  0.253870  1
  Os  Os8  1  0.341617  0.170809  0.253870  1
  Os  Os9  1  0.170809  0.829191  0.746130  1
  Os  Os10  1  0.170809  0.341617  0.746130  1
  Os  Os11  1  0.658383  0.829191  0.746130  1
