# generated using pymatgen
data_Tm12CoTcNi3Sn
_symmetry_space_group_name_H-M   'P 1'
_cell_length_a   8.17615498
_cell_length_b   8.17615576
_cell_length_c   8.17615533
_cell_angle_alpha   111.51922708
_cell_angle_beta   109.90655486
_cell_angle_gamma   107.01963730
_symmetry_Int_Tables_number   1
_chemical_formula_structural   Tm12CoTcNi3Sn
_chemical_formula_sum   'Tm12 Co1 Tc1 Ni3 Sn1'
_cell_volume   420.08955974
_cell_formula_units_Z   1
loop_
 _symmetry_equiv_pos_site_id
 _symmetry_equiv_pos_as_xyz
  1  'x, y, z'
loop_
 _atom_site_type_symbol
 _atom_site_label
 _atom_site_symmetry_multiplicity
 _atom_site_fract_x
 _atom_site_fract_y
 _atom_site_fract_z
 _atom_site_occupancy
  Tm  Tm0  1  0.415019  0.222236  0.192783  1
  Tm  Tm1  1  0.584611  0.777149  0.807461  1
  Tm  Tm2  1  0.029453  0.222236  0.807217  1
  Tm  Tm3  1  0.969688  0.777149  0.192539  1
  Tm  Tm4  1  0.180072  0.280246  0.463295  1
  Tm  Tm5  1  0.816951  0.716777  0.536705  1
  Tm  Tm6  1  0.180072  0.716777  0.899825  1
  Tm  Tm7  1  0.816951  0.280246  0.100175  1
  Tm  Tm8  1  0.319440  0.624235  0.304794  1
  Tm  Tm9  1  0.684362  0.377698  0.693337  1
  Tm  Tm10  1  0.319440  0.014646  0.695206  1
  Tm  Tm11  1  0.684362  0.991025  0.306663  1
  Co  Co12  1  0.884525  0.384525  0.500000  1
  Tc  Tc13  1  0.998730  0.998730  0.000000  1
  Ni  Ni14  1  0.358979  0.999406  0.359572  1
  Ni  Ni15  1  0.639834  0.999406  0.640428  1
  Ni  Ni16  1  0.117864  0.617864  0.500000  1
  Sn  Sn17  1  0.499646  0.499646  0.000000  1
