# generated using pymatgen
data_Er10Sn6HN
_symmetry_space_group_name_H-M   'P 1'
_cell_length_a   8.82155500
_cell_length_b   8.82155498
_cell_length_c   6.41812000
_cell_angle_alpha   90.00000000
_cell_angle_beta   90.00000000
_cell_angle_gamma   119.99999631
_symmetry_Int_Tables_number   1
_chemical_formula_structural   Er10Sn6HN
_chemical_formula_sum   'Er10 Sn6 H1 N1'
_cell_volume   432.54248623
_cell_formula_units_Z   1
loop_
 _symmetry_equiv_pos_site_id
 _symmetry_equiv_pos_as_xyz
  1  'x, y, z'
loop_
 _atom_site_type_symbol
 _atom_site_label
 _atom_site_symmetry_multiplicity
 _atom_site_fract_x
 _atom_site_fract_y
 _atom_site_fract_z
 _atom_site_occupancy
  Er  Er0  1  0.666667  0.333333  0.000000  1
  Er  Er1  1  0.333333  0.666667  0.000000  1
  Er  Er2  1  0.333333  0.666667  0.500000  1
  Er  Er3  1  0.666667  0.333333  0.500000  1
  Er  Er4  1  0.773023  0.773023  0.729354  1
  Er  Er5  1  0.226977  0.000000  0.729354  1
  Er  Er6  1  0.000000  0.226977  0.729354  1
  Er  Er7  1  0.226977  0.226977  0.270646  1
  Er  Er8  1  0.773023  0.000000  0.270646  1
  Er  Er9  1  0.000000  0.773023  0.270646  1
  Sn  Sn10  1  0.398733  0.398733  0.749249  1
  Sn  Sn11  1  0.601267  0.000000  0.749249  1
  Sn  Sn12  1  0.000000  0.601267  0.749249  1
  Sn  Sn13  1  0.601267  0.601267  0.250751  1
  Sn  Sn14  1  0.398733  0.000000  0.250751  1
  Sn  Sn15  1  0.000000  0.398733  0.250751  1
  H  H16  1  0.000000  0.000000  0.000000  1
  N  N17  1  0.000000  0.000000  0.500000  1
