# generated using pymatgen
data_KBaCoO4
_symmetry_space_group_name_H-M   'P 1'
_cell_length_a   5.81493100
_cell_length_b   7.91574100
_cell_length_c   10.35229400
_cell_angle_alpha   90.00000000
_cell_angle_beta   90.00000000
_cell_angle_gamma   90.00000000
_symmetry_Int_Tables_number   1
_chemical_formula_structural   KBaCoO4
_chemical_formula_sum   'K4 Ba4 Co4 O16'
_cell_volume   476.51078964
_cell_formula_units_Z   4
loop_
 _symmetry_equiv_pos_site_id
 _symmetry_equiv_pos_as_xyz
  1  'x, y, z'
loop_
 _atom_site_type_symbol
 _atom_site_label
 _atom_site_symmetry_multiplicity
 _atom_site_fract_x
 _atom_site_fract_y
 _atom_site_fract_z
 _atom_site_occupancy
  K  K0  1  0.750000  0.656407  0.080736  1
  K  K1  1  0.750000  0.156407  0.419264  1
  K  K2  1  0.250000  0.343593  0.919264  1
  K  K3  1  0.250000  0.843593  0.580736  1
  Ba  Ba4  1  0.750000  0.993038  0.810087  1
  Ba  Ba5  1  0.750000  0.493038  0.689913  1
  Ba  Ba6  1  0.250000  0.006962  0.189913  1
  Ba  Ba7  1  0.250000  0.506962  0.310087  1
  Co  Co8  1  0.750000  0.233016  0.082217  1
  Co  Co9  1  0.750000  0.733016  0.417783  1
  Co  Co10  1  0.250000  0.766984  0.917783  1
  Co  Co11  1  0.250000  0.266984  0.582217  1
  O  O12  1  0.750000  0.304901  0.926948  1
  O  O13  1  0.750000  0.804901  0.573052  1
  O  O14  1  0.250000  0.695099  0.073052  1
  O  O15  1  0.250000  0.195099  0.426948  1
  O  O16  1  0.991093  0.300369  0.158034  1
  O  O17  1  0.508907  0.800369  0.341966  1
  O  O18  1  0.491093  0.699631  0.841966  1
  O  O19  1  0.008907  0.199631  0.658034  1
  O  O20  1  0.008907  0.699631  0.841966  1
  O  O21  1  0.491093  0.199631  0.658034  1
  O  O22  1  0.508907  0.300369  0.158034  1
  O  O23  1  0.991093  0.800369  0.341966  1
  O  O24  1  0.750000  0.018227  0.081896  1
  O  O25  1  0.750000  0.518227  0.418104  1
  O  O26  1  0.250000  0.981773  0.918104  1
  O  O27  1  0.250000  0.481773  0.581896  1
