# generated using pymatgen
data_TbYb2PrCu2Sn5
_symmetry_space_group_name_H-M   'P 1'
_cell_length_a   4.44414800
_cell_length_b   8.77037300
_cell_length_c   14.30910100
_cell_angle_alpha   90.00000000
_cell_angle_beta   90.00000000
_cell_angle_gamma   90.00000000
_symmetry_Int_Tables_number   1
_chemical_formula_structural   TbYb2PrCu2Sn5
_chemical_formula_sum   'Tb2 Yb4 Pr2 Cu4 Sn10'
_cell_volume   557.72347765
_cell_formula_units_Z   2
loop_
 _symmetry_equiv_pos_site_id
 _symmetry_equiv_pos_as_xyz
  1  'x, y, z'
loop_
 _atom_site_type_symbol
 _atom_site_label
 _atom_site_symmetry_multiplicity
 _atom_site_fract_x
 _atom_site_fract_y
 _atom_site_fract_z
 _atom_site_occupancy
  Tb  Tb0  1  0.500000  0.694046  0.000000  1
  Tb  Tb1  1  0.000000  0.305954  0.500000  1
  Yb  Yb2  1  0.500000  0.791747  0.744114  1
  Yb  Yb3  1  0.000000  0.208253  0.755886  1
  Yb  Yb4  1  0.000000  0.208253  0.244114  1
  Yb  Yb5  1  0.500000  0.791747  0.255886  1
  Pr  Pr6  1  0.500000  0.142389  0.000000  1
  Pr  Pr7  1  0.000000  0.857611  0.500000  1
  Cu  Cu8  1  0.500000  0.379015  0.645955  1
  Cu  Cu9  1  0.000000  0.620985  0.854045  1
  Cu  Cu10  1  0.000000  0.620985  0.145955  1
  Cu  Cu11  1  0.500000  0.379015  0.354045  1
  Sn  Sn12  1  0.500000  0.084623  0.396526  1
  Sn  Sn13  1  0.000000  0.556753  0.664800  1
  Sn  Sn14  1  0.000000  0.415920  0.000000  1
  Sn  Sn15  1  0.500000  0.443247  0.164800  1
  Sn  Sn16  1  0.500000  0.584080  0.500000  1
  Sn  Sn17  1  0.500000  0.443247  0.835200  1
  Sn  Sn18  1  0.000000  0.915377  0.896526  1
  Sn  Sn19  1  0.000000  0.556753  0.335200  1
  Sn  Sn20  1  0.500000  0.084623  0.603474  1
  Sn  Sn21  1  0.000000  0.915377  0.103474  1
