# generated using pymatgen
data_DyY(CoC2)2
_symmetry_space_group_name_H-M   'P 1'
_cell_length_a   3.68034268
_cell_length_b   3.67778184
_cell_length_c   7.32702683
_cell_angle_alpha   82.49764191
_cell_angle_beta   82.45805888
_cell_angle_gamma   90.07510117
_symmetry_Int_Tables_number   1
_chemical_formula_structural   DyY(CoC2)2
_chemical_formula_sum   'Dy1 Y1 Co2 C4'
_cell_volume   97.45818004
_cell_formula_units_Z   1
loop_
 _symmetry_equiv_pos_site_id
 _symmetry_equiv_pos_as_xyz
  1  'x, y, z'
loop_
 _atom_site_type_symbol
 _atom_site_label
 _atom_site_symmetry_multiplicity
 _atom_site_fract_x
 _atom_site_fract_y
 _atom_site_fract_z
 _atom_site_occupancy
  Dy  Dy0  1  0.931734  0.067777  0.499977  1
  Y  Y1  1  0.068097  0.931308  0.000112  1
  Co  Co2  1  0.374087  0.510968  0.693428  1
  Co  Co3  1  0.511313  0.374336  0.193933  1
  C  C4  1  0.442824  0.591885  0.428933  1
  C  C5  1  0.592483  0.443255  0.928582  1
  C  C6  1  0.489697  0.857700  0.274828  1
  C  C7  1  0.856765  0.489770  0.774007  1
