# generated using pymatgen
data_La8Nd9Lu3Si16
_symmetry_space_group_name_H-M   'P 1'
_cell_length_a   7.87544480
_cell_length_b   7.87544462
_cell_length_c   15.22249300
_cell_angle_alpha   89.97417288
_cell_angle_beta   90.02582712
_cell_angle_gamma   89.95153669
_symmetry_Int_Tables_number   1
_chemical_formula_structural   La8Nd9Lu3Si16
_chemical_formula_sum   'La8 Nd9 Lu3 Si16'
_cell_volume   944.13851170
_cell_formula_units_Z   1
loop_
 _symmetry_equiv_pos_site_id
 _symmetry_equiv_pos_as_xyz
  1  'x, y, z'
loop_
 _atom_site_type_symbol
 _atom_site_label
 _atom_site_symmetry_multiplicity
 _atom_site_fract_x
 _atom_site_fract_y
 _atom_site_fract_z
 _atom_site_occupancy
  La  La0  1  0.987903  0.623442  0.052722  1
  La  La1  1  0.013180  0.376495  0.552506  1
  La  La2  1  0.623442  0.987903  0.947278  1
  La  La3  1  0.123525  0.514050  0.801751  1
  La  La4  1  0.876245  0.486607  0.302859  1
  La  La5  1  0.514050  0.123525  0.198249  1
  La  La6  1  0.486607  0.876245  0.697141  1
  La  La7  1  0.376495  0.013180  0.447494  1
  Nd  Nd8  1  0.372559  0.480478  0.372972  1
  Nd  Nd9  1  0.872889  0.019922  0.378063  1
  Nd  Nd10  1  0.980289  0.127041  0.123095  1
  Nd  Nd11  1  0.019922  0.872889  0.621937  1
  Nd  Nd12  1  0.626570  0.520256  0.871420  1
  Nd  Nd13  1  0.480478  0.372559  0.627028  1
  Nd  Nd14  1  0.520256  0.626570  0.128580  1
  Nd  Nd15  1  0.127041  0.980289  0.876905  1
  Nd  Nd16  1  0.308012  0.308012  0.000000  1
  Lu  Lu17  1  0.688326  0.688326  0.500000  1
  Lu  Lu18  1  0.810040  0.188017  0.749659  1
  Lu  Lu19  1  0.188017  0.810040  0.250341  1
  Si  Si20  1  0.078244  0.714617  0.435975  1
  Si  Si21  1  0.918101  0.284638  0.934868  1
  Si  Si22  1  0.714617  0.078244  0.564025  1
  Si  Si23  1  0.213022  0.424811  0.189988  1
  Si  Si24  1  0.785730  0.578806  0.685519  1
  Si  Si25  1  0.424811  0.213022  0.810012  1
  Si  Si26  1  0.578806  0.785730  0.314481  1
  Si  Si27  1  0.284638  0.918101  0.065132  1
  Si  Si28  1  0.829463  0.810659  0.794027  1
  Si  Si29  1  0.170322  0.189598  0.295473  1
  Si  Si30  1  0.810659  0.829463  0.205973  1
  Si  Si31  1  0.310322  0.671070  0.544000  1
  Si  Si32  1  0.693759  0.330993  0.044964  1
  Si  Si33  1  0.671070  0.310322  0.456000  1
  Si  Si34  1  0.330993  0.693759  0.955036  1
  Si  Si35  1  0.189598  0.170322  0.704527  1
