# generated using pymatgen
data_Ca3Eu(ReN3)4
_symmetry_space_group_name_H-M   'P 1'
_cell_length_a   7.42773652
_cell_length_b   7.42773762
_cell_length_c   6.22473200
_cell_angle_alpha   76.52058442
_cell_angle_beta   76.52058238
_cell_angle_gamma   85.56391538
_symmetry_Int_Tables_number   1
_chemical_formula_structural   Ca3Eu(ReN3)4
_chemical_formula_sum   'Ca3 Eu1 Re4 N12'
_cell_volume   324.67059217
_cell_formula_units_Z   1
loop_
 _symmetry_equiv_pos_site_id
 _symmetry_equiv_pos_as_xyz
  1  'x, y, z'
loop_
 _atom_site_type_symbol
 _atom_site_label
 _atom_site_symmetry_multiplicity
 _atom_site_fract_x
 _atom_site_fract_y
 _atom_site_fract_z
 _atom_site_occupancy
  Ca  Ca0  1  0.301235  0.698765  0.250000  1
  Ca  Ca1  1  0.913633  0.086367  0.250000  1
  Ca  Ca2  1  0.088374  0.911626  0.750000  1
  Eu  Eu3  1  0.692140  0.307860  0.750000  1
  Re  Re4  1  0.798295  0.620723  0.256195  1
  Re  Re5  1  0.379277  0.201705  0.243805  1
  Re  Re6  1  0.620317  0.798245  0.757848  1
  Re  Re7  1  0.201755  0.379683  0.742152  1
  N  N8  1  0.772926  0.989968  0.659459  1
  N  N9  1  0.122838  0.609776  0.665641  1
  N  N10  1  0.340092  0.357910  0.970697  1
  N  N11  1  0.610955  0.124945  0.166039  1
  N  N12  1  0.875055  0.389045  0.333961  1
  N  N13  1  0.229173  0.008495  0.340588  1
  N  N14  1  0.991505  0.770827  0.159412  1
  N  N15  1  0.360075  0.339989  0.470635  1
  N  N16  1  0.642090  0.659908  0.529303  1
  N  N17  1  0.010032  0.227074  0.840541  1
  N  N18  1  0.390224  0.877162  0.834359  1
  N  N19  1  0.660011  0.639925  0.029365  1
