# generated using pymatgen
data_Pr16YEr3Pb16
_symmetry_space_group_name_H-M   'P 1'
_cell_length_a   8.40953008
_cell_length_b   8.52491200
_cell_length_c   16.25508000
_cell_angle_alpha   90.00000000
_cell_angle_beta   90.00000000
_cell_angle_gamma   89.99031775
_symmetry_Int_Tables_number   1
_chemical_formula_structural   Pr16YEr3Pb16
_chemical_formula_sum   'Pr16 Y1 Er3 Pb16'
_cell_volume   1165.33485962
_cell_formula_units_Z   1
loop_
 _symmetry_equiv_pos_site_id
 _symmetry_equiv_pos_as_xyz
  1  'x, y, z'
loop_
 _atom_site_type_symbol
 _atom_site_label
 _atom_site_symmetry_multiplicity
 _atom_site_fract_x
 _atom_site_fract_y
 _atom_site_fract_z
 _atom_site_occupancy
  Pr  Pr0  1  0.378434  0.841531  0.881332  1
  Pr  Pr1  1  0.877495  0.659008  0.618626  1
  Pr  Pr2  1  0.622373  0.158502  0.380667  1
  Pr  Pr3  1  0.122248  0.341396  0.119913  1
  Pr  Pr4  1  0.622373  0.158502  0.119333  1
  Pr  Pr5  1  0.122248  0.341396  0.380087  1
  Pr  Pr6  1  0.378434  0.841531  0.618668  1
  Pr  Pr7  1  0.877495  0.659008  0.881374  1
  Pr  Pr8  1  0.533044  0.321132  0.899640  1
  Pr  Pr9  1  0.032608  0.177229  0.600474  1
  Pr  Pr10  1  0.466869  0.678024  0.398818  1
  Pr  Pr11  1  0.966988  0.821857  0.100729  1
  Pr  Pr12  1  0.466869  0.678024  0.101182  1
  Pr  Pr13  1  0.966988  0.821857  0.399271  1
  Pr  Pr14  1  0.533044  0.321132  0.600360  1
  Pr  Pr15  1  0.032608  0.177229  0.899526  1
  Y  Y16  1  0.208800  0.502505  0.750000  1
  Er  Er17  1  0.709444  0.996325  0.750000  1
  Er  Er18  1  0.790135  0.497040  0.250000  1
  Er  Er19  1  0.290401  0.003273  0.250000  1
  Pb  Pb20  1  0.281259  0.030775  0.046430  1
  Pb  Pb21  1  0.781424  0.469587  0.453570  1
  Pb  Pb22  1  0.719120  0.969720  0.545725  1
  Pb  Pb23  1  0.218729  0.531732  0.955691  1
  Pb  Pb24  1  0.719120  0.969720  0.954275  1
  Pb  Pb25  1  0.218729  0.531732  0.544309  1
  Pb  Pb26  1  0.281259  0.030775  0.453570  1
  Pb  Pb27  1  0.781424  0.469587  0.046430  1
  Pb  Pb28  1  0.574673  0.626762  0.750000  1
  Pb  Pb29  1  0.071103  0.877699  0.750000  1
  Pb  Pb30  1  0.428558  0.375100  0.250000  1
  Pb  Pb31  1  0.927931  0.124330  0.250000  1
  Pb  Pb32  1  0.344210  0.149423  0.750000  1
  Pb  Pb33  1  0.840389  0.345875  0.750000  1
  Pb  Pb34  1  0.656442  0.847156  0.250000  1
  Pb  Pb35  1  0.156735  0.653525  0.250000  1
