# generated using pymatgen
data_TbNd4Mg2P12Ru17
_symmetry_space_group_name_H-M   'P 1'
_cell_length_a   4.01331600
_cell_length_b   12.67186707
_cell_length_c   12.66860088
_cell_angle_alpha   119.12673452
_cell_angle_beta   90.00000000
_cell_angle_gamma   90.00000000
_symmetry_Int_Tables_number   1
_chemical_formula_structural   TbNd4Mg2P12Ru17
_chemical_formula_sum   'Tb1 Nd4 Mg2 P12 Ru17'
_cell_volume   562.80507022
_cell_formula_units_Z   1
loop_
 _symmetry_equiv_pos_site_id
 _symmetry_equiv_pos_as_xyz
  1  'x, y, z'
loop_
 _atom_site_type_symbol
 _atom_site_label
 _atom_site_symmetry_multiplicity
 _atom_site_fract_x
 _atom_site_fract_y
 _atom_site_fract_z
 _atom_site_occupancy
  Tb  Tb0  1  0.000000  0.661785  0.335588  1
  Nd  Nd1  1  0.500000  0.001231  0.181744  1
  Nd  Nd2  1  0.500000  0.181425  0.000431  1
  Nd  Nd3  1  0.500000  0.816905  0.817250  1
  Nd  Nd4  1  0.000000  0.335871  0.662626  1
  Mg  Mg5  1  0.000000  0.999618  0.561714  1
  Mg  Mg6  1  0.000000  0.561992  0.000261  1
  P  P7  1  0.000000  0.998624  0.809190  1
  P  P8  1  0.000000  0.810497  0.001389  1
  P  P9  1  0.000000  0.186694  0.185416  1
  P  P10  1  0.500000  0.308584  0.476600  1
  P  P11  1  0.500000  0.181263  0.699418  1
  P  P12  1  0.500000  0.523315  0.822451  1
  P  P13  1  0.500000  0.819520  0.520271  1
  P  P14  1  0.500000  0.479185  0.307701  1
  P  P15  1  0.500000  0.699449  0.184549  1
  P  P16  1  0.000000  0.000122  0.364567  1
  P  P17  1  0.000000  0.363729  0.998579  1
  P  P18  1  0.000000  0.622116  0.622324  1
  Ru  Ru19  1  0.000000  0.443907  0.443727  1
  Ru  Ru20  1  0.500000  0.999192  0.712985  1
  Ru  Ru21  1  0.500000  0.714579  0.002312  1
  Ru  Ru22  1  0.500000  0.286702  0.285024  1
  Ru  Ru23  1  0.000000  0.194857  0.377400  1
  Ru  Ru24  1  0.000000  0.184451  0.802140  1
  Ru  Ru25  1  0.000000  0.622152  0.815119  1
  Ru  Ru26  1  0.000000  0.812535  0.619439  1
  Ru  Ru27  1  0.000000  0.379823  0.194585  1
  Ru  Ru28  1  0.000000  0.802044  0.187348  1
  Ru  Ru29  1  0.500000  0.125992  0.490571  1
  Ru  Ru30  1  0.500000  0.368764  0.882096  1
  Ru  Ru31  1  0.500000  0.510185  0.632110  1
  Ru  Ru32  1  0.500000  0.630917  0.506838  1
  Ru  Ru33  1  0.500000  0.493715  0.128141  1
  Ru  Ru34  1  0.500000  0.880159  0.370110  1
  Ru  Ru35  1  0.000000  0.997996  0.997983  1
