# generated using pymatgen
data_Mg3TiCu2(B2Rh5)2
_symmetry_space_group_name_H-M   'P 1'
_cell_length_a   2.94110200
_cell_length_b   9.36230168
_cell_length_c   9.36230168
_cell_angle_alpha   89.79029748
_cell_angle_beta   90.00000000
_cell_angle_gamma   90.00000000
_symmetry_Int_Tables_number   1
_chemical_formula_structural   Mg3TiCu2(B2Rh5)2
_chemical_formula_sum   'Mg3 Ti1 Cu2 B4 Rh10'
_cell_volume   257.79378310
_cell_formula_units_Z   1
loop_
 _symmetry_equiv_pos_site_id
 _symmetry_equiv_pos_as_xyz
  1  'x, y, z'
loop_
 _atom_site_type_symbol
 _atom_site_label
 _atom_site_symmetry_multiplicity
 _atom_site_fract_x
 _atom_site_fract_y
 _atom_site_fract_z
 _atom_site_occupancy
  Mg  Mg0  1  0.000000  0.822595  0.177406  1
  Mg  Mg1  1  0.000000  0.324785  0.322756  1
  Mg  Mg2  1  0.000000  0.677244  0.675215  1
  Ti  Ti3  1  0.000000  0.175863  0.824138  1
  Cu  Cu4  1  0.000000  0.502457  0.000454  1
  Cu  Cu5  1  0.000000  0.999546  0.497545  1
  B  B6  1  0.000000  0.129475  0.127920  1
  B  B7  1  0.000000  0.627164  0.372838  1
  B  B8  1  0.000000  0.373464  0.626538  1
  B  B9  1  0.000000  0.872080  0.870525  1
  Rh  Rh10  1  0.499999  0.003317  0.996683  1
  Rh  Rh11  1  0.499999  0.282900  0.061997  1
  Rh  Rh12  1  0.499999  0.569944  0.215898  1
  Rh  Rh13  1  0.499999  0.071785  0.282788  1
  Rh  Rh14  1  0.499999  0.784103  0.430057  1
  Rh  Rh15  1  0.499999  0.497924  0.502076  1
  Rh  Rh16  1  0.499999  0.211596  0.581452  1
  Rh  Rh17  1  0.499999  0.938005  0.717101  1
  Rh  Rh18  1  0.499999  0.418549  0.788405  1
  Rh  Rh19  1  0.499999  0.717213  0.928217  1
