# generated using pymatgen
data_DyHo3Mn4F28
_symmetry_space_group_name_H-M   'P 1'
_cell_length_a   5.42767204
_cell_length_b   8.69091685
_cell_length_c   11.67970514
_cell_angle_alpha   62.42359593
_cell_angle_beta   89.98771932
_cell_angle_gamma   89.99846963
_symmetry_Int_Tables_number   1
_chemical_formula_structural   DyHo3Mn4F28
_chemical_formula_sum   'Dy1 Ho3 Mn4 F28'
_cell_volume   488.35767305
_cell_formula_units_Z   1
loop_
 _symmetry_equiv_pos_site_id
 _symmetry_equiv_pos_as_xyz
  1  'x, y, z'
loop_
 _atom_site_type_symbol
 _atom_site_label
 _atom_site_symmetry_multiplicity
 _atom_site_fract_x
 _atom_site_fract_y
 _atom_site_fract_z
 _atom_site_occupancy
  Dy  Dy0  1  0.761758  0.811175  0.764306  1
  Ho  Ho1  1  0.262329  0.189458  0.735716  1
  Ho  Ho2  1  0.237925  0.188888  0.235789  1
  Ho  Ho3  1  0.737938  0.811228  0.264272  1
  Mn  Mn4  1  0.759186  0.273752  0.956825  1
  Mn  Mn5  1  0.258684  0.725608  0.542830  1
  Mn  Mn6  1  0.241060  0.725460  0.043984  1
  Mn  Mn7  1  0.741022  0.274774  0.456271  1
  F  F8  1  0.434062  0.705111  0.922706  1
  F  F9  1  0.934433  0.295234  0.577226  1
  F  F10  1  0.565716  0.294618  0.077715  1
  F  F11  1  0.065824  0.704932  0.421788  1
  F  F12  1  0.456275  0.282486  0.541047  1
  F  F13  1  0.956397  0.717684  0.959638  1
  F  F14  1  0.543814  0.717853  0.458711  1
  F  F15  1  0.043888  0.281434  0.041398  1
  F  F16  1  0.772622  0.512096  0.861703  1
  F  F17  1  0.271632  0.486982  0.638238  1
  F  F18  1  0.228379  0.486905  0.138897  1
  F  F19  1  0.727790  0.513281  0.361148  1
  F  F20  1  0.758741  0.036401  0.047457  1
  F  F21  1  0.258609  0.962936  0.452452  1
  F  F22  1  0.241105  0.962859  0.953090  1
  F  F23  1  0.740707  0.037499  0.547014  1
  F  F24  1  0.980945  0.727757  0.632811  1
  F  F25  1  0.481919  0.272065  0.866350  1
  F  F26  1  0.017595  0.272311  0.365821  1
  F  F27  1  0.518299  0.727881  0.134126  1
  F  F28  1  0.050193  0.742247  0.169561  1
  F  F29  1  0.549248  0.257835  0.330905  1
  F  F30  1  0.950355  0.257031  0.831220  1
  F  F31  1  0.448508  0.742031  0.668827  1
  F  F32  1  0.407712  0.969714  0.228445  1
  F  F33  1  0.907612  0.030358  0.271646  1
  F  F34  1  0.593127  0.032028  0.771997  1
  F  F35  1  0.094591  0.970090  0.728071  1
