# generated using pymatgen
data_LuPaRe2C3
_symmetry_space_group_name_H-M   'P 1'
_cell_length_a   6.04423959
_cell_length_b   6.04423934
_cell_length_c   5.64350852
_cell_angle_alpha   68.25348289
_cell_angle_beta   68.25348446
_cell_angle_gamma   31.04365213
_symmetry_Int_Tables_number   1
_chemical_formula_structural   LuPaRe2C3
_chemical_formula_sum   'Lu1 Pa1 Re2 C3'
_cell_volume   98.14713476
_cell_formula_units_Z   1
loop_
 _symmetry_equiv_pos_site_id
 _symmetry_equiv_pos_as_xyz
  1  'x, y, z'
loop_
 _atom_site_type_symbol
 _atom_site_label
 _atom_site_symmetry_multiplicity
 _atom_site_fract_x
 _atom_site_fract_y
 _atom_site_fract_z
 _atom_site_occupancy
  Lu  Lu0  1  0.608300  0.608300  0.181943  1
  Pa  Pa1  1  0.391232  0.391232  0.817988  1
  Re  Re2  1  0.848702  0.848702  0.327750  1
  Re  Re3  1  0.153443  0.153443  0.667637  1
  C  C4  1  0.749479  0.749479  0.741999  1
  C  C5  1  0.247061  0.247061  0.259131  1
  C  C6  1  0.001783  0.001783  0.003551  1
