# generated using pymatgen
data_NdSiTc4Ge
_symmetry_space_group_name_H-M   'P 1'
_cell_length_a   4.18901200
_cell_length_b   7.36969400
_cell_length_c   15.49540600
_cell_angle_alpha   90.00000000
_cell_angle_beta   90.00000000
_cell_angle_gamma   90.00000000
_symmetry_Int_Tables_number   1
_chemical_formula_structural   NdSiTc4Ge
_chemical_formula_sum   'Nd4 Si4 Tc16 Ge4'
_cell_volume   478.37009258
_cell_formula_units_Z   4
loop_
 _symmetry_equiv_pos_site_id
 _symmetry_equiv_pos_as_xyz
  1  'x, y, z'
loop_
 _atom_site_type_symbol
 _atom_site_label
 _atom_site_symmetry_multiplicity
 _atom_site_fract_x
 _atom_site_fract_y
 _atom_site_fract_z
 _atom_site_occupancy
  Nd  Nd0  1  0.000000  0.582381  0.118788  1
  Nd  Nd1  1  0.000000  0.417619  0.881212  1
  Nd  Nd2  1  0.500000  0.082381  0.381212  1
  Nd  Nd3  1  0.500000  0.917619  0.618788  1
  Si  Si4  1  0.000000  0.294874  0.273027  1
  Si  Si5  1  0.000000  0.705126  0.726973  1
  Si  Si6  1  0.500000  0.794874  0.226973  1
  Si  Si7  1  0.500000  0.205126  0.773027  1
  Tc  Tc8  1  0.000000  0.131905  0.054336  1
  Tc  Tc9  1  0.000000  0.868095  0.945664  1
  Tc  Tc10  1  0.500000  0.631905  0.445664  1
  Tc  Tc11  1  0.500000  0.368095  0.554336  1
  Tc  Tc12  1  0.000000  0.727978  0.318041  1
  Tc  Tc13  1  0.000000  0.272022  0.681959  1
  Tc  Tc14  1  0.500000  0.227978  0.181959  1
  Tc  Tc15  1  0.500000  0.772022  0.818041  1
  Tc  Tc16  1  0.000000  0.437361  0.417880  1
  Tc  Tc17  1  0.000000  0.562639  0.582120  1
  Tc  Tc18  1  0.500000  0.937361  0.082120  1
  Tc  Tc19  1  0.500000  0.062639  0.917880  1
  Tc  Tc20  1  0.000000  0.990667  0.207529  1
  Tc  Tc21  1  0.000000  0.009333  0.792471  1
  Tc  Tc22  1  0.500000  0.490667  0.292471  1
  Tc  Tc23  1  0.500000  0.509333  0.707529  1
  Ge  Ge24  1  0.000000  0.827082  0.474800  1
  Ge  Ge25  1  0.000000  0.172918  0.525200  1
  Ge  Ge26  1  0.500000  0.327082  0.025200  1
  Ge  Ge27  1  0.500000  0.672918  0.974800  1
