# generated using pymatgen
data_Lu3Np5(B6Mo)4
_symmetry_space_group_name_H-M   'P 1'
_cell_length_a   3.62699200
_cell_length_b   9.28232979
_cell_length_c   11.33324105
_cell_angle_alpha   89.98179374
_cell_angle_beta   90.00000000
_cell_angle_gamma   90.00000000
_symmetry_Int_Tables_number   1
_chemical_formula_structural   Lu3Np5(B6Mo)4
_chemical_formula_sum   'Lu3 Np5 B24 Mo4'
_cell_volume   381.55548044
_cell_formula_units_Z   1
loop_
 _symmetry_equiv_pos_site_id
 _symmetry_equiv_pos_as_xyz
  1  'x, y, z'
loop_
 _atom_site_type_symbol
 _atom_site_label
 _atom_site_symmetry_multiplicity
 _atom_site_fract_x
 _atom_site_fract_y
 _atom_site_fract_z
 _atom_site_occupancy
  Lu  Lu0  1  0.000000  0.338047  0.407697  1
  Lu  Lu1  1  0.000000  0.662064  0.591771  1
  Lu  Lu2  1  0.000000  0.836508  0.093233  1
  Np  Np3  1  0.000000  0.161450  0.907673  1
  Np  Np4  1  0.000000  0.957865  0.399752  1
  Np  Np5  1  0.000000  0.041602  0.600357  1
  Np  Np6  1  0.000000  0.459089  0.100264  1
  Np  Np7  1  0.000000  0.542764  0.900442  1
  B  B8  1  0.500000  0.550573  0.432714  1
  B  B9  1  0.500000  0.449180  0.567658  1
  B  B10  1  0.500000  0.051747  0.066866  1
  B  B11  1  0.500000  0.949713  0.931581  1
  B  B12  1  0.500000  0.744857  0.424460  1
  B  B13  1  0.500000  0.255853  0.575193  1
  B  B14  1  0.500000  0.245139  0.075491  1
  B  B15  1  0.500000  0.754764  0.924181  1
  B  B16  1  0.500000  0.805150  0.275017  1
  B  B17  1  0.500000  0.194445  0.725726  1
  B  B18  1  0.500000  0.305313  0.225577  1
  B  B19  1  0.500000  0.694617  0.774712  1
  B  B20  1  0.500000  0.643640  0.187560  1
  B  B21  1  0.500000  0.355754  0.812924  1
  B  B22  1  0.500000  0.143678  0.312674  1
  B  B23  1  0.500000  0.855001  0.687014  1
  B  B24  1  0.500000  0.986766  0.220916  1
  B  B25  1  0.500000  0.013802  0.779268  1
  B  B26  1  0.500000  0.486481  0.279604  1
  B  B27  1  0.500000  0.513256  0.720410  1
  B  B28  1  0.500000  0.640487  0.039232  1
  B  B29  1  0.500000  0.359505  0.960784  1
  B  B30  1  0.500000  0.140115  0.460705  1
  B  B31  1  0.500000  0.859926  0.538851  1
  Mo  Mo32  1  0.000000  0.646816  0.318111  1
  Mo  Mo33  1  0.000000  0.352355  0.683114  1
  Mo  Mo34  1  0.000000  0.146403  0.179372  1
  Mo  Mo35  1  0.000000  0.855272  0.819096  1
