# generated using pymatgen
data_Cs6Sc3IrBr18
_symmetry_space_group_name_H-M   'P 1'
_cell_length_a   7.88529200
_cell_length_b   7.88529220
_cell_length_c   19.72976600
_cell_angle_alpha   90.00000000
_cell_angle_beta   90.00000000
_cell_angle_gamma   119.99999076
_symmetry_Int_Tables_number   1
_chemical_formula_structural   Cs6Sc3IrBr18
_chemical_formula_sum   'Cs6 Sc3 Ir1 Br18'
_cell_volume   1062.40028463
_cell_formula_units_Z   1
loop_
 _symmetry_equiv_pos_site_id
 _symmetry_equiv_pos_as_xyz
  1  'x, y, z'
loop_
 _atom_site_type_symbol
 _atom_site_label
 _atom_site_symmetry_multiplicity
 _atom_site_fract_x
 _atom_site_fract_y
 _atom_site_fract_z
 _atom_site_occupancy
  Cs  Cs0  1  0.333333  0.666667  0.072317  1
  Cs  Cs1  1  0.666667  0.333333  0.930113  1
  Cs  Cs2  1  0.666667  0.333333  0.572886  1
  Cs  Cs3  1  0.333333  0.666667  0.430553  1
  Cs  Cs4  1  0.000000  0.000000  0.250383  1
  Cs  Cs5  1  0.000000  0.000000  0.747287  1
  Sc  Sc6  1  0.666667  0.333333  0.343339  1
  Sc  Sc7  1  0.666667  0.333333  0.157345  1
  Sc  Sc8  1  0.333333  0.666667  0.838363  1
  Ir  Ir9  1  0.333333  0.666667  0.668175  1
  Br  Br10  1  0.183621  0.367241  0.595245  1
  Br  Br11  1  0.828710  0.657419  0.409676  1
  Br  Br12  1  0.632759  0.816379  0.595245  1
  Br  Br13  1  0.828345  0.656691  0.090137  1
  Br  Br14  1  0.342581  0.171290  0.409676  1
  Br  Br15  1  0.172709  0.345418  0.907285  1
  Br  Br16  1  0.183621  0.816379  0.595245  1
  Br  Br17  1  0.343309  0.171655  0.090137  1
  Br  Br18  1  0.828710  0.171290  0.409676  1
  Br  Br19  1  0.654582  0.827291  0.907285  1
  Br  Br20  1  0.828345  0.171655  0.090137  1
  Br  Br21  1  0.172709  0.827291  0.907285  1
  Br  Br22  1  0.513078  0.026157  0.249877  1
  Br  Br23  1  0.484948  0.969895  0.744193  1
  Br  Br24  1  0.973843  0.486922  0.249877  1
  Br  Br25  1  0.030105  0.515052  0.744193  1
  Br  Br26  1  0.513078  0.486922  0.249877  1
  Br  Br27  1  0.484948  0.515052  0.744193  1
