# generated using pymatgen
data_Li6PdRh11Pb6
_symmetry_space_group_name_H-M   'P 1'
_cell_length_a   4.48750300
_cell_length_b   6.35482700
_cell_length_c   13.46475900
_cell_angle_alpha   90.00070056
_cell_angle_beta   89.99994893
_cell_angle_gamma   90.00025390
_symmetry_Int_Tables_number   1
_chemical_formula_structural   Li6PdRh11Pb6
_chemical_formula_sum   'Li6 Pd1 Rh11 Pb6'
_cell_volume   383.97864219
_cell_formula_units_Z   1
loop_
 _symmetry_equiv_pos_site_id
 _symmetry_equiv_pos_as_xyz
  1  'x, y, z'
loop_
 _atom_site_type_symbol
 _atom_site_label
 _atom_site_symmetry_multiplicity
 _atom_site_fract_x
 _atom_site_fract_y
 _atom_site_fract_z
 _atom_site_occupancy
  Li  Li0  1  0.999995  0.499566  0.000578  1
  Li  Li1  1  0.499591  0.999926  0.166903  1
  Li  Li2  1  0.999585  0.500164  0.333293  1
  Li  Li3  1  0.500001  0.999931  0.499795  1
  Li  Li4  1  0.000434  0.499574  0.666140  1
  Li  Li5  1  0.500396  0.001056  0.833292  1
  Pd  Pd6  1  0.000051  0.750522  0.833322  1
  Rh  Rh7  1  0.499994  0.250156  0.999649  1
  Rh  Rh8  1  0.499998  0.750143  0.999377  1
  Rh  Rh9  1  0.999974  0.250814  0.167084  1
  Rh  Rh10  1  0.999964  0.749801  0.166560  1
  Rh  Rh11  1  0.499972  0.249798  0.333320  1
  Rh  Rh12  1  0.499976  0.749947  0.333316  1
  Rh  Rh13  1  0.999996  0.250999  0.499599  1
  Rh  Rh14  1  0.999991  0.749654  0.500127  1
  Rh  Rh15  1  0.500040  0.250323  0.667029  1
  Rh  Rh16  1  0.500044  0.749994  0.667303  1
  Rh  Rh17  1  0.000042  0.248255  0.833328  1
  Pb  Pb18  1  0.999981  0.002299  0.001900  1
  Pb  Pb19  1  0.499956  0.500012  0.166790  1
  Pb  Pb20  1  0.999961  0.999593  0.333376  1
  Pb  Pb21  1  0.499979  0.500007  0.499803  1
  Pb  Pb22  1  0.000032  0.002325  0.664746  1
  Pb  Pb23  1  0.500042  0.495134  0.833375  1
