# generated using pymatgen
data_La16Pr4Si15Te
_symmetry_space_group_name_H-M   'P 1'
_cell_length_a   8.02280682
_cell_length_b   8.02560505
_cell_length_c   15.51083300
_cell_angle_alpha   90.02467281
_cell_angle_beta   89.56916387
_cell_angle_gamma   90.05216402
_symmetry_Int_Tables_number   1
_chemical_formula_structural   La16Pr4Si15Te
_chemical_formula_sum   'La16 Pr4 Si15 Te1'
_cell_volume   998.68089791
_cell_formula_units_Z   1
loop_
 _symmetry_equiv_pos_site_id
 _symmetry_equiv_pos_as_xyz
  1  'x, y, z'
loop_
 _atom_site_type_symbol
 _atom_site_label
 _atom_site_symmetry_multiplicity
 _atom_site_fract_x
 _atom_site_fract_y
 _atom_site_fract_z
 _atom_site_occupancy
  La  La0  1  0.310405  0.310954  0.000276  1
  La  La1  1  0.192219  0.809187  0.249597  1
  La  La2  1  0.795883  0.189993  0.752970  1
  La  La3  1  0.687107  0.687161  0.495268  1
  La  La4  1  0.376826  0.010415  0.445960  1
  La  La5  1  0.493895  0.873316  0.697342  1
  La  La6  1  0.511392  0.122425  0.198803  1
  La  La7  1  0.877479  0.488106  0.300241  1
  La  La8  1  0.121016  0.515629  0.804921  1
  La  La9  1  0.627545  0.986788  0.950582  1
  La  La10  1  0.998159  0.383774  0.544932  1
  La  La11  1  0.990517  0.621313  0.054390  1
  La  La12  1  0.132013  0.986099  0.877992  1
  La  La13  1  0.517493  0.628809  0.127869  1
  La  La14  1  0.490962  0.378575  0.626166  1
  La  La15  1  0.631608  0.520297  0.876560  1
  Pr  Pr16  1  0.369988  0.481624  0.373446  1
  Pr  Pr17  1  0.872945  0.017447  0.376268  1
  Pr  Pr18  1  0.983454  0.127807  0.125960  1
  Pr  Pr19  1  0.006447  0.857183  0.619202  1
  Si  Si20  1  0.330824  0.698366  0.953331  1
  Si  Si21  1  0.662725  0.300753  0.449723  1
  Si  Si22  1  0.702881  0.333749  0.051535  1
  Si  Si23  1  0.300966  0.669562  0.547059  1
  Si  Si24  1  0.803532  0.834274  0.202931  1
  Si  Si25  1  0.166676  0.197286  0.299050  1
  Si  Si26  1  0.839286  0.803326  0.796194  1
  Si  Si27  1  0.288081  0.922694  0.059371  1
  Si  Si28  1  0.578723  0.791517  0.309016  1
  Si  Si29  1  0.444510  0.209101  0.822073  1
  Si  Si30  1  0.792023  0.577493  0.690610  1
  Si  Si31  1  0.210328  0.419889  0.192043  1
  Si  Si32  1  0.705089  0.076828  0.558125  1
  Si  Si33  1  0.924596  0.289286  0.942790  1
  Si  Si34  1  0.078043  0.712639  0.439162  1
  Te  Te35  1  0.184367  0.166337  0.688242  1
