# generated using pymatgen
data_Ta2TcP2Rh
_symmetry_space_group_name_H-M   'P 1'
_cell_length_a   3.74666000
_cell_length_b   6.36185900
_cell_length_c   7.26882700
_cell_angle_alpha   90.00000000
_cell_angle_beta   90.00000000
_cell_angle_gamma   90.00000000
_symmetry_Int_Tables_number   1
_chemical_formula_structural   Ta2TcP2Rh
_chemical_formula_sum   'Ta4 Tc2 P4 Rh2'
_cell_volume   173.25774430
_cell_formula_units_Z   2
loop_
 _symmetry_equiv_pos_site_id
 _symmetry_equiv_pos_as_xyz
  1  'x, y, z'
loop_
 _atom_site_type_symbol
 _atom_site_label
 _atom_site_symmetry_multiplicity
 _atom_site_fract_x
 _atom_site_fract_y
 _atom_site_fract_z
 _atom_site_occupancy
  Ta  Ta0  1  0.250000  0.027925  0.828140  1
  Ta  Ta1  1  0.250000  0.527925  0.671860  1
  Ta  Ta2  1  0.750000  0.975774  0.169791  1
  Ta  Ta3  1  0.750000  0.475774  0.330209  1
  Tc  Tc4  1  0.250000  0.140718  0.443027  1
  Tc  Tc5  1  0.250000  0.640718  0.056973  1
  P  P6  1  0.250000  0.769311  0.367932  1
  P  P7  1  0.250000  0.269311  0.132068  1
  P  P8  1  0.750000  0.238777  0.621372  1
  P  P9  1  0.750000  0.738777  0.878628  1
  Rh  Rh10  1  0.750000  0.847496  0.567308  1
  Rh  Rh11  1  0.750000  0.347496  0.932692  1
