# generated using pymatgen
data_LaErCu9Ni
_symmetry_space_group_name_H-M   'P 1'
_cell_length_a   4.07818700
_cell_length_b   5.04261700
_cell_length_c   8.78225100
_cell_angle_alpha   90.00000000
_cell_angle_beta   90.00000000
_cell_angle_gamma   90.00000000
_symmetry_Int_Tables_number   1
_chemical_formula_structural   LaErCu9Ni
_chemical_formula_sum   'La1 Er1 Cu9 Ni1'
_cell_volume   180.60466536
_cell_formula_units_Z   1
loop_
 _symmetry_equiv_pos_site_id
 _symmetry_equiv_pos_as_xyz
  1  'x, y, z'
loop_
 _atom_site_type_symbol
 _atom_site_label
 _atom_site_symmetry_multiplicity
 _atom_site_fract_x
 _atom_site_fract_y
 _atom_site_fract_z
 _atom_site_occupancy
  La  La0  1  0.000000  0.000000  0.005459  1
  Er  Er1  1  0.000000  0.500000  0.494850  1
  Cu  Cu2  1  0.000000  0.000000  0.338227  1
  Cu  Cu3  1  0.000000  0.500000  0.828733  1
  Cu  Cu4  1  0.000000  0.000000  0.663020  1
  Cu  Cu5  1  0.500000  0.500000  0.000983  1
  Cu  Cu6  1  0.500000  0.000000  0.500086  1
  Cu  Cu7  1  0.500000  0.255259  0.254268  1
  Cu  Cu8  1  0.500000  0.746793  0.745660  1
  Cu  Cu9  1  0.500000  0.744741  0.254268  1
  Cu  Cu10  1  0.500000  0.253207  0.745660  1
  Ni  Ni11  1  0.000000  0.500000  0.168788  1
