# generated using pymatgen
data_Y2NiIr2Rh
_symmetry_space_group_name_H-M   'P 1'
_cell_length_a   5.19023047
_cell_length_b   5.18950650
_cell_length_c   5.18950700
_cell_angle_alpha   62.41434851
_cell_angle_beta   62.61404895
_cell_angle_gamma   62.61402447
_symmetry_Int_Tables_number   1
_chemical_formula_structural   Y2NiIr2Rh
_chemical_formula_sum   'Y2 Ni1 Ir2 Rh1'
_cell_volume   104.44632852
_cell_formula_units_Z   1
loop_
 _symmetry_equiv_pos_site_id
 _symmetry_equiv_pos_as_xyz
  1  'x, y, z'
loop_
 _atom_site_type_symbol
 _atom_site_label
 _atom_site_symmetry_multiplicity
 _atom_site_fract_x
 _atom_site_fract_y
 _atom_site_fract_z
 _atom_site_occupancy
  Y  Y0  1  0.127625  0.125346  0.125346  1
  Y  Y1  1  0.872375  0.874654  0.874654  1
  Ni  Ni2  1  0.500000  0.500000  0.500000  1
  Ir  Ir3  1  0.500000  0.000000  0.500000  1
  Ir  Ir4  1  0.500000  0.500000  0.000000  1
  Rh  Rh5  1  0.000000  0.500000  0.500000  1
