# generated using pymatgen
data_HoCu2(PPd)2
_symmetry_space_group_name_H-M   'P 1'
_cell_length_a   7.54661700
_cell_length_b   7.33323300
_cell_length_c   3.83192400
_cell_angle_alpha   90.00000000
_cell_angle_beta   90.00000000
_cell_angle_gamma   90.00000000
_symmetry_Int_Tables_number   1
_chemical_formula_structural   HoCu2(PPd)2
_chemical_formula_sum   'Ho2 Cu4 P4 Pd4'
_cell_volume   212.06289243
_cell_formula_units_Z   2
loop_
 _symmetry_equiv_pos_site_id
 _symmetry_equiv_pos_as_xyz
  1  'x, y, z'
loop_
 _atom_site_type_symbol
 _atom_site_label
 _atom_site_symmetry_multiplicity
 _atom_site_fract_x
 _atom_site_fract_y
 _atom_site_fract_z
 _atom_site_occupancy
  Ho  Ho0  1  0.500000  0.500000  0.000000  1
  Ho  Ho1  1  0.000000  0.000000  0.500000  1
  Cu  Cu2  1  0.160451  0.580663  0.500000  1
  Cu  Cu3  1  0.839549  0.419337  0.500000  1
  Cu  Cu4  1  0.339549  0.080663  0.000000  1
  Cu  Cu5  1  0.660451  0.919337  0.000000  1
  P  P6  1  0.714588  0.721616  0.500000  1
  P  P7  1  0.285412  0.278384  0.500000  1
  P  P8  1  0.214588  0.778384  0.000000  1
  P  P9  1  0.785412  0.221616  0.000000  1
  Pd  Pd10  1  0.587941  0.173426  0.500000  1
  Pd  Pd11  1  0.412059  0.826574  0.500000  1
  Pd  Pd12  1  0.087941  0.326574  0.000000  1
  Pd  Pd13  1  0.912059  0.673426  0.000000  1
