# generated using pymatgen
data_Cs3RbPbCl6
_symmetry_space_group_name_H-M   'P 1'
_cell_length_a   9.45051439
_cell_length_b   9.45051561
_cell_length_c   9.45051500
_cell_angle_alpha   90.53526668
_cell_angle_beta   90.53526068
_cell_angle_gamma   90.53527480
_symmetry_Int_Tables_number   1
_chemical_formula_structural   Cs3RbPbCl6
_chemical_formula_sum   'Cs6 Rb2 Pb2 Cl12'
_cell_volume   843.93541440
_cell_formula_units_Z   2
loop_
 _symmetry_equiv_pos_site_id
 _symmetry_equiv_pos_as_xyz
  1  'x, y, z'
loop_
 _atom_site_type_symbol
 _atom_site_label
 _atom_site_symmetry_multiplicity
 _atom_site_fract_x
 _atom_site_fract_y
 _atom_site_fract_z
 _atom_site_occupancy
  Cs  Cs0  1  0.750000  0.127052  0.372948  1
  Cs  Cs1  1  0.372948  0.750000  0.127052  1
  Cs  Cs2  1  0.127052  0.372948  0.750000  1
  Cs  Cs3  1  0.250000  0.872948  0.627052  1
  Cs  Cs4  1  0.627052  0.250000  0.872948  1
  Cs  Cs5  1  0.872948  0.627052  0.250000  1
  Rb  Rb6  1  0.250000  0.250000  0.250000  1
  Rb  Rb7  1  0.750000  0.750000  0.750000  1
  Pb  Pb8  1  0.000000  0.000000  0.000000  1
  Pb  Pb9  1  0.500000  0.500000  0.500000  1
  Cl  Cl10  1  0.447437  0.576586  0.793523  1
  Cl  Cl11  1  0.793523  0.447437  0.576586  1
  Cl  Cl12  1  0.576586  0.793523  0.447437  1
  Cl  Cl13  1  0.052563  0.706477  0.923414  1
  Cl  Cl14  1  0.923414  0.052563  0.706477  1
  Cl  Cl15  1  0.706477  0.923414  0.052563  1
  Cl  Cl16  1  0.552563  0.423414  0.206477  1
  Cl  Cl17  1  0.206477  0.552563  0.423414  1
  Cl  Cl18  1  0.423414  0.206477  0.552563  1
  Cl  Cl19  1  0.947437  0.293523  0.076586  1
  Cl  Cl20  1  0.293523  0.076586  0.947437  1
  Cl  Cl21  1  0.076586  0.947437  0.293523  1
