# generated using pymatgen
data_Ho2LuAl3Zn2Ag
_symmetry_space_group_name_H-M   'P 1'
_cell_length_a   6.91154385
_cell_length_b   6.94234889
_cell_length_c   4.37747600
_cell_angle_alpha   90.00000000
_cell_angle_beta   90.00000000
_cell_angle_gamma   120.14754911
_symmetry_Int_Tables_number   1
_chemical_formula_structural   Ho2LuAl3Zn2Ag
_chemical_formula_sum   'Ho2 Lu1 Al3 Zn2 Ag1'
_cell_volume   181.63029007
_cell_formula_units_Z   1
loop_
 _symmetry_equiv_pos_site_id
 _symmetry_equiv_pos_as_xyz
  1  'x, y, z'
loop_
 _atom_site_type_symbol
 _atom_site_label
 _atom_site_symmetry_multiplicity
 _atom_site_fract_x
 _atom_site_fract_y
 _atom_site_fract_z
 _atom_site_occupancy
  Ho  Ho0  1  0.424594  0.426534  0.500000  1
  Ho  Ho1  1  0.575406  0.001941  0.500000  1
  Lu  Lu2  1  0.000000  0.574632  0.500000  1
  Al  Al3  1  0.758138  0.757981  0.000000  1
  Al  Al4  1  0.241862  0.999843  0.000000  1
  Al  Al5  1  0.000000  0.241872  0.000000  1
  Zn  Zn6  1  0.669249  0.335830  0.000000  1
  Zn  Zn7  1  0.330751  0.666581  0.000000  1
  Ag  Ag8  1  0.000000  0.994787  0.500000  1
