# generated using pymatgen
data_CaYbGa9CoPd2
_symmetry_space_group_name_H-M   'P 1'
_cell_length_a   7.58313761
_cell_length_b   7.58313651
_cell_length_c   9.56850400
_cell_angle_alpha   90.00000000
_cell_angle_beta   90.00000000
_cell_angle_gamma   119.17355600
_symmetry_Int_Tables_number   1
_chemical_formula_structural   CaYbGa9CoPd2
_chemical_formula_sum   'Ca2 Yb2 Ga18 Co2 Pd4'
_cell_volume   480.42908750
_cell_formula_units_Z   2
loop_
 _symmetry_equiv_pos_site_id
 _symmetry_equiv_pos_as_xyz
  1  'x, y, z'
loop_
 _atom_site_type_symbol
 _atom_site_label
 _atom_site_symmetry_multiplicity
 _atom_site_fract_x
 _atom_site_fract_y
 _atom_site_fract_z
 _atom_site_occupancy
  Ca  Ca0  1  0.314714  0.989267  0.250000  1
  Ca  Ca1  1  0.010733  0.685286  0.750000  1
  Yb  Yb2  1  0.669071  0.987754  0.750000  1
  Yb  Yb3  1  0.012246  0.330929  0.250000  1
  Ga  Ga4  1  0.350375  0.016859  0.921795  1
  Ga  Ga5  1  0.983141  0.649625  0.078205  1
  Ga  Ga6  1  0.350375  0.016859  0.578205  1
  Ga  Ga7  1  0.983141  0.649625  0.421795  1
  Ga  Ga8  1  0.665399  0.016749  0.077493  1
  Ga  Ga9  1  0.983251  0.334601  0.922507  1
  Ga  Ga10  1  0.665399  0.016749  0.422507  1
  Ga  Ga11  1  0.983251  0.334601  0.577493  1
  Ga  Ga12  1  0.666058  0.657705  0.939084  1
  Ga  Ga13  1  0.342295  0.333942  0.060916  1
  Ga  Ga14  1  0.666058  0.657705  0.560916  1
  Ga  Ga15  1  0.342295  0.333942  0.439084  1
  Ga  Ga16  1  0.132770  0.139060  0.750000  1
  Ga  Ga17  1  0.860940  0.867230  0.250000  1
  Ga  Ga18  1  0.460587  0.661334  0.250000  1
  Ga  Ga19  1  0.338666  0.539413  0.750000  1
  Ga  Ga20  1  0.571122  0.338709  0.750000  1
  Ga  Ga21  1  0.661291  0.428878  0.250000  1
  Co  Co22  1  0.667612  0.332388  0.000000  1
  Co  Co23  1  0.667612  0.332388  0.500000  1
  Pd  Pd24  1  0.998182  0.001818  0.000000  1
  Pd  Pd25  1  0.998182  0.001818  0.500000  1
  Pd  Pd26  1  0.327618  0.672382  0.000000  1
  Pd  Pd27  1  0.327618  0.672382  0.500000  1
