# generated using pymatgen
data_Zr4Ru10Au2C3
_symmetry_space_group_name_H-M   'P 1'
_cell_length_a   4.11652500
_cell_length_b   4.11652500
_cell_length_c   16.35459800
_cell_angle_alpha   90.00000000
_cell_angle_beta   90.00000000
_cell_angle_gamma   90.00000000
_symmetry_Int_Tables_number   1
_chemical_formula_structural   Zr4Ru10Au2C3
_chemical_formula_sum   'Zr4 Ru10 Au2 C3'
_cell_volume   277.14138822
_cell_formula_units_Z   1
loop_
 _symmetry_equiv_pos_site_id
 _symmetry_equiv_pos_as_xyz
  1  'x, y, z'
loop_
 _atom_site_type_symbol
 _atom_site_label
 _atom_site_symmetry_multiplicity
 _atom_site_fract_x
 _atom_site_fract_y
 _atom_site_fract_z
 _atom_site_occupancy
  Zr  Zr0  1  0.000000  0.000000  0.868979  1
  Zr  Zr1  1  0.000000  0.000000  0.131021  1
  Zr  Zr2  1  0.000000  0.000000  0.375749  1
  Zr  Zr3  1  0.000000  0.000000  0.624251  1
  Ru  Ru4  1  0.500000  0.500000  0.874948  1
  Ru  Ru5  1  0.500000  0.500000  0.125052  1
  Ru  Ru6  1  0.500000  0.500000  0.374938  1
  Ru  Ru7  1  0.500000  0.500000  0.625062  1
  Ru  Ru8  1  0.500000  0.000000  0.250820  1
  Ru  Ru9  1  0.500000  0.000000  0.500000  1
  Ru  Ru10  1  0.500000  0.000000  0.749180  1
  Ru  Ru11  1  0.000000  0.500000  0.250820  1
  Ru  Ru12  1  0.000000  0.500000  0.500000  1
  Ru  Ru13  1  0.000000  0.500000  0.749180  1
  Au  Au14  1  0.500000  0.000000  0.000000  1
  Au  Au15  1  0.000000  0.500000  0.000000  1
  C  C16  1  0.500000  0.500000  0.245622  1
  C  C17  1  0.500000  0.500000  0.500000  1
  C  C18  1  0.500000  0.500000  0.754378  1
