# generated using pymatgen
data_PuPaF10
_symmetry_space_group_name_H-M   'P 1'
_cell_length_a   5.90656142
_cell_length_b   5.94135487
_cell_length_c   8.62166569
_cell_angle_alpha   98.55234728
_cell_angle_beta   107.08279157
_cell_angle_gamma   111.45205210
_symmetry_Int_Tables_number   1
_chemical_formula_structural   PuPaF10
_chemical_formula_sum   'Pu1 Pa1 F10'
_cell_volume   257.77811336
_cell_formula_units_Z   1
loop_
 _symmetry_equiv_pos_site_id
 _symmetry_equiv_pos_as_xyz
  1  'x, y, z'
loop_
 _atom_site_type_symbol
 _atom_site_label
 _atom_site_symmetry_multiplicity
 _atom_site_fract_x
 _atom_site_fract_y
 _atom_site_fract_z
 _atom_site_occupancy
  Pu  Pu0  1  0.499109  0.000482  0.498508  1
  Pa  Pa1  1  0.995901  0.000015  0.999323  1
  F  F2  1  0.320986  0.066736  0.248993  1
  F  F3  1  0.673702  0.933564  0.748332  1
  F  F4  1  0.586249  0.744550  0.380240  1
  F  F5  1  0.867485  0.218602  0.125683  1
  F  F6  1  0.764623  0.691789  0.050491  1
  F  F7  1  0.143664  0.730057  0.451011  1
  F  F8  1  0.226499  0.308383  0.947903  1
  F  F9  1  0.854919  0.270630  0.545996  1
  F  F10  1  0.122828  0.780401  0.872475  1
  F  F11  1  0.412281  0.256439  0.616925  1
