# generated using pymatgen
data_LiIn2(P3Pd10)2
_symmetry_space_group_name_H-M   'P 1'
_cell_length_a   8.59199667
_cell_length_b   8.59199714
_cell_length_c   8.59199700
_cell_angle_alpha   59.99999669
_cell_angle_beta   59.99999487
_cell_angle_gamma   59.99999617
_symmetry_Int_Tables_number   1
_chemical_formula_structural   LiIn2(P3Pd10)2
_chemical_formula_sum   'Li1 In2 P6 Pd20'
_cell_volume   448.50501383
_cell_formula_units_Z   1
loop_
 _symmetry_equiv_pos_site_id
 _symmetry_equiv_pos_as_xyz
  1  'x, y, z'
loop_
 _atom_site_type_symbol
 _atom_site_label
 _atom_site_symmetry_multiplicity
 _atom_site_fract_x
 _atom_site_fract_y
 _atom_site_fract_z
 _atom_site_occupancy
  Li  Li0  1  0.000000  0.000000  0.000000  1
  In  In1  1  0.250000  0.250000  0.250000  1
  In  In2  1  0.750000  0.750000  0.750000  1
  P  P3  1  0.735918  0.264082  0.264082  1
  P  P4  1  0.264082  0.735918  0.735918  1
  P  P5  1  0.264082  0.735918  0.264082  1
  P  P6  1  0.735918  0.264082  0.735918  1
  P  P7  1  0.264082  0.264082  0.735918  1
  P  P8  1  0.735918  0.735918  0.264082  1
  Pd  Pd9  1  0.382316  0.382316  0.382316  1
  Pd  Pd10  1  0.617684  0.617684  0.617684  1
  Pd  Pd11  1  0.382316  0.382316  0.853052  1
  Pd  Pd12  1  0.382316  0.853052  0.382316  1
  Pd  Pd13  1  0.617684  0.617684  0.146948  1
  Pd  Pd14  1  0.617684  0.146948  0.617684  1
  Pd  Pd15  1  0.853052  0.382316  0.382316  1
  Pd  Pd16  1  0.146948  0.617684  0.617684  1
  Pd  Pd17  1  0.342776  0.000000  0.000000  1
  Pd  Pd18  1  0.657224  0.000000  0.000000  1
  Pd  Pd19  1  0.000000  0.342776  0.657224  1
  Pd  Pd20  1  0.000000  0.657224  0.342776  1
  Pd  Pd21  1  0.000000  0.342776  0.000000  1
  Pd  Pd22  1  0.657224  0.000000  0.342776  1
  Pd  Pd23  1  0.000000  0.657224  0.000000  1
  Pd  Pd24  1  0.342776  0.000000  0.657224  1
  Pd  Pd25  1  0.000000  0.000000  0.342776  1
  Pd  Pd26  1  0.000000  0.000000  0.657224  1
  Pd  Pd27  1  0.657224  0.342776  0.000000  1
  Pd  Pd28  1  0.342776  0.657224  0.000000  1
