# generated using pymatgen
data_YHo4Er(BO3)6
_symmetry_space_group_name_H-M   'P 1'
_cell_length_a   6.55617069
_cell_length_b   6.56195706
_cell_length_c   9.60480708
_cell_angle_alpha   70.39749237
_cell_angle_beta   70.40031589
_cell_angle_gamma   60.04749747
_symmetry_Int_Tables_number   1
_chemical_formula_structural   YHo4Er(BO3)6
_chemical_formula_sum   'Y1 Ho4 Er1 B6 O18'
_cell_volume   330.05635803
_cell_formula_units_Z   1
loop_
 _symmetry_equiv_pos_site_id
 _symmetry_equiv_pos_as_xyz
  1  'x, y, z'
loop_
 _atom_site_type_symbol
 _atom_site_label
 _atom_site_symmetry_multiplicity
 _atom_site_fract_x
 _atom_site_fract_y
 _atom_site_fract_z
 _atom_site_occupancy
  Y  Y0  1  0.000068  0.499960  0.500000  1
  Ho  Ho1  1  0.500022  0.000011  0.999971  1
  Ho  Ho2  1  0.170714  0.657735  0.999311  1
  Ho  Ho3  1  0.342421  0.829218  0.500633  1
  Ho  Ho4  1  0.829275  0.342236  0.000720  1
  Er  Er5  1  0.657693  0.170747  0.499381  1
  B  B6  1  0.917566  0.842776  0.746680  1
  B  B7  1  0.158339  0.081863  0.753332  1
  B  B8  1  0.081861  0.157506  0.253317  1
  B  B9  1  0.841939  0.918408  0.246743  1
  B  B10  1  0.675652  0.323801  0.749958  1
  B  B11  1  0.324686  0.675628  0.249980  1
  O  O12  1  0.965598  0.784069  0.602126  1
  O  O13  1  0.217939  0.033779  0.897559  1
  O  O14  1  0.033047  0.216598  0.397863  1
  O  O15  1  0.782175  0.966236  0.102562  1
  O  O16  1  0.870052  0.684734  0.888586  1
  O  O17  1  0.317084  0.129095  0.611397  1
  O  O18  1  0.129792  0.315363  0.111415  1
  O  O19  1  0.683621  0.871529  0.388840  1
  O  O20  1  0.517699  0.385361  0.892173  1
  O  O21  1  0.613608  0.481733  0.607708  1
  O  O22  1  0.482457  0.614465  0.107707  1
  O  O23  1  0.387302  0.516816  0.392038  1
  O  O24  1  0.916622  0.299803  0.752530  1
  O  O25  1  0.699191  0.083679  0.747528  1
  O  O26  1  0.083551  0.700120  0.247482  1
  O  O27  1  0.300519  0.916334  0.252172  1
  O  O28  1  0.135651  0.864808  0.749802  1
  O  O29  1  0.863852  0.135591  0.250485  1
