# generated using pymatgen
data_Nb6Ga4FeRhC2
_symmetry_space_group_name_H-M   'P 1'
_cell_length_a   8.28162067
_cell_length_b   8.28345958
_cell_length_c   8.29014588
_cell_angle_alpha   60.02630124
_cell_angle_beta   60.05662330
_cell_angle_gamma   59.99250006
_symmetry_Int_Tables_number   1
_chemical_formula_structural   Nb6Ga4FeRhC2
_chemical_formula_sum   'Nb12 Ga8 Fe2 Rh2 C4'
_cell_volume   402.36615383
_cell_formula_units_Z   2
loop_
 _symmetry_equiv_pos_site_id
 _symmetry_equiv_pos_as_xyz
  1  'x, y, z'
loop_
 _atom_site_type_symbol
 _atom_site_label
 _atom_site_symmetry_multiplicity
 _atom_site_fract_x
 _atom_site_fract_y
 _atom_site_fract_z
 _atom_site_occupancy
  Nb  Nb0  1  0.808470  0.807831  0.187646  1
  Nb  Nb1  1  0.187724  0.196208  0.808359  1
  Nb  Nb2  1  0.811949  0.188070  0.811907  1
  Nb  Nb3  1  0.195501  0.804454  0.195593  1
  Nb  Nb4  1  0.187721  0.807712  0.808358  1
  Nb  Nb5  1  0.808470  0.196053  0.187648  1
  Nb  Nb6  1  0.441530  0.442169  0.062354  1
  Nb  Nb7  1  0.062276  0.053792  0.441641  1
  Nb  Nb8  1  0.438051  0.061930  0.438093  1
  Nb  Nb9  1  0.054499  0.445546  0.054407  1
  Nb  Nb10  1  0.062279  0.442288  0.441642  1
  Nb  Nb11  1  0.441530  0.053947  0.062352  1
  Ga  Ga12  1  0.757446  0.416437  0.409680  1
  Ga  Ga13  1  0.414061  0.751328  0.414210  1
  Ga  Ga14  1  0.409740  0.416633  0.756994  1
  Ga  Ga15  1  0.414060  0.420401  0.414208  1
  Ga  Ga16  1  0.492554  0.833563  0.840320  1
  Ga  Ga17  1  0.835939  0.498672  0.835790  1
  Ga  Ga18  1  0.840260  0.833367  0.493006  1
  Ga  Ga19  1  0.835940  0.829599  0.835792  1
  Fe  Fe20  1  0.125000  0.625000  0.625000  1
  Fe  Fe21  1  0.625000  0.625000  0.125000  1
  Rh  Rh22  1  0.625000  0.125000  0.625000  1
  Rh  Rh23  1  0.625000  0.625000  0.625000  1
  C  C24  1  0.625000  0.125000  0.125000  1
  C  C25  1  0.125000  0.625000  0.125000  1
  C  C26  1  0.125000  0.125000  0.625000  1
  C  C27  1  0.125000  0.125000  0.125000  1
