# generated using pymatgen
data_CeHo2Th(Al3Rh)6
_symmetry_space_group_name_H-M   'P 1'
_cell_length_a   7.57995700
_cell_length_b   7.59337918
_cell_length_c   9.48571100
_cell_angle_alpha   90.00000000
_cell_angle_beta   90.00000000
_cell_angle_gamma   119.37319509
_symmetry_Int_Tables_number   1
_chemical_formula_structural   CeHo2Th(Al3Rh)6
_chemical_formula_sum   'Ce1 Ho2 Th1 Al18 Rh6'
_cell_volume   475.78515990
_cell_formula_units_Z   1
loop_
 _symmetry_equiv_pos_site_id
 _symmetry_equiv_pos_as_xyz
  1  'x, y, z'
loop_
 _atom_site_type_symbol
 _atom_site_label
 _atom_site_symmetry_multiplicity
 _atom_site_fract_x
 _atom_site_fract_y
 _atom_site_fract_z
 _atom_site_occupancy
  Ce  Ce0  1  0.671934  0.994664  0.250000  1
  Ho  Ho1  1  0.004800  0.327776  0.750000  1
  Ho  Ho2  1  0.327909  0.005960  0.750000  1
  Th  Th3  1  0.994810  0.671555  0.250000  1
  Al  Al4  1  0.133148  0.134146  0.250000  1
  Al  Al5  1  0.873464  0.874849  0.750000  1
  Al  Al6  1  0.002726  0.332928  0.071017  1
  Al  Al7  1  0.999849  0.664164  0.917190  1
  Al  Al8  1  0.999849  0.664164  0.582810  1
  Al  Al9  1  0.338501  0.005058  0.428985  1
  Al  Al10  1  0.002726  0.332928  0.428983  1
  Al  Al11  1  0.664256  0.000603  0.579068  1
  Al  Al12  1  0.664256  0.000603  0.920932  1
  Al  Al13  1  0.338501  0.005058  0.071015  1
  Al  Al14  1  0.332146  0.332149  0.555959  1
  Al  Al15  1  0.663221  0.665037  0.457326  1
  Al  Al16  1  0.663221  0.665037  0.042674  1
  Al  Al17  1  0.332146  0.332149  0.944041  1
  Al  Al18  1  0.342351  0.546763  0.250000  1
  Al  Al19  1  0.657800  0.447544  0.750000  1
  Al  Al20  1  0.544758  0.338197  0.250000  1
  Al  Al21  1  0.447094  0.659797  0.750000  1
  Rh  Rh22  1  0.672956  0.328994  0.999917  1
  Rh  Rh23  1  0.326735  0.671508  0.000028  1
  Rh  Rh24  1  0.326735  0.671508  0.499972  1
  Rh  Rh25  1  0.672956  0.328994  0.500083  1
  Rh  Rh26  1  0.000576  0.998933  0.000235  1
  Rh  Rh27  1  0.000576  0.998933  0.499765  1
