# generated using pymatgen
data_BaAl6IrAu3
_symmetry_space_group_name_H-M   'P 1'
_cell_length_a   7.66748900
_cell_length_b   7.66748903
_cell_length_c   4.09949300
_cell_angle_alpha   90.00000000
_cell_angle_beta   90.00000000
_cell_angle_gamma   120.00000420
_symmetry_Int_Tables_number   1
_chemical_formula_structural   BaAl6IrAu3
_chemical_formula_sum   'Ba1 Al6 Ir1 Au3'
_cell_volume   208.72145196
_cell_formula_units_Z   1
loop_
 _symmetry_equiv_pos_site_id
 _symmetry_equiv_pos_as_xyz
  1  'x, y, z'
loop_
 _atom_site_type_symbol
 _atom_site_label
 _atom_site_symmetry_multiplicity
 _atom_site_fract_x
 _atom_site_fract_y
 _atom_site_fract_z
 _atom_site_occupancy
  Ba  Ba0  1  0.000000  0.000000  0.000000  1
  Al  Al1  1  0.522851  0.477149  0.000000  1
  Al  Al2  1  0.209948  0.790052  0.500000  1
  Al  Al3  1  0.522851  0.045702  0.000000  1
  Al  Al4  1  0.209948  0.419895  0.500000  1
  Al  Al5  1  0.954298  0.477149  0.000000  1
  Al  Al6  1  0.580105  0.790052  0.500000  1
  Ir  Ir7  1  0.333333  0.666667  0.000000  1
  Au  Au8  1  0.797267  0.202733  0.500000  1
  Au  Au9  1  0.797267  0.594534  0.500000  1
  Au  Au10  1  0.405466  0.202733  0.500000  1
