# generated using pymatgen
data_Sr2LuTh(AsPt)4
_symmetry_space_group_name_H-M   'P 1'
_cell_length_a   4.33666100
_cell_length_b   4.33666160
_cell_length_c   16.63284500
_cell_angle_alpha   90.00000000
_cell_angle_beta   90.00000000
_cell_angle_gamma   120.00000304
_symmetry_Int_Tables_number   1
_chemical_formula_structural   Sr2LuTh(AsPt)4
_chemical_formula_sum   'Sr2 Lu1 Th1 As4 Pt4'
_cell_volume   270.89947775
_cell_formula_units_Z   1
loop_
 _symmetry_equiv_pos_site_id
 _symmetry_equiv_pos_as_xyz
  1  'x, y, z'
loop_
 _atom_site_type_symbol
 _atom_site_label
 _atom_site_symmetry_multiplicity
 _atom_site_fract_x
 _atom_site_fract_y
 _atom_site_fract_z
 _atom_site_occupancy
  Sr  Sr0  1  0.000000  0.000000  0.505269  1
  Sr  Sr1  1  0.000000  0.000000  0.994731  1
  Lu  Lu2  1  0.000000  0.000000  0.750000  1
  Th  Th3  1  0.000000  0.000000  0.250000  1
  As  As4  1  0.333333  0.666667  0.871302  1
  As  As5  1  0.666667  0.333333  0.123866  1
  As  As6  1  0.666667  0.333333  0.376134  1
  As  As7  1  0.333333  0.666667  0.628698  1
  Pt  Pt8  1  0.333333  0.666667  0.359794  1
  Pt  Pt9  1  0.666667  0.333333  0.650839  1
  Pt  Pt10  1  0.666667  0.333333  0.849161  1
  Pt  Pt11  1  0.333333  0.666667  0.140206  1
