# generated using pymatgen
data_Ho3Er5Ti3Si16W9
_symmetry_space_group_name_H-M   'P 1'
_cell_length_a   6.88387580
_cell_length_b   6.88382890
_cell_length_c   12.76932606
_cell_angle_alpha   89.96584058
_cell_angle_beta   90.02123348
_cell_angle_gamma   89.85876178
_symmetry_Int_Tables_number   1
_chemical_formula_structural   Ho3Er5Ti3Si16W9
_chemical_formula_sum   'Ho3 Er5 Ti3 Si16 W9'
_cell_volume   605.10347002
_cell_formula_units_Z   1
loop_
 _symmetry_equiv_pos_site_id
 _symmetry_equiv_pos_as_xyz
  1  'x, y, z'
loop_
 _atom_site_type_symbol
 _atom_site_label
 _atom_site_symmetry_multiplicity
 _atom_site_fract_x
 _atom_site_fract_y
 _atom_site_fract_z
 _atom_site_occupancy
  Ho  Ho0  1  0.338544  0.001298  0.468787  1
  Ho  Ho1  1  0.497709  0.837295  0.719304  1
  Ho  Ho2  1  0.498766  0.162666  0.217574  1
  Er  Er3  1  0.837228  0.497940  0.280573  1
  Er  Er4  1  0.162538  0.498447  0.782433  1
  Er  Er5  1  0.660726  0.000125  0.969069  1
  Er  Er6  1  0.000997  0.338584  0.531178  1
  Er  Er7  1  0.999993  0.660826  0.030809  1
  Ti  Ti8  1  0.169567  0.832240  0.248449  1
  Ti  Ti9  1  0.832431  0.169686  0.751643  1
  Ti  Ti10  1  0.668295  0.668186  0.499998  1
  Si  Si11  1  0.200806  0.129480  0.682775  1
  Si  Si12  1  0.373412  0.699043  0.932844  1
  Si  Si13  1  0.629049  0.298651  0.433003  1
  Si  Si14  1  0.699404  0.373598  0.067028  1
  Si  Si15  1  0.297939  0.628097  0.567072  1
  Si  Si16  1  0.796409  0.871760  0.183248  1
  Si  Si17  1  0.128400  0.201440  0.317323  1
  Si  Si18  1  0.872327  0.796143  0.816817  1
  Si  Si19  1  0.289935  0.963811  0.062161  1
  Si  Si20  1  0.538840  0.792294  0.313814  1
  Si  Si21  1  0.460389  0.208480  0.814332  1
  Si  Si22  1  0.793236  0.538512  0.686115  1
  Si  Si23  1  0.207799  0.460664  0.185699  1
  Si  Si24  1  0.709069  0.040137  0.564004  1
  Si  Si25  1  0.964010  0.290161  0.937754  1
  Si  Si26  1  0.039528  0.708214  0.436021  1
  W  W27  1  0.332191  0.332385  0.999857  1
  W  W28  1  0.158303  0.002251  0.873341  1
  W  W29  1  0.494954  0.665605  0.124739  1
  W  W30  1  0.505574  0.339999  0.624889  1
  W  W31  1  0.666084  0.494869  0.875210  1
  W  W32  1  0.339604  0.505242  0.375289  1
  W  W33  1  0.839437  0.994159  0.374149  1
  W  W34  1  0.002148  0.158363  0.126700  1
  W  W35  1  0.994357  0.839353  0.626000  1
