# generated using pymatgen
data_Ho12Fe4CuSn
_symmetry_space_group_name_H-M   'P 1'
_cell_length_a   8.29810038
_cell_length_b   8.29809996
_cell_length_c   8.29810032
_cell_angle_alpha   106.64755829
_cell_angle_beta   110.92594250
_cell_angle_gamma   110.87653248
_symmetry_Int_Tables_number   1
_chemical_formula_structural   Ho12Fe4CuSn
_chemical_formula_sum   'Ho12 Fe4 Cu1 Sn1'
_cell_volume   439.06334193
_cell_formula_units_Z   1
loop_
 _symmetry_equiv_pos_site_id
 _symmetry_equiv_pos_as_xyz
  1  'x, y, z'
loop_
 _atom_site_type_symbol
 _atom_site_label
 _atom_site_symmetry_multiplicity
 _atom_site_fract_x
 _atom_site_fract_y
 _atom_site_fract_z
 _atom_site_occupancy
  Ho  Ho0  1  0.477808  0.290104  0.187704  1
  Ho  Ho1  1  0.102400  0.290104  0.812296  1
  Ho  Ho2  1  0.897600  0.709896  0.187704  1
  Ho  Ho3  1  0.522192  0.709896  0.812296  1
  Ho  Ho4  1  0.301625  0.613350  0.311726  1
  Ho  Ho5  1  0.301625  0.989899  0.688274  1
  Ho  Ho6  1  0.698375  0.386650  0.688274  1
  Ho  Ho7  1  0.698375  0.010101  0.311726  1
  Ho  Ho8  1  0.201777  0.216198  0.417974  1
  Ho  Ho9  1  0.798223  0.783802  0.582026  1
  Ho  Ho10  1  0.201777  0.783802  0.985577  1
  Ho  Ho11  1  0.798223  0.216198  0.014423  1
  Fe  Fe12  1  0.500000  0.608044  0.108044  1
  Fe  Fe13  1  0.500000  0.391956  0.891956  1
  Fe  Fe14  1  0.384734  0.000000  0.384734  1
  Fe  Fe15  1  0.615266  0.000000  0.615266  1
  Cu  Cu16  1  0.000000  0.000000  0.000000  1
  Sn  Sn17  1  0.000000  0.500000  0.500000  1
