# generated using pymatgen
data_Dy16TlIn2HgRh4
_symmetry_space_group_name_H-M   'P 1'
_cell_length_a   9.65123331
_cell_length_b   9.64903480
_cell_length_c   9.65954426
_cell_angle_alpha   60.03597669
_cell_angle_beta   60.12043553
_cell_angle_gamma   60.00753778
_symmetry_Int_Tables_number   1
_chemical_formula_structural   Dy16TlIn2HgRh4
_chemical_formula_sum   'Dy16 Tl1 In2 Hg1 Rh4'
_cell_volume   636.86152104
_cell_formula_units_Z   1
loop_
 _symmetry_equiv_pos_site_id
 _symmetry_equiv_pos_as_xyz
  1  'x, y, z'
loop_
 _atom_site_type_symbol
 _atom_site_label
 _atom_site_symmetry_multiplicity
 _atom_site_fract_x
 _atom_site_fract_y
 _atom_site_fract_z
 _atom_site_occupancy
  Dy  Dy0  1  0.689256  0.310593  0.311680  1
  Dy  Dy1  1  0.689256  0.688470  0.311680  1
  Dy  Dy2  1  0.311528  0.688519  0.311432  1
  Dy  Dy3  1  0.937319  0.937636  0.559446  1
  Dy  Dy4  1  0.148101  0.150967  0.549965  1
  Dy  Dy5  1  0.563990  0.939319  0.557371  1
  Dy  Dy6  1  0.149753  0.152751  0.149765  1
  Dy  Dy7  1  0.311038  0.310085  0.689894  1
  Dy  Dy8  1  0.937319  0.565599  0.559446  1
  Dy  Dy9  1  0.563275  0.562529  0.936039  1
  Dy  Dy10  1  0.563275  0.938159  0.936039  1
  Dy  Dy11  1  0.936846  0.564345  0.934465  1
  Dy  Dy12  1  0.149753  0.547728  0.149765  1
  Dy  Dy13  1  0.311038  0.688984  0.689894  1
  Dy  Dy14  1  0.689991  0.309944  0.690121  1
  Dy  Dy15  1  0.550970  0.150481  0.148066  1
  Tl  Tl16  1  0.252178  0.915025  0.917771  1
  In  In17  1  0.916724  0.247527  0.919053  1
  In  In18  1  0.916724  0.916695  0.919053  1
  Hg  Hg19  1  0.912437  0.913719  0.260126  1
  Rh  Rh20  1  0.357307  0.357041  0.357562  1
  Rh  Rh21  1  0.926388  0.357745  0.358124  1
  Rh  Rh22  1  0.358232  0.358046  0.925677  1
  Rh  Rh23  1  0.357307  0.928092  0.357562  1
