# generated using pymatgen
data_Cs2Ti5GaSi4(P6O25)2
_symmetry_space_group_name_H-M   'P 1'
_cell_length_a   8.36275500
_cell_length_b   8.36275538
_cell_length_c   17.52852100
_cell_angle_alpha   90.00000000
_cell_angle_beta   90.00000000
_cell_angle_gamma   119.99999455
_symmetry_Int_Tables_number   1
_chemical_formula_structural   Cs2Ti5GaSi4(P6O25)2
_chemical_formula_sum   'Cs2 Ti5 Ga1 Si4 P12 O50'
_cell_volume   1061.63369893
_cell_formula_units_Z   1
loop_
 _symmetry_equiv_pos_site_id
 _symmetry_equiv_pos_as_xyz
  1  'x, y, z'
loop_
 _atom_site_type_symbol
 _atom_site_label
 _atom_site_symmetry_multiplicity
 _atom_site_fract_x
 _atom_site_fract_y
 _atom_site_fract_z
 _atom_site_occupancy
  Cs  Cs0  1  0.333333  0.666667  0.247391  1
  Cs  Cs1  1  0.666667  0.333333  0.751261  1
  Ti  Ti2  1  0.333333  0.666667  0.476790  1
  Ti  Ti3  1  0.666667  0.333333  0.977341  1
  Ti  Ti4  1  0.666667  0.333333  0.522765  1
  Ti  Ti5  1  0.666667  0.333333  0.247207  1
  Ti  Ti6  1  0.333333  0.666667  0.752250  1
  Ga  Ga7  1  0.333333  0.666667  0.021839  1
  Si  Si8  1  0.000000  0.000000  0.090713  1
  Si  Si9  1  0.000000  0.000000  0.408591  1
  Si  Si10  1  0.000000  0.000000  0.908047  1
  Si  Si11  1  0.000000  0.000000  0.591352  1
  P  P12  1  0.384796  0.336872  0.108024  1
  P  P13  1  0.663128  0.047925  0.108024  1
  P  P14  1  0.952075  0.615204  0.108024  1
  P  P15  1  0.667705  0.614797  0.390495  1
  P  P16  1  0.947091  0.332295  0.390495  1
  P  P17  1  0.385203  0.052909  0.390495  1
  P  P18  1  0.615164  0.669426  0.892599  1
  P  P19  1  0.330574  0.945736  0.892599  1
  P  P20  1  0.054264  0.384836  0.892599  1
  P  P21  1  0.332181  0.385113  0.609386  1
  P  P22  1  0.052933  0.667819  0.609386  1
  P  P23  1  0.614887  0.947067  0.609386  1
  O  O24  1  0.120311  0.597147  0.091576  1
  O  O25  1  0.402853  0.523165  0.091576  1
  O  O26  1  0.476835  0.879689  0.091576  1
  O  O27  1  0.399096  0.881732  0.410558  1
  O  O28  1  0.482635  0.600904  0.410558  1
  O  O29  1  0.118268  0.517365  0.410558  1
  O  O30  1  0.880986  0.397470  0.911100  1
  O  O31  1  0.602530  0.483515  0.911100  1
  O  O32  1  0.516485  0.119014  0.911100  1
  O  O33  1  0.600960  0.118364  0.589710  1
  O  O34  1  0.517405  0.399040  0.589710  1
  O  O35  1  0.881636  0.482595  0.589710  1
  O  O36  1  0.807836  0.254833  0.456337  1
  O  O37  1  0.745167  0.553004  0.456337  1
  O  O38  1  0.446996  0.192164  0.456337  1
  O  O39  1  0.740834  0.189515  0.042581  1
  O  O40  1  0.448680  0.259166  0.042581  1
  O  O41  1  0.810485  0.551320  0.042581  1
  O  O42  1  0.192310  0.745294  0.543674  1
  O  O43  1  0.254706  0.447015  0.543674  1
  O  O44  1  0.552985  0.807690  0.543674  1
  O  O45  1  0.249333  0.806781  0.957223  1
  O  O46  1  0.557450  0.750667  0.957223  1
  O  O47  1  0.193219  0.442550  0.957223  1
  O  O48  1  0.480454  0.344865  0.184242  1
  O  O49  1  0.655135  0.135590  0.184242  1
  O  O50  1  0.864410  0.519546  0.184242  1
  O  O51  1  0.652872  0.519076  0.314676  1
  O  O52  1  0.866204  0.347128  0.314676  1
  O  O53  1  0.480924  0.133796  0.314676  1
  O  O54  1  0.517594  0.651160  0.815890  1
  O  O55  1  0.348840  0.866432  0.815890  1
  O  O56  1  0.133568  0.482406  0.815890  1
  O  O57  1  0.346398  0.480629  0.685366  1
  O  O58  1  0.134232  0.653602  0.685366  1
  O  O59  1  0.519371  0.865768  0.685366  1
  O  O60  1  0.000000  0.000000  0.999331  1
  O  O61  1  0.000000  0.000000  0.500001  1
  O  O62  1  0.018778  0.827766  0.123934  1
  O  O63  1  0.172234  0.191013  0.123934  1
  O  O64  1  0.808987  0.981222  0.123934  1
  O  O65  1  0.171493  0.980586  0.375139  1
  O  O66  1  0.809092  0.828507  0.375139  1
  O  O67  1  0.019414  0.190908  0.375139  1
  O  O68  1  0.980651  0.171688  0.874257  1
  O  O69  1  0.828312  0.808961  0.874257  1
  O  O70  1  0.191039  0.019349  0.874257  1
  O  O71  1  0.828519  0.019323  0.624938  1
  O  O72  1  0.190806  0.171481  0.624938  1
  O  O73  1  0.980677  0.809194  0.624938  1
