# generated using pymatgen
data_Tm7Lu5InFe3Bi
_symmetry_space_group_name_H-M   'P 1'
_cell_length_a   8.24650808
_cell_length_b   8.24212880
_cell_length_c   8.24650802
_cell_angle_alpha   108.64000751
_cell_angle_beta   108.24472904
_cell_angle_gamma   111.57183890
_symmetry_Int_Tables_number   1
_chemical_formula_structural   Tm7Lu5InFe3Bi
_chemical_formula_sum   'Tm7 Lu5 In1 Fe3 Bi1'
_cell_volume   430.92026196
_cell_formula_units_Z   1
loop_
 _symmetry_equiv_pos_site_id
 _symmetry_equiv_pos_as_xyz
  1  'x, y, z'
loop_
 _atom_site_type_symbol
 _atom_site_label
 _atom_site_symmetry_multiplicity
 _atom_site_fract_x
 _atom_site_fract_y
 _atom_site_fract_z
 _atom_site_occupancy
  Tm  Tm0  1  0.312371  0.303022  0.615553  1
  Tm  Tm1  1  0.687502  0.697163  0.384206  1
  Tm  Tm2  1  0.687469  0.303022  0.990651  1
  Tm  Tm3  1  0.312957  0.697163  0.009661  1
  Tm  Tm4  1  0.193728  0.425034  0.231306  1
  Tm  Tm5  1  0.806044  0.574766  0.768722  1
  Tm  Tm6  1  0.193892  0.962566  0.768676  1
  Lu  Lu7  1  0.954513  0.190441  0.763859  1
  Lu  Lu8  1  0.806161  0.037020  0.230858  1
  Lu  Lu9  1  0.045122  0.809717  0.235871  1
  Lu  Lu10  1  0.426582  0.190441  0.235926  1
  Lu  Lu11  1  0.573846  0.809717  0.764596  1
  In  In12  1  0.500013  0.000016  0.500003  1
  Fe  Fe13  1  0.383665  0.383633  0.999968  1
  Fe  Fe14  1  0.616600  0.616814  0.000214  1
  Fe  Fe15  1  0.999802  0.000050  0.000248  1
  Bi  Bi16  1  0.999732  0.499414  0.499682  1
