# generated using pymatgen
data_Lu2Fe2CoP6Rh7
_symmetry_space_group_name_H-M   'P 1'
_cell_length_a   3.79204500
_cell_length_b   10.65920700
_cell_length_c   12.29768700
_cell_angle_alpha   90.00000000
_cell_angle_beta   90.00000000
_cell_angle_gamma   90.00000000
_symmetry_Int_Tables_number   1
_chemical_formula_structural   Lu2Fe2CoP6Rh7
_chemical_formula_sum   'Lu4 Fe4 Co2 P12 Rh14'
_cell_volume   497.07487718
_cell_formula_units_Z   2
loop_
 _symmetry_equiv_pos_site_id
 _symmetry_equiv_pos_as_xyz
  1  'x, y, z'
loop_
 _atom_site_type_symbol
 _atom_site_label
 _atom_site_symmetry_multiplicity
 _atom_site_fract_x
 _atom_site_fract_y
 _atom_site_fract_z
 _atom_site_occupancy
  Lu  Lu0  1  0.250000  0.580043  0.710835  1
  Lu  Lu1  1  0.250000  0.919957  0.210835  1
  Lu  Lu2  1  0.750000  0.412558  0.292769  1
  Lu  Lu3  1  0.750000  0.087442  0.792769  1
  Fe  Fe4  1  0.750000  0.119807  0.303229  1
  Fe  Fe5  1  0.750000  0.380193  0.803229  1
  Fe  Fe6  1  0.250000  0.462355  0.932707  1
  Fe  Fe7  1  0.250000  0.037645  0.432707  1
  Co  Co8  1  0.750000  0.536110  0.065649  1
  Co  Co9  1  0.750000  0.963890  0.565649  1
  P  P10  1  0.250000  0.423800  0.105289  1
  P  P11  1  0.250000  0.076200  0.605289  1
  P  P12  1  0.750000  0.563058  0.887059  1
  P  P13  1  0.750000  0.936942  0.387059  1
  P  P14  1  0.250000  0.275417  0.866574  1
  P  P15  1  0.250000  0.224583  0.366574  1
  P  P16  1  0.750000  0.730123  0.127490  1
  P  P17  1  0.750000  0.769877  0.627490  1
  P  P18  1  0.250000  0.597527  0.387978  1
  P  P19  1  0.250000  0.902473  0.887978  1
  P  P20  1  0.750000  0.401038  0.622088  1
  P  P21  1  0.750000  0.098962  0.122088  1
  Rh  Rh22  1  0.250000  0.718715  0.990287  1
  Rh  Rh23  1  0.250000  0.781285  0.490287  1
  Rh  Rh24  1  0.750000  0.284384  0.010988  1
  Rh  Rh25  1  0.750000  0.215616  0.510988  1
  Rh  Rh26  1  0.250000  0.405504  0.476718  1
  Rh  Rh27  1  0.250000  0.094496  0.976718  1
  Rh  Rh28  1  0.750000  0.588636  0.521425  1
  Rh  Rh29  1  0.750000  0.911364  0.021425  1
  Rh  Rh30  1  0.250000  0.225692  0.177445  1
  Rh  Rh31  1  0.250000  0.274308  0.677445  1
  Rh  Rh32  1  0.750000  0.767122  0.821743  1
  Rh  Rh33  1  0.750000  0.732878  0.321743  1
  Rh  Rh34  1  0.250000  0.888386  0.699730  1
  Rh  Rh35  1  0.250000  0.611614  0.199730  1
