# generated using pymatgen
data_Yb4AlSiPt4
_symmetry_space_group_name_H-M   'P 1'
_cell_length_a   5.63250569
_cell_length_b   5.63250446
_cell_length_c   7.70668979
_cell_angle_alpha   79.32395100
_cell_angle_beta   79.32395304
_cell_angle_gamma   60.17274063
_symmetry_Int_Tables_number   1
_chemical_formula_structural   Yb4AlSiPt4
_chemical_formula_sum   'Yb4 Al1 Si1 Pt4'
_cell_volume   207.18854390
_cell_formula_units_Z   1
loop_
 _symmetry_equiv_pos_site_id
 _symmetry_equiv_pos_as_xyz
  1  'x, y, z'
loop_
 _atom_site_type_symbol
 _atom_site_label
 _atom_site_symmetry_multiplicity
 _atom_site_fract_x
 _atom_site_fract_y
 _atom_site_fract_z
 _atom_site_occupancy
  Yb  Yb0  1  0.778382  0.519930  0.848945  1
  Yb  Yb1  1  0.480070  0.221618  0.651055  1
  Yb  Yb2  1  0.216199  0.482418  0.147722  1
  Yb  Yb3  1  0.517582  0.783801  0.352278  1
  Al  Al4  1  0.882981  0.117019  0.250000  1
  Si  Si5  1  0.119839  0.880161  0.750000  1
  Pt  Pt6  1  0.004768  0.738457  0.507572  1
  Pt  Pt7  1  0.261543  0.995232  0.992428  1
  Pt  Pt8  1  0.997592  0.258956  0.502619  1
  Pt  Pt9  1  0.741044  0.002408  0.997381  1
