# generated using pymatgen
data_Ca5CuAgIr
_symmetry_space_group_name_H-M   'P 1'
_cell_length_a   9.14956951
_cell_length_b   9.14956862
_cell_length_c   9.14956988
_cell_angle_alpha   129.91406181
_cell_angle_beta   129.99924453
_cell_angle_gamma   73.47609360
_symmetry_Int_Tables_number   1
_chemical_formula_structural   Ca5CuAgIr
_chemical_formula_sum   'Ca10 Cu2 Ag2 Ir2'
_cell_volume   439.23823987
_cell_formula_units_Z   2
loop_
 _symmetry_equiv_pos_site_id
 _symmetry_equiv_pos_as_xyz
  1  'x, y, z'
loop_
 _atom_site_type_symbol
 _atom_site_label
 _atom_site_symmetry_multiplicity
 _atom_site_fract_x
 _atom_site_fract_y
 _atom_site_fract_z
 _atom_site_occupancy
  Ca  Ca0  1  0.462916  0.955501  0.151317  1
  Ca  Ca1  1  0.195817  0.688402  0.151317  1
  Ca  Ca2  1  0.534767  0.025315  0.831995  1
  Ca  Ca3  1  0.034767  0.202773  0.509452  1
  Ca  Ca4  1  0.695817  0.544499  0.507415  1
  Ca  Ca5  1  0.962916  0.811598  0.507415  1
  Ca  Ca6  1  0.996048  0.991229  0.987277  1
  Ca  Ca7  1  0.496048  0.508771  0.004819  1
  Ca  Ca8  1  0.806680  0.297227  0.831995  1
  Ca  Ca9  1  0.306680  0.474685  0.509452  1
  Cu  Cu10  1  0.383263  0.117203  0.500466  1
  Cu  Cu11  1  0.883263  0.382797  0.266062  1
  Ag  Ag12  1  0.753164  0.750000  0.003164  1
  Ag  Ag13  1  0.253164  0.250000  0.003164  1
  Ir  Ir14  1  0.117345  0.616086  0.733429  1
  Ir  Ir15  1  0.617345  0.883914  0.501259  1
