# generated using pymatgen
data_Lu8HfZr11Si16
_symmetry_space_group_name_H-M   'P 1'
_cell_length_a   7.26807222
_cell_length_b   7.26807222
_cell_length_c   13.38273972
_cell_angle_alpha   89.97320437
_cell_angle_beta   90.02679563
_cell_angle_gamma   89.99199382
_symmetry_Int_Tables_number   1
_chemical_formula_structural   Lu8HfZr11Si16
_chemical_formula_sum   'Lu8 Hf1 Zr11 Si16'
_cell_volume   706.94137514
_cell_formula_units_Z   1
loop_
 _symmetry_equiv_pos_site_id
 _symmetry_equiv_pos_as_xyz
  1  'x, y, z'
loop_
 _atom_site_type_symbol
 _atom_site_label
 _atom_site_symmetry_multiplicity
 _atom_site_fract_x
 _atom_site_fract_y
 _atom_site_fract_z
 _atom_site_occupancy
  Lu  Lu0  1  0.495270  0.152369  0.535920  1
  Lu  Lu1  1  0.504859  0.847370  0.035833  1
  Lu  Lu2  1  0.652245  0.004714  0.285746  1
  Lu  Lu3  1  0.347607  0.995528  0.785847  1
  Lu  Lu4  1  0.847370  0.504859  0.964167  1
  Lu  Lu5  1  0.152369  0.495270  0.464080  1
  Lu  Lu6  1  0.004714  0.652245  0.714254  1
  Lu  Lu7  1  0.995528  0.347607  0.214153  1
  Hf  Hf8  1  0.176285  0.176285  0.000000  1
  Zr  Zr9  1  0.676525  0.323611  0.750230  1
  Zr  Zr10  1  0.323611  0.676525  0.249770  1
  Zr  Zr11  1  0.823635  0.823635  0.500000  1
  Zr  Zr12  1  0.498346  0.354247  0.125363  1
  Zr  Zr13  1  0.502308  0.645496  0.625471  1
  Zr  Zr14  1  0.854212  0.002112  0.875869  1
  Zr  Zr15  1  0.145352  0.997888  0.375340  1
  Zr  Zr16  1  0.645496  0.502308  0.374529  1
  Zr  Zr17  1  0.354247  0.498346  0.874637  1
  Zr  Zr18  1  0.002112  0.854212  0.124131  1
  Zr  Zr19  1  0.997888  0.145352  0.624660  1
  Si  Si20  1  0.796661  0.144785  0.066860  1
  Si  Si21  1  0.204780  0.856198  0.567070  1
  Si  Si22  1  0.644030  0.704806  0.817087  1
  Si  Si23  1  0.355883  0.295336  0.316903  1
  Si  Si24  1  0.856198  0.204780  0.432930  1
  Si  Si25  1  0.144785  0.796661  0.933140  1
  Si  Si26  1  0.704806  0.644030  0.182913  1
  Si  Si27  1  0.295336  0.355883  0.683097  1
  Si  Si28  1  0.549526  0.201985  0.937186  1
  Si  Si29  1  0.448580  0.797462  0.436916  1
  Si  Si30  1  0.702726  0.948792  0.687160  1
  Si  Si31  1  0.296606  0.051869  0.185990  1
  Si  Si32  1  0.797462  0.448580  0.563084  1
  Si  Si33  1  0.201985  0.549526  0.062814  1
  Si  Si34  1  0.948792  0.702726  0.312840  1
  Si  Si35  1  0.051869  0.296606  0.814010  1
