# generated using pymatgen
data_CaTb6CoI12
_symmetry_space_group_name_H-M   'P 1'
_cell_length_a   9.80359018
_cell_length_b   9.80359009
_cell_length_c   9.80358980
_cell_angle_alpha   107.07133424
_cell_angle_beta   107.07133894
_cell_angle_gamma   107.07133940
_symmetry_Int_Tables_number   1
_chemical_formula_structural   CaTb6CoI12
_chemical_formula_sum   'Ca1 Tb6 Co1 I12'
_cell_volume   783.16340351
_cell_formula_units_Z   1
loop_
 _symmetry_equiv_pos_site_id
 _symmetry_equiv_pos_as_xyz
  1  'x, y, z'
loop_
 _atom_site_type_symbol
 _atom_site_label
 _atom_site_symmetry_multiplicity
 _atom_site_fract_x
 _atom_site_fract_y
 _atom_site_fract_z
 _atom_site_occupancy
  Ca  Ca0  1  0.500000  0.500000  0.500000  1
  Tb  Tb1  1  0.022408  0.093513  0.291802  1
  Tb  Tb2  1  0.093513  0.291802  0.022408  1
  Tb  Tb3  1  0.291802  0.022408  0.093513  1
  Tb  Tb4  1  0.977592  0.906487  0.708198  1
  Tb  Tb5  1  0.906487  0.708198  0.977592  1
  Tb  Tb6  1  0.708198  0.977592  0.906487  1
  Co  Co7  1  0.000000  0.000000  0.000000  1
  I  I8  1  0.149808  0.456885  0.378427  1
  I  I9  1  0.456885  0.378427  0.149808  1
  I  I10  1  0.378427  0.149808  0.456885  1
  I  I11  1  0.850192  0.543115  0.621573  1
  I  I12  1  0.543115  0.621573  0.850192  1
  I  I13  1  0.621573  0.850192  0.543115  1
  I  I14  1  0.679551  0.072096  0.223757  1
  I  I15  1  0.072096  0.223757  0.679551  1
  I  I16  1  0.223757  0.679551  0.072096  1
  I  I17  1  0.320449  0.927904  0.776243  1
  I  I18  1  0.927904  0.776243  0.320449  1
  I  I19  1  0.776243  0.320449  0.927904  1
