# generated using pymatgen
data_YbZnCdCu3
_symmetry_space_group_name_H-M   'P 1'
_cell_length_a   5.12418442
_cell_length_b   5.09669662
_cell_length_c   5.12418500
_cell_angle_alpha   59.82143425
_cell_angle_beta   60.00000270
_cell_angle_gamma   59.82142959
_symmetry_Int_Tables_number   1
_chemical_formula_structural   YbZnCdCu3
_chemical_formula_sum   'Yb1 Zn1 Cd1 Cu3'
_cell_volume   94.37258979
_cell_formula_units_Z   1
loop_
 _symmetry_equiv_pos_site_id
 _symmetry_equiv_pos_as_xyz
  1  'x, y, z'
loop_
 _atom_site_type_symbol
 _atom_site_label
 _atom_site_symmetry_multiplicity
 _atom_site_fract_x
 _atom_site_fract_y
 _atom_site_fract_z
 _atom_site_occupancy
  Yb  Yb0  1  0.751888  0.744337  0.751888  1
  Zn  Zn1  1  0.373466  0.879602  0.373466  1
  Cd  Cd2  1  0.999961  0.000116  0.999961  1
  Cu  Cu3  1  0.374056  0.375315  0.374056  1
  Cu  Cu4  1  0.876573  0.375315  0.374056  1
  Cu  Cu5  1  0.374056  0.375315  0.876573  1
