# generated using pymatgen
data_Ho3Lu13MgCd3Ni4
_symmetry_space_group_name_H-M   'P 1'
_cell_length_a   9.40420168
_cell_length_b   9.37244174
_cell_length_c   9.37244300
_cell_angle_alpha   59.99999908
_cell_angle_beta   60.11165349
_cell_angle_gamma   60.11164960
_symmetry_Int_Tables_number   1
_chemical_formula_structural   Ho3Lu13MgCd3Ni4
_chemical_formula_sum   'Ho3 Lu13 Mg1 Cd3 Ni4'
_cell_volume   585.11785910
_cell_formula_units_Z   1
loop_
 _symmetry_equiv_pos_site_id
 _symmetry_equiv_pos_as_xyz
  1  'x, y, z'
loop_
 _atom_site_type_symbol
 _atom_site_label
 _atom_site_symmetry_multiplicity
 _atom_site_fract_x
 _atom_site_fract_y
 _atom_site_fract_z
 _atom_site_occupancy
  Ho  Ho0  1  0.597492  0.597395  0.597395  1
  Ho  Ho1  1  0.597492  0.597395  0.207718  1
  Ho  Ho2  1  0.597492  0.207718  0.597395  1
  Lu  Lu3  1  0.204766  0.598411  0.598411  1
  Lu  Lu4  1  0.061046  0.438889  0.438889  1
  Lu  Lu5  1  0.436808  0.062768  0.062768  1
  Lu  Lu6  1  0.436808  0.062768  0.437655  1
  Lu  Lu7  1  0.061046  0.438889  0.061174  1
  Lu  Lu8  1  0.436808  0.437655  0.062768  1
  Lu  Lu9  1  0.061046  0.061174  0.438889  1
  Lu  Lu10  1  0.184021  0.814465  0.814465  1
  Lu  Lu11  1  0.814376  0.185732  0.185732  1
  Lu  Lu12  1  0.814376  0.185732  0.814161  1
  Lu  Lu13  1  0.184021  0.814465  0.187047  1
  Lu  Lu14  1  0.814376  0.814161  0.185732  1
  Lu  Lu15  1  0.184021  0.187047  0.814465  1
  Mg  Mg16  1  0.520246  0.826584  0.826584  1
  Cd  Cd17  1  0.832927  0.831686  0.831686  1
  Cd  Cd18  1  0.832927  0.831686  0.503699  1
  Cd  Cd19  1  0.832927  0.503699  0.831686  1
  Ni  Ni20  1  0.389224  0.392454  0.392454  1
  Ni  Ni21  1  0.389224  0.392454  0.825867  1
  Ni  Ni22  1  0.389224  0.825867  0.392454  1
  Ni  Ni23  1  0.827300  0.390900  0.390900  1
