# generated using pymatgen
data_Dy5Ho(Lu2Pb3)2
_symmetry_space_group_name_H-M   'P 1'
_cell_length_a   6.52671400
_cell_length_b   9.00551024
_cell_length_c   9.00771200
_cell_angle_alpha   120.01065059
_cell_angle_beta   89.99865014
_cell_angle_gamma   90.00131933
_symmetry_Int_Tables_number   1
_chemical_formula_structural   Dy5Ho(Lu2Pb3)2
_chemical_formula_sum   'Dy5 Ho1 Lu4 Pb6'
_cell_volume   458.45995884
_cell_formula_units_Z   1
loop_
 _symmetry_equiv_pos_site_id
 _symmetry_equiv_pos_as_xyz
  1  'x, y, z'
loop_
 _atom_site_type_symbol
 _atom_site_label
 _atom_site_symmetry_multiplicity
 _atom_site_fract_x
 _atom_site_fract_y
 _atom_site_fract_z
 _atom_site_occupancy
  Dy  Dy0  1  0.750001  0.237649  0.999951  1
  Dy  Dy1  1  0.750003  0.762373  0.762295  1
  Dy  Dy2  1  0.750007  0.000029  0.237757  1
  Dy  Dy3  1  0.249991  0.762324  0.999950  1
  Dy  Dy4  1  0.250004  0.237661  0.237633  1
  Ho  Ho5  1  0.250004  0.999979  0.762310  1
  Lu  Lu6  1  0.499983  0.333308  0.666690  1
  Lu  Lu7  1  0.499977  0.666653  0.333331  1
  Lu  Lu8  1  0.000010  0.666684  0.333332  1
  Lu  Lu9  1  0.000001  0.333343  0.666696  1
  Pb  Pb10  1  0.749990  0.604041  0.999985  1
  Pb  Pb11  1  0.750001  0.396005  0.396021  1
  Pb  Pb12  1  0.750005  0.999983  0.603970  1
  Pb  Pb13  1  0.250024  0.395755  0.999877  1
  Pb  Pb14  1  0.249998  0.604188  0.604060  1
  Pb  Pb15  1  0.250003  0.000024  0.396139  1
