# generated using pymatgen
data_CePr3PdRh3Pb2
_symmetry_space_group_name_H-M   'P 1'
_cell_length_a   7.97237472
_cell_length_b   7.97237465
_cell_length_c   3.76879600
_cell_angle_alpha   90.00000000
_cell_angle_beta   90.00000000
_cell_angle_gamma   91.30161216
_symmetry_Int_Tables_number   1
_chemical_formula_structural   CePr3PdRh3Pb2
_chemical_formula_sum   'Ce1 Pr3 Pd1 Rh3 Pb2'
_cell_volume   239.47818495
_cell_formula_units_Z   1
loop_
 _symmetry_equiv_pos_site_id
 _symmetry_equiv_pos_as_xyz
  1  'x, y, z'
loop_
 _atom_site_type_symbol
 _atom_site_label
 _atom_site_symmetry_multiplicity
 _atom_site_fract_x
 _atom_site_fract_y
 _atom_site_fract_z
 _atom_site_occupancy
  Ce  Ce0  1  0.326916  0.826916  0.500000  1
  Pr  Pr1  1  0.665466  0.165466  0.500000  1
  Pr  Pr2  1  0.181157  0.326225  0.500000  1
  Pr  Pr3  1  0.826225  0.681157  0.500000  1
  Pd  Pd4  1  0.883107  0.383107  0.000000  1
  Rh  Rh5  1  0.360005  0.108421  0.000000  1
  Rh  Rh6  1  0.148925  0.648925  0.000000  1
  Rh  Rh7  1  0.608421  0.860005  0.000000  1
  Pb  Pb8  1  0.999980  0.999798  0.000000  1
  Pb  Pb9  1  0.499798  0.499980  0.000000  1
