# generated using pymatgen
data_Ca5Pr4NdIr4
_symmetry_space_group_name_H-M   'P 1'
_cell_length_a   8.74576405
_cell_length_b   8.89541585
_cell_length_c   7.49701378
_cell_angle_alpha   83.28319796
_cell_angle_beta   82.97783488
_cell_angle_gamma   44.87925672
_symmetry_Int_Tables_number   1
_chemical_formula_structural   Ca5Pr4NdIr4
_chemical_formula_sum   'Ca5 Pr4 Nd1 Ir4'
_cell_volume   408.07730780
_cell_formula_units_Z   1
loop_
 _symmetry_equiv_pos_site_id
 _symmetry_equiv_pos_as_xyz
  1  'x, y, z'
loop_
 _atom_site_type_symbol
 _atom_site_label
 _atom_site_symmetry_multiplicity
 _atom_site_fract_x
 _atom_site_fract_y
 _atom_site_fract_z
 _atom_site_occupancy
  Ca  Ca0  1  0.015802  0.805269  0.916442  1
  Ca  Ca1  1  0.199648  0.984471  0.584822  1
  Ca  Ca2  1  0.986079  0.193904  0.082686  1
  Ca  Ca3  1  0.801787  0.014271  0.415965  1
  Ca  Ca4  1  0.353771  0.207547  0.815860  1
  Pr  Pr5  1  0.787151  0.651534  0.679407  1
  Pr  Pr6  1  0.640798  0.796765  0.181060  1
  Pr  Pr7  1  0.210813  0.352947  0.318797  1
  Pr  Pr8  1  0.566332  0.428724  0.750198  1
  Nd  Nd9  1  0.434942  0.563794  0.252639  1
  Ir  Ir10  1  0.177589  0.594670  0.573299  1
  Ir  Ir11  1  0.412913  0.803235  0.927472  1
  Ir  Ir12  1  0.818576  0.417162  0.422574  1
  Ir  Ir13  1  0.593799  0.185708  0.078783  1
