# generated using pymatgen
data_Dy5Lu5(ZnIn3)2
_symmetry_space_group_name_H-M   'P 1'
_cell_length_a   9.06811763
_cell_length_b   9.06811817
_cell_length_c   6.65568800
_cell_angle_alpha   90.00000000
_cell_angle_beta   90.00000000
_cell_angle_gamma   119.91271697
_symmetry_Int_Tables_number   1
_chemical_formula_structural   Dy5Lu5(ZnIn3)2
_chemical_formula_sum   'Dy5 Lu5 Zn2 In6'
_cell_volume   474.39401684
_cell_formula_units_Z   1
loop_
 _symmetry_equiv_pos_site_id
 _symmetry_equiv_pos_as_xyz
  1  'x, y, z'
loop_
 _atom_site_type_symbol
 _atom_site_label
 _atom_site_symmetry_multiplicity
 _atom_site_fract_x
 _atom_site_fract_y
 _atom_site_fract_z
 _atom_site_occupancy
  Dy  Dy0  1  0.276257  0.999240  0.750000  1
  Dy  Dy1  1  0.723545  0.998355  0.250000  1
  Dy  Dy2  1  0.999240  0.276257  0.750000  1
  Dy  Dy3  1  0.998355  0.723545  0.250000  1
  Dy  Dy4  1  0.728162  0.728162  0.750000  1
  Lu  Lu5  1  0.332368  0.664306  0.499856  1
  Lu  Lu6  1  0.664306  0.332368  0.499856  1
  Lu  Lu7  1  0.664306  0.332368  0.000144  1
  Lu  Lu8  1  0.332368  0.664306  0.000144  1
  Lu  Lu9  1  0.276552  0.276552  0.250000  1
  Zn  Zn10  1  0.004369  0.004369  0.497442  1
  Zn  Zn11  1  0.004369  0.004369  0.002558  1
  In  In12  1  0.620608  0.000029  0.750000  1
  In  In13  1  0.377500  0.001814  0.250000  1
  In  In14  1  0.000029  0.620608  0.750000  1
  In  In15  1  0.001814  0.377500  0.250000  1
  In  In16  1  0.378598  0.378598  0.750000  1
  In  In17  1  0.617258  0.617258  0.250000  1
