# generated using pymatgen
data_TbY2Th3(Al3Ru)8
_symmetry_space_group_name_H-M   'P 1'
_cell_length_a   8.90442100
_cell_length_b   8.89990326
_cell_length_c   9.58176800
_cell_angle_alpha   90.00000000
_cell_angle_beta   90.00000000
_cell_angle_gamma   120.01678954
_symmetry_Int_Tables_number   1
_chemical_formula_structural   TbY2Th3(Al3Ru)8
_chemical_formula_sum   'Tb1 Y2 Th3 Al24 Ru8'
_cell_volume   657.49696747
_cell_formula_units_Z   1
loop_
 _symmetry_equiv_pos_site_id
 _symmetry_equiv_pos_as_xyz
  1  'x, y, z'
loop_
 _atom_site_type_symbol
 _atom_site_label
 _atom_site_symmetry_multiplicity
 _atom_site_fract_x
 _atom_site_fract_y
 _atom_site_fract_z
 _atom_site_occupancy
  Tb  Tb0  1  0.193230  0.386460  0.750000  1
  Y  Y1  1  0.613433  0.806642  0.750000  1
  Y  Y2  1  0.193209  0.806642  0.750000  1
  Th  Th3  1  0.391625  0.195810  0.250000  1
  Th  Th4  1  0.804185  0.195810  0.250000  1
  Th  Th5  1  0.804171  0.608343  0.250000  1
  Al  Al6  1  0.435083  0.870166  0.250000  1
  Al  Al7  1  0.129804  0.564911  0.250000  1
  Al  Al8  1  0.435107  0.564911  0.250000  1
  Al  Al9  1  0.559026  0.118053  0.750000  1
  Al  Al10  1  0.881811  0.440967  0.750000  1
  Al  Al11  1  0.559156  0.440967  0.750000  1
  Al  Al12  1  0.163160  0.836879  0.426142  1
  Al  Al13  1  0.163151  0.326302  0.426114  1
  Al  Al14  1  0.673718  0.836879  0.426142  1
  Al  Al15  1  0.838354  0.161549  0.581799  1
  Al  Al16  1  0.838390  0.676780  0.581782  1
  Al  Al17  1  0.323196  0.161549  0.581799  1
  Al  Al18  1  0.838354  0.161549  0.918201  1
  Al  Al19  1  0.838390  0.676780  0.918218  1
  Al  Al20  1  0.323196  0.161549  0.918201  1
  Al  Al21  1  0.163160  0.836879  0.073858  1
  Al  Al22  1  0.163151  0.326302  0.073886  1
  Al  Al23  1  0.673718  0.836879  0.073858  1
  Al  Al24  1  0.333350  0.666700  0.517491  1
  Al  Al25  1  0.666682  0.333362  0.495286  1
  Al  Al26  1  0.666682  0.333362  0.004714  1
  Al  Al27  1  0.333350  0.666700  0.982509  1
  Al  Al28  1  0.999995  0.999989  0.250000  1
  Al  Al29  1  0.000037  0.000073  0.750000  1
  Ru  Ru30  1  0.999979  0.999958  0.501650  1
  Ru  Ru31  1  0.999979  0.999958  0.998350  1
  Ru  Ru32  1  0.500366  0.000732  0.497936  1
  Ru  Ru33  1  0.999311  0.499718  0.497948  1
  Ru  Ru34  1  0.500407  0.499718  0.497948  1
  Ru  Ru35  1  0.500366  0.000732  0.002064  1
  Ru  Ru36  1  0.999311  0.499718  0.002052  1
  Ru  Ru37  1  0.500407  0.499718  0.002052  1
