# generated using pymatgen
data_YEr5(B7W)2
_symmetry_space_group_name_H-M   'P 1'
_cell_length_a   8.11574126
_cell_length_b   8.11574058
_cell_length_c   9.46046200
_cell_angle_alpha   90.00000000
_cell_angle_beta   90.00000000
_cell_angle_gamma   155.56059823
_symmetry_Int_Tables_number   1
_chemical_formula_structural   YEr5(B7W)2
_chemical_formula_sum   'Y1 Er5 B14 W2'
_cell_volume   257.80203334
_cell_formula_units_Z   1
loop_
 _symmetry_equiv_pos_site_id
 _symmetry_equiv_pos_as_xyz
  1  'x, y, z'
loop_
 _atom_site_type_symbol
 _atom_site_label
 _atom_site_symmetry_multiplicity
 _atom_site_fract_x
 _atom_site_fract_y
 _atom_site_fract_z
 _atom_site_occupancy
  Y  Y0  1  0.246437  0.753563  0.750000  1
  Er  Er1  1  0.892839  0.107161  0.940522  1
  Er  Er2  1  0.107415  0.892585  0.060399  1
  Er  Er3  1  0.754928  0.245072  0.250000  1
  Er  Er4  1  0.892839  0.107161  0.559478  1
  Er  Er5  1  0.107415  0.892585  0.439601  1
  B  B6  1  0.545948  0.454052  0.250000  1
  B  B7  1  0.453840  0.546160  0.750000  1
  B  B8  1  0.519317  0.480683  0.908900  1
  B  B9  1  0.480631  0.519369  0.091251  1
  B  B10  1  0.480631  0.519369  0.408749  1
  B  B11  1  0.519317  0.480683  0.591100  1
  B  B12  1  0.635092  0.364908  0.854033  1
  B  B13  1  0.364505  0.635495  0.146860  1
  B  B14  1  0.727627  0.272373  0.968441  1
  B  B15  1  0.272034  0.727966  0.034108  1
  B  B16  1  0.272034  0.727966  0.465892  1
  B  B17  1  0.727627  0.272373  0.531559  1
  B  B18  1  0.635092  0.364908  0.645967  1
  B  B19  1  0.364505  0.635495  0.353140  1
  W  W20  1  0.053017  0.946983  0.750000  1
  W  W21  1  0.946910  0.053090  0.250000  1
