# generated using pymatgen
data_TbYB24
_symmetry_space_group_name_H-M   'P 1'
_cell_length_a   5.30423800
_cell_length_b   5.30423811
_cell_length_c   9.18821902
_cell_angle_alpha   73.22323897
_cell_angle_beta   90.00000000
_cell_angle_gamma   119.99999934
_symmetry_Int_Tables_number   1
_chemical_formula_structural   TbYB24
_chemical_formula_sum   'Tb1 Y1 B24'
_cell_volume   211.07542733
_cell_formula_units_Z   1
loop_
 _symmetry_equiv_pos_site_id
 _symmetry_equiv_pos_as_xyz
  1  'x, y, z'
loop_
 _atom_site_type_symbol
 _atom_site_label
 _atom_site_symmetry_multiplicity
 _atom_site_fract_x
 _atom_site_fract_y
 _atom_site_fract_z
 _atom_site_occupancy
  Tb  Tb0  1  0.500000  0.000000  0.500000  1
  Y  Y1  1  0.000000  0.000000  0.000000  1
  B  B2  1  0.912117  0.499932  0.250041  1
  B  B3  1  0.412185  0.500068  0.749959  1
  B  B4  1  0.081178  0.500085  0.418736  1
  B  B5  1  0.581111  0.500102  0.918788  1
  B  B6  1  0.250028  0.837842  0.250041  1
  B  B7  1  0.749972  0.837855  0.749959  1
  B  B8  1  0.081178  0.162356  0.418736  1
  B  B9  1  0.581111  0.162221  0.918788  1
  B  B10  1  0.912117  0.162145  0.250041  1
  B  B11  1  0.412185  0.162158  0.749959  1
  B  B12  1  0.250028  0.162145  0.250041  1
  B  B13  1  0.749972  0.162158  0.749959  1
  B  B14  1  0.418889  0.837779  0.081212  1
  B  B15  1  0.918822  0.837644  0.581264  1
  B  B16  1  0.418889  0.499898  0.081212  1
  B  B17  1  0.918822  0.499915  0.581264  1
  B  B18  1  0.081009  0.499898  0.081212  1
  B  B19  1  0.581093  0.499915  0.581264  1
  B  B20  1  0.587815  0.499932  0.250041  1
  B  B21  1  0.087883  0.500068  0.749959  1
  B  B22  1  0.587815  0.837842  0.250041  1
  B  B23  1  0.087883  0.837855  0.749959  1
  B  B24  1  0.418907  0.500085  0.418736  1
  B  B25  1  0.918991  0.500102  0.918788  1
