# generated using pymatgen
data_Pr9SmSe10
_symmetry_space_group_name_H-M   'P 1'
_cell_length_a   7.37093849
_cell_length_b   8.46847969
_cell_length_c   9.59144178
_cell_angle_alpha   103.28342091
_cell_angle_beta   96.72239509
_cell_angle_gamma   106.90391332
_symmetry_Int_Tables_number   1
_chemical_formula_structural   Pr9SmSe10
_chemical_formula_sum   'Pr9 Sm1 Se10'
_cell_volume   546.53403502
_cell_formula_units_Z   1
loop_
 _symmetry_equiv_pos_site_id
 _symmetry_equiv_pos_as_xyz
  1  'x, y, z'
loop_
 _atom_site_type_symbol
 _atom_site_label
 _atom_site_symmetry_multiplicity
 _atom_site_fract_x
 _atom_site_fract_y
 _atom_site_fract_z
 _atom_site_occupancy
  Pr  Pr0  1  0.800507  0.599722  0.597424  1
  Pr  Pr1  1  0.594684  0.197620  0.199268  1
  Pr  Pr2  1  0.405316  0.802380  0.800732  1
  Pr  Pr3  1  0.599852  0.701233  0.201373  1
  Pr  Pr4  1  0.199493  0.400278  0.402576  1
  Pr  Pr5  1  0.400148  0.298767  0.798627  1
  Pr  Pr6  1  0.000000  0.000000  0.000000  1
  Pr  Pr7  1  0.201631  0.900866  0.401016  1
  Pr  Pr8  1  0.798369  0.099134  0.598984  1
  Sm  Sm9  1  0.000000  0.500000  0.000000  1
  Se  Se10  1  0.704040  0.647520  0.900995  1
  Se  Se11  1  0.500164  0.250654  0.499917  1
  Se  Se12  1  0.704533  0.155306  0.901848  1
  Se  Se13  1  0.295467  0.844694  0.098152  1
  Se  Se14  1  0.499836  0.749346  0.500083  1
  Se  Se15  1  0.099268  0.451671  0.704737  1
  Se  Se16  1  0.295960  0.352480  0.099005  1
  Se  Se17  1  0.900061  0.050575  0.299679  1
  Se  Se18  1  0.099939  0.949425  0.700321  1
  Se  Se19  1  0.900732  0.548329  0.295263  1
