# generated using pymatgen
data_Tb3Dy5Hg4
_symmetry_space_group_name_H-M   'P 1'
_cell_length_a   5.10269800
_cell_length_b   7.09703700
_cell_length_c   9.28138927
_cell_angle_alpha   89.98498671
_cell_angle_beta   90.00000000
_cell_angle_gamma   90.00000000
_symmetry_Int_Tables_number   1
_chemical_formula_structural   Tb3Dy5Hg4
_chemical_formula_sum   'Tb3 Dy5 Hg4'
_cell_volume   336.11655830
_cell_formula_units_Z   1
loop_
 _symmetry_equiv_pos_site_id
 _symmetry_equiv_pos_as_xyz
  1  'x, y, z'
loop_
 _atom_site_type_symbol
 _atom_site_label
 _atom_site_symmetry_multiplicity
 _atom_site_fract_x
 _atom_site_fract_y
 _atom_site_fract_z
 _atom_site_occupancy
  Tb  Tb0  1  0.250000  0.483972  0.192113  1
  Tb  Tb1  1  0.750000  0.015908  0.692159  1
  Tb  Tb2  1  0.750000  0.515804  0.807811  1
  Dy  Dy3  1  0.250000  0.832642  0.924298  1
  Dy  Dy4  1  0.250000  0.332557  0.575655  1
  Dy  Dy5  1  0.750000  0.167000  0.076542  1
  Dy  Dy6  1  0.750000  0.668227  0.423610  1
  Dy  Dy7  1  0.250000  0.984058  0.308248  1
  Hg  Hg8  1  0.250000  0.260517  0.898289  1
  Hg  Hg9  1  0.250000  0.760832  0.601371  1
  Hg  Hg10  1  0.750000  0.739244  0.101391  1
  Hg  Hg11  1  0.750000  0.239240  0.398514  1
