# generated using pymatgen
data_Rb2Si6SnO15
_symmetry_space_group_name_H-M   'P 1'
_cell_length_a   7.09113802
_cell_length_b   7.42160499
_cell_length_c   7.74346562
_cell_angle_alpha   99.58126967
_cell_angle_beta   105.17151047
_cell_angle_gamma   112.31180161
_symmetry_Int_Tables_number   1
_chemical_formula_structural   Rb2Si6SnO15
_chemical_formula_sum   'Rb2 Si6 Sn1 O15'
_cell_volume   347.37289680
_cell_formula_units_Z   1
loop_
 _symmetry_equiv_pos_site_id
 _symmetry_equiv_pos_as_xyz
  1  'x, y, z'
loop_
 _atom_site_type_symbol
 _atom_site_label
 _atom_site_symmetry_multiplicity
 _atom_site_fract_x
 _atom_site_fract_y
 _atom_site_fract_z
 _atom_site_occupancy
  Rb  Rb0  1  0.295601  0.707689  0.817855  1
  Rb  Rb1  1  0.704399  0.292311  0.182145  1
  Si  Si2  1  0.706142  0.816316  0.265847  1
  Si  Si3  1  0.293858  0.183684  0.734153  1
  Si  Si4  1  0.153959  0.836564  0.366461  1
  Si  Si5  1  0.846041  0.163436  0.633539  1
  Si  Si6  1  0.324069  0.503008  0.316003  1
  Si  Si7  1  0.675931  0.496992  0.683997  1
  Sn  Sn8  1  0.000000  0.000000  0.000000  1
  O  O9  1  0.468021  0.613837  0.193158  1
  O  O10  1  0.531979  0.386163  0.806842  1
  O  O11  1  0.218849  0.649869  0.392173  1
  O  O12  1  0.781151  0.350131  0.607827  1
  O  O13  1  0.872575  0.715495  0.807180  1
  O  O14  1  0.127425  0.284505  0.192820  1
  O  O15  1  0.894841  0.743803  0.349338  1
  O  O16  1  0.105159  0.256197  0.650662  1
  O  O17  1  0.737201  0.905499  0.093535  1
  O  O18  1  0.500000  0.500000  0.500000  1
  O  O19  1  0.295834  0.015977  0.568218  1
  O  O20  1  0.704166  0.984023  0.431782  1
  O  O21  1  0.813311  0.089973  0.812106  1
  O  O22  1  0.186689  0.910027  0.187894  1
  O  O23  1  0.262799  0.094501  0.906465  1
