# generated using pymatgen
data_TbNb6InCl18
_symmetry_space_group_name_H-M   'P 1'
_cell_length_a   10.20764151
_cell_length_b   10.20764178
_cell_length_c   10.20764211
_cell_angle_alpha   55.17015132
_cell_angle_beta   55.17014159
_cell_angle_gamma   55.17015066
_symmetry_Int_Tables_number   1
_chemical_formula_structural   TbNb6InCl18
_chemical_formula_sum   'Tb1 Nb6 In1 Cl18'
_cell_volume   667.61925043
_cell_formula_units_Z   1
loop_
 _symmetry_equiv_pos_site_id
 _symmetry_equiv_pos_as_xyz
  1  'x, y, z'
loop_
 _atom_site_type_symbol
 _atom_site_label
 _atom_site_symmetry_multiplicity
 _atom_site_fract_x
 _atom_site_fract_y
 _atom_site_fract_z
 _atom_site_occupancy
  Tb  Tb0  1  0.498371  0.498371  0.498371  1
  Nb  Nb1  1  0.798719  0.150022  0.912782  1
  Nb  Nb2  1  0.912782  0.798719  0.150022  1
  Nb  Nb3  1  0.150022  0.912782  0.798719  1
  Nb  Nb4  1  0.202565  0.850274  0.086095  1
  Nb  Nb5  1  0.086095  0.202565  0.850274  1
  Nb  Nb6  1  0.850274  0.086095  0.202565  1
  In  In7  1  0.221766  0.221766  0.221766  1
  Cl  Cl8  1  0.861375  0.415539  0.725525  1
  Cl  Cl9  1  0.725525  0.861375  0.415539  1
  Cl  Cl10  1  0.415539  0.725525  0.861375  1
  Cl  Cl11  1  0.138485  0.583973  0.275370  1
  Cl  Cl12  1  0.275370  0.138485  0.583973  1
  Cl  Cl13  1  0.583973  0.275370  0.138485  1
  Cl  Cl14  1  0.528593  0.342899  0.807253  1
  Cl  Cl15  1  0.807253  0.528593  0.342899  1
  Cl  Cl16  1  0.342899  0.807253  0.528593  1
  Cl  Cl17  1  0.467641  0.658106  0.195516  1
  Cl  Cl18  1  0.195516  0.467641  0.658106  1
  Cl  Cl19  1  0.658106  0.195516  0.467641  1
  Cl  Cl20  1  0.660049  0.938487  0.073592  1
  Cl  Cl21  1  0.073592  0.660049  0.938487  1
  Cl  Cl22  1  0.938487  0.073592  0.660049  1
  Cl  Cl23  1  0.340072  0.062274  0.925795  1
  Cl  Cl24  1  0.925795  0.340072  0.062274  1
  Cl  Cl25  1  0.062274  0.925795  0.340072  1
