# generated using pymatgen
data_Sm2Ho4SbRuO14
_symmetry_space_group_name_H-M   'P 1'
_cell_length_a   6.45966307
_cell_length_b   6.45966322
_cell_length_c   7.53476212
_cell_angle_alpha   90.21564790
_cell_angle_beta   89.78435088
_cell_angle_gamma   109.33936297
_symmetry_Int_Tables_number   1
_chemical_formula_structural   Sm2Ho4SbRuO14
_chemical_formula_sum   'Sm2 Ho4 Sb1 Ru1 O14'
_cell_volume   296.66101323
_cell_formula_units_Z   1
loop_
 _symmetry_equiv_pos_site_id
 _symmetry_equiv_pos_as_xyz
  1  'x, y, z'
loop_
 _atom_site_type_symbol
 _atom_site_label
 _atom_site_symmetry_multiplicity
 _atom_site_fract_x
 _atom_site_fract_y
 _atom_site_fract_z
 _atom_site_occupancy
  Sm  Sm0  1  0.500000  0.500000  0.500000  1
  Sm  Sm1  1  0.500000  0.500000  0.000000  1
  Ho  Ho2  1  0.533261  0.000293  0.748941  1
  Ho  Ho3  1  0.000293  0.533261  0.251059  1
  Ho  Ho4  1  0.466739  0.999707  0.251059  1
  Ho  Ho5  1  0.999707  0.466739  0.748941  1
  Sb  Sb6  1  0.000000  0.000000  0.000000  1
  Ru  Ru7  1  0.000000  0.000000  0.500000  1
  O  O8  1  0.680602  0.929344  0.470174  1
  O  O9  1  0.929344  0.680602  0.529826  1
  O  O10  1  0.676938  0.929382  0.029276  1
  O  O11  1  0.929382  0.676938  0.970724  1
  O  O12  1  0.319398  0.070656  0.529826  1
  O  O13  1  0.070656  0.319398  0.470174  1
  O  O14  1  0.323062  0.070618  0.970724  1
  O  O15  1  0.070618  0.323062  0.029276  1
  O  O16  1  0.930125  0.069875  0.748534  1
  O  O17  1  0.069875  0.930125  0.251466  1
  O  O18  1  0.364922  0.635078  0.750057  1
  O  O19  1  0.635078  0.364922  0.249943  1
  O  O20  1  0.640361  0.359639  0.749130  1
  O  O21  1  0.359639  0.640361  0.250870  1
