# generated using pymatgen
data_HoF18
_symmetry_space_group_name_H-M   'P 1'
_cell_length_a   6.21373934
_cell_length_b   9.11344182
_cell_length_c   12.80645854
_cell_angle_alpha   102.32360598
_cell_angle_beta   88.61167884
_cell_angle_gamma   107.36770085
_symmetry_Int_Tables_number   1
_chemical_formula_structural   HoF18
_chemical_formula_sum   'Ho2 F36'
_cell_volume   675.59277754
_cell_formula_units_Z   2
loop_
 _symmetry_equiv_pos_site_id
 _symmetry_equiv_pos_as_xyz
  1  'x, y, z'
loop_
 _atom_site_type_symbol
 _atom_site_label
 _atom_site_symmetry_multiplicity
 _atom_site_fract_x
 _atom_site_fract_y
 _atom_site_fract_z
 _atom_site_occupancy
  Ho  Ho0  1  0.129313  0.935552  0.238975  1
  Ho  Ho1  1  0.870687  0.064448  0.761025  1
  F  F2  1  0.693807  0.633674  0.360538  1
  F  F3  1  0.306193  0.366326  0.639462  1
  F  F4  1  0.043668  0.324919  0.365560  1
  F  F5  1  0.956332  0.675081  0.634440  1
  F  F6  1  0.165323  0.917396  0.961370  1
  F  F7  1  0.834677  0.082604  0.038630  1
  F  F8  1  0.841849  0.911893  0.349656  1
  F  F9  1  0.158151  0.088107  0.650344  1
  F  F10  1  0.026341  0.686966  0.246734  1
  F  F11  1  0.973659  0.313034  0.753266  1
  F  F12  1  0.526103  0.496806  0.378397  1
  F  F13  1  0.473897  0.503194  0.621603  1
  F  F14  1  0.975958  0.065061  0.163710  1
  F  F15  1  0.024042  0.934939  0.836290  1
  F  F16  1  0.123572  0.082321  0.400047  1
  F  F17  1  0.876428  0.917679  0.599953  1
  F  F18  1  0.027309  0.450785  0.318832  1
  F  F19  1  0.972691  0.549215  0.681168  1
  F  F20  1  0.773430  0.740931  0.076822  1
  F  F21  1  0.226570  0.259069  0.923178  1
  F  F22  1  0.842785  0.611433  0.019230  1
  F  F23  1  0.157215  0.388567  0.980770  1
  F  F24  1  0.507083  0.589100  0.863981  1
  F  F25  1  0.492917  0.410900  0.136019  1
  F  F26  1  0.493812  0.055512  0.278141  1
  F  F27  1  0.506188  0.944488  0.721859  1
  F  F28  1  0.270948  0.882591  0.459785  1
  F  F29  1  0.729052  0.117409  0.540215  1
  F  F30  1  0.281822  0.895211  0.060954  1
  F  F31  1  0.718178  0.104789  0.939046  1
  F  F32  1  0.418690  0.830957  0.220451  1
  F  F33  1  0.581310  0.169043  0.779549  1
  F  F34  1  0.619459  0.306779  0.145635  1
  F  F35  1  0.380541  0.693221  0.854365  1
  F  F36  1  0.339754  0.747840  0.464067  1
  F  F37  1  0.660246  0.252160  0.535933  1
