# generated using pymatgen
data_LiDy4Co16(TcP4)3
_symmetry_space_group_name_H-M   'P 1'
_cell_length_a   3.70445000
_cell_length_b   10.36633395
_cell_length_c   11.82952753
_cell_angle_alpha   90.03571146
_cell_angle_beta   90.00000000
_cell_angle_gamma   90.00000000
_symmetry_Int_Tables_number   1
_chemical_formula_structural   LiDy4Co16(TcP4)3
_chemical_formula_sum   'Li1 Dy4 Co16 Tc3 P12'
_cell_volume   454.27229121
_cell_formula_units_Z   1
loop_
 _symmetry_equiv_pos_site_id
 _symmetry_equiv_pos_as_xyz
  1  'x, y, z'
loop_
 _atom_site_type_symbol
 _atom_site_label
 _atom_site_symmetry_multiplicity
 _atom_site_fract_x
 _atom_site_fract_y
 _atom_site_fract_z
 _atom_site_occupancy
  Li  Li0  1  0.750000  0.203166  0.509445  1
  Dy  Dy1  1  0.250000  0.581411  0.701696  1
  Dy  Dy2  1  0.250000  0.915129  0.205177  1
  Dy  Dy3  1  0.750000  0.415441  0.296244  1
  Dy  Dy4  1  0.750000  0.083859  0.795446  1
  Co  Co5  1  0.250000  0.408774  0.488665  1
  Co  Co6  1  0.250000  0.092268  0.988179  1
  Co  Co7  1  0.750000  0.594817  0.510281  1
  Co  Co8  1  0.750000  0.906657  0.010367  1
  Co  Co9  1  0.250000  0.219083  0.174146  1
  Co  Co10  1  0.250000  0.279885  0.679608  1
  Co  Co11  1  0.750000  0.778330  0.822627  1
  Co  Co12  1  0.750000  0.722323  0.323024  1
  Co  Co13  1  0.250000  0.885355  0.701292  1
  Co  Co14  1  0.250000  0.613317  0.201921  1
  Co  Co15  1  0.750000  0.117688  0.299857  1
  Co  Co16  1  0.750000  0.389218  0.799778  1
  Co  Co17  1  0.250000  0.465453  0.934527  1
  Co  Co18  1  0.250000  0.036312  0.432629  1
  Co  Co19  1  0.750000  0.535593  0.067898  1
  Co  Co20  1  0.750000  0.965907  0.569163  1
  Tc  Tc21  1  0.250000  0.710790  0.988573  1
  Tc  Tc22  1  0.250000  0.790991  0.489820  1
  Tc  Tc23  1  0.750000  0.288640  0.010554  1
  P  P24  1  0.250000  0.418816  0.114736  1
  P  P25  1  0.250000  0.081320  0.614168  1
  P  P26  1  0.750000  0.580213  0.886183  1
  P  P27  1  0.750000  0.922872  0.387542  1
  P  P28  1  0.250000  0.270887  0.865494  1
  P  P29  1  0.250000  0.229974  0.364562  1
  P  P30  1  0.750000  0.730197  0.134649  1
  P  P31  1  0.750000  0.770004  0.632625  1
  P  P32  1  0.250000  0.596651  0.392576  1
  P  P33  1  0.250000  0.903394  0.890171  1
  P  P34  1  0.750000  0.398796  0.606903  1
  P  P35  1  0.750000  0.096465  0.109475  1
