# generated using pymatgen
data_Tm2Lu4Ga7Co16
_symmetry_space_group_name_H-M   'P 1'
_cell_length_a   8.40966704
_cell_length_b   8.41926080
_cell_length_c   8.41926000
_cell_angle_alpha   59.95839361
_cell_angle_beta   60.03768021
_cell_angle_gamma   60.03767869
_symmetry_Int_Tables_number   1
_chemical_formula_structural   Tm2Lu4Ga7Co16
_chemical_formula_sum   'Tm2 Lu4 Ga7 Co16'
_cell_volume   421.62066959
_cell_formula_units_Z   1
loop_
 _symmetry_equiv_pos_site_id
 _symmetry_equiv_pos_as_xyz
  1  'x, y, z'
loop_
 _atom_site_type_symbol
 _atom_site_label
 _atom_site_symmetry_multiplicity
 _atom_site_fract_x
 _atom_site_fract_y
 _atom_site_fract_z
 _atom_site_occupancy
  Tm  Tm0  1  0.281626  0.718699  0.281301  1
  Tm  Tm1  1  0.281626  0.281301  0.718699  1
  Lu  Lu2  1  0.720182  0.280114  0.280114  1
  Lu  Lu3  1  0.719654  0.280620  0.719380  1
  Lu  Lu4  1  0.719654  0.719380  0.280620  1
  Lu  Lu5  1  0.280409  0.719886  0.719886  1
  Ga  Ga6  1  0.000196  0.000000  0.000000  1
  Ga  Ga7  1  0.501220  0.000000  0.000000  1
  Ga  Ga8  1  0.500474  0.999621  0.499289  1
  Ga  Ga9  1  0.500474  0.499289  0.999621  1
  Ga  Ga10  1  0.998979  0.500000  0.500000  1
  Ga  Ga11  1  0.999384  0.500711  0.000379  1
  Ga  Ga12  1  0.999384  0.000379  0.500711  1
  Co  Co13  1  0.623985  0.125415  0.125415  1
  Co  Co14  1  0.125162  0.623452  0.125037  1
  Co  Co15  1  0.125162  0.125037  0.623452  1
  Co  Co16  1  0.124686  0.126126  0.126126  1
  Co  Co17  1  0.376936  0.873874  0.873874  1
  Co  Co18  1  0.873650  0.376548  0.874963  1
  Co  Co19  1  0.873650  0.874963  0.376548  1
  Co  Co20  1  0.874814  0.874585  0.874585  1
  Co  Co21  1  0.033276  0.322209  0.322209  1
  Co  Co22  1  0.322088  0.033439  0.322148  1
  Co  Co23  1  0.322088  0.322148  0.033439  1
  Co  Co24  1  0.321991  0.322108  0.322108  1
  Co  Co25  1  0.966206  0.677892  0.677892  1
  Co  Co26  1  0.677674  0.966561  0.677852  1
  Co  Co27  1  0.677674  0.677852  0.966561  1
  Co  Co28  1  0.677692  0.677791  0.677791  1
