# generated using pymatgen
data_Er9LuSi5Ge
_symmetry_space_group_name_H-M   'P 1'
_cell_length_a   8.35694400
_cell_length_b   8.35843662
_cell_length_c   6.27424900
_cell_angle_alpha   90.00134780
_cell_angle_beta   90.00166060
_cell_angle_gamma   119.99251983
_symmetry_Int_Tables_number   1
_chemical_formula_structural   Er9LuSi5Ge
_chemical_formula_sum   'Er9 Lu1 Si5 Ge1'
_cell_volume   379.57504937
_cell_formula_units_Z   1
loop_
 _symmetry_equiv_pos_site_id
 _symmetry_equiv_pos_as_xyz
  1  'x, y, z'
loop_
 _atom_site_type_symbol
 _atom_site_label
 _atom_site_symmetry_multiplicity
 _atom_site_fract_x
 _atom_site_fract_y
 _atom_site_fract_z
 _atom_site_occupancy
  Er  Er0  1  0.998758  0.756124  0.749750  1
  Er  Er1  1  0.000037  0.242883  0.250262  1
  Er  Er2  1  0.757001  0.757308  0.250284  1
  Er  Er3  1  0.758191  0.999852  0.749746  1
  Er  Er4  1  0.242447  0.244052  0.749718  1
  Er  Er5  1  0.242312  0.999832  0.250273  1
  Er  Er6  1  0.667692  0.334571  0.000740  1
  Er  Er7  1  0.667688  0.334544  0.499276  1
  Er  Er8  1  0.333148  0.665463  0.000744  1
  Lu  Lu9  1  0.333133  0.665419  0.499243  1
  Si  Si10  1  0.394106  0.394607  0.250643  1
  Si  Si11  1  0.000728  0.606019  0.250629  1
  Si  Si12  1  0.000525  0.394730  0.749385  1
  Si  Si13  1  0.605179  0.605885  0.749369  1
  Si  Si14  1  0.605463  0.999394  0.250626  1
  Ge  Ge15  1  0.393594  0.999318  0.749313  1
