# generated using pymatgen
data_Pr2GdMg3Si2Ag
_symmetry_space_group_name_H-M   'P 1'
_cell_length_a   7.46311243
_cell_length_b   7.46311272
_cell_length_c   4.41857300
_cell_angle_alpha   90.00000000
_cell_angle_beta   90.00000000
_cell_angle_gamma   119.67818257
_symmetry_Int_Tables_number   1
_chemical_formula_structural   Pr2GdMg3Si2Ag
_chemical_formula_sum   'Pr2 Gd1 Mg3 Si2 Ag1'
_cell_volume   213.82175369
_cell_formula_units_Z   1
loop_
 _symmetry_equiv_pos_site_id
 _symmetry_equiv_pos_as_xyz
  1  'x, y, z'
loop_
 _atom_site_type_symbol
 _atom_site_label
 _atom_site_symmetry_multiplicity
 _atom_site_fract_x
 _atom_site_fract_y
 _atom_site_fract_z
 _atom_site_occupancy
  Pr  Pr0  1  0.577417  0.998420  0.500000  1
  Pr  Pr1  1  0.998420  0.577417  0.500000  1
  Gd  Gd2  1  0.422303  0.422303  0.500000  1
  Mg  Mg3  1  0.751502  0.751502  0.000000  1
  Mg  Mg4  1  0.246507  0.001404  0.000000  1
  Mg  Mg5  1  0.001404  0.246507  0.000000  1
  Si  Si6  1  0.661909  0.335810  0.000000  1
  Si  Si7  1  0.335810  0.661909  0.000000  1
  Ag  Ag8  1  0.004729  0.004729  0.500000  1
