# generated using pymatgen
data_Dy2YIn3Ga2Ni
_symmetry_space_group_name_H-M   'P 1'
_cell_length_a   7.24037414
_cell_length_b   7.24037338
_cell_length_c   4.34085100
_cell_angle_alpha   90.00000000
_cell_angle_beta   90.00000000
_cell_angle_gamma   119.97777388
_symmetry_Int_Tables_number   1
_chemical_formula_structural   Dy2YIn3Ga2Ni
_chemical_formula_sum   'Dy2 Y1 In3 Ga2 Ni1'
_cell_volume   197.11728333
_cell_formula_units_Z   1
loop_
 _symmetry_equiv_pos_site_id
 _symmetry_equiv_pos_as_xyz
  1  'x, y, z'
loop_
 _atom_site_type_symbol
 _atom_site_label
 _atom_site_symmetry_multiplicity
 _atom_site_fract_x
 _atom_site_fract_y
 _atom_site_fract_z
 _atom_site_occupancy
  Dy  Dy0  1  0.593089  0.999607  0.500000  1
  Dy  Dy1  1  0.999607  0.593089  0.500000  1
  Y  Y2  1  0.407229  0.407229  0.500000  1
  In  In3  1  0.756363  0.756363  0.000000  1
  In  In4  1  0.999866  0.243744  0.000000  1
  In  In5  1  0.243744  0.999866  0.000000  1
  Ga  Ga6  1  0.667080  0.333117  0.000000  1
  Ga  Ga7  1  0.333117  0.667080  0.000000  1
  Ni  Ni8  1  0.999905  0.999905  0.500000  1
