# generated using pymatgen
data_Nd4RuWC4
_symmetry_space_group_name_H-M   'P 1'
_cell_length_a   5.34225200
_cell_length_b   6.73540700
_cell_length_c   10.25918200
_cell_angle_alpha   90.00000000
_cell_angle_beta   90.00000000
_cell_angle_gamma   90.00000000
_symmetry_Int_Tables_number   1
_chemical_formula_structural   Nd4RuWC4
_chemical_formula_sum   'Nd8 Ru2 W2 C8'
_cell_volume   369.14836449
_cell_formula_units_Z   2
loop_
 _symmetry_equiv_pos_site_id
 _symmetry_equiv_pos_as_xyz
  1  'x, y, z'
loop_
 _atom_site_type_symbol
 _atom_site_label
 _atom_site_symmetry_multiplicity
 _atom_site_fract_x
 _atom_site_fract_y
 _atom_site_fract_z
 _atom_site_occupancy
  Nd  Nd0  1  0.250000  0.469094  0.780868  1
  Nd  Nd1  1  0.750000  0.030906  0.280868  1
  Nd  Nd2  1  0.250000  0.973128  0.712176  1
  Nd  Nd3  1  0.750000  0.526872  0.212176  1
  Nd  Nd4  1  0.250000  0.815982  0.051471  1
  Nd  Nd5  1  0.750000  0.684018  0.551471  1
  Nd  Nd6  1  0.250000  0.311152  0.445631  1
  Nd  Nd7  1  0.750000  0.188848  0.945631  1
  Ru  Ru8  1  0.250000  0.271248  0.141041  1
  Ru  Ru9  1  0.750000  0.228752  0.641041  1
  W  W10  1  0.250000  0.772413  0.359340  1
  W  W11  1  0.750000  0.727587  0.859340  1
  C  C12  1  0.250000  0.685515  0.542736  1
  C  C13  1  0.750000  0.814485  0.042736  1
  C  C14  1  0.250000  0.186781  0.964522  1
  C  C15  1  0.750000  0.313219  0.464522  1
  C  C16  1  0.250000  0.037970  0.258790  1
  C  C17  1  0.750000  0.462030  0.758790  1
  C  C18  1  0.250000  0.533667  0.243426  1
  C  C19  1  0.750000  0.966333  0.743426  1
