# generated using pymatgen
data_CeEuCu12
_symmetry_space_group_name_H-M   'P 1'
_cell_length_a   5.03402000
_cell_length_b   8.02947309
_cell_length_c   10.01009103
_cell_angle_alpha   89.75472546
_cell_angle_beta   90.00000000
_cell_angle_gamma   90.00000000
_symmetry_Int_Tables_number   1
_chemical_formula_structural   CeEuCu12
_chemical_formula_sum   'Ce2 Eu2 Cu24'
_cell_volume   404.60945847
_cell_formula_units_Z   2
loop_
 _symmetry_equiv_pos_site_id
 _symmetry_equiv_pos_as_xyz
  1  'x, y, z'
loop_
 _atom_site_type_symbol
 _atom_site_label
 _atom_site_symmetry_multiplicity
 _atom_site_fract_x
 _atom_site_fract_y
 _atom_site_fract_z
 _atom_site_occupancy
  Ce  Ce0  1  0.250000  0.759151  0.935400  1
  Ce  Ce1  1  0.750000  0.240849  0.064600  1
  Eu  Eu2  1  0.250000  0.257532  0.565872  1
  Eu  Eu3  1  0.750000  0.742468  0.434128  1
  Cu  Cu4  1  0.250000  0.899108  0.483478  1
  Cu  Cu5  1  0.750000  0.100892  0.516522  1
  Cu  Cu6  1  0.250000  0.400315  0.017539  1
  Cu  Cu7  1  0.750000  0.599685  0.982461  1
  Cu  Cu8  1  0.505600  0.064257  0.310036  1
  Cu  Cu9  1  0.005600  0.935743  0.689964  1
  Cu  Cu10  1  0.993472  0.565232  0.193574  1
  Cu  Cu11  1  0.493472  0.434768  0.806426  1
  Cu  Cu12  1  0.494400  0.935743  0.689964  1
  Cu  Cu13  1  0.994400  0.064257  0.310036  1
  Cu  Cu14  1  0.006528  0.434768  0.806426  1
  Cu  Cu15  1  0.506528  0.565232  0.193574  1
  Cu  Cu16  1  0.750000  0.355832  0.356949  1
  Cu  Cu17  1  0.250000  0.644168  0.643051  1
  Cu  Cu18  1  0.750000  0.853515  0.146166  1
  Cu  Cu19  1  0.250000  0.146485  0.853834  1
  Cu  Cu20  1  0.750000  0.683274  0.740012  1
  Cu  Cu21  1  0.250000  0.316726  0.259988  1
  Cu  Cu22  1  0.750000  0.183236  0.754144  1
  Cu  Cu23  1  0.250000  0.816764  0.245856  1
  Cu  Cu24  1  0.750000  0.937766  0.905839  1
  Cu  Cu25  1  0.250000  0.062234  0.094161  1
  Cu  Cu26  1  0.750000  0.437551  0.591905  1
  Cu  Cu27  1  0.250000  0.562449  0.408095  1
