# generated using pymatgen
data_La5NdIrAu7
_symmetry_space_group_name_H-M   'P 1'
_cell_length_a   8.48704592
_cell_length_b   8.49916430
_cell_length_c   8.48153173
_cell_angle_alpha   114.65241074
_cell_angle_beta   114.45184098
_cell_angle_gamma   114.61174975
_symmetry_Int_Tables_number   1
_chemical_formula_structural   La5NdIrAu7
_chemical_formula_sum   'La5 Nd1 Ir1 Au7'
_cell_volume   355.38264034
_cell_formula_units_Z   1
loop_
 _symmetry_equiv_pos_site_id
 _symmetry_equiv_pos_as_xyz
  1  'x, y, z'
loop_
 _atom_site_type_symbol
 _atom_site_label
 _atom_site_symmetry_multiplicity
 _atom_site_fract_x
 _atom_site_fract_y
 _atom_site_fract_z
 _atom_site_occupancy
  La  La0  1  0.737366  0.618277  0.985385  1
  La  La1  1  0.985313  0.736517  0.618481  1
  La  La2  1  0.617728  0.985681  0.736277  1
  La  La3  1  0.262908  0.381911  0.014478  1
  La  La4  1  0.014348  0.263099  0.381910  1
  Nd  Nd5  1  0.382554  0.014296  0.263314  1
  Ir  Ir6  1  0.000194  0.999914  0.000191  1
  Au  Au7  1  0.570544  0.234511  0.071115  1
  Au  Au8  1  0.071271  0.571496  0.235112  1
  Au  Au9  1  0.235249  0.071000  0.570398  1
  Au  Au10  1  0.428854  0.765497  0.929690  1
  Au  Au11  1  0.928947  0.429478  0.765032  1
  Au  Au12  1  0.764980  0.929328  0.429149  1
  Au  Au13  1  0.499744  0.498997  0.499468  1
