# generated using pymatgen
data_LiErHgPb
_symmetry_space_group_name_H-M   'P 1'
_cell_length_a   5.14134715
_cell_length_b   5.14134785
_cell_length_c   5.14134800
_cell_angle_alpha   59.99999906
_cell_angle_beta   59.99999455
_cell_angle_gamma   60.00000088
_symmetry_Int_Tables_number   1
_chemical_formula_structural   LiErHgPb
_chemical_formula_sum   'Li1 Er1 Hg1 Pb1'
_cell_volume   96.09834371
_cell_formula_units_Z   1
loop_
 _symmetry_equiv_pos_site_id
 _symmetry_equiv_pos_as_xyz
  1  'x, y, z'
loop_
 _atom_site_type_symbol
 _atom_site_label
 _atom_site_symmetry_multiplicity
 _atom_site_fract_x
 _atom_site_fract_y
 _atom_site_fract_z
 _atom_site_occupancy
  Li  Li0  1  0.000000  0.000000  0.000000  1
  Er  Er1  1  0.500000  0.500000  0.500000  1
  Hg  Hg2  1  0.750000  0.750000  0.750000  1
  Pb  Pb3  1  0.250000  0.250000  0.250000  1
