# generated using pymatgen
data_YbSn5Au4
_symmetry_space_group_name_H-M   'P 1'
_cell_length_a   4.72928400
_cell_length_b   4.72928393
_cell_length_c   12.98541400
_cell_angle_alpha   90.00000000
_cell_angle_beta   90.00000000
_cell_angle_gamma   120.00000052
_symmetry_Int_Tables_number   1
_chemical_formula_structural   YbSn5Au4
_chemical_formula_sum   'Yb1 Sn5 Au4'
_cell_volume   251.52271513
_cell_formula_units_Z   1
loop_
 _symmetry_equiv_pos_site_id
 _symmetry_equiv_pos_as_xyz
  1  'x, y, z'
loop_
 _atom_site_type_symbol
 _atom_site_label
 _atom_site_symmetry_multiplicity
 _atom_site_fract_x
 _atom_site_fract_y
 _atom_site_fract_z
 _atom_site_occupancy
  Yb  Yb0  1  0.000000  0.000000  0.250000  1
  Sn  Sn1  1  0.333333  0.666666  0.083030  1
  Sn  Sn2  1  0.333333  0.666666  0.416970  1
  Sn  Sn3  1  0.666668  0.333334  0.577017  1
  Sn  Sn4  1  0.000000  0.000000  0.750000  1
  Sn  Sn5  1  0.666668  0.333334  0.922983  1
  Au  Au6  1  0.666668  0.333334  0.138648  1
  Au  Au7  1  0.666668  0.333334  0.361352  1
  Au  Au8  1  0.333333  0.666666  0.638515  1
  Au  Au9  1  0.333333  0.666666  0.861484  1
