# generated using pymatgen
data_Zr8Si6MoWN2
_symmetry_space_group_name_H-M   'P 1'
_cell_length_a   7.81159200
_cell_length_b   7.81159140
_cell_length_c   5.52772600
_cell_angle_alpha   90.00000000
_cell_angle_beta   90.00000000
_cell_angle_gamma   119.99999407
_symmetry_Int_Tables_number   1
_chemical_formula_structural   Zr8Si6MoWN2
_chemical_formula_sum   'Zr8 Si6 Mo1 W1 N2'
_cell_volume   292.11659912
_cell_formula_units_Z   1
loop_
 _symmetry_equiv_pos_site_id
 _symmetry_equiv_pos_as_xyz
  1  'x, y, z'
loop_
 _atom_site_type_symbol
 _atom_site_label
 _atom_site_symmetry_multiplicity
 _atom_site_fract_x
 _atom_site_fract_y
 _atom_site_fract_z
 _atom_site_occupancy
  Zr  Zr0  1  0.234764  0.000109  0.747923  1
  Zr  Zr1  1  0.765345  0.000109  0.252077  1
  Zr  Zr2  1  0.999891  0.234655  0.747923  1
  Zr  Zr3  1  0.999891  0.765236  0.252077  1
  Zr  Zr4  1  0.765345  0.765236  0.747923  1
  Zr  Zr5  1  0.234764  0.234655  0.252077  1
  Zr  Zr6  1  0.666667  0.333333  0.000000  1
  Zr  Zr7  1  0.333333  0.666667  0.000000  1
  Si  Si8  1  0.589006  0.000017  0.720486  1
  Si  Si9  1  0.411010  0.000017  0.279514  1
  Si  Si10  1  0.999983  0.588990  0.720486  1
  Si  Si11  1  0.999983  0.410994  0.279514  1
  Si  Si12  1  0.411010  0.410994  0.720486  1
  Si  Si13  1  0.589006  0.588990  0.279514  1
  Mo  Mo14  1  0.333333  0.666667  0.500000  1
  W  W15  1  0.666667  0.333333  0.500000  1
  N  N16  1  0.000000  0.000000  0.500000  1
  N  N17  1  0.000000  0.000000  0.000000  1
