# generated using pymatgen
data_La3Y(Rh2O7)2
_symmetry_space_group_name_H-M   'P 1'
_cell_length_a   7.42966420
_cell_length_b   7.38291840
_cell_length_c   7.42966500
_cell_angle_alpha   59.79033079
_cell_angle_beta   60.00000090
_cell_angle_gamma   59.79033308
_symmetry_Int_Tables_number   1
_chemical_formula_structural   La3Y(Rh2O7)2
_chemical_formula_sum   'La3 Y1 Rh4 O14'
_cell_volume   287.25517430
_cell_formula_units_Z   1
loop_
 _symmetry_equiv_pos_site_id
 _symmetry_equiv_pos_as_xyz
  1  'x, y, z'
loop_
 _atom_site_type_symbol
 _atom_site_label
 _atom_site_symmetry_multiplicity
 _atom_site_fract_x
 _atom_site_fract_y
 _atom_site_fract_z
 _atom_site_occupancy
  La  La0  1  0.125000  0.125000  0.125000  1
  La  La1  1  0.625000  0.125000  0.125000  1
  La  La2  1  0.125000  0.125000  0.625000  1
  Y  Y3  1  0.125000  0.625000  0.125000  1
  Rh  Rh4  1  0.625000  0.625000  0.625000  1
  Rh  Rh5  1  0.125000  0.625000  0.625000  1
  Rh  Rh6  1  0.625000  0.125000  0.625000  1
  Rh  Rh7  1  0.625000  0.625000  0.125000  1
  O  O8  1  0.245671  0.262987  0.245671  1
  O  O9  1  0.004329  0.987013  0.004329  1
  O  O10  1  0.543793  0.955756  0.543793  1
  O  O11  1  0.293482  0.697481  0.293482  1
  O  O12  1  0.534446  0.552519  0.956518  1
  O  O13  1  0.956518  0.552519  0.534446  1
  O  O14  1  0.543793  0.955756  0.956658  1
  O  O15  1  0.956658  0.955756  0.543793  1
  O  O16  1  0.956518  0.552519  0.956518  1
  O  O17  1  0.706207  0.294244  0.293342  1
  O  O18  1  0.293482  0.697481  0.715554  1
  O  O19  1  0.715554  0.697481  0.293482  1
  O  O20  1  0.293342  0.294244  0.706207  1
  O  O21  1  0.706207  0.294244  0.706207  1
