# generated using pymatgen
data_Ca2AlNiIr
_symmetry_space_group_name_H-M   'P 1'
_cell_length_a   5.70114881
_cell_length_b   5.70115077
_cell_length_c   5.70114936
_cell_angle_alpha   138.68387462
_cell_angle_beta   121.91956680
_cell_angle_gamma   73.75133857
_symmetry_Int_Tables_number   1
_chemical_formula_structural   Ca2AlNiIr
_chemical_formula_sum   'Ca2 Al1 Ni1 Ir1'
_cell_volume   101.54102312
_cell_formula_units_Z   1
loop_
 _symmetry_equiv_pos_site_id
 _symmetry_equiv_pos_as_xyz
  1  'x, y, z'
loop_
 _atom_site_type_symbol
 _atom_site_label
 _atom_site_symmetry_multiplicity
 _atom_site_fract_x
 _atom_site_fract_y
 _atom_site_fract_z
 _atom_site_occupancy
  Ca  Ca0  1  0.698646  0.200396  0.498250  1
  Ca  Ca1  1  0.297853  0.799604  0.498250  1
  Al  Al2  1  0.002874  0.000000  0.002874  1
  Ni  Ni3  1  0.733791  0.500000  0.233791  1
  Ir  Ir4  1  0.266836  0.500000  0.766836  1
