# generated using pymatgen
data_Tb2AlZnIr2
_symmetry_space_group_name_H-M   'P 1'
_cell_length_a   4.13003600
_cell_length_b   6.99095589
_cell_length_c   8.10076919
_cell_angle_alpha   90.36661896
_cell_angle_beta   90.00000000
_cell_angle_gamma   90.00000000
_symmetry_Int_Tables_number   1
_chemical_formula_structural   Tb2AlZnIr2
_chemical_formula_sum   'Tb4 Al2 Zn2 Ir4'
_cell_volume   233.88790657
_cell_formula_units_Z   2
loop_
 _symmetry_equiv_pos_site_id
 _symmetry_equiv_pos_as_xyz
  1  'x, y, z'
loop_
 _atom_site_type_symbol
 _atom_site_label
 _atom_site_symmetry_multiplicity
 _atom_site_fract_x
 _atom_site_fract_y
 _atom_site_fract_z
 _atom_site_occupancy
  Tb  Tb0  1  0.250000  0.538253  0.185046  1
  Tb  Tb1  1  0.750000  0.461747  0.814954  1
  Tb  Tb2  1  0.250000  0.038031  0.321215  1
  Tb  Tb3  1  0.750000  0.961969  0.678785  1
  Al  Al4  1  0.250000  0.137792  0.938145  1
  Al  Al5  1  0.750000  0.862208  0.061855  1
  Zn  Zn6  1  0.250000  0.637802  0.564241  1
  Zn  Zn7  1  0.750000  0.362198  0.435759  1
  Ir  Ir8  1  0.750000  0.743906  0.369933  1
  Ir  Ir9  1  0.250000  0.256094  0.630067  1
  Ir  Ir10  1  0.750000  0.231250  0.110664  1
  Ir  Ir11  1  0.250000  0.768750  0.889336  1
