# generated using pymatgen
data_Ca3ZrAl14(Si2Ir3)2
_symmetry_space_group_name_H-M   'P 1'
_cell_length_a   7.49088102
_cell_length_b   7.46090184
_cell_length_c   9.43014509
_cell_angle_alpha   89.98396765
_cell_angle_beta   90.06162681
_cell_angle_gamma   119.91864645
_symmetry_Int_Tables_number   1
_chemical_formula_structural   Ca3ZrAl14(Si2Ir3)2
_chemical_formula_sum   'Ca3 Zr1 Al14 Si4 Ir6'
_cell_volume   456.80242438
_cell_formula_units_Z   1
loop_
 _symmetry_equiv_pos_site_id
 _symmetry_equiv_pos_as_xyz
  1  'x, y, z'
loop_
 _atom_site_type_symbol
 _atom_site_label
 _atom_site_symmetry_multiplicity
 _atom_site_fract_x
 _atom_site_fract_y
 _atom_site_fract_z
 _atom_site_occupancy
  Ca  Ca0  1  0.006507  0.341746  0.754244  1
  Ca  Ca1  1  0.669742  0.001098  0.250183  1
  Ca  Ca2  1  0.320895  0.991624  0.745694  1
  Zr  Zr3  1  0.000326  0.667380  0.250097  1
  Al  Al4  1  0.128973  0.121988  0.249982  1
  Al  Al5  1  0.872086  0.869880  0.749932  1
  Al  Al6  1  0.000062  0.329795  0.427634  1
  Al  Al7  1  0.669499  0.999915  0.575245  1
  Al  Al8  1  0.663628  0.998791  0.924565  1
  Al  Al9  1  0.338254  0.003094  0.073578  1
  Al  Al10  1  0.332845  0.333895  0.557643  1
  Al  Al11  1  0.664841  0.668004  0.438255  1
  Al  Al12  1  0.664913  0.668723  0.061737  1
  Al  Al13  1  0.336589  0.332915  0.942400  1
  Al  Al14  1  0.330660  0.546129  0.250172  1
  Al  Al15  1  0.660726  0.451278  0.751080  1
  Al  Al16  1  0.552362  0.348072  0.249538  1
  Al  Al17  1  0.455841  0.660327  0.748957  1
  Si  Si18  1  0.001943  0.330449  0.076964  1
  Si  Si19  1  0.998370  0.671885  0.937750  1
  Si  Si20  1  0.991938  0.659349  0.562271  1
  Si  Si21  1  0.337026  0.004222  0.422447  1
  Ir  Ir22  1  0.690609  0.340798  0.005165  1
  Ir  Ir23  1  0.311826  0.662875  0.000989  1
  Ir  Ir24  1  0.319321  0.678440  0.496590  1
  Ir  Ir25  1  0.672760  0.330861  0.497318  1
  Ir  Ir26  1  0.000287  0.997586  0.002798  1
  Ir  Ir27  1  0.007171  0.988881  0.496768  1
