# generated using pymatgen
data_Tb9DyCo4
_symmetry_space_group_name_H-M   'P 1'
_cell_length_a   6.29524078
_cell_length_b   6.87832750
_cell_length_c   8.57199026
_cell_angle_alpha   96.09704407
_cell_angle_beta   111.54294156
_cell_angle_gamma   89.99999922
_symmetry_Int_Tables_number   1
_chemical_formula_structural   Tb9DyCo4
_chemical_formula_sum   'Tb9 Dy1 Co4'
_cell_volume   342.98595830
_cell_formula_units_Z   1
loop_
 _symmetry_equiv_pos_site_id
 _symmetry_equiv_pos_as_xyz
  1  'x, y, z'
loop_
 _atom_site_type_symbol
 _atom_site_label
 _atom_site_symmetry_multiplicity
 _atom_site_fract_x
 _atom_site_fract_y
 _atom_site_fract_z
 _atom_site_occupancy
  Tb  Tb0  1  0.794452  0.086140  0.812095  1
  Tb  Tb1  1  0.982358  0.413860  0.187905  1
  Tb  Tb2  1  0.205059  0.913378  0.187714  1
  Tb  Tb3  1  0.017344  0.586622  0.812286  1
  Tb  Tb4  1  0.215785  0.184163  0.567371  1
  Tb  Tb5  1  0.648414  0.315837  0.432629  1
  Tb  Tb6  1  0.784316  0.815761  0.432247  1
  Tb  Tb7  1  0.352070  0.684239  0.567753  1
  Tb  Tb8  1  0.428851  0.250000  0.000000  1
  Dy  Dy9  1  0.570875  0.750000  0.000000  1
  Co  Co10  1  0.601020  0.428852  0.778066  1
  Co  Co11  1  0.822954  0.071148  0.221934  1
  Co  Co12  1  0.399215  0.571545  0.221929  1
  Co  Co13  1  0.177285  0.928455  0.778071  1
