# generated using pymatgen
data_Nd2Y3P12Ru19
_symmetry_space_group_name_H-M   'P 1'
_cell_length_a   12.59663500
_cell_length_b   12.57695953
_cell_length_c   4.00434400
_cell_angle_alpha   90.00000000
_cell_angle_beta   90.00000000
_cell_angle_gamma   120.05176100
_symmetry_Int_Tables_number   1
_chemical_formula_structural   Nd2Y3P12Ru19
_chemical_formula_sum   'Nd2 Y3 P12 Ru19'
_cell_volume   549.11772799
_cell_formula_units_Z   1
loop_
 _symmetry_equiv_pos_site_id
 _symmetry_equiv_pos_as_xyz
  1  'x, y, z'
loop_
 _atom_site_type_symbol
 _atom_site_label
 _atom_site_symmetry_multiplicity
 _atom_site_fract_x
 _atom_site_fract_y
 _atom_site_fract_z
 _atom_site_occupancy
  Nd  Nd0  1  0.000127  0.184397  0.500000  1
  Nd  Nd1  1  0.815729  0.815603  0.500000  1
  Y  Y2  1  0.184404  0.000000  0.500000  1
  Y  Y3  1  0.666165  0.333443  0.000000  1
  Y  Y4  1  0.332722  0.666557  0.000000  1
  P  P5  1  0.002013  0.814181  0.000000  1
  P  P6  1  0.187832  0.185819  0.000000  1
  P  P7  1  0.812607  0.000000  0.000000  1
  P  P8  1  0.694112  0.172882  0.500000  1
  P  P9  1  0.827568  0.522721  0.500000  1
  P  P10  1  0.478087  0.305265  0.500000  1
  P  P11  1  0.172822  0.694735  0.500000  1
  P  P12  1  0.521230  0.827118  0.500000  1
  P  P13  1  0.304847  0.477279  0.500000  1
  P  P14  1  0.000200  0.374095  0.000000  1
  P  P15  1  0.626105  0.625905  0.000000  1
  P  P16  1  0.372823  0.000000  0.000000  1
  Ru  Ru17  1  0.001030  0.555097  0.000000  1
  Ru  Ru18  1  0.445933  0.444903  0.000000  1
  Ru  Ru19  1  0.553514  0.000000  0.000000  1
  Ru  Ru20  1  0.001342  0.715923  0.500000  1
  Ru  Ru21  1  0.285418  0.284077  0.500000  1
  Ru  Ru22  1  0.713830  0.000000  0.500000  1
  Ru  Ru23  1  0.804859  0.185341  0.000000  1
  Ru  Ru24  1  0.815779  0.620406  0.000000  1
  Ru  Ru25  1  0.378443  0.192606  0.000000  1
  Ru  Ru26  1  0.185838  0.807394  0.000000  1
  Ru  Ru27  1  0.619520  0.814659  0.000000  1
  Ru  Ru28  1  0.195374  0.379594  0.000000  1
  Ru  Ru29  1  0.874424  0.367853  0.500000  1
  Ru  Ru30  1  0.632763  0.507449  0.500000  1
  Ru  Ru31  1  0.492036  0.125468  0.500000  1
  Ru  Ru32  1  0.366567  0.874532  0.500000  1
  Ru  Ru33  1  0.506571  0.632147  0.500000  1
  Ru  Ru34  1  0.125314  0.492551  0.500000  1
  Ru  Ru35  1  0.002053  0.000000  0.000000  1
