# generated using pymatgen
data_Y12InNi4Os
_symmetry_space_group_name_H-M   'P 1'
_cell_length_a   8.34929336
_cell_length_b   8.34929341
_cell_length_c   8.34929284
_cell_angle_alpha   111.22058600
_cell_angle_beta   109.95734762
_cell_angle_gamma   107.26069676
_symmetry_Int_Tables_number   1
_chemical_formula_structural   Y12InNi4Os
_chemical_formula_sum   'Y12 In1 Ni4 Os1'
_cell_volume   447.49634510
_cell_formula_units_Z   1
loop_
 _symmetry_equiv_pos_site_id
 _symmetry_equiv_pos_as_xyz
  1  'x, y, z'
loop_
 _atom_site_type_symbol
 _atom_site_label
 _atom_site_symmetry_multiplicity
 _atom_site_fract_x
 _atom_site_fract_y
 _atom_site_fract_z
 _atom_site_occupancy
  Y  Y0  1  0.412043  0.221085  0.190957  1
  Y  Y1  1  0.587957  0.778915  0.809043  1
  Y  Y2  1  0.030128  0.221085  0.809043  1
  Y  Y3  1  0.969872  0.778915  0.190957  1
  Y  Y4  1  0.179907  0.279967  0.459874  1
  Y  Y5  1  0.820093  0.720033  0.540126  1
  Y  Y6  1  0.179907  0.720033  0.899940  1
  Y  Y7  1  0.820093  0.279967  0.100060  1
  Y  Y8  1  0.320634  0.624731  0.304097  1
  Y  Y9  1  0.679366  0.375269  0.695903  1
  Y  Y10  1  0.320634  0.016537  0.695903  1
  Y  Y11  1  0.679366  0.983463  0.304097  1
  In  In12  1  0.500000  0.500000  0.000000  1
  Ni  Ni13  1  0.364391  0.000000  0.364391  1
  Ni  Ni14  1  0.635609  0.000000  0.635609  1
  Ni  Ni15  1  0.117368  0.617368  0.500000  1
  Ni  Ni16  1  0.882632  0.382632  0.500000  1
  Os  Os17  1  0.000000  0.000000  0.000000  1
