# generated using pymatgen
data_Tb2HoSi5P(Pd9Pt)2
_symmetry_space_group_name_H-M   'P 1'
_cell_length_a   8.70490421
_cell_length_b   8.70628321
_cell_length_c   8.70628300
_cell_angle_alpha   59.98953255
_cell_angle_beta   60.00523725
_cell_angle_gamma   60.00522993
_symmetry_Int_Tables_number   1
_chemical_formula_structural   Tb2HoSi5P(Pd9Pt)2
_chemical_formula_sum   'Tb2 Ho1 Si5 P1 Pd18 Pt2'
_cell_volume   466.56756746
_cell_formula_units_Z   1
loop_
 _symmetry_equiv_pos_site_id
 _symmetry_equiv_pos_as_xyz
  1  'x, y, z'
loop_
 _atom_site_type_symbol
 _atom_site_label
 _atom_site_symmetry_multiplicity
 _atom_site_fract_x
 _atom_site_fract_y
 _atom_site_fract_z
 _atom_site_occupancy
  Tb  Tb0  1  0.249307  0.251355  0.251355  1
  Tb  Tb1  1  0.748814  0.750684  0.750684  1
  Ho  Ho2  1  0.000874  0.999079  0.999079  1
  Si  Si3  1  0.269099  0.731846  0.731846  1
  Si  Si4  1  0.266225  0.732789  0.267979  1
  Si  Si5  1  0.732245  0.268769  0.733740  1
  Si  Si6  1  0.266225  0.267979  0.732789  1
  Si  Si7  1  0.732245  0.733740  0.268769  1
  P  P8  1  0.732754  0.266026  0.266026  1
  Pd  Pd9  1  0.382759  0.382515  0.849903  1
  Pd  Pd10  1  0.382759  0.849903  0.382515  1
  Pd  Pd11  1  0.617319  0.615607  0.151868  1
  Pd  Pd12  1  0.617319  0.151868  0.615607  1
  Pd  Pd13  1  0.847960  0.382658  0.382658  1
  Pd  Pd14  1  0.150423  0.617143  0.617143  1
  Pd  Pd15  1  0.346661  0.999005  0.999005  1
  Pd  Pd16  1  0.655262  0.998964  0.998964  1
  Pd  Pd17  1  0.001149  0.344505  0.653315  1
  Pd  Pd18  1  0.001149  0.653315  0.344505  1
  Pd  Pd19  1  0.998445  0.345153  0.001293  1
  Pd  Pd20  1  0.655063  0.001468  0.345240  1
  Pd  Pd21  1  0.000169  0.654656  0.999813  1
  Pd  Pd22  1  0.345132  0.999867  0.654789  1
  Pd  Pd23  1  0.998445  0.001293  0.345153  1
  Pd  Pd24  1  0.000169  0.999813  0.654656  1
  Pd  Pd25  1  0.655063  0.345240  0.001468  1
  Pd  Pd26  1  0.345132  0.654789  0.999867  1
  Pt  Pt27  1  0.386106  0.384426  0.384426  1
  Pt  Pt28  1  0.615727  0.615546  0.615546  1
