# generated using pymatgen
data_PrSc(Re2Si)4
_symmetry_space_group_name_H-M   'P 1'
_cell_length_a   7.40758892
_cell_length_b   7.40758892
_cell_length_c   4.14977900
_cell_angle_alpha   90.00000000
_cell_angle_beta   90.00000000
_cell_angle_gamma   87.90924547
_symmetry_Int_Tables_number   1
_chemical_formula_structural   PrSc(Re2Si)4
_chemical_formula_sum   'Pr1 Sc1 Re8 Si4'
_cell_volume   227.55663702
_cell_formula_units_Z   1
loop_
 _symmetry_equiv_pos_site_id
 _symmetry_equiv_pos_as_xyz
  1  'x, y, z'
loop_
 _atom_site_type_symbol
 _atom_site_label
 _atom_site_symmetry_multiplicity
 _atom_site_fract_x
 _atom_site_fract_y
 _atom_site_fract_z
 _atom_site_occupancy
  Pr  Pr0  1  0.500000  0.500000  0.000000  1
  Sc  Sc1  1  0.000000  0.000000  0.500000  1
  Re  Re2  1  0.602666  0.150737  0.500000  1
  Re  Re3  1  0.397334  0.849263  0.500000  1
  Re  Re4  1  0.085474  0.338199  0.000000  1
  Re  Re5  1  0.914526  0.661801  0.000000  1
  Re  Re6  1  0.150737  0.602666  0.500000  1
  Re  Re7  1  0.849263  0.397334  0.500000  1
  Re  Re8  1  0.338199  0.085474  0.000000  1
  Re  Re9  1  0.661801  0.914526  0.000000  1
  Si  Si10  1  0.716087  0.716087  0.500000  1
  Si  Si11  1  0.283913  0.283913  0.500000  1
  Si  Si12  1  0.199166  0.800834  0.000000  1
  Si  Si13  1  0.800834  0.199166  0.000000  1
