# generated using pymatgen
data_YPuU4(Ni3Sb4)2
_symmetry_space_group_name_H-M   'P 1'
_cell_length_a   8.16068330
_cell_length_b   8.16068283
_cell_length_c   8.16068228
_cell_angle_alpha   109.41412529
_cell_angle_beta   109.58545858
_cell_angle_gamma   109.41413054
_symmetry_Int_Tables_number   1
_chemical_formula_structural   YPuU4(Ni3Sb4)2
_chemical_formula_sum   'Y1 Pu1 U4 Ni6 Sb8'
_cell_volume   418.36596747
_cell_formula_units_Z   1
loop_
 _symmetry_equiv_pos_site_id
 _symmetry_equiv_pos_as_xyz
  1  'x, y, z'
loop_
 _atom_site_type_symbol
 _atom_site_label
 _atom_site_symmetry_multiplicity
 _atom_site_fract_x
 _atom_site_fract_y
 _atom_site_fract_z
 _atom_site_occupancy
  Y  Y0  1  0.875000  0.250000  0.125000  1
  Pu  Pu1  1  0.625000  0.750000  0.375000  1
  U  U2  1  0.249517  0.126001  0.878649  1
  U  U3  1  0.752648  0.373999  0.623515  1
  U  U4  1  0.121351  0.870868  0.247352  1
  U  U5  1  0.376485  0.629132  0.750483  1
  Ni  Ni6  1  0.375000  0.250000  0.625000  1
  Ni  Ni7  1  0.125000  0.750000  0.875000  1
  Ni  Ni8  1  0.248704  0.628715  0.380434  1
  Ni  Ni9  1  0.751720  0.871285  0.119989  1
  Ni  Ni10  1  0.619566  0.368269  0.248280  1
  Ni  Ni11  1  0.880011  0.131731  0.751296  1
  Sb  Sb12  1  0.661632  0.499147  0.999006  1
  Sb  Sb13  1  0.499860  0.000853  0.662486  1
  Sb  Sb14  1  0.996157  0.660768  0.497556  1
  Sb  Sb15  1  0.836788  0.839232  0.835388  1
  Sb  Sb16  1  0.502444  0.998601  0.163212  1
  Sb  Sb17  1  0.164612  0.501399  0.003843  1
  Sb  Sb18  1  0.000994  0.162626  0.500140  1
  Sb  Sb19  1  0.337514  0.337374  0.338368  1
