# generated using pymatgen
data_Pr2Dy3Co16(P4W)3
_symmetry_space_group_name_H-M   'P 1'
_cell_length_a   12.16312900
_cell_length_b   12.16312851
_cell_length_c   3.73509200
_cell_angle_alpha   90.00000000
_cell_angle_beta   90.00000000
_cell_angle_gamma   119.99999318
_symmetry_Int_Tables_number   1
_chemical_formula_structural   Pr2Dy3Co16(P4W)3
_chemical_formula_sum   'Pr2 Dy3 Co16 P12 W3'
_cell_volume   478.54476874
_cell_formula_units_Z   1
loop_
 _symmetry_equiv_pos_site_id
 _symmetry_equiv_pos_as_xyz
  1  'x, y, z'
loop_
 _atom_site_type_symbol
 _atom_site_label
 _atom_site_symmetry_multiplicity
 _atom_site_fract_x
 _atom_site_fract_y
 _atom_site_fract_z
 _atom_site_occupancy
  Pr  Pr0  1  0.666667  0.333333  0.000000  1
  Pr  Pr1  1  0.333333  0.666667  0.000000  1
  Dy  Dy2  1  0.185153  0.185153  0.500000  1
  Dy  Dy3  1  0.814847  0.000000  0.500000  1
  Dy  Dy4  1  0.000000  0.814847  0.500000  1
  Co  Co5  1  0.824781  0.197386  0.000000  1
  Co  Co6  1  0.802614  0.627395  0.000000  1
  Co  Co7  1  0.372605  0.175219  0.000000  1
  Co  Co8  1  0.197386  0.824781  0.000000  1
  Co  Co9  1  0.627395  0.802614  0.000000  1
  Co  Co10  1  0.175219  0.372605  0.000000  1
  Co  Co11  1  0.644288  0.124266  0.500000  1
  Co  Co12  1  0.875734  0.520022  0.500000  1
  Co  Co13  1  0.479978  0.355712  0.500000  1
  Co  Co14  1  0.124266  0.644288  0.500000  1
  Co  Co15  1  0.520022  0.875734  0.500000  1
  Co  Co16  1  0.355712  0.479978  0.500000  1
  Co  Co17  1  0.720952  0.720952  0.500000  1
  Co  Co18  1  0.279048  0.000000  0.500000  1
  Co  Co19  1  0.000000  0.279048  0.500000  1
  Co  Co20  1  0.000000  0.000000  0.000000  1
  P  P21  1  0.360252  0.360252  0.000000  1
  P  P22  1  0.639748  0.000000  0.000000  1
  P  P23  1  0.000000  0.639748  0.000000  1
  P  P24  1  0.837654  0.312861  0.500000  1
  P  P25  1  0.687139  0.524793  0.500000  1
  P  P26  1  0.475207  0.162346  0.500000  1
  P  P27  1  0.312861  0.837654  0.500000  1
  P  P28  1  0.524793  0.687139  0.500000  1
  P  P29  1  0.162346  0.475207  0.500000  1
  P  P30  1  0.823137  0.823137  0.000000  1
  P  P31  1  0.176863  0.000000  0.000000  1
  P  P32  1  0.000000  0.176863  0.000000  1
  W  W33  1  0.554339  0.554339  0.000000  1
  W  W34  1  0.445661  0.000000  0.000000  1
  W  W35  1  0.000000  0.445661  0.000000  1
