# generated using pymatgen
data_Ti3Co4Si3GeMo
_symmetry_space_group_name_H-M   'P 1'
_cell_length_a   3.67490700
_cell_length_b   6.12712552
_cell_length_c   6.96032325
_cell_angle_alpha   89.27032642
_cell_angle_beta   90.00000000
_cell_angle_gamma   90.00000000
_symmetry_Int_Tables_number   1
_chemical_formula_structural   Ti3Co4Si3GeMo
_chemical_formula_sum   'Ti3 Co4 Si3 Ge1 Mo1'
_cell_volume   156.71022036
_cell_formula_units_Z   1
loop_
 _symmetry_equiv_pos_site_id
 _symmetry_equiv_pos_as_xyz
  1  'x, y, z'
loop_
 _atom_site_type_symbol
 _atom_site_label
 _atom_site_symmetry_multiplicity
 _atom_site_fract_x
 _atom_site_fract_y
 _atom_site_fract_z
 _atom_site_occupancy
  Ti  Ti0  1  0.750000  0.472533  0.307741  1
  Ti  Ti1  1  0.250000  0.518096  0.694219  1
  Ti  Ti2  1  0.750000  0.983138  0.182389  1
  Co  Co3  1  0.250000  0.641352  0.059582  1
  Co  Co4  1  0.750000  0.361312  0.934301  1
  Co  Co5  1  0.250000  0.151530  0.437161  1
  Co  Co6  1  0.750000  0.857357  0.566129  1
  Si  Si7  1  0.750000  0.733776  0.882367  1
  Si  Si8  1  0.750000  0.223662  0.621686  1
  Si  Si9  1  0.250000  0.269563  0.111501  1
  Ge  Ge10  1  0.250000  0.766140  0.381887  1
  Mo  Mo11  1  0.250000  0.021539  0.821039  1
