# generated using pymatgen
data_Li2Tb2NdAl7
_symmetry_space_group_name_H-M   'P 1'
_cell_length_a   9.32646988
_cell_length_b   9.32647024
_cell_length_c   9.32647047
_cell_angle_alpha   34.74025606
_cell_angle_beta   34.74025265
_cell_angle_gamma   34.74025270
_symmetry_Int_Tables_number   1
_chemical_formula_structural   Li2Tb2NdAl7
_chemical_formula_sum   'Li2 Tb2 Nd1 Al7'
_cell_volume   235.11753048
_cell_formula_units_Z   1
loop_
 _symmetry_equiv_pos_site_id
 _symmetry_equiv_pos_as_xyz
  1  'x, y, z'
loop_
 _atom_site_type_symbol
 _atom_site_label
 _atom_site_symmetry_multiplicity
 _atom_site_fract_x
 _atom_site_fract_y
 _atom_site_fract_z
 _atom_site_occupancy
  Li  Li0  1  0.335242  0.335242  0.335242  1
  Li  Li1  1  0.664758  0.664758  0.664758  1
  Tb  Tb2  1  0.140888  0.140888  0.140888  1
  Tb  Tb3  1  0.859112  0.859112  0.859112  1
  Nd  Nd4  1  0.000000  0.000000  0.000000  1
  Al  Al5  1  0.585516  0.585516  0.076247  1
  Al  Al6  1  0.414484  0.923753  0.414484  1
  Al  Al7  1  0.585516  0.076247  0.585516  1
  Al  Al8  1  0.076247  0.585516  0.585516  1
  Al  Al9  1  0.414484  0.414484  0.923753  1
  Al  Al10  1  0.500000  0.500000  0.500000  1
  Al  Al11  1  0.923753  0.414484  0.414484  1
