# generated using pymatgen
data_La3Cu(Ir2O7)2
_symmetry_space_group_name_H-M   'P 1'
_cell_length_a   7.48964338
_cell_length_b   7.48964186
_cell_length_c   7.23040784
_cell_angle_alpha   58.80671354
_cell_angle_beta   58.80672614
_cell_angle_gamma   59.99999895
_symmetry_Int_Tables_number   1
_chemical_formula_structural   La3Cu(Ir2O7)2
_chemical_formula_sum   'La3 Cu1 Ir4 O14'
_cell_volume   281.51187629
_cell_formula_units_Z   1
loop_
 _symmetry_equiv_pos_site_id
 _symmetry_equiv_pos_as_xyz
  1  'x, y, z'
loop_
 _atom_site_type_symbol
 _atom_site_label
 _atom_site_symmetry_multiplicity
 _atom_site_fract_x
 _atom_site_fract_y
 _atom_site_fract_z
 _atom_site_occupancy
  La  La0  1  0.625000  0.125000  0.125000  1
  La  La1  1  0.125000  0.625000  0.125000  1
  La  La2  1  0.125000  0.125000  0.125000  1
  Cu  Cu3  1  0.125000  0.125000  0.625000  1
  Ir  Ir4  1  0.125000  0.625000  0.625000  1
  Ir  Ir5  1  0.625000  0.125000  0.625000  1
  Ir  Ir6  1  0.625000  0.625000  0.125000  1
  Ir  Ir7  1  0.625000  0.625000  0.625000  1
  O  O8  1  0.708967  0.708967  0.287896  1
  O  O9  1  0.304305  0.304305  0.694004  1
  O  O10  1  0.697386  0.304305  0.694004  1
  O  O11  1  0.294170  0.708967  0.287896  1
  O  O12  1  0.304305  0.697386  0.694004  1
  O  O13  1  0.708967  0.294170  0.287896  1
  O  O14  1  0.541033  0.541033  0.962104  1
  O  O15  1  0.945695  0.945695  0.555996  1
  O  O16  1  0.552614  0.945695  0.555996  1
  O  O17  1  0.955830  0.541033  0.962104  1
  O  O18  1  0.945695  0.552614  0.555996  1
  O  O19  1  0.541033  0.955830  0.962104  1
  O  O20  1  0.235402  0.235402  0.293796  1
  O  O21  1  0.014598  0.014598  0.956204  1
