# generated using pymatgen
data_CeNd3Y4(B6Os)4
_symmetry_space_group_name_H-M   'P 1'
_cell_length_a   3.70641500
_cell_length_b   9.24410967
_cell_length_c   11.64397384
_cell_angle_alpha   90.04355498
_cell_angle_beta   90.00000000
_cell_angle_gamma   90.00000000
_symmetry_Int_Tables_number   1
_chemical_formula_structural   CeNd3Y4(B6Os)4
_chemical_formula_sum   'Ce1 Nd3 Y4 B24 Os4'
_cell_volume   398.95161687
_cell_formula_units_Z   1
loop_
 _symmetry_equiv_pos_site_id
 _symmetry_equiv_pos_as_xyz
  1  'x, y, z'
loop_
 _atom_site_type_symbol
 _atom_site_label
 _atom_site_symmetry_multiplicity
 _atom_site_fract_x
 _atom_site_fract_y
 _atom_site_fract_z
 _atom_site_occupancy
  Ce  Ce0  1  0.000000  0.323133  0.414024  1
  Nd  Nd1  1  0.000000  0.678078  0.586469  1
  Nd  Nd2  1  0.000000  0.822418  0.085740  1
  Nd  Nd3  1  0.000000  0.177401  0.913939  1
  Y  Y4  1  0.000000  0.944220  0.373335  1
  Y  Y5  1  0.000000  0.054969  0.626723  1
  Y  Y6  1  0.000000  0.444540  0.126605  1
  Y  Y7  1  0.000000  0.555772  0.873107  1
  B  B8  1  0.500000  0.554620  0.430442  1
  B  B9  1  0.500000  0.443646  0.568418  1
  B  B10  1  0.500000  0.056256  0.070010  1
  B  B11  1  0.500000  0.944048  0.930603  1
  B  B12  1  0.500000  0.748897  0.417787  1
  B  B13  1  0.500000  0.251315  0.580964  1
  B  B14  1  0.500000  0.249149  0.082359  1
  B  B15  1  0.500000  0.751026  0.917831  1
  B  B16  1  0.500000  0.790093  0.267052  1
  B  B17  1  0.500000  0.209630  0.733006  1
  B  B18  1  0.500000  0.291149  0.234065  1
  B  B19  1  0.500000  0.709649  0.767001  1
  B  B20  1  0.500000  0.631182  0.185475  1
  B  B21  1  0.500000  0.368445  0.814269  1
  B  B22  1  0.500000  0.132476  0.315151  1
  B  B23  1  0.500000  0.868580  0.685600  1
  B  B24  1  0.500000  0.985959  0.214109  1
  B  B25  1  0.500000  0.014253  0.785945  1
  B  B26  1  0.500000  0.484950  0.286554  1
  B  B27  1  0.500000  0.513701  0.713877  1
  B  B28  1  0.500000  0.605370  0.028849  1
  B  B29  1  0.500000  0.394480  0.971014  1
  B  B30  1  0.500000  0.107281  0.470630  1
  B  B31  1  0.500000  0.893757  0.528827  1
  Os  Os32  1  0.000000  0.637436  0.320731  1
  Os  Os33  1  0.000000  0.360696  0.677827  1
  Os  Os34  1  0.000000  0.140351  0.181775  1
  Os  Os35  1  0.000000  0.861075  0.819888  1
