# generated using pymatgen
data_Tm20Ir5Ru4Rh3
_symmetry_space_group_name_H-M   'P 1'
_cell_length_a   10.68326075
_cell_length_b   10.68336375
_cell_length_c   6.33795200
_cell_angle_alpha   90.00187832
_cell_angle_beta   90.00207435
_cell_angle_gamma   90.04291559
_symmetry_Int_Tables_number   1
_chemical_formula_structural   Tm20Ir5Ru4Rh3
_chemical_formula_sum   'Tm20 Ir5 Ru4 Rh3'
_cell_volume   723.37029022
_cell_formula_units_Z   1
loop_
 _symmetry_equiv_pos_site_id
 _symmetry_equiv_pos_as_xyz
  1  'x, y, z'
loop_
 _atom_site_type_symbol
 _atom_site_label
 _atom_site_symmetry_multiplicity
 _atom_site_fract_x
 _atom_site_fract_y
 _atom_site_fract_z
 _atom_site_occupancy
  Tm  Tm0  1  0.294033  0.085841  0.375475  1
  Tm  Tm1  1  0.293797  0.912334  0.876963  1
  Tm  Tm2  1  0.705289  0.087190  0.876091  1
  Tm  Tm3  1  0.705291  0.912629  0.375632  1
  Tm  Tm4  1  0.585367  0.793360  0.877278  1
  Tm  Tm5  1  0.585363  0.206651  0.376937  1
  Tm  Tm6  1  0.413364  0.793438  0.376726  1
  Tm  Tm7  1  0.414602  0.206616  0.876864  1
  Tm  Tm8  1  0.206640  0.414631  0.622723  1
  Tm  Tm9  1  0.206560  0.586641  0.123270  1
  Tm  Tm10  1  0.793347  0.414636  0.123062  1
  Tm  Tm11  1  0.793384  0.585393  0.623136  1
  Tm  Tm12  1  0.914157  0.705969  0.124522  1
  Tm  Tm13  1  0.912811  0.294708  0.623912  1
  Tm  Tm14  1  0.087666  0.706204  0.623036  1
  Tm  Tm15  1  0.087372  0.294710  0.124372  1
  Tm  Tm16  1  0.000243  0.999857  0.499811  1
  Tm  Tm17  1  0.000143  0.999750  0.000190  1
  Tm  Tm18  1  0.500050  0.500002  0.000157  1
  Tm  Tm19  1  0.499997  0.499950  0.499838  1
  Ir  Ir20  1  0.151805  0.848201  0.250004  1
  Ir  Ir21  1  0.653071  0.346928  0.750002  1
  Ir  Ir22  1  0.653002  0.653051  0.250089  1
  Ir  Ir23  1  0.346955  0.347002  0.249914  1
  Ir  Ir24  1  0.347439  0.652562  0.749995  1
  Ru  Ru25  1  0.500447  0.000195  0.122703  1
  Ru  Ru26  1  0.500501  0.000229  0.622992  1
  Ru  Ru27  1  0.999763  0.499500  0.877008  1
  Ru  Ru28  1  0.999804  0.499551  0.377300  1
  Rh  Rh29  1  0.848266  0.151730  0.249997  1
  Rh  Rh30  1  0.847674  0.848211  0.749815  1
  Rh  Rh31  1  0.151798  0.152329  0.750186  1
