# generated using pymatgen
data_Ho4Tc3RuF28
_symmetry_space_group_name_H-M   'P 1'
_cell_length_a   5.57989067
_cell_length_b   8.84897691
_cell_length_c   11.97768845
_cell_angle_alpha   63.02859904
_cell_angle_beta   90.08200162
_cell_angle_gamma   90.00729224
_symmetry_Int_Tables_number   1
_chemical_formula_structural   Ho4Tc3RuF28
_chemical_formula_sum   'Ho4 Tc3 Ru1 F28'
_cell_volume   527.08725415
_cell_formula_units_Z   1
loop_
 _symmetry_equiv_pos_site_id
 _symmetry_equiv_pos_as_xyz
  1  'x, y, z'
loop_
 _atom_site_type_symbol
 _atom_site_label
 _atom_site_symmetry_multiplicity
 _atom_site_fract_x
 _atom_site_fract_y
 _atom_site_fract_z
 _atom_site_occupancy
  Ho  Ho0  1  0.758867  0.811073  0.767658  1
  Ho  Ho1  1  0.258138  0.187785  0.732416  1
  Ho  Ho2  1  0.241002  0.188411  0.235580  1
  Ho  Ho3  1  0.741255  0.815393  0.264710  1
  Tc  Tc4  1  0.756704  0.272116  0.956709  1
  Tc  Tc5  1  0.256435  0.727714  0.543092  1
  Tc  Tc6  1  0.243653  0.727972  0.043559  1
  Ru  Ru7  1  0.743558  0.272285  0.456229  1
  F  F8  1  0.446570  0.705222  0.918667  1
  F  F9  1  0.945502  0.293368  0.583183  1
  F  F10  1  0.553224  0.294495  0.081341  1
  F  F11  1  0.052342  0.705444  0.418156  1
  F  F12  1  0.449378  0.276565  0.546947  1
  F  F13  1  0.948460  0.722185  0.954366  1
  F  F14  1  0.550869  0.721990  0.453122  1
  F  F15  1  0.050909  0.277202  0.046760  1
  F  F16  1  0.772945  0.520374  0.858692  1
  F  F17  1  0.272482  0.480195  0.641454  1
  F  F18  1  0.227075  0.480167  0.141075  1
  F  F19  1  0.728271  0.514275  0.360274  1
  F  F20  1  0.754344  0.025188  0.052740  1
  F  F21  1  0.254130  0.974236  0.447632  1
  F  F22  1  0.245765  0.974185  0.947478  1
  F  F23  1  0.746060  0.031500  0.549244  1
  F  F24  1  0.972534  0.730540  0.639381  1
  F  F25  1  0.473275  0.271164  0.859538  1
  F  F26  1  0.028830  0.272450  0.360109  1
  F  F27  1  0.527475  0.727813  0.141111  1
  F  F28  1  0.045050  0.748544  0.172544  1
  F  F29  1  0.546437  0.251061  0.326759  1
  F  F30  1  0.955117  0.250857  0.828073  1
  F  F31  1  0.455610  0.750421  0.671316  1
  F  F32  1  0.421124  0.972266  0.232647  1
  F  F33  1  0.921834  0.028308  0.267390  1
  F  F34  1  0.577645  0.026761  0.767490  1
  F  F35  1  0.077130  0.970475  0.732555  1
