# generated using pymatgen
data_ThPa(GePd)2
_symmetry_space_group_name_H-M   'P 1'
_cell_length_a   4.36683700
_cell_length_b   7.41467626
_cell_length_c   7.53985600
_cell_angle_alpha   92.46954388
_cell_angle_beta   90.00000000
_cell_angle_gamma   90.00000000
_symmetry_Int_Tables_number   1
_chemical_formula_structural   ThPa(GePd)2
_chemical_formula_sum   'Th2 Pa2 Ge4 Pd4'
_cell_volume   243.90387221
_cell_formula_units_Z   2
loop_
 _symmetry_equiv_pos_site_id
 _symmetry_equiv_pos_as_xyz
  1  'x, y, z'
loop_
 _atom_site_type_symbol
 _atom_site_label
 _atom_site_symmetry_multiplicity
 _atom_site_fract_x
 _atom_site_fract_y
 _atom_site_fract_z
 _atom_site_occupancy
  Th  Th0  1  0.250000  0.999048  0.782638  1
  Th  Th1  1  0.750000  0.000952  0.217362  1
  Pa  Pa2  1  0.250000  0.501292  0.707308  1
  Pa  Pa3  1  0.750000  0.498708  0.292692  1
  Ge  Ge4  1  0.250000  0.277974  0.091620  1
  Ge  Ge5  1  0.750000  0.722026  0.908380  1
  Ge  Ge6  1  0.250000  0.772399  0.404154  1
  Ge  Ge7  1  0.750000  0.227601  0.595846  1
  Pd  Pd8  1  0.750000  0.781317  0.576475  1
  Pd  Pd9  1  0.250000  0.218683  0.423525  1
  Pd  Pd10  1  0.750000  0.331840  0.924536  1
  Pd  Pd11  1  0.250000  0.668160  0.075464  1
