# generated using pymatgen
data_AcTb(SbTe)2
_symmetry_space_group_name_H-M   'P 1'
_cell_length_a   4.38723000
_cell_length_b   4.41614100
_cell_length_c   19.39692000
_cell_angle_alpha   90.00000000
_cell_angle_beta   90.00000000
_cell_angle_gamma   90.00000000
_symmetry_Int_Tables_number   1
_chemical_formula_structural   AcTb(SbTe)2
_chemical_formula_sum   'Ac2 Tb2 Sb4 Te4'
_cell_volume   375.80807597
_cell_formula_units_Z   2
loop_
 _symmetry_equiv_pos_site_id
 _symmetry_equiv_pos_as_xyz
  1  'x, y, z'
loop_
 _atom_site_type_symbol
 _atom_site_label
 _atom_site_symmetry_multiplicity
 _atom_site_fract_x
 _atom_site_fract_y
 _atom_site_fract_z
 _atom_site_occupancy
  Ac  Ac0  1  0.250000  0.738123  0.630708  1
  Ac  Ac1  1  0.750000  0.238123  0.869292  1
  Tb  Tb2  1  0.250000  0.765290  0.145733  1
  Tb  Tb3  1  0.750000  0.265290  0.354267  1
  Sb  Sb4  1  0.250000  0.275063  0.016135  1
  Sb  Sb5  1  0.750000  0.775063  0.483865  1
  Sb  Sb6  1  0.250000  0.221446  0.486498  1
  Sb  Sb7  1  0.750000  0.721446  0.013502  1
  Te  Te8  1  0.750000  0.261713  0.191090  1
  Te  Te9  1  0.250000  0.761713  0.308910  1
  Te  Te10  1  0.750000  0.238365  0.686606  1
  Te  Te11  1  0.250000  0.738365  0.813394  1
