# generated using pymatgen
data_Sc4Be8RuRh9
_symmetry_space_group_name_H-M   'P 1'
_cell_length_a   3.12196000
_cell_length_b   8.71164536
_cell_length_c   10.40615785
_cell_angle_alpha   90.15435119
_cell_angle_beta   90.00000000
_cell_angle_gamma   90.00000000
_symmetry_Int_Tables_number   1
_chemical_formula_structural   Sc4Be8RuRh9
_chemical_formula_sum   'Sc4 Be8 Ru1 Rh9'
_cell_volume   283.01949729
_cell_formula_units_Z   1
loop_
 _symmetry_equiv_pos_site_id
 _symmetry_equiv_pos_as_xyz
  1  'x, y, z'
loop_
 _atom_site_type_symbol
 _atom_site_label
 _atom_site_symmetry_multiplicity
 _atom_site_fract_x
 _atom_site_fract_y
 _atom_site_fract_z
 _atom_site_occupancy
  Sc  Sc0  1  0.500000  0.847826  0.183509  1
  Sc  Sc1  1  0.500000  0.157868  0.821471  1
  Sc  Sc2  1  0.500000  0.657165  0.679948  1
  Sc  Sc3  1  0.500000  0.337499  0.317607  1
  Be  Be4  1  0.500000  0.964776  0.595365  1
  Be  Be5  1  0.500000  0.035794  0.403600  1
  Be  Be6  1  0.500000  0.843856  0.903495  1
  Be  Be7  1  0.500000  0.155145  0.099523  1
  Be  Be8  1  0.500000  0.655801  0.402818  1
  Be  Be9  1  0.500000  0.343562  0.596017  1
  Be  Be10  1  0.500000  0.465253  0.904336  1
  Be  Be11  1  0.500000  0.535991  0.095929  1
  Ru  Ru12  1  0.000000  0.097123  0.256459  1
  Rh  Rh13  1  0.000000  0.659541  0.955626  1
  Rh  Rh14  1  0.000000  0.340100  0.042608  1
  Rh  Rh15  1  0.000000  0.840566  0.455852  1
  Rh  Rh16  1  0.000000  0.159282  0.544657  1
  Rh  Rh17  1  0.000000  0.001134  0.998089  1
  Rh  Rh18  1  0.000000  0.401641  0.756228  1
  Rh  Rh19  1  0.000000  0.597923  0.243573  1
  Rh  Rh20  1  0.000000  0.500664  0.500594  1
  Rh  Rh21  1  0.000000  0.901491  0.742694  1
