# generated using pymatgen
data_SrHfTh2Sb5
_symmetry_space_group_name_H-M   'P 1'
_cell_length_a   9.46233200
_cell_length_b   9.58073760
_cell_length_c   6.48806200
_cell_angle_alpha   90.00000000
_cell_angle_beta   90.00000000
_cell_angle_gamma   119.59200534
_symmetry_Int_Tables_number   1
_chemical_formula_structural   SrHfTh2Sb5
_chemical_formula_sum   'Sr2 Hf2 Th4 Sb10'
_cell_volume   511.46225825
_cell_formula_units_Z   2
loop_
 _symmetry_equiv_pos_site_id
 _symmetry_equiv_pos_as_xyz
  1  'x, y, z'
loop_
 _atom_site_type_symbol
 _atom_site_label
 _atom_site_symmetry_multiplicity
 _atom_site_fract_x
 _atom_site_fract_y
 _atom_site_fract_z
 _atom_site_occupancy
  Sr  Sr0  1  0.613254  0.000000  0.250000  1
  Sr  Sr1  1  0.386746  0.000000  0.750000  1
  Hf  Hf2  1  0.000000  0.000000  0.000000  1
  Hf  Hf3  1  0.000000  0.000000  0.500000  1
  Th  Th4  1  0.011060  0.623197  0.250000  1
  Th  Th5  1  0.988940  0.376803  0.750000  1
  Th  Th6  1  0.387864  0.376803  0.250000  1
  Th  Th7  1  0.612136  0.623197  0.750000  1
  Sb  Sb8  1  0.257806  0.000000  0.250000  1
  Sb  Sb9  1  0.742194  0.000000  0.750000  1
  Sb  Sb10  1  0.005619  0.264152  0.250000  1
  Sb  Sb11  1  0.994381  0.735848  0.750000  1
  Sb  Sb12  1  0.741467  0.735848  0.250000  1
  Sb  Sb13  1  0.258533  0.264152  0.750000  1
  Sb  Sb14  1  0.323487  0.646973  0.000000  1
  Sb  Sb15  1  0.676513  0.353027  0.000000  1
  Sb  Sb16  1  0.676513  0.353027  0.500000  1
  Sb  Sb17  1  0.323487  0.646973  0.500000  1
