# generated using pymatgen
data_Sm4HgRh
_symmetry_space_group_name_H-M   'P 1'
_cell_length_a   9.78173525
_cell_length_b   9.78173520
_cell_length_c   9.78173500
_cell_angle_alpha   59.99999728
_cell_angle_beta   59.99999745
_cell_angle_gamma   59.99999618
_symmetry_Int_Tables_number   1
_chemical_formula_structural   Sm4HgRh
_chemical_formula_sum   'Sm16 Hg4 Rh4'
_cell_volume   661.80900350
_cell_formula_units_Z   4
loop_
 _symmetry_equiv_pos_site_id
 _symmetry_equiv_pos_as_xyz
  1  'x, y, z'
loop_
 _atom_site_type_symbol
 _atom_site_label
 _atom_site_symmetry_multiplicity
 _atom_site_fract_x
 _atom_site_fract_y
 _atom_site_fract_z
 _atom_site_occupancy
  Sm  Sm0  1  0.187238  0.812762  0.812762  1
  Sm  Sm1  1  0.812762  0.187238  0.812762  1
  Sm  Sm2  1  0.059555  0.440445  0.440445  1
  Sm  Sm3  1  0.440445  0.440445  0.059555  1
  Sm  Sm4  1  0.812762  0.812762  0.187238  1
  Sm  Sm5  1  0.600602  0.600602  0.198193  1
  Sm  Sm6  1  0.187238  0.812762  0.187238  1
  Sm  Sm7  1  0.187238  0.187238  0.812762  1
  Sm  Sm8  1  0.440445  0.059555  0.059555  1
  Sm  Sm9  1  0.440445  0.059555  0.440445  1
  Sm  Sm10  1  0.812762  0.187238  0.187238  1
  Sm  Sm11  1  0.059555  0.440445  0.059555  1
  Sm  Sm12  1  0.600602  0.198193  0.600602  1
  Sm  Sm13  1  0.198193  0.600602  0.600602  1
  Sm  Sm14  1  0.600602  0.600602  0.600602  1
  Sm  Sm15  1  0.059555  0.059555  0.440445  1
  Hg  Hg16  1  0.834342  0.496975  0.834342  1
  Hg  Hg17  1  0.496975  0.834342  0.834342  1
  Hg  Hg18  1  0.834342  0.834342  0.834342  1
  Hg  Hg19  1  0.834342  0.834342  0.496975  1
  Rh  Rh20  1  0.392257  0.823228  0.392257  1
  Rh  Rh21  1  0.392257  0.392257  0.823228  1
  Rh  Rh22  1  0.392257  0.392257  0.392257  1
  Rh  Rh23  1  0.823228  0.392257  0.392257  1
