# generated using pymatgen
data_Zr11TiAl8(PtC)4
_symmetry_space_group_name_H-M   'P 1'
_cell_length_a   8.66753621
_cell_length_b   8.66753648
_cell_length_c   8.61321100
_cell_angle_alpha   60.20711421
_cell_angle_beta   60.20711320
_cell_angle_gamma   59.99083787
_symmetry_Int_Tables_number   1
_chemical_formula_structural   Zr11TiAl8(PtC)4
_chemical_formula_sum   'Zr11 Ti1 Al8 Pt4 C4'
_cell_volume   458.94819139
_cell_formula_units_Z   1
loop_
 _symmetry_equiv_pos_site_id
 _symmetry_equiv_pos_as_xyz
  1  'x, y, z'
loop_
 _atom_site_type_symbol
 _atom_site_label
 _atom_site_symmetry_multiplicity
 _atom_site_fract_x
 _atom_site_fract_y
 _atom_site_fract_z
 _atom_site_occupancy
  Zr  Zr0  1  0.942313  0.942313  0.557687  1
  Zr  Zr1  1  0.690138  0.309235  0.305983  1
  Zr  Zr2  1  0.309235  0.690138  0.694644  1
  Zr  Zr3  1  0.689391  0.689391  0.310609  1
  Zr  Zr4  1  0.690138  0.309235  0.694644  1
  Zr  Zr5  1  0.309235  0.690138  0.305983  1
  Zr  Zr6  1  0.559336  0.939812  0.560298  1
  Zr  Zr7  1  0.559336  0.939812  0.940553  1
  Zr  Zr8  1  0.939812  0.559336  0.560298  1
  Zr  Zr9  1  0.939812  0.559336  0.940553  1
  Zr  Zr10  1  0.308743  0.308743  0.691257  1
  Ti  Ti11  1  0.565162  0.565162  0.934838  1
  Al  Al12  1  0.915651  0.244357  0.919997  1
  Al  Al13  1  0.331156  0.331156  0.008892  1
  Al  Al14  1  0.007913  0.331000  0.330543  1
  Al  Al15  1  0.331156  0.331156  0.328796  1
  Al  Al16  1  0.244357  0.915651  0.919997  1
  Al  Al17  1  0.919175  0.919175  0.919739  1
  Al  Al18  1  0.919175  0.919175  0.241912  1
  Al  Al19  1  0.331000  0.007913  0.330543  1
  Pt  Pt20  1  0.125729  0.624775  0.124748  1
  Pt  Pt21  1  0.124681  0.124681  0.626191  1
  Pt  Pt22  1  0.624775  0.125729  0.124748  1
  Pt  Pt23  1  0.124681  0.124681  0.124446  1
  C  C24  1  0.625814  0.125882  0.624152  1
  C  C25  1  0.623101  0.623101  0.119151  1
  C  C26  1  0.125882  0.625814  0.624152  1
  C  C27  1  0.623101  0.623101  0.634647  1
