# generated using pymatgen
data_VCo(TcO4)4
_symmetry_space_group_name_H-M   'P 1'
_cell_length_a   5.78212047
_cell_length_b   10.02237993
_cell_length_c   6.65730828
_cell_angle_alpha   90.01694429
_cell_angle_beta   89.96084852
_cell_angle_gamma   89.98362891
_symmetry_Int_Tables_number   1
_chemical_formula_structural   VCo(TcO4)4
_chemical_formula_sum   'V1 Co1 Tc4 O16'
_cell_volume   385.79494066
_cell_formula_units_Z   1
loop_
 _symmetry_equiv_pos_site_id
 _symmetry_equiv_pos_as_xyz
  1  'x, y, z'
loop_
 _atom_site_type_symbol
 _atom_site_label
 _atom_site_symmetry_multiplicity
 _atom_site_fract_x
 _atom_site_fract_y
 _atom_site_fract_z
 _atom_site_occupancy
  V  V0  1  0.499991  0.499992  0.999986  1
  Co  Co1  1  0.000001  0.000001  0.000003  1
  Tc  Tc2  1  0.999605  0.333108  0.267828  1
  Tc  Tc3  1  0.499747  0.833989  0.265144  1
  Tc  Tc4  1  0.500256  0.166005  0.734852  1
  Tc  Tc5  1  0.000393  0.666896  0.732177  1
  O  O6  1  0.500356  0.167838  0.476816  1
  O  O7  1  0.000222  0.666471  0.473990  1
  O  O8  1  0.999775  0.333534  0.526016  1
  O  O9  1  0.499646  0.832165  0.523183  1
  O  O10  1  0.744785  0.081041  0.821952  1
  O  O11  1  0.245572  0.582061  0.820958  1
  O  O12  1  0.994788  0.168731  0.179428  1
  O  O13  1  0.494664  0.669485  0.174414  1
  O  O14  1  0.249459  0.413160  0.178507  1
  O  O15  1  0.749595  0.913578  0.177764  1
  O  O16  1  0.754424  0.417938  0.179041  1
  O  O17  1  0.255227  0.918963  0.178057  1
  O  O18  1  0.505339  0.330509  0.825571  1
  O  O19  1  0.005211  0.831274  0.820574  1
  O  O20  1  0.250403  0.086424  0.822246  1
  O  O21  1  0.750541  0.586839  0.821492  1
