# generated using pymatgen
data_AlGa(SnPd4)2
_symmetry_space_group_name_H-M   'P 1'
_cell_length_a   4.19621100
_cell_length_b   5.71714097
_cell_length_c   8.08558219
_cell_angle_alpha   90.11669467
_cell_angle_beta   90.00000000
_cell_angle_gamma   90.00000000
_symmetry_Int_Tables_number   1
_chemical_formula_structural   AlGa(SnPd4)2
_chemical_formula_sum   'Al1 Ga1 Sn2 Pd8'
_cell_volume   193.97538113
_cell_formula_units_Z   1
loop_
 _symmetry_equiv_pos_site_id
 _symmetry_equiv_pos_as_xyz
  1  'x, y, z'
loop_
 _atom_site_type_symbol
 _atom_site_label
 _atom_site_symmetry_multiplicity
 _atom_site_fract_x
 _atom_site_fract_y
 _atom_site_fract_z
 _atom_site_occupancy
  Al  Al0  1  0.750000  0.795146  0.890401  1
  Ga  Ga1  1  0.750000  0.297180  0.609354  1
  Sn  Sn2  1  0.250000  0.204286  0.107631  1
  Sn  Sn3  1  0.250000  0.705006  0.391985  1
  Pd  Pd4  1  0.750000  0.437920  0.292191  1
  Pd  Pd5  1  0.750000  0.937133  0.206399  1
  Pd  Pd6  1  0.250000  0.542547  0.709492  1
  Pd  Pd7  1  0.250000  0.037807  0.792261  1
  Pd  Pd8  1  0.750000  0.349690  0.921331  1
  Pd  Pd9  1  0.750000  0.848833  0.580508  1
  Pd  Pd10  1  0.250000  0.672590  0.051815  1
  Pd  Pd11  1  0.250000  0.171859  0.446632  1
