# generated using pymatgen
data_Nd3Y5(Si3Pt)4
_symmetry_space_group_name_H-M   'P 1'
_cell_length_a   8.18321900
_cell_length_b   8.18634260
_cell_length_c   8.34820400
_cell_angle_alpha   90.00000000
_cell_angle_beta   90.00000000
_cell_angle_gamma   119.98736669
_symmetry_Int_Tables_number   1
_chemical_formula_structural   Nd3Y5(Si3Pt)4
_chemical_formula_sum   'Nd3 Y5 Si12 Pt4'
_cell_volume   484.38763370
_cell_formula_units_Z   1
loop_
 _symmetry_equiv_pos_site_id
 _symmetry_equiv_pos_as_xyz
  1  'x, y, z'
loop_
 _atom_site_type_symbol
 _atom_site_label
 _atom_site_symmetry_multiplicity
 _atom_site_fract_x
 _atom_site_fract_y
 _atom_site_fract_z
 _atom_site_occupancy
  Nd  Nd0  1  0.500661  0.001322  0.250000  1
  Nd  Nd1  1  0.999935  0.999869  0.750000  1
  Nd  Nd2  1  0.000003  0.000006  0.250000  1
  Y  Y3  1  0.499310  0.500709  0.750000  1
  Y  Y4  1  0.500615  0.499633  0.250000  1
  Y  Y5  1  0.001399  0.500709  0.750000  1
  Y  Y6  1  0.999017  0.499633  0.250000  1
  Y  Y7  1  0.499259  0.998517  0.750000  1
  Si  Si8  1  0.834164  0.166990  0.997330  1
  Si  Si9  1  0.165853  0.833027  0.998639  1
  Si  Si10  1  0.332827  0.166990  0.997330  1
  Si  Si11  1  0.165853  0.833027  0.501361  1
  Si  Si12  1  0.667174  0.833027  0.998639  1
  Si  Si13  1  0.834164  0.166990  0.502670  1
  Si  Si14  1  0.833679  0.667359  0.999564  1
  Si  Si15  1  0.667174  0.833027  0.501361  1
  Si  Si16  1  0.166258  0.332515  0.000430  1
  Si  Si17  1  0.332827  0.166990  0.502670  1
  Si  Si18  1  0.166258  0.332515  0.499570  1
  Si  Si19  1  0.833679  0.667359  0.500436  1
  Pt  Pt20  1  0.667428  0.334857  0.994447  1
  Pt  Pt21  1  0.332518  0.665036  0.996429  1
  Pt  Pt22  1  0.332518  0.665036  0.503571  1
  Pt  Pt23  1  0.667428  0.334857  0.505553  1
