# generated using pymatgen
data_TbHoZnAg
_symmetry_space_group_name_H-M   'P 1'
_cell_length_a   3.60685900
_cell_length_b   3.60685900
_cell_length_c   7.19135700
_cell_angle_alpha   90.00000000
_cell_angle_beta   90.00000000
_cell_angle_gamma   90.00000000
_symmetry_Int_Tables_number   1
_chemical_formula_structural   TbHoZnAg
_chemical_formula_sum   'Tb1 Ho1 Zn1 Ag1'
_cell_volume   93.55546877
_cell_formula_units_Z   1
loop_
 _symmetry_equiv_pos_site_id
 _symmetry_equiv_pos_as_xyz
  1  'x, y, z'
loop_
 _atom_site_type_symbol
 _atom_site_label
 _atom_site_symmetry_multiplicity
 _atom_site_fract_x
 _atom_site_fract_y
 _atom_site_fract_z
 _atom_site_occupancy
  Tb  Tb0  1  0.500000  0.500000  0.740783  1
  Ho  Ho1  1  0.500000  0.500000  0.258834  1
  Zn  Zn2  1  0.000000  0.000000  0.497799  1
  Ag  Ag3  1  0.000000  0.000000  0.002584  1
