# generated using pymatgen
data_Pr20Ru5Pt7
_symmetry_space_group_name_H-M   'P 1'
_cell_length_a   11.41985037
_cell_length_b   11.41985047
_cell_length_c   6.67473444
_cell_angle_alpha   90.15469792
_cell_angle_beta   90.15469531
_cell_angle_gamma   90.21131496
_symmetry_Int_Tables_number   1
_chemical_formula_structural   Pr20Ru5Pt7
_chemical_formula_sum   'Pr20 Ru5 Pt7'
_cell_volume   870.45974390
_cell_formula_units_Z   1
loop_
 _symmetry_equiv_pos_site_id
 _symmetry_equiv_pos_as_xyz
  1  'x, y, z'
loop_
 _atom_site_type_symbol
 _atom_site_label
 _atom_site_symmetry_multiplicity
 _atom_site_fract_x
 _atom_site_fract_y
 _atom_site_fract_z
 _atom_site_occupancy
  Pr  Pr0  1  0.296965  0.086339  0.375047  1
  Pr  Pr1  1  0.296644  0.906946  0.874363  1
  Pr  Pr2  1  0.702716  0.087002  0.874630  1
  Pr  Pr3  1  0.702403  0.912093  0.373558  1
  Pr  Pr4  1  0.584861  0.794139  0.874476  1
  Pr  Pr5  1  0.587744  0.205217  0.374967  1
  Pr  Pr6  1  0.409155  0.793276  0.381544  1
  Pr  Pr7  1  0.410963  0.201805  0.874739  1
  Pr  Pr8  1  0.205861  0.415139  0.625524  1
  Pr  Pr9  1  0.206724  0.590845  0.118456  1
  Pr  Pr10  1  0.794783  0.412256  0.125033  1
  Pr  Pr11  1  0.798195  0.589037  0.625261  1
  Pr  Pr12  1  0.913661  0.703035  0.124953  1
  Pr  Pr13  1  0.912998  0.297284  0.625370  1
  Pr  Pr14  1  0.093054  0.703356  0.625637  1
  Pr  Pr15  1  0.087907  0.297597  0.126442  1
  Pr  Pr16  1  0.999772  0.999172  0.500800  1
  Pr  Pr17  1  0.000828  0.000228  0.999200  1
  Pr  Pr18  1  0.496828  0.501761  0.998390  1
  Pr  Pr19  1  0.498239  0.503172  0.501610  1
  Ru  Ru20  1  0.349158  0.650842  0.750000  1
  Ru  Ru21  1  0.500947  0.000789  0.118303  1
  Ru  Ru22  1  0.500374  0.001582  0.615899  1
  Ru  Ru23  1  0.998418  0.499626  0.884101  1
  Ru  Ru24  1  0.999211  0.499053  0.381697  1
  Pt  Pt25  1  0.846940  0.153060  0.250000  1
  Pt  Pt26  1  0.845334  0.847403  0.750495  1
  Pt  Pt27  1  0.152597  0.154666  0.749505  1
  Pt  Pt28  1  0.152694  0.847306  0.250000  1
  Pt  Pt29  1  0.653105  0.346895  0.750000  1
  Pt  Pt30  1  0.655111  0.654186  0.250191  1
  Pt  Pt31  1  0.345814  0.344889  0.249809  1
