# generated using pymatgen
data_Rb2Tb4Cu4Se9
_symmetry_space_group_name_H-M   'P 1'
_cell_length_a   7.54797985
_cell_length_b   7.54797927
_cell_length_c   16.64940959
_cell_angle_alpha   71.75872902
_cell_angle_beta   71.75873058
_cell_angle_gamma   31.94350836
_symmetry_Int_Tables_number   1
_chemical_formula_structural   Rb2Tb4Cu4Se9
_chemical_formula_sum   'Rb2 Tb4 Cu4 Se9'
_cell_volume   474.51609726
_cell_formula_units_Z   1
loop_
 _symmetry_equiv_pos_site_id
 _symmetry_equiv_pos_as_xyz
  1  'x, y, z'
loop_
 _atom_site_type_symbol
 _atom_site_label
 _atom_site_symmetry_multiplicity
 _atom_site_fract_x
 _atom_site_fract_y
 _atom_site_fract_z
 _atom_site_occupancy
  Rb  Rb0  1  0.032933  0.032933  0.730443  1
  Rb  Rb1  1  0.967067  0.967067  0.269557  1
  Tb  Tb2  1  0.231837  0.231837  0.897124  1
  Tb  Tb3  1  0.345924  0.345924  0.555664  1
  Tb  Tb4  1  0.654076  0.654076  0.444336  1
  Tb  Tb5  1  0.768163  0.768163  0.102876  1
  Cu  Cu6  1  0.424984  0.424984  0.970862  1
  Cu  Cu7  1  0.759515  0.759515  0.728952  1
  Cu  Cu8  1  0.240485  0.240485  0.271048  1
  Cu  Cu9  1  0.575016  0.575016  0.029138  1
  Se  Se10  1  0.863212  0.863212  0.923858  1
  Se  Se11  1  0.607289  0.607289  0.872121  1
  Se  Se12  1  0.351449  0.351449  0.723234  1
  Se  Se13  1  0.702855  0.702855  0.602328  1
  Se  Se14  1  0.000000  0.000000  0.500000  1
  Se  Se15  1  0.297145  0.297145  0.397672  1
  Se  Se16  1  0.648551  0.648551  0.276766  1
  Se  Se17  1  0.392711  0.392711  0.127879  1
  Se  Se18  1  0.136788  0.136788  0.076142  1
