# generated using pymatgen
data_Th4Al24OsPd8
_symmetry_space_group_name_H-M   'P 1'
_cell_length_a   7.63254129
_cell_length_b   7.64397779
_cell_length_c   13.28503500
_cell_angle_alpha   84.47840901
_cell_angle_beta   79.06403547
_cell_angle_gamma   59.89732496
_symmetry_Int_Tables_number   1
_chemical_formula_structural   Th4Al24OsPd8
_chemical_formula_sum   'Th4 Al24 Os1 Pd8'
_cell_volume   658.37290738
_cell_formula_units_Z   1
loop_
 _symmetry_equiv_pos_site_id
 _symmetry_equiv_pos_as_xyz
  1  'x, y, z'
loop_
 _atom_site_type_symbol
 _atom_site_label
 _atom_site_symmetry_multiplicity
 _atom_site_fract_x
 _atom_site_fract_y
 _atom_site_fract_z
 _atom_site_occupancy
  Th  Th0  1  0.393600  0.168657  0.808015  1
  Th  Th1  1  0.606400  0.831343  0.191985  1
  Th  Th2  1  0.734521  0.497722  0.807875  1
  Th  Th3  1  0.265479  0.502278  0.192125  1
  Al  Al4  1  0.690207  0.830277  0.947204  1
  Al  Al5  1  0.309793  0.169723  0.052796  1
  Al  Al6  1  0.144954  0.834789  0.560075  1
  Al  Al7  1  0.855046  0.165211  0.439925  1
  Al  Al8  1  0.481625  0.166061  0.558032  1
  Al  Al9  1  0.518375  0.833939  0.441968  1
  Al  Al10  1  0.212027  0.165085  0.334598  1
  Al  Al11  1  0.787973  0.834915  0.665402  1
  Al  Al12  1  0.434058  0.510680  0.665364  1
  Al  Al13  1  0.565942  0.489320  0.334636  1
  Al  Al14  1  0.111121  0.155554  0.663648  1
  Al  Al15  1  0.888879  0.844446  0.336352  1
  Al  Al16  1  0.344953  0.502999  0.947465  1
  Al  Al17  1  0.655047  0.497001  0.052535  1
  Al  Al18  1  0.014259  0.168380  0.958862  1
  Al  Al19  1  0.985741  0.831620  0.041138  1
  Al  Al20  1  0.187048  0.500972  0.442043  1
  Al  Al21  1  0.812952  0.499028  0.557957  1
  Al  Al22  1  0.738035  0.162603  0.183858  1
  Al  Al23  1  0.261965  0.837397  0.816142  1
  Al  Al24  1  0.061332  0.633713  0.817502  1
  Al  Al25  1  0.938668  0.366287  0.182498  1
  Al  Al26  1  0.861544  0.037355  0.815944  1
  Al  Al27  1  0.138456  0.962645  0.184056  1
  Os  Os28  1  0.000000  0.500000  0.000000  1
  Pd  Pd29  1  0.120029  0.492732  0.638238  1
  Pd  Pd30  1  0.879971  0.507268  0.361762  1
  Pd  Pd31  1  0.656782  0.171205  0.999517  1
  Pd  Pd32  1  0.343218  0.828795  0.000483  1
  Pd  Pd33  1  0.538285  0.167102  0.362739  1
  Pd  Pd34  1  0.461715  0.832898  0.637261  1
  Pd  Pd35  1  0.778865  0.174638  0.637432  1
  Pd  Pd36  1  0.221135  0.825362  0.362568  1
