# generated using pymatgen
data_Zr24Si3As3Se2
_symmetry_space_group_name_H-M   'P 1'
_cell_length_a   11.01747754
_cell_length_b   11.04180399
_cell_length_c   5.47350019
_cell_angle_alpha   89.93260196
_cell_angle_beta   89.92278415
_cell_angle_gamma   89.99794880
_symmetry_Int_Tables_number   1
_chemical_formula_structural   Zr24Si3As3Se2
_chemical_formula_sum   'Zr24 Si3 As3 Se2'
_cell_volume   665.86570848
_cell_formula_units_Z   1
loop_
 _symmetry_equiv_pos_site_id
 _symmetry_equiv_pos_as_xyz
  1  'x, y, z'
loop_
 _atom_site_type_symbol
 _atom_site_label
 _atom_site_symmetry_multiplicity
 _atom_site_fract_x
 _atom_site_fract_y
 _atom_site_fract_z
 _atom_site_occupancy
  Zr  Zr0  1  0.918031  0.607584  0.540647  1
  Zr  Zr1  1  0.083137  0.392850  0.536967  1
  Zr  Zr2  1  0.893974  0.415694  0.030599  1
  Zr  Zr3  1  0.107418  0.583061  0.035235  1
  Zr  Zr4  1  0.582306  0.894281  0.961512  1
  Zr  Zr5  1  0.417695  0.105925  0.961242  1
  Zr  Zr6  1  0.605068  0.083651  0.467093  1
  Zr  Zr7  1  0.395152  0.916484  0.466688  1
  Zr  Zr8  1  0.862805  0.973995  0.717935  1
  Zr  Zr9  1  0.137085  0.026196  0.718430  1
  Zr  Zr10  1  0.525533  0.360989  0.217623  1
  Zr  Zr11  1  0.471788  0.638274  0.218801  1
  Zr  Zr12  1  0.640033  0.526003  0.783574  1
  Zr  Zr13  1  0.359341  0.473422  0.781684  1
  Zr  Zr14  1  0.973123  0.140617  0.281420  1
  Zr  Zr15  1  0.026251  0.859432  0.282169  1
  Zr  Zr16  1  0.819521  0.715104  0.007913  1
  Zr  Zr17  1  0.180469  0.286542  0.008941  1
  Zr  Zr18  1  0.786085  0.318636  0.512503  1
  Zr  Zr19  1  0.214239  0.680556  0.510125  1
  Zr  Zr20  1  0.681972  0.784222  0.490587  1
  Zr  Zr21  1  0.317978  0.217050  0.489723  1
  Zr  Zr22  1  0.716110  0.181145  0.987611  1
  Zr  Zr23  1  0.283658  0.818780  0.987499  1
  Si  Si24  1  0.294356  0.459097  0.287748  1
  Si  Si25  1  0.959605  0.205201  0.787284  1
  Si  Si26  1  0.040884  0.794579  0.788513  1
  As  As27  1  0.540084  0.294583  0.712559  1
  As  As28  1  0.459897  0.705326  0.712878  1
  As  As29  1  0.706437  0.540324  0.288297  1
  Se  Se30  1  0.792880  0.960087  0.212847  1
  Se  Se31  1  0.207086  0.040311  0.213354  1
