# generated using pymatgen
data_Yb2FeBrO3
_symmetry_space_group_name_H-M   'P 1'
_cell_length_a   5.44720737
_cell_length_b   5.44730713
_cell_length_c   15.26663823
_cell_angle_alpha   79.71051994
_cell_angle_beta   79.72069553
_cell_angle_gamma   90.00508185
_symmetry_Int_Tables_number   1
_chemical_formula_structural   Yb2FeBrO3
_chemical_formula_sum   'Yb8 Fe4 Br4 O12'
_cell_volume   438.32277405
_cell_formula_units_Z   4
loop_
 _symmetry_equiv_pos_site_id
 _symmetry_equiv_pos_as_xyz
  1  'x, y, z'
loop_
 _atom_site_type_symbol
 _atom_site_label
 _atom_site_symmetry_multiplicity
 _atom_site_fract_x
 _atom_site_fract_y
 _atom_site_fract_z
 _atom_site_occupancy
  Yb  Yb0  1  0.153379  0.402980  0.693667  1
  Yb  Yb1  1  0.653398  0.903030  0.693658  1
  Yb  Yb2  1  0.346650  0.097055  0.306321  1
  Yb  Yb3  1  0.846608  0.597006  0.306336  1
  Yb  Yb4  1  0.455872  0.206151  0.087687  1
  Yb  Yb5  1  0.955666  0.706366  0.087716  1
  Yb  Yb6  1  0.044226  0.293583  0.912323  1
  Yb  Yb7  1  0.544191  0.793524  0.912305  1
  Fe  Fe8  1  0.094797  0.844426  0.810534  1
  Fe  Fe9  1  0.405038  0.655351  0.189505  1
  Fe  Fe10  1  0.594902  0.344306  0.810509  1
  Fe  Fe11  1  0.905129  0.155612  0.189525  1
  Br  Br12  1  0.299691  0.550031  0.399932  1
  Br  Br13  1  0.799698  0.050044  0.399924  1
  Br  Br14  1  0.200377  0.950212  0.600009  1
  Br  Br15  1  0.700383  0.450211  0.600059  1
  O  O16  1  0.469875  0.719914  0.060990  1
  O  O17  1  0.969829  0.219758  0.061019  1
  O  O18  1  0.030124  0.780300  0.939006  1
  O  O19  1  0.530182  0.280293  0.938994  1
  O  O20  1  0.855643  0.605198  0.788870  1
  O  O21  1  0.355642  0.105185  0.788873  1
  O  O22  1  0.355644  0.605160  0.788906  1
  O  O23  1  0.855665  0.105173  0.788865  1
  O  O24  1  0.144317  0.894800  0.211104  1
  O  O25  1  0.644321  0.394802  0.211115  1
  O  O26  1  0.644399  0.894781  0.211088  1
  O  O27  1  0.144355  0.394749  0.211162  1
