# generated using pymatgen
data_TbHoGa7Ni2Pd
_symmetry_space_group_name_H-M   'P 1'
_cell_length_a   4.12270607
_cell_length_b   6.45377017
_cell_length_c   7.91116570
_cell_angle_alpha   90.87907007
_cell_angle_beta   105.10345196
_cell_angle_gamma   90.00000514
_symmetry_Int_Tables_number   1
_chemical_formula_structural   TbHoGa7Ni2Pd
_chemical_formula_sum   'Tb1 Ho1 Ga7 Ni2 Pd1'
_cell_volume   203.19565318
_cell_formula_units_Z   1
loop_
 _symmetry_equiv_pos_site_id
 _symmetry_equiv_pos_as_xyz
  1  'x, y, z'
loop_
 _atom_site_type_symbol
 _atom_site_label
 _atom_site_symmetry_multiplicity
 _atom_site_fract_x
 _atom_site_fract_y
 _atom_site_fract_z
 _atom_site_occupancy
  Tb  Tb0  1  0.124828  0.235057  0.249656  1
  Ho  Ho1  1  0.874998  0.763952  0.749994  1
  Ga  Ga2  1  0.499631  0.998207  0.999261  1
  Ga  Ga3  1  0.065786  0.716255  0.131571  1
  Ga  Ga4  1  0.934039  0.285318  0.868079  1
  Ga  Ga5  1  0.680896  0.544155  0.361792  1
  Ga  Ga6  1  0.319281  0.455937  0.638562  1
  Ga  Ga7  1  0.685764  0.943851  0.371527  1
  Ga  Ga8  1  0.315168  0.055019  0.630337  1
  Ni  Ni9  1  0.221164  0.747644  0.442328  1
  Ni  Ni10  1  0.779136  0.252174  0.558272  1
  Pd  Pd11  1  0.499310  0.502431  0.998619  1
