# generated using pymatgen
data_Ho2Hf2TaSi4
_symmetry_space_group_name_H-M   'P 1'
_cell_length_a   7.19353500
_cell_length_b   7.19353500
_cell_length_c   13.15859600
_cell_angle_alpha   90.00000000
_cell_angle_beta   90.00000000
_cell_angle_gamma   90.00000000
_symmetry_Int_Tables_number   1
_chemical_formula_structural   Ho2Hf2TaSi4
_chemical_formula_sum   'Ho8 Hf8 Ta4 Si16'
_cell_volume   680.91715397
_cell_formula_units_Z   4
loop_
 _symmetry_equiv_pos_site_id
 _symmetry_equiv_pos_as_xyz
  1  'x, y, z'
loop_
 _atom_site_type_symbol
 _atom_site_label
 _atom_site_symmetry_multiplicity
 _atom_site_fract_x
 _atom_site_fract_y
 _atom_site_fract_z
 _atom_site_occupancy
  Ho  Ho0  1  0.497348  0.154609  0.534417  1
  Ho  Ho1  1  0.502652  0.845391  0.034417  1
  Ho  Ho2  1  0.654609  0.002652  0.284417  1
  Ho  Ho3  1  0.345391  0.997348  0.784417  1
  Ho  Ho4  1  0.845391  0.502652  0.965583  1
  Ho  Ho5  1  0.154609  0.497348  0.465583  1
  Ho  Ho6  1  0.002652  0.654609  0.715583  1
  Ho  Ho7  1  0.997348  0.345391  0.215583  1
  Hf  Hf8  1  0.493656  0.353156  0.125449  1
  Hf  Hf9  1  0.506344  0.646844  0.625449  1
  Hf  Hf10  1  0.853156  0.006344  0.875449  1
  Hf  Hf11  1  0.146844  0.993656  0.375449  1
  Hf  Hf12  1  0.646844  0.506344  0.374551  1
  Hf  Hf13  1  0.353156  0.493656  0.874551  1
  Hf  Hf14  1  0.006344  0.853156  0.124551  1
  Hf  Hf15  1  0.993656  0.146844  0.624551  1
  Ta  Ta16  1  0.676837  0.323163  0.750000  1
  Ta  Ta17  1  0.323163  0.676837  0.250000  1
  Ta  Ta18  1  0.823163  0.823163  0.500000  1
  Ta  Ta19  1  0.176837  0.176837  0.000000  1
  Si  Si20  1  0.796938  0.140432  0.067719  1
  Si  Si21  1  0.203062  0.859568  0.567719  1
  Si  Si22  1  0.640432  0.703062  0.817719  1
  Si  Si23  1  0.359568  0.296938  0.317719  1
  Si  Si24  1  0.859568  0.203062  0.432281  1
  Si  Si25  1  0.140432  0.796938  0.932281  1
  Si  Si26  1  0.703062  0.640432  0.182281  1
  Si  Si27  1  0.296938  0.359568  0.682281  1
  Si  Si28  1  0.549210  0.203584  0.934703  1
  Si  Si29  1  0.450790  0.796416  0.434703  1
  Si  Si30  1  0.703584  0.950790  0.684703  1
  Si  Si31  1  0.296416  0.049210  0.184703  1
  Si  Si32  1  0.796416  0.450790  0.565297  1
  Si  Si33  1  0.203584  0.549210  0.065297  1
  Si  Si34  1  0.950790  0.703584  0.315297  1
  Si  Si35  1  0.049210  0.296416  0.815297  1
