# generated using pymatgen
data_K3TcF8
_symmetry_space_group_name_H-M   'P 1'
_cell_length_a   8.38827000
_cell_length_b   8.38826957
_cell_length_c   6.33263500
_cell_angle_alpha   90.00000000
_cell_angle_beta   90.00000000
_cell_angle_gamma   119.99999379
_symmetry_Int_Tables_number   1
_chemical_formula_structural   K3TcF8
_chemical_formula_sum   'K6 Tc2 F16'
_cell_volume   385.88677585
_cell_formula_units_Z   2
loop_
 _symmetry_equiv_pos_site_id
 _symmetry_equiv_pos_as_xyz
  1  'x, y, z'
loop_
 _atom_site_type_symbol
 _atom_site_label
 _atom_site_symmetry_multiplicity
 _atom_site_fract_x
 _atom_site_fract_y
 _atom_site_fract_z
 _atom_site_occupancy
  K  K0  1  0.153061  0.306122  0.245938  1
  K  K1  1  0.846939  0.693878  0.745939  1
  K  K2  1  0.693878  0.846939  0.245938  1
  K  K3  1  0.153061  0.846939  0.245938  1
  K  K4  1  0.846939  0.153061  0.745939  1
  K  K5  1  0.306122  0.153061  0.745939  1
  Tc  Tc6  1  0.333333  0.666667  0.733242  1
  Tc  Tc7  1  0.666667  0.333333  0.233242  1
  F  F8  1  0.000000  0.000000  0.004259  1
  F  F9  1  0.000000  0.000000  0.504259  1
  F  F10  1  0.436698  0.563302  0.535677  1
  F  F11  1  0.563302  0.436698  0.035677  1
  F  F12  1  0.436698  0.873395  0.535677  1
  F  F13  1  0.126605  0.563302  0.535677  1
  F  F14  1  0.873395  0.436698  0.035677  1
  F  F15  1  0.563302  0.126605  0.035677  1
  F  F16  1  0.333333  0.666667  0.043287  1
  F  F17  1  0.666667  0.333333  0.543287  1
  F  F18  1  0.202379  0.797621  0.819840  1
  F  F19  1  0.797621  0.202379  0.319840  1
  F  F20  1  0.202379  0.404758  0.819840  1
  F  F21  1  0.595242  0.797621  0.819840  1
  F  F22  1  0.404758  0.202379  0.319840  1
  F  F23  1  0.797621  0.595242  0.319840  1
