# generated using pymatgen
data_CsRbRe6Se11
_symmetry_space_group_name_H-M   'P 1'
_cell_length_a   12.63230419
_cell_length_b   12.63230380
_cell_length_c   12.63230294
_cell_angle_alpha   46.68284030
_cell_angle_beta   46.68284338
_cell_angle_gamma   46.68283878
_symmetry_Int_Tables_number   1
_chemical_formula_structural   CsRbRe6Se11
_chemical_formula_sum   'Cs2 Rb2 Re12 Se22'
_cell_volume   974.74523678
_cell_formula_units_Z   2
loop_
 _symmetry_equiv_pos_site_id
 _symmetry_equiv_pos_as_xyz
  1  'x, y, z'
loop_
 _atom_site_type_symbol
 _atom_site_label
 _atom_site_symmetry_multiplicity
 _atom_site_fract_x
 _atom_site_fract_y
 _atom_site_fract_z
 _atom_site_occupancy
  Cs  Cs0  1  0.692209  0.692209  0.692209  1
  Cs  Cs1  1  0.807791  0.807791  0.807791  1
  Rb  Rb2  1  0.307754  0.307754  0.307754  1
  Rb  Rb3  1  0.192246  0.192246  0.192246  1
  Re  Re4  1  0.618537  0.311224  0.471077  1
  Re  Re5  1  0.471077  0.618537  0.311224  1
  Re  Re6  1  0.811167  0.118939  0.971404  1
  Re  Re7  1  0.971404  0.811167  0.118939  1
  Re  Re8  1  0.118939  0.971404  0.811167  1
  Re  Re9  1  0.688833  0.528596  0.381061  1
  Re  Re10  1  0.381061  0.688833  0.528596  1
  Re  Re11  1  0.528596  0.381061  0.688833  1
  Re  Re12  1  0.311224  0.471077  0.618537  1
  Re  Re13  1  0.881463  0.028923  0.188776  1
  Re  Re14  1  0.028923  0.188776  0.881463  1
  Re  Re15  1  0.188776  0.881463  0.028923  1
  Se  Se16  1  0.092606  0.092606  0.092606  1
  Se  Se17  1  0.407394  0.407394  0.407394  1
  Se  Se18  1  0.908042  0.908042  0.908042  1
  Se  Se19  1  0.591958  0.591958  0.591958  1
  Se  Se20  1  0.250000  0.949854  0.550146  1
  Se  Se21  1  0.550146  0.250000  0.949854  1
  Se  Se22  1  0.949854  0.550146  0.250000  1
  Se  Se23  1  0.750000  0.053478  0.446522  1
  Se  Se24  1  0.446522  0.750000  0.053478  1
  Se  Se25  1  0.053478  0.446522  0.750000  1
  Se  Se26  1  0.043147  0.729597  0.317906  1
  Se  Se27  1  0.317906  0.043147  0.729597  1
  Se  Se28  1  0.729597  0.317906  0.043147  1
  Se  Se29  1  0.456853  0.182094  0.770403  1
  Se  Se30  1  0.770403  0.456853  0.182094  1
  Se  Se31  1  0.182094  0.770403  0.456853  1
  Se  Se32  1  0.818888  0.230178  0.541435  1
  Se  Se33  1  0.230178  0.541435  0.818888  1
  Se  Se34  1  0.541435  0.818888  0.230178  1
  Se  Se35  1  0.269822  0.681112  0.958565  1
  Se  Se36  1  0.681112  0.958565  0.269822  1
  Se  Se37  1  0.958565  0.269822  0.681112  1
