# generated using pymatgen
data_HfZr9GaCuSb6
_symmetry_space_group_name_H-M   'P 1'
_cell_length_a   8.64910500
_cell_length_b   8.64910729
_cell_length_c   5.85641400
_cell_angle_alpha   90.00000000
_cell_angle_beta   90.00000000
_cell_angle_gamma   119.99999508
_symmetry_Int_Tables_number   1
_chemical_formula_structural   HfZr9GaCuSb6
_chemical_formula_sum   'Hf1 Zr9 Ga1 Cu1 Sb6'
_cell_volume   379.40659618
_cell_formula_units_Z   1
loop_
 _symmetry_equiv_pos_site_id
 _symmetry_equiv_pos_as_xyz
  1  'x, y, z'
loop_
 _atom_site_type_symbol
 _atom_site_label
 _atom_site_symmetry_multiplicity
 _atom_site_fract_x
 _atom_site_fract_y
 _atom_site_fract_z
 _atom_site_occupancy
  Hf  Hf0  1  0.666667  0.333333  0.000000  1
  Zr  Zr1  1  0.333333  0.666667  0.000000  1
  Zr  Zr2  1  0.333333  0.666667  0.500000  1
  Zr  Zr3  1  0.666667  0.333333  0.500000  1
  Zr  Zr4  1  0.733256  0.733001  0.751811  1
  Zr  Zr5  1  0.266999  0.000255  0.751811  1
  Zr  Zr6  1  0.999745  0.266744  0.751811  1
  Zr  Zr7  1  0.266999  0.266744  0.248189  1
  Zr  Zr8  1  0.733256  0.000255  0.248189  1
  Zr  Zr9  1  0.999745  0.733001  0.248189  1
  Ga  Ga10  1  0.000000  0.000000  0.500000  1
  Cu  Cu11  1  0.000000  0.000000  0.000000  1
  Sb  Sb12  1  0.386965  0.386572  0.750965  1
  Sb  Sb13  1  0.613428  0.000393  0.750965  1
  Sb  Sb14  1  0.999607  0.613035  0.750965  1
  Sb  Sb15  1  0.613428  0.613035  0.249035  1
  Sb  Sb16  1  0.386965  0.000393  0.249035  1
  Sb  Sb17  1  0.999607  0.386572  0.249035  1
