# generated using pymatgen
data_Ba4Tm(ReO6)2
_symmetry_space_group_name_H-M   'P 1'
_cell_length_a   10.09331380
_cell_length_b   10.09331413
_cell_length_c   10.09331478
_cell_angle_alpha   33.82437183
_cell_angle_beta   33.82436898
_cell_angle_gamma   33.82437057
_symmetry_Int_Tables_number   1
_chemical_formula_structural   Ba4Tm(ReO6)2
_chemical_formula_sum   'Ba4 Tm1 Re2 O12'
_cell_volume   283.92173335
_cell_formula_units_Z   1
loop_
 _symmetry_equiv_pos_site_id
 _symmetry_equiv_pos_as_xyz
  1  'x, y, z'
loop_
 _atom_site_type_symbol
 _atom_site_label
 _atom_site_symmetry_multiplicity
 _atom_site_fract_x
 _atom_site_fract_y
 _atom_site_fract_z
 _atom_site_occupancy
  Ba  Ba0  1  0.710941  0.710941  0.710941  1
  Ba  Ba1  1  0.289059  0.289059  0.289059  1
  Ba  Ba2  1  0.866345  0.866345  0.866345  1
  Ba  Ba3  1  0.133655  0.133655  0.133655  1
  Tm  Tm4  1  0.000000  0.000000  0.000000  1
  Re  Re5  1  0.579313  0.579313  0.579313  1
  Re  Re6  1  0.420687  0.420687  0.420687  1
  O  O7  1  0.222356  0.688482  0.222356  1
  O  O8  1  0.222356  0.222356  0.688482  1
  O  O9  1  0.688482  0.222356  0.222356  1
  O  O10  1  0.777644  0.311518  0.777644  1
  O  O11  1  0.777644  0.777644  0.311518  1
  O  O12  1  0.311518  0.777644  0.777644  1
  O  O13  1  0.388929  0.858789  0.388929  1
  O  O14  1  0.388929  0.388929  0.858789  1
  O  O15  1  0.858789  0.388929  0.388929  1
  O  O16  1  0.611071  0.141211  0.611071  1
  O  O17  1  0.611071  0.611071  0.141211  1
  O  O18  1  0.141211  0.611071  0.611071  1
