# generated using pymatgen
data_Zr6Mn8Fe8ReSi6
_symmetry_space_group_name_H-M   'P 1'
_cell_length_a   8.19851675
_cell_length_b   8.19851585
_cell_length_c   8.19851600
_cell_angle_alpha   59.99999941
_cell_angle_beta   60.00000304
_cell_angle_gamma   59.99999839
_symmetry_Int_Tables_number   1
_chemical_formula_structural   Zr6Mn8Fe8ReSi6
_chemical_formula_sum   'Zr6 Mn8 Fe8 Re1 Si6'
_cell_volume   389.66444719
_cell_formula_units_Z   1
loop_
 _symmetry_equiv_pos_site_id
 _symmetry_equiv_pos_as_xyz
  1  'x, y, z'
loop_
 _atom_site_type_symbol
 _atom_site_label
 _atom_site_symmetry_multiplicity
 _atom_site_fract_x
 _atom_site_fract_y
 _atom_site_fract_z
 _atom_site_occupancy
  Zr  Zr0  1  0.707767  0.707767  0.292233  1
  Zr  Zr1  1  0.292233  0.707767  0.292233  1
  Zr  Zr2  1  0.707767  0.292233  0.292233  1
  Zr  Zr3  1  0.292233  0.292233  0.707767  1
  Zr  Zr4  1  0.707767  0.292233  0.707767  1
  Zr  Zr5  1  0.292233  0.707767  0.707767  1
  Mn  Mn6  1  0.875692  0.875692  0.372925  1
  Mn  Mn7  1  0.875692  0.372925  0.875692  1
  Mn  Mn8  1  0.372925  0.875692  0.875692  1
  Mn  Mn9  1  0.875692  0.875692  0.875692  1
  Mn  Mn10  1  0.124308  0.124308  0.627075  1
  Mn  Mn11  1  0.124308  0.627075  0.124308  1
  Mn  Mn12  1  0.627075  0.124308  0.124308  1
  Mn  Mn13  1  0.124308  0.124308  0.124308  1
  Fe  Fe14  1  0.676681  0.676681  0.969958  1
  Fe  Fe15  1  0.676681  0.969958  0.676681  1
  Fe  Fe16  1  0.969958  0.676681  0.676681  1
  Fe  Fe17  1  0.676681  0.676681  0.676681  1
  Fe  Fe18  1  0.323319  0.323319  0.030042  1
  Fe  Fe19  1  0.323319  0.030042  0.323319  1
  Fe  Fe20  1  0.030042  0.323319  0.323319  1
  Fe  Fe21  1  0.323319  0.323319  0.323319  1
  Re  Re22  1  0.000000  0.000000  0.000000  1
  Si  Si23  1  0.000000  0.000000  0.500000  1
  Si  Si24  1  0.500000  0.000000  0.500000  1
  Si  Si25  1  0.000000  0.500000  0.500000  1
  Si  Si26  1  0.500000  0.500000  0.000000  1
  Si  Si27  1  0.000000  0.500000  0.000000  1
  Si  Si28  1  0.500000  0.000000  0.000000  1
