# generated using pymatgen
data_Pr8Ho2GaSi4Ge
_symmetry_space_group_name_H-M   'P 1'
_cell_length_a   7.69480600
_cell_length_b   9.16014183
_cell_length_c   7.69480600
_cell_angle_alpha   114.83558297
_cell_angle_beta   90.00000000
_cell_angle_gamma   114.83558297
_symmetry_Int_Tables_number   1
_chemical_formula_structural   Pr8Ho2GaSi4Ge
_chemical_formula_sum   'Pr8 Ho2 Ga1 Si4 Ge1'
_cell_volume   436.32280646
_cell_formula_units_Z   1
loop_
 _symmetry_equiv_pos_site_id
 _symmetry_equiv_pos_as_xyz
  1  'x, y, z'
loop_
 _atom_site_type_symbol
 _atom_site_label
 _atom_site_symmetry_multiplicity
 _atom_site_fract_x
 _atom_site_fract_y
 _atom_site_fract_z
 _atom_site_occupancy
  Pr  Pr0  1  0.533783  0.715751  0.677166  1
  Pr  Pr1  1  0.181968  0.715751  0.038586  1
  Pr  Pr2  1  0.677166  0.715751  0.181968  1
  Pr  Pr3  1  0.038586  0.715751  0.533783  1
  Pr  Pr4  1  0.461414  0.284249  0.318032  1
  Pr  Pr5  1  0.822834  0.284249  0.966217  1
  Pr  Pr6  1  0.318032  0.284249  0.822834  1
  Pr  Pr7  1  0.966217  0.284249  0.461414  1
  Ho  Ho8  1  0.995946  0.991892  0.995946  1
  Ho  Ho9  1  0.504054  0.008108  0.504054  1
  Ga  Ga10  1  0.750000  0.500000  0.750000  1
  Si  Si11  1  0.881906  0.000000  0.618094  1
  Si  Si12  1  0.118094  0.000000  0.381906  1
  Si  Si13  1  0.618094  0.000000  0.118094  1
  Si  Si14  1  0.381906  0.000000  0.881906  1
  Ge  Ge15  1  0.250000  0.500000  0.250000  1
