# generated using pymatgen
data_Y7Tm3Si5As
_symmetry_space_group_name_H-M   'P 1'
_cell_length_a   8.42867702
_cell_length_b   8.44341068
_cell_length_c   6.26990704
_cell_angle_alpha   89.98658304
_cell_angle_beta   90.00617976
_cell_angle_gamma   119.94603717
_symmetry_Int_Tables_number   1
_chemical_formula_structural   Y7Tm3Si5As
_chemical_formula_sum   'Y7 Tm3 Si5 As1'
_cell_volume   386.63836466
_cell_formula_units_Z   1
loop_
 _symmetry_equiv_pos_site_id
 _symmetry_equiv_pos_as_xyz
  1  'x, y, z'
loop_
 _atom_site_type_symbol
 _atom_site_label
 _atom_site_symmetry_multiplicity
 _atom_site_fract_x
 _atom_site_fract_y
 _atom_site_fract_z
 _atom_site_occupancy
  Y  Y0  1  0.996275  0.752593  0.749672  1
  Y  Y1  1  0.000083  0.244803  0.250322  1
  Y  Y2  1  0.755535  0.754933  0.250367  1
  Y  Y3  1  0.756985  0.000185  0.749732  1
  Y  Y4  1  0.243817  0.247140  0.749714  1
  Y  Y5  1  0.244591  0.000202  0.250236  1
  Y  Y6  1  0.333009  0.664201  0.001047  1
  Tm  Tm7  1  0.333013  0.663834  0.498668  1
  Tm  Tm8  1  0.669201  0.336227  0.001525  1
  Tm  Tm9  1  0.669117  0.336051  0.498557  1
  Si  Si10  1  0.394898  0.392673  0.251016  1
  Si  Si11  1  0.000258  0.606309  0.251012  1
  Si  Si12  1  0.998712  0.393785  0.749030  1
  Si  Si13  1  0.605812  0.605145  0.749041  1
  Si  Si14  1  0.607213  0.000949  0.250869  1
  As  As15  1  0.391482  0.000970  0.749191  1
