# generated using pymatgen
data_Th10AgSn6Se
_symmetry_space_group_name_H-M   'P 1'
_cell_length_a   9.56728700
_cell_length_b   9.56728451
_cell_length_c   6.61568200
_cell_angle_alpha   90.00000000
_cell_angle_beta   90.00000000
_cell_angle_gamma   120.00000515
_symmetry_Int_Tables_number   1
_chemical_formula_structural   Th10AgSn6Se
_chemical_formula_sum   'Th10 Ag1 Sn6 Se1'
_cell_volume   524.42419705
_cell_formula_units_Z   1
loop_
 _symmetry_equiv_pos_site_id
 _symmetry_equiv_pos_as_xyz
  1  'x, y, z'
loop_
 _atom_site_type_symbol
 _atom_site_label
 _atom_site_symmetry_multiplicity
 _atom_site_fract_x
 _atom_site_fract_y
 _atom_site_fract_z
 _atom_site_occupancy
  Th  Th0  1  0.273148  0.000000  0.744052  1
  Th  Th1  1  0.726852  0.000000  0.255948  1
  Th  Th2  1  0.000000  0.273148  0.744052  1
  Th  Th3  1  0.000000  0.726852  0.255948  1
  Th  Th4  1  0.726852  0.726852  0.744052  1
  Th  Th5  1  0.273148  0.273148  0.255948  1
  Th  Th6  1  0.333333  0.666667  0.500000  1
  Th  Th7  1  0.666667  0.333333  0.500000  1
  Th  Th8  1  0.666667  0.333333  0.000000  1
  Th  Th9  1  0.333333  0.666667  0.000000  1
  Ag  Ag10  1  0.000000  0.000000  0.000000  1
  Sn  Sn11  1  0.618587  0.000000  0.754315  1
  Sn  Sn12  1  0.381413  0.000000  0.245685  1
  Sn  Sn13  1  0.000000  0.618587  0.754315  1
  Sn  Sn14  1  0.000000  0.381413  0.245685  1
  Sn  Sn15  1  0.381413  0.381413  0.754315  1
  Sn  Sn16  1  0.618587  0.618587  0.245685  1
  Se  Se17  1  0.000000  0.000000  0.500000  1
