# generated using pymatgen
data_TbGd3CrMo5O24
_symmetry_space_group_name_H-M   'P 1'
_cell_length_a   7.47578409
_cell_length_b   7.47578482
_cell_length_c   10.75421302
_cell_angle_alpha   90.22153067
_cell_angle_beta   90.22152821
_cell_angle_gamma   90.31593079
_symmetry_Int_Tables_number   1
_chemical_formula_structural   TbGd3CrMo5O24
_chemical_formula_sum   'Tb1 Gd3 Cr1 Mo5 O24'
_cell_volume   601.00632940
_cell_formula_units_Z   1
loop_
 _symmetry_equiv_pos_site_id
 _symmetry_equiv_pos_as_xyz
  1  'x, y, z'
loop_
 _atom_site_type_symbol
 _atom_site_label
 _atom_site_symmetry_multiplicity
 _atom_site_fract_x
 _atom_site_fract_y
 _atom_site_fract_z
 _atom_site_occupancy
  Tb  Tb0  1  0.812694  0.312694  0.260430  1
  Gd  Gd1  1  0.186979  0.686979  0.265704  1
  Gd  Gd2  1  0.684075  0.809351  0.736561  1
  Gd  Gd3  1  0.309351  0.184075  0.736561  1
  Cr  Cr4  1  0.208167  0.708167  0.643908  1
  Mo  Mo5  1  0.792051  0.292051  0.643423  1
  Mo  Mo6  1  0.708490  0.793632  0.355787  1
  Mo  Mo7  1  0.293632  0.208490  0.355787  1
  Mo  Mo8  1  0.001656  0.998021  0.000286  1
  Mo  Mo9  1  0.498021  0.501656  0.000286  1
  O  O10  1  0.198551  0.698551  0.489569  1
  O  O11  1  0.804171  0.304171  0.478345  1
  O  O12  1  0.699078  0.807613  0.520725  1
  O  O13  1  0.307613  0.199078  0.520725  1
  O  O14  1  0.624915  0.124915  0.689996  1
  O  O15  1  0.365160  0.865160  0.689235  1
  O  O16  1  0.125239  0.373079  0.309777  1
  O  O17  1  0.873079  0.625239  0.309777  1
  O  O18  1  0.774716  0.005566  0.295683  1
  O  O19  1  0.224539  0.995476  0.298188  1
  O  O20  1  0.505566  0.274716  0.295683  1
  O  O21  1  0.495476  0.724539  0.298188  1
  O  O22  1  0.003324  0.224926  0.704184  1
  O  O23  1  0.010689  0.768572  0.698266  1
  O  O24  1  0.724926  0.503324  0.704184  1
  O  O25  1  0.268572  0.510689  0.698266  1
  O  O26  1  0.814054  0.952441  0.900627  1
  O  O27  1  0.192769  0.042365  0.905455  1
  O  O28  1  0.452441  0.314054  0.900627  1
  O  O29  1  0.542365  0.692769  0.905455  1
  O  O30  1  0.955539  0.188737  0.096370  1
  O  O31  1  0.044142  0.809224  0.097784  1
  O  O32  1  0.688737  0.455539  0.096370  1
  O  O33  1  0.309224  0.544142  0.097784  1
