# generated using pymatgen
data_Dy5Zr3(P3Rh4)4
_symmetry_space_group_name_H-M   'P 1'
_cell_length_a   12.89935000
_cell_length_b   12.89935155
_cell_length_c   3.92749800
_cell_angle_alpha   90.00000000
_cell_angle_beta   90.00000000
_cell_angle_gamma   120.00000116
_symmetry_Int_Tables_number   1
_chemical_formula_structural   Dy5Zr3(P3Rh4)4
_chemical_formula_sum   'Dy5 Zr3 P12 Rh16'
_cell_volume   565.95552581
_cell_formula_units_Z   1
loop_
 _symmetry_equiv_pos_site_id
 _symmetry_equiv_pos_as_xyz
  1  'x, y, z'
loop_
 _atom_site_type_symbol
 _atom_site_label
 _atom_site_symmetry_multiplicity
 _atom_site_fract_x
 _atom_site_fract_y
 _atom_site_fract_z
 _atom_site_occupancy
  Dy  Dy0  1  0.333333  0.666667  0.500000  1
  Dy  Dy1  1  0.666667  0.333333  0.500000  1
  Dy  Dy2  1  0.000000  0.814742  0.000000  1
  Dy  Dy3  1  0.185258  0.185258  0.000000  1
  Dy  Dy4  1  0.814742  0.000000  0.000000  1
  Zr  Zr5  1  0.000000  0.446375  0.500000  1
  Zr  Zr6  1  0.553625  0.553625  0.500000  1
  Zr  Zr7  1  0.446375  0.000000  0.500000  1
  P  P8  1  0.000000  0.648739  0.500000  1
  P  P9  1  0.351261  0.351261  0.500000  1
  P  P10  1  0.648739  0.000000  0.500000  1
  P  P11  1  0.517193  0.686313  0.000000  1
  P  P12  1  0.313687  0.830880  0.000000  1
  P  P13  1  0.169120  0.482807  0.000000  1
  P  P14  1  0.482807  0.169120  0.000000  1
  P  P15  1  0.686313  0.517193  0.000000  1
  P  P16  1  0.830880  0.313687  0.000000  1
  P  P17  1  0.000000  0.175430  0.500000  1
  P  P18  1  0.824570  0.824570  0.500000  1
  P  P19  1  0.175430  0.000000  0.500000  1
  Rh  Rh20  1  0.512985  0.868280  0.000000  1
  Rh  Rh21  1  0.131720  0.644706  0.000000  1
  Rh  Rh22  1  0.355294  0.487015  0.000000  1
  Rh  Rh23  1  0.487015  0.355294  0.000000  1
  Rh  Rh24  1  0.868280  0.512985  0.000000  1
  Rh  Rh25  1  0.644706  0.131720  0.000000  1
  Rh  Rh26  1  0.000000  0.277867  0.000000  1
  Rh  Rh27  1  0.722133  0.722133  0.000000  1
  Rh  Rh28  1  0.277867  0.000000  0.000000  1
  Rh  Rh29  1  0.627356  0.804671  0.500000  1
  Rh  Rh30  1  0.195329  0.822685  0.500000  1
  Rh  Rh31  1  0.177315  0.372644  0.500000  1
  Rh  Rh32  1  0.372644  0.177315  0.500000  1
  Rh  Rh33  1  0.804671  0.627356  0.500000  1
  Rh  Rh34  1  0.822685  0.195329  0.500000  1
  Rh  Rh35  1  0.000000  0.000000  0.500000  1
