# generated using pymatgen
data_Ac5Pb3S
_symmetry_space_group_name_H-M   'P 1'
_cell_length_a   10.05541900
_cell_length_b   10.05541986
_cell_length_c   7.40614400
_cell_angle_alpha   90.00000000
_cell_angle_beta   90.00000000
_cell_angle_gamma   120.00000047
_symmetry_Int_Tables_number   1
_chemical_formula_structural   Ac5Pb3S
_chemical_formula_sum   'Ac10 Pb6 S2'
_cell_volume   648.51968407
_cell_formula_units_Z   2
loop_
 _symmetry_equiv_pos_site_id
 _symmetry_equiv_pos_as_xyz
  1  'x, y, z'
loop_
 _atom_site_type_symbol
 _atom_site_label
 _atom_site_symmetry_multiplicity
 _atom_site_fract_x
 _atom_site_fract_y
 _atom_site_fract_z
 _atom_site_occupancy
  Ac  Ac0  1  0.755999  0.755999  0.750000  1
  Ac  Ac1  1  0.244001  0.000000  0.750000  1
  Ac  Ac2  1  0.000000  0.244001  0.750000  1
  Ac  Ac3  1  0.244001  0.244001  0.250000  1
  Ac  Ac4  1  0.755999  0.000000  0.250000  1
  Ac  Ac5  1  0.000000  0.755999  0.250000  1
  Ac  Ac6  1  0.666667  0.333333  0.000000  1
  Ac  Ac7  1  0.333333  0.666667  0.000000  1
  Ac  Ac8  1  0.333333  0.666667  0.500000  1
  Ac  Ac9  1  0.666667  0.333333  0.500000  1
  Pb  Pb10  1  0.394622  0.394622  0.750000  1
  Pb  Pb11  1  0.605378  0.000000  0.750000  1
  Pb  Pb12  1  0.000000  0.605378  0.750000  1
  Pb  Pb13  1  0.605378  0.605378  0.250000  1
  Pb  Pb14  1  0.394622  0.000000  0.250000  1
  Pb  Pb15  1  0.000000  0.394622  0.250000  1
  S  S16  1  0.000000  0.000000  0.000000  1
  S  S17  1  0.000000  0.000000  0.500000  1
