# generated using pymatgen
data_RbNb8RhSe16
_symmetry_space_group_name_H-M   'P 1'
_cell_length_a   7.00369806
_cell_length_b   7.00396459
_cell_length_c   15.17055100
_cell_angle_alpha   89.99144322
_cell_angle_beta   90.00752633
_cell_angle_gamma   119.99619155
_symmetry_Int_Tables_number   1
_chemical_formula_structural   RbNb8RhSe16
_chemical_formula_sum   'Rb1 Nb8 Rh1 Se16'
_cell_volume   644.49566840
_cell_formula_units_Z   1
loop_
 _symmetry_equiv_pos_site_id
 _symmetry_equiv_pos_as_xyz
  1  'x, y, z'
loop_
 _atom_site_type_symbol
 _atom_site_label
 _atom_site_symmetry_multiplicity
 _atom_site_fract_x
 _atom_site_fract_y
 _atom_site_fract_z
 _atom_site_occupancy
  Rb  Rb0  1  0.000000  0.000000  0.500000  1
  Nb  Nb1  1  0.000026  0.999998  0.210519  1
  Nb  Nb2  1  0.999974  0.000002  0.789481  1
  Nb  Nb3  1  0.506227  0.012758  0.208524  1
  Nb  Nb4  1  0.987303  0.493823  0.208470  1
  Nb  Nb5  1  0.506337  0.493682  0.208452  1
  Nb  Nb6  1  0.493773  0.987242  0.791476  1
  Nb  Nb7  1  0.012697  0.506177  0.791530  1
  Nb  Nb8  1  0.493663  0.506318  0.791548  1
  Rh  Rh9  1  0.000000  0.000000  0.000000  1
  Se  Se10  1  0.333352  0.666608  0.904687  1
  Se  Se11  1  0.666648  0.333392  0.095313  1
  Se  Se12  1  0.666693  0.333455  0.323427  1
  Se  Se13  1  0.333307  0.666545  0.676573  1
  Se  Se14  1  0.168174  0.831826  0.318531  1
  Se  Se15  1  0.168176  0.336393  0.318476  1
  Se  Se16  1  0.663651  0.831819  0.318480  1
  Se  Se17  1  0.831826  0.168174  0.681469  1
  Se  Se18  1  0.831824  0.663607  0.681524  1
  Se  Se19  1  0.336349  0.168181  0.681520  1
  Se  Se20  1  0.832095  0.167866  0.899171  1
  Se  Se21  1  0.832139  0.664199  0.899169  1
  Se  Se22  1  0.335809  0.167842  0.899137  1
  Se  Se23  1  0.167905  0.832134  0.100829  1
  Se  Se24  1  0.167861  0.335801  0.100831  1
  Se  Se25  1  0.664191  0.832158  0.100863  1
