# generated using pymatgen
data_La3Y5(SiI6)2
_symmetry_space_group_name_H-M   'P 1'
_cell_length_a   4.31414100
_cell_length_b   14.23949887
_cell_length_c   15.08576649
_cell_angle_alpha   90.51258744
_cell_angle_beta   90.00000000
_cell_angle_gamma   90.00000000
_symmetry_Int_Tables_number   1
_chemical_formula_structural   La3Y5(SiI6)2
_chemical_formula_sum   'La3 Y5 Si2 I12'
_cell_volume   926.69974121
_cell_formula_units_Z   1
loop_
 _symmetry_equiv_pos_site_id
 _symmetry_equiv_pos_as_xyz
  1  'x, y, z'
loop_
 _atom_site_type_symbol
 _atom_site_label
 _atom_site_symmetry_multiplicity
 _atom_site_fract_x
 _atom_site_fract_y
 _atom_site_fract_z
 _atom_site_occupancy
  La  La0  1  0.500000  0.119593  0.343954  1
  La  La1  1  0.500000  0.881845  0.657185  1
  La  La2  1  0.500000  0.617959  0.155812  1
  Y  Y3  1  0.500000  0.384875  0.847317  1
  Y  Y4  1  0.000000  0.110388  0.575510  1
  Y  Y5  1  0.000000  0.893144  0.428053  1
  Y  Y6  1  0.000000  0.605921  0.926238  1
  Y  Y7  1  0.000000  0.391465  0.070545  1
  Si  Si8  1  0.500000  0.001843  0.501275  1
  Si  Si9  1  0.500000  0.498523  0.998073  1
  I  I10  1  0.500000  0.251917  0.156250  1
  I  I11  1  0.500000  0.743072  0.838155  1
  I  I12  1  0.500000  0.753812  0.340085  1
  I  I13  1  0.500000  0.249659  0.666218  1
  I  I14  1  0.000000  0.264678  0.426328  1
  I  I15  1  0.000000  0.736332  0.575406  1
  I  I16  1  0.000000  0.762678  0.075106  1
  I  I17  1  0.000000  0.245481  0.913599  1
  I  I18  1  0.000000  0.990289  0.240537  1
  I  I19  1  0.000000  0.009871  0.761596  1
  I  I20  1  0.000000  0.490171  0.259002  1
  I  I21  1  0.000000  0.496482  0.743758  1
