# generated using pymatgen
data_YEr3Si2(CO7)2
_symmetry_space_group_name_H-M   'P 1'
_cell_length_a   6.61875548
_cell_length_b   6.66567240
_cell_length_c   6.48011780
_cell_angle_alpha   116.35119496
_cell_angle_beta   92.87391842
_cell_angle_gamma   95.40542704
_symmetry_Int_Tables_number   1
_chemical_formula_structural   YEr3Si2(CO7)2
_chemical_formula_sum   'Y1 Er3 Si2 C2 O14'
_cell_volume   253.68803852
_cell_formula_units_Z   1
loop_
 _symmetry_equiv_pos_site_id
 _symmetry_equiv_pos_as_xyz
  1  'x, y, z'
loop_
 _atom_site_type_symbol
 _atom_site_label
 _atom_site_symmetry_multiplicity
 _atom_site_fract_x
 _atom_site_fract_y
 _atom_site_fract_z
 _atom_site_occupancy
  Y  Y0  1  0.333976  0.812738  0.742089  1
  Er  Er1  1  0.085671  0.299897  0.748064  1
  Er  Er2  1  0.912981  0.699346  0.251194  1
  Er  Er3  1  0.667245  0.186623  0.257324  1
  Si  Si4  1  0.156692  0.241535  0.262309  1
  Si  Si5  1  0.843087  0.757550  0.737282  1
  C  C6  1  0.589538  0.267166  0.806907  1
  C  C7  1  0.410515  0.733476  0.193049  1
  O  O8  1  0.401686  0.168566  0.735255  1
  O  O9  1  0.597952  0.833997  0.266006  1
  O  O10  1  0.036622  0.343830  0.109460  1
  O  O11  1  0.965064  0.656008  0.889838  1
  O  O12  1  0.647935  0.376333  0.026112  1
  O  O13  1  0.354330  0.620920  0.973978  1
  O  O14  1  0.244149  0.438892  0.522540  1
  O  O15  1  0.752920  0.559246  0.477711  1
  O  O16  1  0.716373  0.250060  0.657191  1
  O  O17  1  0.282018  0.751684  0.341365  1
  O  O18  1  0.334754  0.094368  0.130401  1
  O  O19  1  0.669399  0.908646  0.875100  1
  O  O20  1  0.980735  0.087913  0.330135  1
  O  O21  1  0.016359  0.911204  0.666687  1
