# generated using pymatgen
data_Tb6Nd2Cd2IrPt
_symmetry_space_group_name_H-M   'P 1'
_cell_length_a   9.75270853
_cell_length_b   9.75652486
_cell_length_c   9.72753667
_cell_angle_alpha   60.19438729
_cell_angle_beta   60.06101038
_cell_angle_gamma   60.40920249
_symmetry_Int_Tables_number   1
_chemical_formula_structural   Tb6Nd2Cd2IrPt
_chemical_formula_sum   'Tb12 Nd4 Cd4 Ir2 Pt2'
_cell_volume   657.76837302
_cell_formula_units_Z   2
loop_
 _symmetry_equiv_pos_site_id
 _symmetry_equiv_pos_as_xyz
  1  'x, y, z'
loop_
 _atom_site_type_symbol
 _atom_site_label
 _atom_site_symmetry_multiplicity
 _atom_site_fract_x
 _atom_site_fract_y
 _atom_site_fract_z
 _atom_site_occupancy
  Tb  Tb0  1  0.349405  0.348569  0.346113  1
  Tb  Tb1  1  0.350659  0.350932  0.953111  1
  Tb  Tb2  1  0.355414  0.946713  0.350651  1
  Tb  Tb3  1  0.944881  0.356011  0.350311  1
  Tb  Tb4  1  0.807299  0.190177  0.187907  1
  Tb  Tb5  1  0.188784  0.807895  0.814249  1
  Tb  Tb6  1  0.191357  0.807466  0.187244  1
  Tb  Tb7  1  0.808094  0.187240  0.813732  1
  Tb  Tb8  1  0.189832  0.189278  0.811134  1
  Tb  Tb9  1  0.812634  0.811960  0.183836  1
  Tb  Tb10  1  0.942286  0.561315  0.557521  1
  Tb  Tb11  1  0.558389  0.942904  0.941541  1
  Nd  Nd12  1  0.564048  0.938960  0.561569  1
  Nd  Nd13  1  0.939356  0.562187  0.937158  1
  Nd  Nd14  1  0.562234  0.562733  0.938694  1
  Nd  Nd15  1  0.938919  0.937582  0.560929  1
  Cd  Cd16  1  0.582218  0.579475  0.579061  1
  Cd  Cd17  1  0.579049  0.582264  0.257985  1
  Cd  Cd18  1  0.578626  0.258770  0.582391  1
  Cd  Cd19  1  0.258894  0.579042  0.579486  1
  Ir  Ir20  1  0.139670  0.572852  0.146462  1
  Ir  Ir21  1  0.573062  0.140405  0.142772  1
  Pt  Pt22  1  0.144088  0.141863  0.144334  1
  Pt  Pt23  1  0.140802  0.143406  0.571808  1
