# generated using pymatgen
data_Rb3Fe(SeO4)3
_symmetry_space_group_name_H-M   'P 1'
_cell_length_a   9.78646730
_cell_length_b   9.78646765
_cell_length_c   9.78646800
_cell_angle_alpha   109.04111206
_cell_angle_beta   109.04111276
_cell_angle_gamma   109.04112631
_symmetry_Int_Tables_number   1
_chemical_formula_structural   Rb3Fe(SeO4)3
_chemical_formula_sum   'Rb6 Fe2 Se6 O24'
_cell_volume   732.79724958
_cell_formula_units_Z   2
loop_
 _symmetry_equiv_pos_site_id
 _symmetry_equiv_pos_as_xyz
  1  'x, y, z'
loop_
 _atom_site_type_symbol
 _atom_site_label
 _atom_site_symmetry_multiplicity
 _atom_site_fract_x
 _atom_site_fract_y
 _atom_site_fract_z
 _atom_site_occupancy
  Rb  Rb0  1  0.634656  0.167215  0.784425  1
  Rb  Rb1  1  0.784425  0.634656  0.167215  1
  Rb  Rb2  1  0.167215  0.784425  0.634656  1
  Rb  Rb3  1  0.365344  0.832785  0.215575  1
  Rb  Rb4  1  0.215575  0.365344  0.832785  1
  Rb  Rb5  1  0.832785  0.215575  0.365344  1
  Fe  Fe6  1  0.000000  0.000000  0.000000  1
  Fe  Fe7  1  0.500000  0.500000  0.500000  1
  Se  Se8  1  0.888071  0.580704  0.765939  1
  Se  Se9  1  0.765939  0.888071  0.580704  1
  Se  Se10  1  0.580704  0.765939  0.888071  1
  Se  Se11  1  0.111929  0.419296  0.234061  1
  Se  Se12  1  0.234061  0.111929  0.419296  1
  Se  Se13  1  0.419296  0.234061  0.111929  1
  O  O14  1  0.730688  0.524200  0.582971  1
  O  O15  1  0.582971  0.730688  0.524200  1
  O  O16  1  0.524200  0.582971  0.730688  1
  O  O17  1  0.269312  0.475800  0.417029  1
  O  O18  1  0.417029  0.269312  0.475800  1
  O  O19  1  0.475800  0.417029  0.269312  1
  O  O20  1  0.823556  0.511308  0.877999  1
  O  O21  1  0.877999  0.823556  0.511308  1
  O  O22  1  0.511308  0.877999  0.823556  1
  O  O23  1  0.176444  0.488692  0.122001  1
  O  O24  1  0.122001  0.176444  0.488692  1
  O  O25  1  0.488692  0.122001  0.176444  1
  O  O26  1  0.008829  0.511415  0.716485  1
  O  O27  1  0.716485  0.008829  0.511415  1
  O  O28  1  0.511415  0.716485  0.008829  1
  O  O29  1  0.991171  0.488585  0.283515  1
  O  O30  1  0.283515  0.991171  0.488585  1
  O  O31  1  0.488585  0.283515  0.991171  1
  O  O32  1  0.004794  0.791159  0.868785  1
  O  O33  1  0.868785  0.004794  0.791159  1
  O  O34  1  0.791159  0.868785  0.004794  1
  O  O35  1  0.995206  0.208841  0.131215  1
  O  O36  1  0.131215  0.995206  0.208841  1
  O  O37  1  0.208841  0.131215  0.995206  1
