# generated using pymatgen
data_Pr4Ga20Pt10Au
_symmetry_space_group_name_H-M   'P 1'
_cell_length_a   4.32920328
_cell_length_b   11.08713271
_cell_length_c   13.77066029
_cell_angle_alpha   80.92586103
_cell_angle_beta   80.56783313
_cell_angle_gamma   78.43181673
_symmetry_Int_Tables_number   1
_chemical_formula_structural   Pr4Ga20Pt10Au
_chemical_formula_sum   'Pr4 Ga20 Pt10 Au1'
_cell_volume   633.43667046
_cell_formula_units_Z   1
loop_
 _symmetry_equiv_pos_site_id
 _symmetry_equiv_pos_as_xyz
  1  'x, y, z'
loop_
 _atom_site_type_symbol
 _atom_site_label
 _atom_site_symmetry_multiplicity
 _atom_site_fract_x
 _atom_site_fract_y
 _atom_site_fract_z
 _atom_site_occupancy
  Pr  Pr0  1  0.122106  0.090134  0.663953  1
  Pr  Pr1  1  0.877894  0.909866  0.336047  1
  Pr  Pr2  1  0.770760  0.632225  0.820876  1
  Pr  Pr3  1  0.229240  0.367775  0.179124  1
  Ga  Ga4  1  0.007352  0.074556  0.912043  1
  Ga  Ga5  1  0.992648  0.925444  0.087957  1
  Ga  Ga6  1  0.061663  0.676581  0.193676  1
  Ga  Ga7  1  0.938337  0.323419  0.806324  1
  Ga  Ga8  1  0.106977  0.335773  0.452609  1
  Ga  Ga9  1  0.893023  0.664227  0.547391  1
  Ga  Ga10  1  0.199398  0.603789  0.992801  1
  Ga  Ga11  1  0.800602  0.396211  0.007199  1
  Ga  Ga12  1  0.254905  0.786324  0.700008  1
  Ga  Ga13  1  0.745095  0.213676  0.299992  1
  Ga  Ga14  1  0.302065  0.897407  0.499113  1
  Ga  Ga15  1  0.697935  0.102593  0.500887  1
  Ga  Ga16  1  0.386363  0.521611  0.704397  1
  Ga  Ga17  1  0.613637  0.478389  0.295603  1
  Ga  Ga18  1  0.397369  0.200860  0.002439  1
  Ga  Ga19  1  0.602631  0.799140  0.997561  1
  Ga  Ga20  1  0.541529  0.283870  0.631963  1
  Ga  Ga21  1  0.458471  0.716130  0.368037  1
  Ga  Ga22  1  0.635522  0.936182  0.796456  1
  Ga  Ga23  1  0.364478  0.063818  0.203544  1
  Pt  Pt24  1  0.028231  0.573040  0.373200  1
  Pt  Pt25  1  0.971769  0.426960  0.626800  1
  Pt  Pt26  1  0.138792  0.838475  0.889523  1
  Pt  Pt27  1  0.861208  0.161525  0.110477  1
  Pt  Pt28  1  0.241564  0.127053  0.390913  1
  Pt  Pt29  1  0.758436  0.872947  0.609087  1
  Pt  Pt30  1  0.347166  0.416989  0.893528  1
  Pt  Pt31  1  0.652834  0.583011  0.106472  1
  Pt  Pt32  1  0.504583  0.170268  0.819298  1
  Pt  Pt33  1  0.495417  0.829732  0.180702  1
  Au  Au34  1  0.500000  0.500000  0.500000  1
