# generated using pymatgen
data_Sc4Al3NiOs4
_symmetry_space_group_name_H-M   'P 1'
_cell_length_a   5.26344735
_cell_length_b   5.21575906
_cell_length_c   8.31320300
_cell_angle_alpha   90.00000000
_cell_angle_beta   90.00000000
_cell_angle_gamma   119.88473401
_symmetry_Int_Tables_number   1
_chemical_formula_structural   Sc4Al3NiOs4
_chemical_formula_sum   'Sc4 Al3 Ni1 Os4'
_cell_volume   197.87461474
_cell_formula_units_Z   1
loop_
 _symmetry_equiv_pos_site_id
 _symmetry_equiv_pos_as_xyz
  1  'x, y, z'
loop_
 _atom_site_type_symbol
 _atom_site_label
 _atom_site_symmetry_multiplicity
 _atom_site_fract_x
 _atom_site_fract_y
 _atom_site_fract_z
 _atom_site_occupancy
  Sc  Sc0  1  0.339062  0.675234  0.430613  1
  Sc  Sc1  1  0.671001  0.336647  0.557730  1
  Sc  Sc2  1  0.671001  0.336647  0.942270  1
  Sc  Sc3  1  0.339062  0.675234  0.069387  1
  Al  Al4  1  0.174192  0.342526  0.750000  1
  Al  Al5  1  0.002000  0.994288  0.007371  1
  Al  Al6  1  0.002000  0.994288  0.492629  1
  Ni  Ni7  1  0.328297  0.166934  0.250000  1
  Os  Os8  1  0.173135  0.833672  0.750000  1
  Os  Os9  1  0.818142  0.641644  0.250000  1
  Os  Os10  1  0.661271  0.835751  0.750000  1
  Os  Os11  1  0.820838  0.167132  0.250000  1
