# generated using pymatgen
data_Dy4Er8Al2TcNi3
_symmetry_space_group_name_H-M   'P 1'
_cell_length_a   8.29200242
_cell_length_b   8.29200509
_cell_length_c   8.29200443
_cell_angle_alpha   113.01037416
_cell_angle_beta   110.15387798
_cell_angle_gamma   105.34078803
_symmetry_Int_Tables_number   1
_chemical_formula_structural   Dy4Er8Al2TcNi3
_chemical_formula_sum   'Dy4 Er8 Al2 Tc1 Ni3'
_cell_volume   436.90252120
_cell_formula_units_Z   1
loop_
 _symmetry_equiv_pos_site_id
 _symmetry_equiv_pos_as_xyz
  1  'x, y, z'
loop_
 _atom_site_type_symbol
 _atom_site_label
 _atom_site_symmetry_multiplicity
 _atom_site_fract_x
 _atom_site_fract_y
 _atom_site_fract_z
 _atom_site_occupancy
  Dy  Dy0  1  0.052051  0.747933  0.304119  1
  Dy  Dy1  1  0.963321  0.267236  0.696085  1
  Dy  Dy2  1  0.556186  0.252067  0.304119  1
  Dy  Dy3  1  0.428848  0.732764  0.696085  1
  Er  Er4  1  0.676103  0.863753  0.193044  1
  Er  Er5  1  0.329292  0.516942  0.193044  1
  Er  Er6  1  0.329292  0.136247  0.812350  1
  Er  Er7  1  0.676103  0.483058  0.812350  1
  Er  Er8  1  0.176760  0.219631  0.396391  1
  Er  Er9  1  0.813504  0.216529  0.030033  1
  Er  Er10  1  0.176760  0.780369  0.957129  1
  Er  Er11  1  0.813504  0.783471  0.596973  1
  Al  Al12  1  0.982108  0.500000  0.482108  1
  Al  Al13  1  0.505900  0.000000  0.505900  1
  Tc  Tc14  1  0.676872  0.500000  0.176872  1
  Ni  Ni15  1  0.342577  0.500000  0.842577  1
  Ni  Ni16  1  0.882676  0.882264  0.000411  1
  Ni  Ni17  1  0.118146  0.117736  0.000411  1
