# generated using pymatgen
data_YU3(PO5)4
_symmetry_space_group_name_H-M   'P 1'
_cell_length_a   5.52826960
_cell_length_b   8.80605390
_cell_length_c   9.28053997
_cell_angle_alpha   101.31115389
_cell_angle_beta   103.58126332
_cell_angle_gamma   97.86288823
_symmetry_Int_Tables_number   1
_chemical_formula_structural   YU3(PO5)4
_chemical_formula_sum   'Y1 U3 P4 O20'
_cell_volume   422.63501455
_cell_formula_units_Z   1
loop_
 _symmetry_equiv_pos_site_id
 _symmetry_equiv_pos_as_xyz
  1  'x, y, z'
loop_
 _atom_site_type_symbol
 _atom_site_label
 _atom_site_symmetry_multiplicity
 _atom_site_fract_x
 _atom_site_fract_y
 _atom_site_fract_z
 _atom_site_occupancy
  Y  Y0  1  0.350073  0.294694  0.046419  1
  U  U1  1  0.649584  0.703493  0.953055  1
  U  U2  1  0.335254  0.801986  0.552297  1
  U  U3  1  0.660928  0.198051  0.445862  1
  P  P4  1  0.091372  0.516711  0.766343  1
  P  P5  1  0.911733  0.486626  0.237081  1
  P  P6  1  0.282796  0.921661  0.177174  1
  P  P7  1  0.726298  0.079184  0.824221  1
  O  O8  1  0.009413  0.133138  0.889612  1
  O  O9  1  0.997468  0.852035  0.100371  1
  O  O10  1  0.970501  0.377927  0.631795  1
  O  O11  1  0.019185  0.628094  0.373480  1
  O  O12  1  0.716400  0.362122  0.270530  1
  O  O13  1  0.273233  0.647276  0.730929  1
  O  O14  1  0.432741  0.814952  0.089270  1
  O  O15  1  0.574509  0.181270  0.904264  1
  O  O16  1  0.428691  0.303508  0.498299  1
  O  O17  1  0.566357  0.691322  0.505415  1
  O  O18  1  0.877800  0.590679  0.824893  1
  O  O19  1  0.114548  0.416827  0.177401  1
  O  O20  1  0.279959  0.477772  0.900318  1
  O  O21  1  0.730698  0.543635  0.102790  1
  O  O22  1  0.883650  0.090306  0.383113  1
  O  O23  1  0.112937  0.911823  0.612457  1
  O  O24  1  0.357736  0.923452  0.347753  1
  O  O25  1  0.640953  0.058948  0.646772  1
  O  O26  1  0.360910  0.094165  0.173401  1
  O  O27  1  0.644270  0.898342  0.834687  1
