# generated using pymatgen
data_Hf4Sc2Si3(GeOs2)3
_symmetry_space_group_name_H-M   'P 1'
_cell_length_a   7.69043360
_cell_length_b   7.69129094
_cell_length_c   7.68611531
_cell_angle_alpha   127.58808093
_cell_angle_beta   123.53187385
_cell_angle_gamma   80.61579622
_symmetry_Int_Tables_number   1
_chemical_formula_structural   Hf4Sc2Si3(GeOs2)3
_chemical_formula_sum   'Hf4 Sc2 Si3 Ge3 Os6'
_cell_volume   289.70737944
_cell_formula_units_Z   1
loop_
 _symmetry_equiv_pos_site_id
 _symmetry_equiv_pos_as_xyz
  1  'x, y, z'
loop_
 _atom_site_type_symbol
 _atom_site_label
 _atom_site_symmetry_multiplicity
 _atom_site_fract_x
 _atom_site_fract_y
 _atom_site_fract_z
 _atom_site_occupancy
  Hf  Hf0  1  0.947059  0.491108  0.046016  1
  Hf  Hf1  1  0.053405  0.100101  0.550199  1
  Hf  Hf2  1  0.751740  0.908679  0.659916  1
  Hf  Hf3  1  0.250699  0.908944  0.153217  1
  Sc  Sc4  1  0.534483  0.072034  0.031424  1
  Sc  Sc5  1  0.460375  0.492283  0.528492  1
  Si  Si6  1  0.165193  0.165298  0.994130  1
  Si  Si7  1  0.730513  0.480976  0.252290  1
  Si  Si8  1  0.270340  0.516500  0.747900  1
  Ge  Ge9  1  0.330592  0.827740  0.493585  1
  Ge  Ge10  1  0.668628  0.165013  0.496438  1
  Ge  Ge11  1  0.831984  0.828449  0.998086  1
  Os  Os12  1  0.097905  0.748236  0.602762  1
  Os  Os13  1  0.906317  0.499375  0.646865  1
  Os  Os14  1  0.645799  0.740607  0.146114  1
  Os  Os15  1  0.350110  0.491812  0.091600  1
  Os  Os16  1  0.501743  0.252141  0.754663  1
  Os  Os17  1  0.003113  0.254704  0.250302  1
