# generated using pymatgen
data_NaSr5(SnAu)6
_symmetry_space_group_name_H-M   'P 1'
_cell_length_a   4.86921800
_cell_length_b   8.39302874
_cell_length_c   23.63715594
_cell_angle_alpha   90.07389792
_cell_angle_beta   90.00000000
_cell_angle_gamma   90.00000000
_symmetry_Int_Tables_number   1
_chemical_formula_structural   NaSr5(SnAu)6
_chemical_formula_sum   'Na2 Sr10 Sn12 Au12'
_cell_volume   965.99035013
_cell_formula_units_Z   2
loop_
 _symmetry_equiv_pos_site_id
 _symmetry_equiv_pos_as_xyz
  1  'x, y, z'
loop_
 _atom_site_type_symbol
 _atom_site_label
 _atom_site_symmetry_multiplicity
 _atom_site_fract_x
 _atom_site_fract_y
 _atom_site_fract_z
 _atom_site_occupancy
  Na  Na0  1  0.750000  0.211764  0.497615  1
  Na  Na1  1  0.250000  0.795024  0.166063  1
  Sr  Sr2  1  0.250000  0.796179  0.501687  1
  Sr  Sr3  1  0.250000  0.793992  0.833524  1
  Sr  Sr4  1  0.250000  0.706289  0.332379  1
  Sr  Sr5  1  0.750000  0.206149  0.833988  1
  Sr  Sr6  1  0.750000  0.290639  0.998906  1
  Sr  Sr7  1  0.750000  0.294069  0.664516  1
  Sr  Sr8  1  0.750000  0.293176  0.335072  1
  Sr  Sr9  1  0.250000  0.706383  0.664986  1
  Sr  Sr10  1  0.250000  0.712363  0.004568  1
  Sr  Sr11  1  0.750000  0.199053  0.166723  1
  Sn  Sn12  1  0.250000  0.407760  0.561112  1
  Sn  Sn13  1  0.250000  0.084321  0.398499  1
  Sn  Sn14  1  0.250000  0.084046  0.065522  1
  Sn  Sn15  1  0.250000  0.415943  0.898298  1
  Sn  Sn16  1  0.750000  0.590834  0.103955  1
  Sn  Sn17  1  0.250000  0.417221  0.769018  1
  Sn  Sn18  1  0.750000  0.588582  0.229329  1
  Sn  Sn19  1  0.750000  0.582707  0.437957  1
  Sn  Sn20  1  0.750000  0.913052  0.934278  1
  Sn  Sn21  1  0.250000  0.079378  0.268277  1
  Sn  Sn22  1  0.750000  0.919699  0.600827  1
  Sn  Sn23  1  0.750000  0.917590  0.730410  1
  Au  Au24  1  0.250000  0.088520  0.594313  1
  Au  Au25  1  0.250000  0.086393  0.739022  1
  Au  Au26  1  0.750000  0.586724  0.906264  1
  Au  Au27  1  0.750000  0.913926  0.407002  1
  Au  Au28  1  0.750000  0.585281  0.566400  1
  Au  Au29  1  0.750000  0.586272  0.760580  1
  Au  Au30  1  0.250000  0.411408  0.433852  1
  Au  Au31  1  0.250000  0.411319  0.239285  1
  Au  Au32  1  0.750000  0.915470  0.066486  1
  Au  Au33  1  0.250000  0.411827  0.094003  1
  Au  Au34  1  0.250000  0.085039  0.934018  1
  Au  Au35  1  0.750000  0.911608  0.261266  1
