# generated using pymatgen
data_La3Sn5PdAu5
_symmetry_space_group_name_H-M   'P 1'
_cell_length_a   4.71093800
_cell_length_b   10.18995700
_cell_length_c   13.90713800
_cell_angle_alpha   90.00000000
_cell_angle_beta   90.00000000
_cell_angle_gamma   90.00000000
_symmetry_Int_Tables_number   1
_chemical_formula_structural   La3Sn5PdAu5
_chemical_formula_sum   'La6 Sn10 Pd2 Au10'
_cell_volume   667.60180791
_cell_formula_units_Z   2
loop_
 _symmetry_equiv_pos_site_id
 _symmetry_equiv_pos_as_xyz
  1  'x, y, z'
loop_
 _atom_site_type_symbol
 _atom_site_label
 _atom_site_symmetry_multiplicity
 _atom_site_fract_x
 _atom_site_fract_y
 _atom_site_fract_z
 _atom_site_occupancy
  La  La0  1  0.000000  0.745783  0.807193  1
  La  La1  1  0.000000  0.745783  0.192807  1
  La  La2  1  0.500000  0.254217  0.692807  1
  La  La3  1  0.500000  0.254217  0.307193  1
  La  La4  1  0.000000  0.742021  0.500000  1
  La  La5  1  0.500000  0.257979  0.000000  1
  Sn  Sn6  1  0.000000  0.386777  0.840807  1
  Sn  Sn7  1  0.000000  0.386777  0.159193  1
  Sn  Sn8  1  0.500000  0.613223  0.659193  1
  Sn  Sn9  1  0.500000  0.613223  0.340807  1
  Sn  Sn10  1  0.000000  0.022812  0.360014  1
  Sn  Sn11  1  0.000000  0.022812  0.639986  1
  Sn  Sn12  1  0.500000  0.977188  0.139986  1
  Sn  Sn13  1  0.500000  0.977188  0.860014  1
  Sn  Sn14  1  0.000000  0.279623  0.500000  1
  Sn  Sn15  1  0.500000  0.720377  0.000000  1
  Pd  Pd16  1  0.000000  0.550740  0.000000  1
  Pd  Pd17  1  0.500000  0.449260  0.500000  1
  Au  Au18  1  0.000000  0.119260  0.838599  1
  Au  Au19  1  0.000000  0.119260  0.161401  1
  Au  Au20  1  0.500000  0.880740  0.661401  1
  Au  Au21  1  0.500000  0.880740  0.338599  1
  Au  Au22  1  0.000000  0.473645  0.355857  1
  Au  Au23  1  0.000000  0.473645  0.644143  1
  Au  Au24  1  0.500000  0.526355  0.144143  1
  Au  Au25  1  0.500000  0.526355  0.855857  1
  Au  Au26  1  0.000000  0.925567  0.000000  1
  Au  Au27  1  0.500000  0.074433  0.500000  1
