# generated using pymatgen
data_Lu15Th(InRh)4
_symmetry_space_group_name_H-M   'P 1'
_cell_length_a   9.47175199
_cell_length_b   9.47175231
_cell_length_c   9.47175166
_cell_angle_alpha   60.35868799
_cell_angle_beta   60.35868396
_cell_angle_gamma   60.35868601
_symmetry_Int_Tables_number   1
_chemical_formula_structural   Lu15Th(InRh)4
_chemical_formula_sum   'Lu15 Th1 In4 Rh4'
_cell_volume   605.73891819
_cell_formula_units_Z   1
loop_
 _symmetry_equiv_pos_site_id
 _symmetry_equiv_pos_as_xyz
  1  'x, y, z'
loop_
 _atom_site_type_symbol
 _atom_site_label
 _atom_site_symmetry_multiplicity
 _atom_site_fract_x
 _atom_site_fract_y
 _atom_site_fract_z
 _atom_site_occupancy
  Lu  Lu0  1  0.602063  0.602063  0.195576  1
  Lu  Lu1  1  0.602063  0.195576  0.602063  1
  Lu  Lu2  1  0.195576  0.602063  0.602063  1
  Lu  Lu3  1  0.062801  0.438425  0.438425  1
  Lu  Lu4  1  0.440460  0.059865  0.059865  1
  Lu  Lu5  1  0.438425  0.062801  0.438425  1
  Lu  Lu6  1  0.059865  0.440460  0.059865  1
  Lu  Lu7  1  0.438425  0.438425  0.062801  1
  Lu  Lu8  1  0.059865  0.059865  0.440460  1
  Lu  Lu9  1  0.185152  0.815402  0.815402  1
  Lu  Lu10  1  0.813268  0.189579  0.189579  1
  Lu  Lu11  1  0.815402  0.185152  0.815402  1
  Lu  Lu12  1  0.189579  0.813268  0.189579  1
  Lu  Lu13  1  0.815402  0.815402  0.185152  1
  Lu  Lu14  1  0.189579  0.189579  0.813268  1
  Th  Th15  1  0.595194  0.595194  0.595194  1
  In  In16  1  0.834381  0.834381  0.834381  1
  In  In17  1  0.834285  0.834285  0.498189  1
  In  In18  1  0.834285  0.498189  0.834285  1
  In  In19  1  0.498189  0.834285  0.834285  1
  Rh  Rh20  1  0.392954  0.392954  0.392954  1
  Rh  Rh21  1  0.389336  0.389336  0.824114  1
  Rh  Rh22  1  0.389336  0.824114  0.389336  1
  Rh  Rh23  1  0.824114  0.389336  0.389336  1
