# generated using pymatgen
data_Er9LuInPb5
_symmetry_space_group_name_H-M   'P 1'
_cell_length_a   8.96096122
_cell_length_b   8.96078351
_cell_length_c   6.59897201
_cell_angle_alpha   89.99520725
_cell_angle_beta   90.00743113
_cell_angle_gamma   120.07227045
_symmetry_Int_Tables_number   1
_chemical_formula_structural   Er9LuInPb5
_chemical_formula_sum   'Er9 Lu1 In1 Pb5'
_cell_volume   458.55429333
_cell_formula_units_Z   1
loop_
 _symmetry_equiv_pos_site_id
 _symmetry_equiv_pos_as_xyz
  1  'x, y, z'
loop_
 _atom_site_type_symbol
 _atom_site_label
 _atom_site_symmetry_multiplicity
 _atom_site_fract_x
 _atom_site_fract_y
 _atom_site_fract_z
 _atom_site_occupancy
  Er  Er0  1  0.333650  0.663815  0.998170  1
  Er  Er1  1  0.333680  0.663774  0.501830  1
  Er  Er2  1  0.663832  0.333660  0.501812  1
  Er  Er3  1  0.760652  0.760478  0.750172  1
  Er  Er4  1  0.239173  0.005058  0.750171  1
  Er  Er5  1  0.004690  0.238993  0.750147  1
  Er  Er6  1  0.237821  0.237695  0.249828  1
  Er  Er7  1  0.762496  0.999724  0.249846  1
  Er  Er8  1  0.999400  0.762281  0.249846  1
  Lu  Lu9  1  0.663695  0.333684  0.998045  1
  In  In10  1  0.396441  0.396042  0.750573  1
  Pb  Pb11  1  0.606832  0.000814  0.750540  1
  Pb  Pb12  1  0.000015  0.606348  0.750446  1
  Pb  Pb13  1  0.605065  0.604649  0.249513  1
  Pb  Pb14  1  0.394396  0.999061  0.249516  1
  Pb  Pb15  1  0.998160  0.393923  0.249545  1
