# generated using pymatgen
data_Tb3Y2P12Ru18Pt
_symmetry_space_group_name_H-M   'P 1'
_cell_length_a   12.60080421
_cell_length_b   12.50306455
_cell_length_c   3.99303200
_cell_angle_alpha   90.00000000
_cell_angle_beta   90.00000000
_cell_angle_gamma   119.74373676
_symmetry_Int_Tables_number   1
_chemical_formula_structural   Tb3Y2P12Ru18Pt
_chemical_formula_sum   'Tb3 Y2 P12 Ru18 Pt1'
_cell_volume   546.21528200
_cell_formula_units_Z   1
loop_
 _symmetry_equiv_pos_site_id
 _symmetry_equiv_pos_as_xyz
  1  'x, y, z'
loop_
 _atom_site_type_symbol
 _atom_site_label
 _atom_site_symmetry_multiplicity
 _atom_site_fract_x
 _atom_site_fract_y
 _atom_site_fract_z
 _atom_site_occupancy
  Tb  Tb0  1  0.000000  0.182430  0.500000  1
  Tb  Tb1  1  0.661209  0.329874  0.000000  1
  Tb  Tb2  1  0.338791  0.668666  0.000000  1
  Y  Y3  1  0.816436  0.815351  0.500000  1
  Y  Y4  1  0.183564  0.998915  0.500000  1
  P  P5  1  0.000000  0.811974  0.000000  1
  P  P6  1  0.182985  0.184315  0.000000  1
  P  P7  1  0.817015  0.001330  0.000000  1
  P  P8  1  0.693269  0.172955  0.500000  1
  P  P9  1  0.818110  0.519177  0.500000  1
  P  P10  1  0.474296  0.305802  0.500000  1
  P  P11  1  0.181890  0.701067  0.500000  1
  P  P12  1  0.525704  0.831506  0.500000  1
  P  P13  1  0.306731  0.479687  0.500000  1
  P  P14  1  0.000000  0.364381  0.000000  1
  P  P15  1  0.626531  0.627212  0.000000  1
  P  P16  1  0.373469  0.000680  0.000000  1
  Ru  Ru17  1  0.444103  0.446357  0.000000  1
  Ru  Ru18  1  0.555897  0.002254  0.000000  1
  Ru  Ru19  1  0.000000  0.710133  0.500000  1
  Ru  Ru20  1  0.281365  0.283634  0.500000  1
  Ru  Ru21  1  0.718635  0.002269  0.500000  1
  Ru  Ru22  1  0.807287  0.186234  0.000000  1
  Ru  Ru23  1  0.814662  0.620314  0.000000  1
  Ru  Ru24  1  0.374317  0.191367  0.000000  1
  Ru  Ru25  1  0.185338  0.805651  0.000000  1
  Ru  Ru26  1  0.625683  0.817050  0.000000  1
  Ru  Ru27  1  0.192713  0.378946  0.000000  1
  Ru  Ru28  1  0.872901  0.367557  0.500000  1
  Ru  Ru29  1  0.629824  0.508222  0.500000  1
  Ru  Ru30  1  0.491931  0.127822  0.500000  1
  Ru  Ru31  1  0.370176  0.878398  0.500000  1
  Ru  Ru32  1  0.508069  0.635890  0.500000  1
  Ru  Ru33  1  0.127099  0.494656  0.500000  1
  Ru  Ru34  1  0.000000  0.997545  0.000000  1
  Pt  Pt35  1  0.000000  0.550380  0.000000  1
