# generated using pymatgen
data_Dy4Re2B16MoW
_symmetry_space_group_name_H-M   'P 1'
_cell_length_a   3.61914900
_cell_length_b   6.00486969
_cell_length_c   11.61831441
_cell_angle_alpha   90.05814511
_cell_angle_beta   90.00000000
_cell_angle_gamma   90.00000000
_symmetry_Int_Tables_number   1
_chemical_formula_structural   Dy4Re2B16MoW
_chemical_formula_sum   'Dy4 Re2 B16 Mo1 W1'
_cell_volume   252.49509844
_cell_formula_units_Z   1
loop_
 _symmetry_equiv_pos_site_id
 _symmetry_equiv_pos_as_xyz
  1  'x, y, z'
loop_
 _atom_site_type_symbol
 _atom_site_label
 _atom_site_symmetry_multiplicity
 _atom_site_fract_x
 _atom_site_fract_y
 _atom_site_fract_z
 _atom_site_occupancy
  Dy  Dy0  1  0.000000  0.627650  0.350787  1
  Dy  Dy1  1  0.000000  0.372370  0.649391  1
  Dy  Dy2  1  0.000000  0.126782  0.150746  1
  Dy  Dy3  1  0.000000  0.873519  0.849135  1
  Re  Re4  1  0.000000  0.134177  0.413111  1
  Re  Re5  1  0.000000  0.865660  0.586836  1
  B  B6  1  0.500000  0.789263  0.186791  1
  B  B7  1  0.500000  0.211160  0.813540  1
  B  B8  1  0.500000  0.285117  0.315761  1
  B  B9  1  0.500000  0.714841  0.684303  1
  B  B10  1  0.500000  0.867165  0.032227  1
  B  B11  1  0.500000  0.133263  0.967537  1
  B  B12  1  0.500000  0.363083  0.469083  1
  B  B13  1  0.500000  0.636901  0.530953  1
  B  B14  1  0.500000  0.886771  0.452805  1
  B  B15  1  0.500000  0.113256  0.547178  1
  B  B16  1  0.500000  0.384924  0.047378  1
  B  B17  1  0.500000  0.614602  0.952305  1
  B  B18  1  0.500000  0.977270  0.308713  1
  B  B19  1  0.500000  0.022868  0.691330  1
  B  B20  1  0.500000  0.475607  0.194230  1
  B  B21  1  0.500000  0.523909  0.805870  1
  Mo  Mo22  1  0.000000  0.370255  0.914941  1
  W  W23  1  0.000000  0.629588  0.085049  1
