# generated using pymatgen
data_Tb3YbPt2Rh2F28
_symmetry_space_group_name_H-M   'P 1'
_cell_length_a   5.54862450
_cell_length_b   8.91375808
_cell_length_c   12.01357930
_cell_angle_alpha   62.58703452
_cell_angle_beta   89.93727115
_cell_angle_gamma   89.95508313
_symmetry_Int_Tables_number   1
_chemical_formula_structural   Tb3YbPt2Rh2F28
_chemical_formula_sum   'Tb3 Yb1 Pt2 Rh2 F28'
_cell_volume   527.46060306
_cell_formula_units_Z   1
loop_
 _symmetry_equiv_pos_site_id
 _symmetry_equiv_pos_as_xyz
  1  'x, y, z'
loop_
 _atom_site_type_symbol
 _atom_site_label
 _atom_site_symmetry_multiplicity
 _atom_site_fract_x
 _atom_site_fract_y
 _atom_site_fract_z
 _atom_site_occupancy
  Tb  Tb0  1  0.738867  0.187876  0.734661  1
  Tb  Tb1  1  0.765113  0.176341  0.237126  1
  Tb  Tb2  1  0.237426  0.815613  0.762700  1
  Yb  Yb3  1  0.260175  0.812475  0.268584  1
  Pt  Pt4  1  0.258641  0.274896  0.455659  1
  Pt  Pt5  1  0.740612  0.725255  0.544112  1
  Rh  Rh6  1  0.757030  0.725940  0.044348  1
  Rh  Rh7  1  0.242575  0.272846  0.957003  1
  F  F8  1  0.932550  0.704441  0.416436  1
  F  F9  1  0.064214  0.295266  0.585167  1
  F  F10  1  0.436170  0.294272  0.081905  1
  F  F11  1  0.560301  0.707932  0.917410  1
  F  F12  1  0.471197  0.731865  0.131108  1
  F  F13  1  0.533750  0.269273  0.866187  1
  F  F14  1  0.964588  0.275253  0.365392  1
  F  F15  1  0.034829  0.724775  0.637282  1
  F  F16  1  0.951384  0.744056  0.168650  1
  F  F17  1  0.050834  0.255173  0.827265  1
  F  F18  1  0.450282  0.258545  0.324210  1
  F  F19  1  0.550989  0.741832  0.677646  1
  F  F20  1  0.766653  0.483002  0.137922  1
  F  F21  1  0.232685  0.515952  0.861357  1
  F  F22  1  0.268348  0.519532  0.358078  1
  F  F23  1  0.729393  0.478029  0.642538  1
  F  F24  1  0.945890  0.283222  0.041400  1
  F  F25  1  0.051272  0.718436  0.956064  1
  F  F26  1  0.444768  0.718331  0.459591  1
  F  F27  1  0.558529  0.280451  0.541986  1
  F  F28  1  0.741420  0.972221  0.452243  1
  F  F29  1  0.258393  0.026137  0.551167  1
  F  F30  1  0.242660  0.034555  0.048112  1
  F  F31  1  0.759169  0.969666  0.949759  1
  F  F32  1  0.587919  0.971150  0.228404  1
  F  F33  1  0.411453  0.031415  0.769011  1
  F  F34  1  0.089610  0.034487  0.268277  1
  F  F35  1  0.910311  0.969493  0.731241  1
