# generated using pymatgen
data_Na8Zr3UBr24
_symmetry_space_group_name_H-M   'P 1'
_cell_length_a   7.35182300
_cell_length_b   7.35182319
_cell_length_c   28.06067400
_cell_angle_alpha   90.00000000
_cell_angle_beta   90.00000000
_cell_angle_gamma   120.00000227
_symmetry_Int_Tables_number   1
_chemical_formula_structural   Na8Zr3UBr24
_chemical_formula_sum   'Na8 Zr3 U1 Br24'
_cell_volume   1313.46594294
_cell_formula_units_Z   1
loop_
 _symmetry_equiv_pos_site_id
 _symmetry_equiv_pos_as_xyz
  1  'x, y, z'
loop_
 _atom_site_type_symbol
 _atom_site_label
 _atom_site_symmetry_multiplicity
 _atom_site_fract_x
 _atom_site_fract_y
 _atom_site_fract_z
 _atom_site_occupancy
  Na  Na0  1  0.000000  0.000000  0.250127  1
  Na  Na1  1  0.000000  0.000000  0.749873  1
  Na  Na2  1  0.333333  0.666667  0.000371  1
  Na  Na3  1  0.333333  0.666667  0.499272  1
  Na  Na4  1  0.333333  0.666667  0.249928  1
  Na  Na5  1  0.666667  0.333333  0.750072  1
  Na  Na6  1  0.666667  0.333333  0.999629  1
  Na  Na7  1  0.666667  0.333333  0.500728  1
  Zr  Zr8  1  0.000000  0.000000  0.500000  1
  Zr  Zr9  1  0.333333  0.666667  0.749691  1
  Zr  Zr10  1  0.666667  0.333333  0.250309  1
  U  U11  1  0.000000  0.000000  0.000000  1
  Br  Br12  1  0.371123  0.037522  0.305243  1
  Br  Br13  1  0.333595  0.962491  0.804770  1
  Br  Br14  1  0.999138  0.310086  0.057427  1
  Br  Br15  1  0.999768  0.295131  0.554990  1
  Br  Br16  1  0.962478  0.333603  0.305243  1
  Br  Br17  1  0.037509  0.371103  0.804770  1
  Br  Br18  1  0.371103  0.333595  0.195230  1
  Br  Br19  1  0.333603  0.371123  0.694757  1
  Br  Br20  1  0.295131  0.295363  0.445010  1
  Br  Br21  1  0.310086  0.310948  0.942573  1
  Br  Br22  1  0.704637  0.999768  0.445010  1
  Br  Br23  1  0.310948  0.000862  0.057427  1
  Br  Br24  1  0.295363  0.000232  0.554990  1
  Br  Br25  1  0.689914  0.689052  0.057427  1
  Br  Br26  1  0.704869  0.704637  0.554990  1
  Br  Br27  1  0.666397  0.628877  0.305243  1
  Br  Br28  1  0.628897  0.666405  0.804770  1
  Br  Br29  1  0.962491  0.628897  0.195230  1
  Br  Br30  1  0.037522  0.666397  0.694757  1
  Br  Br31  1  0.000232  0.704869  0.445010  1
  Br  Br32  1  0.000862  0.689914  0.942573  1
  Br  Br33  1  0.689052  0.999138  0.942573  1
  Br  Br34  1  0.666405  0.037509  0.195230  1
  Br  Br35  1  0.628877  0.962478  0.694757  1
