# generated using pymatgen
data_CaNb2N3
_symmetry_space_group_name_H-M   'P 1'
_cell_length_a   5.45322300
_cell_length_b   5.45322355
_cell_length_c   10.83718900
_cell_angle_alpha   90.00000000
_cell_angle_beta   90.00000000
_cell_angle_gamma   120.00000271
_symmetry_Int_Tables_number   1
_chemical_formula_structural   CaNb2N3
_chemical_formula_sum   'Ca4 Nb8 N12'
_cell_volume   279.09613793
_cell_formula_units_Z   4
loop_
 _symmetry_equiv_pos_site_id
 _symmetry_equiv_pos_as_xyz
  1  'x, y, z'
loop_
 _atom_site_type_symbol
 _atom_site_label
 _atom_site_symmetry_multiplicity
 _atom_site_fract_x
 _atom_site_fract_y
 _atom_site_fract_z
 _atom_site_occupancy
  Ca  Ca0  1  0.333333  0.666667  0.000000  1
  Ca  Ca1  1  0.333333  0.666667  0.500000  1
  Ca  Ca2  1  0.666667  0.333333  0.500000  1
  Ca  Ca3  1  0.666667  0.333333  0.000000  1
  Nb  Nb4  1  0.000000  0.335440  0.250000  1
  Nb  Nb5  1  0.664560  0.000000  0.750000  1
  Nb  Nb6  1  0.335440  0.335440  0.750000  1
  Nb  Nb7  1  0.000000  0.000000  0.500000  1
  Nb  Nb8  1  0.000000  0.000000  0.000000  1
  Nb  Nb9  1  0.664560  0.664560  0.250000  1
  Nb  Nb10  1  0.335440  0.000000  0.250000  1
  Nb  Nb11  1  0.000000  0.664560  0.750000  1
  N  N12  1  0.685040  0.685040  0.628761  1
  N  N13  1  0.685040  0.685040  0.871239  1
  N  N14  1  0.314960  0.314960  0.128761  1
  N  N15  1  0.314960  0.314960  0.371239  1
  N  N16  1  0.314960  0.000000  0.871239  1
  N  N17  1  0.314960  0.000000  0.628761  1
  N  N18  1  0.000000  0.685040  0.371239  1
  N  N19  1  0.000000  0.685040  0.128761  1
  N  N20  1  0.685040  0.000000  0.128761  1
  N  N21  1  0.685040  0.000000  0.371239  1
  N  N22  1  0.000000  0.314960  0.871239  1
  N  N23  1  0.000000  0.314960  0.628761  1
