# generated using pymatgen
data_TbPr8NdB2Br15
_symmetry_space_group_name_H-M   'P 1'
_cell_length_a   9.43041091
_cell_length_b   10.28044913
_cell_length_c   11.11588127
_cell_angle_alpha   91.36100969
_cell_angle_beta   114.40116528
_cell_angle_gamma   110.73564839
_symmetry_Int_Tables_number   1
_chemical_formula_structural   TbPr8NdB2Br15
_chemical_formula_sum   'Tb1 Pr8 Nd1 B2 Br15'
_cell_volume   899.36281024
_cell_formula_units_Z   1
loop_
 _symmetry_equiv_pos_site_id
 _symmetry_equiv_pos_as_xyz
  1  'x, y, z'
loop_
 _atom_site_type_symbol
 _atom_site_label
 _atom_site_symmetry_multiplicity
 _atom_site_fract_x
 _atom_site_fract_y
 _atom_site_fract_z
 _atom_site_occupancy
  Tb  Tb0  1  0.283529  0.927600  0.953575  1
  Pr  Pr1  1  0.801253  0.409102  0.275971  1
  Pr  Pr2  1  0.195912  0.589401  0.722604  1
  Pr  Pr3  1  0.675227  0.746394  0.820448  1
  Pr  Pr4  1  0.322419  0.253272  0.179798  1
  Pr  Pr5  1  0.525800  0.705012  0.096331  1
  Pr  Pr6  1  0.473277  0.294498  0.903415  1
  Pr  Pr7  1  0.586545  0.037958  0.324968  1
  Pr  Pr8  1  0.411749  0.961297  0.674358  1
  Nd  Nd9  1  0.724864  0.073916  0.047337  1
  B  B10  1  0.463223  0.819144  0.875784  1
  B  B11  1  0.529667  0.178007  0.122373  1
  Br  Br12  1  0.003875  0.997918  0.998713  1
  Br  Br13  1  0.635902  0.881729  0.583328  1
  Br  Br14  1  0.363644  0.118047  0.416720  1
  Br  Br15  1  0.882862  0.298510  0.527547  1
  Br  Br16  1  0.116297  0.700863  0.471843  1
  Br  Br17  1  0.282917  0.766622  0.170235  1
  Br  Br18  1  0.713125  0.237100  0.822421  1
  Br  Br19  1  0.052761  0.339700  0.223686  1
  Br  Br20  1  0.160388  0.050702  0.711852  1
  Br  Br21  1  0.839300  0.944484  0.294647  1
  Br  Br22  1  0.230577  0.410483  0.944143  1
  Br  Br23  1  0.768662  0.589158  0.055649  1
  Br  Br24  1  0.408356  0.463334  0.659622  1
  Br  Br25  1  0.591495  0.536557  0.340380  1
  Br  Br26  1  0.956373  0.669191  0.782252  1
