# generated using pymatgen
data_Ce10Si2(SnBi)3
_symmetry_space_group_name_H-M   'P 1'
_cell_length_a   9.58429600
_cell_length_b   9.58429566
_cell_length_c   6.49974600
_cell_angle_alpha   90.00000000
_cell_angle_beta   90.00000000
_cell_angle_gamma   119.99999427
_symmetry_Int_Tables_number   1
_chemical_formula_structural   Ce10Si2(SnBi)3
_chemical_formula_sum   'Ce10 Si2 Sn3 Bi3'
_cell_volume   517.06776369
_cell_formula_units_Z   1
loop_
 _symmetry_equiv_pos_site_id
 _symmetry_equiv_pos_as_xyz
  1  'x, y, z'
loop_
 _atom_site_type_symbol
 _atom_site_label
 _atom_site_symmetry_multiplicity
 _atom_site_fract_x
 _atom_site_fract_y
 _atom_site_fract_z
 _atom_site_occupancy
  Ce  Ce0  1  0.666667  0.333333  0.007647  1
  Ce  Ce1  1  0.333333  0.666667  0.007647  1
  Ce  Ce2  1  0.333333  0.666667  0.492353  1
  Ce  Ce3  1  0.666667  0.333333  0.492353  1
  Ce  Ce4  1  0.747934  0.747934  0.750000  1
  Ce  Ce5  1  0.252066  0.000000  0.750000  1
  Ce  Ce6  1  0.000000  0.252066  0.750000  1
  Ce  Ce7  1  0.254741  0.254741  0.250000  1
  Ce  Ce8  1  0.745259  0.000000  0.250000  1
  Ce  Ce9  1  0.000000  0.745259  0.250000  1
  Si  Si10  1  0.000000  0.000000  0.003111  1
  Si  Si11  1  0.000000  0.000000  0.496889  1
  Sn  Sn12  1  0.615328  0.615328  0.250000  1
  Sn  Sn13  1  0.384672  0.000000  0.250000  1
  Sn  Sn14  1  0.000000  0.384672  0.250000  1
  Bi  Bi15  1  0.388633  0.388633  0.750000  1
  Bi  Bi16  1  0.611367  0.000000  0.750000  1
  Bi  Bi17  1  0.000000  0.611367  0.750000  1
