# generated using pymatgen
data_Th5Sn2SbC
_symmetry_space_group_name_H-M   'P 1'
_cell_length_a   9.35521218
_cell_length_b   9.35521223
_cell_length_c   6.50779700
_cell_angle_alpha   90.00000000
_cell_angle_beta   90.00000000
_cell_angle_gamma   119.83949581
_symmetry_Int_Tables_number   1
_chemical_formula_structural   Th5Sn2SbC
_chemical_formula_sum   'Th10 Sn4 Sb2 C2'
_cell_volume   494.05130435
_cell_formula_units_Z   2
loop_
 _symmetry_equiv_pos_site_id
 _symmetry_equiv_pos_as_xyz
  1  'x, y, z'
loop_
 _atom_site_type_symbol
 _atom_site_label
 _atom_site_symmetry_multiplicity
 _atom_site_fract_x
 _atom_site_fract_y
 _atom_site_fract_z
 _atom_site_occupancy
  Th  Th0  1  0.666931  0.333058  0.501378  1
  Th  Th1  1  0.333058  0.666931  0.501378  1
  Th  Th2  1  0.333058  0.666931  0.998622  1
  Th  Th3  1  0.666931  0.333058  0.998622  1
  Th  Th4  1  0.776866  0.776866  0.250000  1
  Th  Th5  1  0.222657  0.000009  0.250000  1
  Th  Th6  1  0.000009  0.222657  0.250000  1
  Th  Th7  1  0.223980  0.223980  0.750000  1
  Th  Th8  1  0.776119  0.999622  0.750000  1
  Th  Th9  1  0.999622  0.776119  0.750000  1
  Sn  Sn10  1  0.399305  0.399305  0.250000  1
  Sn  Sn11  1  0.601294  0.999431  0.250000  1
  Sn  Sn12  1  0.999431  0.601294  0.250000  1
  Sn  Sn13  1  0.600595  0.600595  0.750000  1
  Sb  Sb14  1  0.398693  0.999854  0.750000  1
  Sb  Sb15  1  0.999854  0.398693  0.750000  1
  C  C16  1  0.000798  0.000798  0.500317  1
  C  C17  1  0.000798  0.000798  0.999683  1
