# generated using pymatgen
data_Ba10MnPN10
_symmetry_space_group_name_H-M   'P 1'
_cell_length_a   7.92349235
_cell_length_b   7.92349188
_cell_length_c   9.43714445
_cell_angle_alpha   76.20160690
_cell_angle_beta   76.20160883
_cell_angle_gamma   95.67604456
_symmetry_Int_Tables_number   1
_chemical_formula_structural   Ba10MnPN10
_chemical_formula_sum   'Ba10 Mn1 P1 N10'
_cell_volume   551.10067590
_cell_formula_units_Z   1
loop_
 _symmetry_equiv_pos_site_id
 _symmetry_equiv_pos_as_xyz
  1  'x, y, z'
loop_
 _atom_site_type_symbol
 _atom_site_label
 _atom_site_symmetry_multiplicity
 _atom_site_fract_x
 _atom_site_fract_y
 _atom_site_fract_z
 _atom_site_occupancy
  Ba  Ba0  1  0.398019  0.384049  0.378215  1
  Ba  Ba1  1  0.615951  0.601981  0.621785  1
  Ba  Ba2  1  0.667884  0.670739  0.005649  1
  Ba  Ba3  1  0.329261  0.332116  0.994351  1
  Ba  Ba4  1  0.920583  0.930765  0.204887  1
  Ba  Ba5  1  0.069235  0.079417  0.795113  1
  Ba  Ba6  1  0.567899  0.095323  0.758443  1
  Ba  Ba7  1  0.904677  0.432101  0.241557  1
  Ba  Ba8  1  0.440414  0.911779  0.243105  1
  Ba  Ba9  1  0.088221  0.559586  0.756895  1
  Mn  Mn10  1  0.242075  0.757925  0.000000  1
  P  P11  1  0.757546  0.242454  0.000000  1
  N  N12  1  0.650481  0.652676  0.312607  1
  N  N13  1  0.347324  0.349519  0.687393  1
  N  N14  1  0.720747  0.030263  0.994569  1
  N  N15  1  0.969737  0.279253  0.005431  1
  N  N16  1  0.282266  0.972814  0.007605  1
  N  N17  1  0.027186  0.717734  0.992395  1
  N  N18  1  0.383121  0.730083  0.840560  1
  N  N19  1  0.269917  0.616879  0.159439  1
  N  N20  1  0.619406  0.271951  0.154770  1
  N  N21  1  0.728049  0.380594  0.845229  1
