# generated using pymatgen
data_EuSi3Rh5
_symmetry_space_group_name_H-M   'P 1'
_cell_length_a   3.95277700
_cell_length_b   12.66832700
_cell_length_c   11.15443500
_cell_angle_alpha   90.00000000
_cell_angle_beta   90.00000000
_cell_angle_gamma   90.00000000
_symmetry_Int_Tables_number   1
_chemical_formula_structural   EuSi3Rh5
_chemical_formula_sum   'Eu4 Si12 Rh20'
_cell_volume   558.55913122
_cell_formula_units_Z   4
loop_
 _symmetry_equiv_pos_site_id
 _symmetry_equiv_pos_as_xyz
  1  'x, y, z'
loop_
 _atom_site_type_symbol
 _atom_site_label
 _atom_site_symmetry_multiplicity
 _atom_site_fract_x
 _atom_site_fract_y
 _atom_site_fract_z
 _atom_site_occupancy
  Eu  Eu0  1  0.750000  0.703663  0.083801  1
  Eu  Eu1  1  0.250000  0.296337  0.916199  1
  Eu  Eu2  1  0.250000  0.796337  0.583801  1
  Eu  Eu3  1  0.750000  0.203663  0.416199  1
  Si  Si4  1  0.750000  0.608488  0.581860  1
  Si  Si5  1  0.250000  0.391512  0.418140  1
  Si  Si6  1  0.250000  0.891512  0.081860  1
  Si  Si7  1  0.750000  0.108488  0.918140  1
  Si  Si8  1  0.750000  0.896578  0.393757  1
  Si  Si9  1  0.250000  0.103422  0.606243  1
  Si  Si10  1  0.250000  0.603422  0.893757  1
  Si  Si11  1  0.750000  0.396578  0.106243  1
  Si  Si12  1  0.750000  0.871346  0.772460  1
  Si  Si13  1  0.250000  0.128654  0.227540  1
  Si  Si14  1  0.250000  0.628654  0.272460  1
  Si  Si15  1  0.750000  0.371346  0.727540  1
  Rh  Rh16  1  0.750000  0.705011  0.383758  1
  Rh  Rh17  1  0.250000  0.294989  0.616242  1
  Rh  Rh18  1  0.250000  0.794989  0.883758  1
  Rh  Rh19  1  0.750000  0.205011  0.116242  1
  Rh  Rh20  1  0.750000  0.993576  0.213683  1
  Rh  Rh21  1  0.250000  0.006424  0.786317  1
  Rh  Rh22  1  0.250000  0.506424  0.713683  1
  Rh  Rh23  1  0.750000  0.493576  0.286317  1
  Rh  Rh24  1  0.750000  0.675642  0.776213  1
  Rh  Rh25  1  0.250000  0.324358  0.223787  1
  Rh  Rh26  1  0.250000  0.824358  0.276213  1
  Rh  Rh27  1  0.750000  0.175642  0.723787  1
  Rh  Rh28  1  0.750000  0.928757  0.969516  1
  Rh  Rh29  1  0.250000  0.071243  0.030484  1
  Rh  Rh30  1  0.250000  0.571243  0.469516  1
  Rh  Rh31  1  0.750000  0.428757  0.530484  1
  Rh  Rh32  1  0.750000  0.986417  0.592046  1
  Rh  Rh33  1  0.250000  0.013583  0.407954  1
  Rh  Rh34  1  0.250000  0.513583  0.092046  1
  Rh  Rh35  1  0.750000  0.486416  0.907954  1
