# generated using pymatgen
data_TmLu3Mg2(ZnPt2)2
_symmetry_space_group_name_H-M   'P 1'
_cell_length_a   4.16338300
_cell_length_b   6.85184720
_cell_length_c   8.33942444
_cell_angle_alpha   89.74922974
_cell_angle_beta   90.00000000
_cell_angle_gamma   90.00000000
_symmetry_Int_Tables_number   1
_chemical_formula_structural   TmLu3Mg2(ZnPt2)2
_chemical_formula_sum   'Tm1 Lu3 Mg2 Zn2 Pt4'
_cell_volume   237.89534963
_cell_formula_units_Z   1
loop_
 _symmetry_equiv_pos_site_id
 _symmetry_equiv_pos_as_xyz
  1  'x, y, z'
loop_
 _atom_site_type_symbol
 _atom_site_label
 _atom_site_symmetry_multiplicity
 _atom_site_fract_x
 _atom_site_fract_y
 _atom_site_fract_z
 _atom_site_occupancy
  Tm  Tm0  1  0.250000  0.549271  0.173737  1
  Lu  Lu1  1  0.750000  0.457174  0.822242  1
  Lu  Lu2  1  0.750000  0.958146  0.677737  1
  Lu  Lu3  1  0.250000  0.050260  0.327223  1
  Mg  Mg4  1  0.250000  0.628159  0.554357  1
  Mg  Mg5  1  0.250000  0.126417  0.945805  1
  Zn  Zn6  1  0.750000  0.366174  0.440140  1
  Zn  Zn7  1  0.750000  0.865628  0.059130  1
  Pt  Pt8  1  0.250000  0.742279  0.867861  1
  Pt  Pt9  1  0.750000  0.254709  0.130617  1
  Pt  Pt10  1  0.750000  0.758917  0.370390  1
  Pt  Pt11  1  0.250000  0.242867  0.630761  1
