# generated using pymatgen
data_NaLa(MgSn)2
_symmetry_space_group_name_H-M   'P 1'
_cell_length_a   4.90895300
_cell_length_b   7.81576144
_cell_length_c   8.60913462
_cell_angle_alpha   90.74039249
_cell_angle_beta   90.00000000
_cell_angle_gamma   90.00000000
_symmetry_Int_Tables_number   1
_chemical_formula_structural   NaLa(MgSn)2
_chemical_formula_sum   'Na2 La2 Mg4 Sn4'
_cell_volume   330.28085965
_cell_formula_units_Z   2
loop_
 _symmetry_equiv_pos_site_id
 _symmetry_equiv_pos_as_xyz
  1  'x, y, z'
loop_
 _atom_site_type_symbol
 _atom_site_label
 _atom_site_symmetry_multiplicity
 _atom_site_fract_x
 _atom_site_fract_y
 _atom_site_fract_z
 _atom_site_occupancy
  Na  Na0  1  0.750000  0.010533  0.697885  1
  Na  Na1  1  0.250000  0.989467  0.302115  1
  La  La2  1  0.250000  0.492511  0.218813  1
  La  La3  1  0.750000  0.507489  0.781187  1
  Mg  Mg4  1  0.250000  0.853837  0.923479  1
  Mg  Mg5  1  0.750000  0.146163  0.076521  1
  Mg  Mg6  1  0.750000  0.705302  0.422899  1
  Mg  Mg7  1  0.250000  0.294698  0.577101  1
  Sn  Sn8  1  0.250000  0.714651  0.599589  1
  Sn  Sn9  1  0.750000  0.285349  0.400411  1
  Sn  Sn10  1  0.750000  0.758090  0.091693  1
  Sn  Sn11  1  0.250000  0.241910  0.908307  1
