# generated using pymatgen
data_Tc2RuRh3W2
_symmetry_space_group_name_H-M   'P 1'
_cell_length_a   5.52147261
_cell_length_b   5.55424197
_cell_length_c   4.40784500
_cell_angle_alpha   90.00000000
_cell_angle_beta   90.00000000
_cell_angle_gamma   119.76606335
_symmetry_Int_Tables_number   1
_chemical_formula_structural   Tc2RuRh3W2
_chemical_formula_sum   'Tc2 Ru1 Rh3 W2'
_cell_volume   117.34257328
_cell_formula_units_Z   1
loop_
 _symmetry_equiv_pos_site_id
 _symmetry_equiv_pos_as_xyz
  1  'x, y, z'
loop_
 _atom_site_type_symbol
 _atom_site_label
 _atom_site_symmetry_multiplicity
 _atom_site_fract_x
 _atom_site_fract_y
 _atom_site_fract_z
 _atom_site_occupancy
  Tc  Tc0  1  0.159372  0.331819  0.250000  1
  Tc  Tc1  1  0.836978  0.667020  0.750000  1
  Ru  Ru2  1  0.841095  0.178207  0.750000  1
  Rh  Rh3  1  0.666175  0.828966  0.250000  1
  Rh  Rh4  1  0.161648  0.827067  0.250000  1
  Rh  Rh5  1  0.332592  0.166527  0.750000  1
  W  W6  1  0.328936  0.666119  0.750000  1
  W  W7  1  0.673202  0.334275  0.250000  1
