# generated using pymatgen
data_CSe23
_symmetry_space_group_name_H-M   'P 1'
_cell_length_a   5.34282201
_cell_length_b   9.94370398
_cell_length_c   16.41398200
_cell_angle_alpha   90.13933144
_cell_angle_beta   87.65978492
_cell_angle_gamma   90.47881092
_symmetry_Int_Tables_number   1
_chemical_formula_structural   CSe23
_chemical_formula_sum   'C1 Se23'
_cell_volume   871.27322925
_cell_formula_units_Z   1
loop_
 _symmetry_equiv_pos_site_id
 _symmetry_equiv_pos_as_xyz
  1  'x, y, z'
loop_
 _atom_site_type_symbol
 _atom_site_label
 _atom_site_symmetry_multiplicity
 _atom_site_fract_x
 _atom_site_fract_y
 _atom_site_fract_z
 _atom_site_occupancy
  C  C0  1  0.505876  0.342311  0.390256  1
  Se  Se1  1  0.537561  0.824530  0.384889  1
  Se  Se2  1  0.010615  0.315274  0.116278  1
  Se  Se3  1  0.717363  0.367768  0.479847  1
  Se  Se4  1  0.264166  0.763518  0.494592  1
  Se  Se5  1  0.239583  0.255761  0.995594  1
  Se  Se6  1  0.738968  0.712813  0.000817  1
  Se  Se7  1  0.281136  0.212612  0.371136  1
  Se  Se8  1  0.809651  0.639934  0.357337  1
  Se  Se9  1  0.756239  0.128369  0.155082  1
  Se  Se10  1  0.228855  0.845415  0.140483  1
  Se  Se11  1  0.693862  0.644715  0.656902  1
  Se  Se12  1  0.233628  0.354538  0.641688  1
  Se  Se13  1  0.241075  0.854007  0.856394  1
  Se  Se14  1  0.763295  0.128632  0.845695  1
  Se  Se15  1  0.972351  0.656569  0.114604  1
  Se  Se16  1  0.446301  0.827738  0.618510  1
  Se  Se17  1  0.537569  0.215836  0.576877  1
  Se  Se18  1  0.992915  0.659929  0.884044  1
  Se  Se19  1  0.008124  0.317519  0.882155  1
  Se  Se20  1  0.544532  0.467863  0.303903  1
  Se  Se21  1  0.001676  0.984868  0.233037  1
  Se  Se22  1  0.448382  0.490901  0.735781  1
  Se  Se23  1  0.026274  0.988582  0.764103  1
