# generated using pymatgen
data_LiSm6CoBr12
_symmetry_space_group_name_H-M   'P 1'
_cell_length_a   9.46447064
_cell_length_b   9.33876924
_cell_length_c   9.32112025
_cell_angle_alpha   107.38359865
_cell_angle_beta   107.57430718
_cell_angle_gamma   108.12810034
_symmetry_Int_Tables_number   1
_chemical_formula_structural   LiSm6CoBr12
_chemical_formula_sum   'Li1 Sm6 Co1 Br12'
_cell_volume   672.65749788
_cell_formula_units_Z   1
loop_
 _symmetry_equiv_pos_site_id
 _symmetry_equiv_pos_as_xyz
  1  'x, y, z'
loop_
 _atom_site_type_symbol
 _atom_site_label
 _atom_site_symmetry_multiplicity
 _atom_site_fract_x
 _atom_site_fract_y
 _atom_site_fract_z
 _atom_site_occupancy
  Li  Li0  1  0.500000  0.500000  0.500000  1
  Sm  Sm1  1  0.109479  0.312972  0.033242  1
  Sm  Sm2  1  0.325548  0.034468  0.115503  1
  Sm  Sm3  1  0.032836  0.108966  0.311308  1
  Sm  Sm4  1  0.967165  0.891034  0.688693  1
  Sm  Sm5  1  0.674452  0.965533  0.884497  1
  Sm  Sm6  1  0.890521  0.687028  0.966758  1
  Co  Co7  1  0.000000  0.000000  0.000000  1
  Br  Br8  1  0.218635  0.684069  0.072924  1
  Br  Br9  1  0.458210  0.381853  0.167948  1
  Br  Br10  1  0.686884  0.073532  0.221471  1
  Br  Br11  1  0.926620  0.779144  0.315136  1
  Br  Br12  1  0.169882  0.461450  0.383395  1
  Br  Br13  1  0.380157  0.169568  0.461398  1
  Br  Br14  1  0.619843  0.830432  0.538603  1
  Br  Br15  1  0.830119  0.538550  0.616605  1
  Br  Br16  1  0.073381  0.220856  0.684865  1
  Br  Br17  1  0.313117  0.926469  0.778529  1
  Br  Br18  1  0.541790  0.618147  0.832053  1
  Br  Br19  1  0.781365  0.315931  0.927076  1
