# generated using pymatgen
data_Dy11Tm9Sn16
_symmetry_space_group_name_H-M   'P 1'
_cell_length_a   7.98942913
_cell_length_b   8.11935462
_cell_length_c   15.35630018
_cell_angle_alpha   90.04231765
_cell_angle_beta   90.01477630
_cell_angle_gamma   90.01501957
_symmetry_Int_Tables_number   1
_chemical_formula_structural   Dy11Tm9Sn16
_chemical_formula_sum   'Dy11 Tm9 Sn16'
_cell_volume   996.14762573
_cell_formula_units_Z   1
loop_
 _symmetry_equiv_pos_site_id
 _symmetry_equiv_pos_as_xyz
  1  'x, y, z'
loop_
 _atom_site_type_symbol
 _atom_site_label
 _atom_site_symmetry_multiplicity
 _atom_site_fract_x
 _atom_site_fract_y
 _atom_site_fract_z
 _atom_site_occupancy
  Dy  Dy0  1  0.132205  0.336585  0.377267  1
  Dy  Dy1  1  0.368102  0.836771  0.622374  1
  Dy  Dy2  1  0.867598  0.663457  0.878237  1
  Dy  Dy3  1  0.521258  0.320268  0.903473  1
  Dy  Dy4  1  0.021422  0.179271  0.597268  1
  Dy  Dy5  1  0.478712  0.679317  0.402534  1
  Dy  Dy6  1  0.978602  0.820971  0.097303  1
  Dy  Dy7  1  0.479393  0.679294  0.096864  1
  Dy  Dy8  1  0.979034  0.821200  0.402800  1
  Dy  Dy9  1  0.520665  0.320962  0.596927  1
  Dy  Dy10  1  0.021141  0.179155  0.903007  1
  Tm  Tm11  1  0.366553  0.837206  0.877177  1
  Tm  Tm12  1  0.866600  0.662805  0.622750  1
  Tm  Tm13  1  0.633327  0.162713  0.377125  1
  Tm  Tm14  1  0.133166  0.337505  0.122478  1
  Tm  Tm15  1  0.632446  0.162687  0.123005  1
  Tm  Tm16  1  0.198180  0.503469  0.750445  1
  Tm  Tm17  1  0.698428  0.996551  0.749860  1
  Tm  Tm18  1  0.801372  0.496240  0.250093  1
  Tm  Tm19  1  0.301682  0.003814  0.249315  1
  Sn  Sn20  1  0.294244  0.037610  0.041429  1
  Sn  Sn21  1  0.791830  0.463047  0.458542  1
  Sn  Sn22  1  0.708214  0.963111  0.541430  1
  Sn  Sn23  1  0.208184  0.536973  0.958542  1
  Sn  Sn24  1  0.704106  0.964129  0.958558  1
  Sn  Sn25  1  0.204547  0.536698  0.542457  1
  Sn  Sn26  1  0.295188  0.036884  0.457352  1
  Sn  Sn27  1  0.794056  0.461323  0.042811  1
  Sn  Sn28  1  0.564200  0.619055  0.750272  1
  Sn  Sn29  1  0.064429  0.880593  0.749966  1
  Sn  Sn30  1  0.436462  0.379951  0.249498  1
  Sn  Sn31  1  0.935148  0.119536  0.249272  1
  Sn  Sn32  1  0.330519  0.148473  0.750375  1
  Sn  Sn33  1  0.830513  0.351910  0.749782  1
  Sn  Sn34  1  0.669151  0.851945  0.249830  1
  Sn  Sn35  1  0.169324  0.648522  0.249581  1
