# generated using pymatgen
data_Ho4Lu6Si5Sn
_symmetry_space_group_name_H-M   'P 1'
_cell_length_a   8.38068400
_cell_length_b   8.40750201
_cell_length_c   6.24497600
_cell_angle_alpha   90.00000000
_cell_angle_beta   90.00000000
_cell_angle_gamma   119.89454703
_symmetry_Int_Tables_number   1
_chemical_formula_structural   Ho4Lu6Si5Sn
_chemical_formula_sum   'Ho4 Lu6 Si5 Sn1'
_cell_volume   381.47699973
_cell_formula_units_Z   1
loop_
 _symmetry_equiv_pos_site_id
 _symmetry_equiv_pos_as_xyz
  1  'x, y, z'
loop_
 _atom_site_type_symbol
 _atom_site_label
 _atom_site_symmetry_multiplicity
 _atom_site_fract_x
 _atom_site_fract_y
 _atom_site_fract_z
 _atom_site_occupancy
  Ho  Ho0  1  0.765961  0.000000  0.750000  1
  Ho  Ho1  1  0.756614  0.757339  0.250000  1
  Ho  Ho2  1  0.999274  0.242661  0.250000  1
  Ho  Ho3  1  0.240083  0.000000  0.250000  1
  Lu  Lu4  1  0.673482  0.342045  0.002711  1
  Lu  Lu5  1  0.331435  0.657955  0.497289  1
  Lu  Lu6  1  0.331435  0.657955  0.002711  1
  Lu  Lu7  1  0.673482  0.342045  0.497289  1
  Lu  Lu8  1  0.989562  0.749690  0.750000  1
  Lu  Lu9  1  0.239870  0.250310  0.750000  1
  Si  Si10  1  0.394950  0.393734  0.250000  1
  Si  Si11  1  0.001217  0.606266  0.250000  1
  Si  Si12  1  0.999447  0.395605  0.750000  1
  Si  Si13  1  0.603843  0.604395  0.750000  1
  Si  Si14  1  0.604772  0.000000  0.250000  1
  Sn  Sn15  1  0.394576  0.000000  0.750000  1
