# generated using pymatgen
data_La8DyY11Pb16
_symmetry_space_group_name_H-M   'P 1'
_cell_length_a   8.32118600
_cell_length_b   8.40461100
_cell_length_c   15.89972000
_cell_angle_alpha   90.00000000
_cell_angle_beta   90.00000000
_cell_angle_gamma   90.00109075
_symmetry_Int_Tables_number   1
_chemical_formula_structural   La8DyY11Pb16
_chemical_formula_sum   'La8 Dy1 Y11 Pb16'
_cell_volume   1111.96808691
_cell_formula_units_Z   1
loop_
 _symmetry_equiv_pos_site_id
 _symmetry_equiv_pos_as_xyz
  1  'x, y, z'
loop_
 _atom_site_type_symbol
 _atom_site_label
 _atom_site_symmetry_multiplicity
 _atom_site_fract_x
 _atom_site_fract_y
 _atom_site_fract_z
 _atom_site_occupancy
  La  La0  1  0.481036  0.678176  0.596232  1
  La  La1  1  0.980870  0.821890  0.903753  1
  La  La2  1  0.519137  0.321778  0.096212  1
  La  La3  1  0.019032  0.178113  0.403674  1
  La  La4  1  0.519137  0.321778  0.403788  1
  La  La5  1  0.019032  0.178113  0.096326  1
  La  La6  1  0.481036  0.678176  0.903768  1
  La  La7  1  0.980870  0.821890  0.596247  1
  Dy  Dy8  1  0.694344  0.995595  0.250000  1
  Y  Y9  1  0.639516  0.158704  0.623057  1
  Y  Y10  1  0.139612  0.341291  0.876976  1
  Y  Y11  1  0.360481  0.841374  0.123069  1
  Y  Y12  1  0.860333  0.658779  0.376941  1
  Y  Y13  1  0.360481  0.841374  0.376931  1
  Y  Y14  1  0.860333  0.658779  0.123059  1
  Y  Y15  1  0.639516  0.158704  0.876943  1
  Y  Y16  1  0.139612  0.341291  0.623024  1
  Y  Y17  1  0.805688  0.495798  0.750000  1
  Y  Y18  1  0.305639  0.004244  0.750000  1
  Y  Y19  1  0.194212  0.504156  0.250000  1
  Pb  Pb20  1  0.699897  0.958346  0.456424  1
  Pb  Pb21  1  0.200000  0.541686  0.043475  1
  Pb  Pb22  1  0.300037  0.041566  0.956442  1
  Pb  Pb23  1  0.800214  0.458316  0.543533  1
  Pb  Pb24  1  0.300037  0.041566  0.543558  1
  Pb  Pb25  1  0.800214  0.458316  0.956467  1
  Pb  Pb26  1  0.699897  0.958346  0.043576  1
  Pb  Pb27  1  0.200000  0.541686  0.456525  1
  Pb  Pb28  1  0.444290  0.371688  0.750000  1
  Pb  Pb29  1  0.944247  0.128550  0.750000  1
  Pb  Pb30  1  0.555703  0.628623  0.250000  1
  Pb  Pb31  1  0.055477  0.871704  0.250000  1
  Pb  Pb32  1  0.670447  0.851386  0.750000  1
  Pb  Pb33  1  0.170349  0.648622  0.750000  1
  Pb  Pb34  1  0.330260  0.148470  0.250000  1
  Pb  Pb35  1  0.829013  0.351124  0.250000  1
