# generated using pymatgen
data_TbY7Hf11Si16Tc
_symmetry_space_group_name_H-M   'P 1'
_cell_length_a   7.25358122
_cell_length_b   7.25304010
_cell_length_c   13.28812004
_cell_angle_alpha   89.95043650
_cell_angle_beta   90.03836511
_cell_angle_gamma   90.05347434
_symmetry_Int_Tables_number   1
_chemical_formula_structural   TbY7Hf11Si16Tc
_chemical_formula_sum   'Tb1 Y7 Hf11 Si16 Tc1'
_cell_volume   699.09412266
_cell_formula_units_Z   1
loop_
 _symmetry_equiv_pos_site_id
 _symmetry_equiv_pos_as_xyz
  1  'x, y, z'
loop_
 _atom_site_type_symbol
 _atom_site_label
 _atom_site_symmetry_multiplicity
 _atom_site_fract_x
 _atom_site_fract_y
 _atom_site_fract_z
 _atom_site_occupancy
  Tb  Tb0  1  0.656013  0.004387  0.283020  1
  Y  Y1  1  0.998930  0.342816  0.212225  1
  Y  Y2  1  0.004356  0.655981  0.716987  1
  Y  Y3  1  0.156421  0.495404  0.465478  1
  Y  Y4  1  0.501103  0.845584  0.033591  1
  Y  Y5  1  0.845600  0.501128  0.966364  1
  Y  Y6  1  0.495380  0.156401  0.534544  1
  Y  Y7  1  0.342826  0.998912  0.787777  1
  Hf  Hf8  1  0.825133  0.825206  0.499990  1
  Hf  Hf9  1  0.324356  0.674584  0.248610  1
  Hf  Hf10  1  0.674586  0.324343  0.751397  1
  Hf  Hf11  1  0.148483  0.997073  0.373118  1
  Hf  Hf12  1  0.853262  0.004953  0.877548  1
  Hf  Hf13  1  0.503572  0.648055  0.625095  1
  Hf  Hf14  1  0.350021  0.493999  0.877106  1
  Hf  Hf15  1  0.493959  0.350046  0.122878  1
  Hf  Hf16  1  0.648089  0.503588  0.374954  1
  Hf  Hf17  1  0.997133  0.148366  0.626942  1
  Hf  Hf18  1  0.004905  0.853291  0.122422  1
  Si  Si19  1  0.361874  0.295116  0.316048  1
  Si  Si20  1  0.637278  0.705060  0.818117  1
  Si  Si21  1  0.205283  0.862319  0.567345  1
  Si  Si22  1  0.136820  0.795363  0.932434  1
  Si  Si23  1  0.795395  0.136772  0.067562  1
  Si  Si24  1  0.862356  0.205339  0.432719  1
  Si  Si25  1  0.295098  0.361921  0.683941  1
  Si  Si26  1  0.705083  0.637161  0.181851  1
  Si  Si27  1  0.293718  0.052501  0.181844  1
  Si  Si28  1  0.704061  0.951551  0.685885  1
  Si  Si29  1  0.450159  0.796105  0.435031  1
  Si  Si30  1  0.205152  0.547998  0.064439  1
  Si  Si31  1  0.548032  0.205156  0.935556  1
  Si  Si32  1  0.796141  0.450219  0.564986  1
  Si  Si33  1  0.052486  0.293814  0.818119  1
  Si  Si34  1  0.951579  0.704083  0.314109  1
  Tc  Tc35  1  0.175359  0.175407  0.999968  1
