# generated using pymatgen
data_LuHf16Si16W3
_symmetry_space_group_name_H-M   'P 1'
_cell_length_a   6.98590729
_cell_length_b   6.99318460
_cell_length_c   12.78346262
_cell_angle_alpha   90.02314308
_cell_angle_beta   89.91063616
_cell_angle_gamma   89.90134991
_symmetry_Int_Tables_number   1
_chemical_formula_structural   LuHf16Si16W3
_chemical_formula_sum   'Lu1 Hf16 Si16 W3'
_cell_volume   624.51821332
_cell_formula_units_Z   1
loop_
 _symmetry_equiv_pos_site_id
 _symmetry_equiv_pos_as_xyz
  1  'x, y, z'
loop_
 _atom_site_type_symbol
 _atom_site_label
 _atom_site_symmetry_multiplicity
 _atom_site_fract_x
 _atom_site_fract_y
 _atom_site_fract_z
 _atom_site_occupancy
  Lu  Lu0  1  0.495497  0.156107  0.530987  1
  Hf  Hf1  1  0.175179  0.174515  0.999987  1
  Hf  Hf2  1  0.504347  0.847005  0.031415  1
  Hf  Hf3  1  0.655678  0.000759  0.281931  1
  Hf  Hf4  1  0.345574  0.996379  0.781395  1
  Hf  Hf5  1  0.846268  0.503834  0.968371  1
  Hf  Hf6  1  0.153047  0.498671  0.469215  1
  Hf  Hf7  1  0.001579  0.654764  0.718572  1
  Hf  Hf8  1  0.996833  0.346552  0.219199  1
  Hf  Hf9  1  0.497738  0.356397  0.126327  1
  Hf  Hf10  1  0.503089  0.644762  0.626128  1
  Hf  Hf11  1  0.853754  0.000597  0.874289  1
  Hf  Hf12  1  0.145073  0.994103  0.375971  1
  Hf  Hf13  1  0.646226  0.502501  0.373143  1
  Hf  Hf14  1  0.355631  0.499045  0.873751  1
  Hf  Hf15  1  0.000808  0.853712  0.126405  1
  Hf  Hf16  1  0.996244  0.144434  0.623542  1
  Si  Si17  1  0.795757  0.146871  0.071424  1
  Si  Si18  1  0.200122  0.851261  0.571516  1
  Si  Si19  1  0.647194  0.701959  0.821855  1
  Si  Si20  1  0.351120  0.299302  0.320694  1
  Si  Si21  1  0.856288  0.203074  0.426767  1
  Si  Si22  1  0.146462  0.795690  0.928549  1
  Si  Si23  1  0.702077  0.646681  0.178136  1
  Si  Si24  1  0.294162  0.355481  0.679837  1
  Si  Si25  1  0.551026  0.199263  0.932962  1
  Si  Si26  1  0.453409  0.799047  0.433603  1
  Si  Si27  1  0.698762  0.951682  0.684382  1
  Si  Si28  1  0.305129  0.043084  0.185586  1
  Si  Si29  1  0.802909  0.454813  0.565768  1
  Si  Si30  1  0.198342  0.551149  0.066838  1
  Si  Si31  1  0.953325  0.697208  0.316438  1
  Si  Si32  1  0.042553  0.305204  0.814650  1
  W  W33  1  0.676015  0.327073  0.749218  1
  W  W34  1  0.325687  0.674119  0.250921  1
  W  W35  1  0.827098  0.822899  0.500226  1
