# generated using pymatgen
data_DyYHo2(MoN3)4
_symmetry_space_group_name_H-M   'P 1'
_cell_length_a   7.31649556
_cell_length_b   7.31649429
_cell_length_c   6.26903296
_cell_angle_alpha   73.58086281
_cell_angle_beta   73.58085504
_cell_angle_gamma   81.45287754
_symmetry_Int_Tables_number   1
_chemical_formula_structural   DyYHo2(MoN3)4
_chemical_formula_sum   'Dy1 Y1 Ho2 Mo4 N12'
_cell_volume   307.91293353
_cell_formula_units_Z   1
loop_
 _symmetry_equiv_pos_site_id
 _symmetry_equiv_pos_as_xyz
  1  'x, y, z'
loop_
 _atom_site_type_symbol
 _atom_site_label
 _atom_site_symmetry_multiplicity
 _atom_site_fract_x
 _atom_site_fract_y
 _atom_site_fract_z
 _atom_site_occupancy
  Dy  Dy0  1  0.705923  0.294077  0.250000  1
  Y  Y1  1  0.295080  0.704920  0.750000  1
  Ho  Ho2  1  0.913389  0.086611  0.750000  1
  Ho  Ho3  1  0.087418  0.912582  0.250000  1
  Mo  Mo4  1  0.800470  0.618838  0.768719  1
  Mo  Mo5  1  0.198773  0.380726  0.231541  1
  Mo  Mo6  1  0.619274  0.801227  0.268459  1
  Mo  Mo7  1  0.381162  0.199530  0.731281  1
  N  N8  1  0.218968  0.999839  0.848207  1
  N  N9  1  0.364083  0.349690  0.437646  1
  N  N10  1  0.635965  0.650057  0.561804  1
  N  N11  1  0.625233  0.111021  0.661611  1
  N  N12  1  0.000161  0.781032  0.651793  1
  N  N13  1  0.781353  0.001111  0.152656  1
  N  N14  1  0.109048  0.624418  0.162437  1
  N  N15  1  0.888979  0.374767  0.838389  1
  N  N16  1  0.998889  0.218647  0.347344  1
  N  N17  1  0.349943  0.364035  0.938196  1
  N  N18  1  0.650310  0.635917  0.062354  1
  N  N19  1  0.375582  0.890952  0.337563  1
