# generated using pymatgen
data_Tm8TiV3O20
_symmetry_space_group_name_H-M   'P 1'
_cell_length_a   3.66770700
_cell_length_b   10.27432973
_cell_length_c   11.18031806
_cell_angle_alpha   89.89050467
_cell_angle_beta   90.00000000
_cell_angle_gamma   90.00000000
_symmetry_Int_Tables_number   1
_chemical_formula_structural   Tm8TiV3O20
_chemical_formula_sum   'Tm8 Ti1 V3 O20'
_cell_volume   421.30973960
_cell_formula_units_Z   1
loop_
 _symmetry_equiv_pos_site_id
 _symmetry_equiv_pos_as_xyz
  1  'x, y, z'
loop_
 _atom_site_type_symbol
 _atom_site_label
 _atom_site_symmetry_multiplicity
 _atom_site_fract_x
 _atom_site_fract_y
 _atom_site_fract_z
 _atom_site_occupancy
  Tm  Tm0  1  0.250000  0.119510  0.274484  1
  Tm  Tm1  1  0.250000  0.136643  0.944896  1
  Tm  Tm2  1  0.750000  0.363126  0.444042  1
  Tm  Tm3  1  0.750000  0.378298  0.773468  1
  Tm  Tm4  1  0.250000  0.619629  0.225604  1
  Tm  Tm5  1  0.250000  0.635757  0.556576  1
  Tm  Tm6  1  0.750000  0.864415  0.055098  1
  Tm  Tm7  1  0.750000  0.879357  0.727410  1
  Ti  Ti8  1  0.750000  0.828094  0.381977  1
  V  V9  1  0.250000  0.169513  0.617544  1
  V  V10  1  0.750000  0.330231  0.117844  1
  V  V11  1  0.250000  0.669316  0.882721  1
  O  O12  1  0.750000  0.005816  0.894174  1
  O  O13  1  0.250000  0.004668  0.654102  1
  O  O14  1  0.250000  0.227008  0.455297  1
  O  O15  1  0.750000  0.237794  0.614780  1
  O  O16  1  0.750000  0.245250  0.270321  1
  O  O17  1  0.250000  0.256290  0.769853  1
  O  O18  1  0.250000  0.262130  0.114904  1
  O  O19  1  0.750000  0.273158  0.955012  1
  O  O20  1  0.750000  0.495457  0.153451  1
  O  O21  1  0.250000  0.494873  0.394363  1
  O  O22  1  0.750000  0.506618  0.605712  1
  O  O23  1  0.250000  0.504598  0.846161  1
  O  O24  1  0.250000  0.726555  0.045087  1
  O  O25  1  0.750000  0.737416  0.885309  1
  O  O26  1  0.750000  0.743028  0.228977  1
  O  O27  1  0.250000  0.756218  0.730087  1
  O  O28  1  0.250000  0.761921  0.384613  1
  O  O29  1  0.750000  0.776276  0.545712  1
  O  O30  1  0.750000  0.996931  0.345366  1
  O  O31  1  0.250000  0.994104  0.105053  1
