# generated using pymatgen
data_V(CoMo)6
_symmetry_space_group_name_H-M   'P 1'
_cell_length_a   8.95462830
_cell_length_b   8.95462866
_cell_length_c   8.95462936
_cell_angle_alpha   30.99811584
_cell_angle_beta   30.99811330
_cell_angle_gamma   30.99811367
_symmetry_Int_Tables_number   1
_chemical_formula_structural   V(CoMo)6
_chemical_formula_sum   'V1 Co6 Mo6'
_cell_volume   168.94808103
_cell_formula_units_Z   1
loop_
 _symmetry_equiv_pos_site_id
 _symmetry_equiv_pos_as_xyz
  1  'x, y, z'
loop_
 _atom_site_type_symbol
 _atom_site_label
 _atom_site_symmetry_multiplicity
 _atom_site_fract_x
 _atom_site_fract_y
 _atom_site_fract_z
 _atom_site_occupancy
  V  V0  1  0.000000  0.000000  0.000000  1
  Co  Co1  1  0.092502  0.092502  0.584237  1
  Co  Co2  1  0.415763  0.907498  0.907498  1
  Co  Co3  1  0.584237  0.092502  0.092502  1
  Co  Co4  1  0.907498  0.907498  0.415763  1
  Co  Co5  1  0.907498  0.415763  0.907498  1
  Co  Co6  1  0.092502  0.584237  0.092502  1
  Mo  Mo7  1  0.834560  0.834560  0.834560  1
  Mo  Mo8  1  0.653612  0.653612  0.653612  1
  Mo  Mo9  1  0.450541  0.450541  0.450541  1
  Mo  Mo10  1  0.549459  0.549459  0.549459  1
  Mo  Mo11  1  0.165440  0.165440  0.165440  1
  Mo  Mo12  1  0.346388  0.346388  0.346388  1
