# generated using pymatgen
data_Sc3CoAs2Ir3
_symmetry_space_group_name_H-M   'P 1'
_cell_length_a   6.54335200
_cell_length_b   6.54335245
_cell_length_c   3.95928700
_cell_angle_alpha   90.00000000
_cell_angle_beta   90.00000000
_cell_angle_gamma   120.00000784
_symmetry_Int_Tables_number   1
_chemical_formula_structural   Sc3CoAs2Ir3
_chemical_formula_sum   'Sc3 Co1 As2 Ir3'
_cell_volume   146.80747829
_cell_formula_units_Z   1
loop_
 _symmetry_equiv_pos_site_id
 _symmetry_equiv_pos_as_xyz
  1  'x, y, z'
loop_
 _atom_site_type_symbol
 _atom_site_label
 _atom_site_symmetry_multiplicity
 _atom_site_fract_x
 _atom_site_fract_y
 _atom_site_fract_z
 _atom_site_occupancy
  Sc  Sc0  1  0.000000  0.611013  0.500000  1
  Sc  Sc1  1  0.388987  0.388987  0.500000  1
  Sc  Sc2  1  0.611013  0.000000  0.500000  1
  Co  Co3  1  0.000000  0.000000  0.500000  1
  As  As4  1  0.333333  0.666667  0.000000  1
  As  As5  1  0.666667  0.333333  0.000000  1
  Ir  Ir6  1  0.236494  0.000000  0.000000  1
  Ir  Ir7  1  0.763506  0.763506  0.000000  1
  Ir  Ir8  1  0.000000  0.236494  0.000000  1
