# generated using pymatgen
data_TbEr7Sc11Si16Os
_symmetry_space_group_name_H-M   'P 1'
_cell_length_a   6.98593211
_cell_length_b   7.33239216
_cell_length_c   13.82485758
_cell_angle_alpha   90.03220139
_cell_angle_beta   90.00845666
_cell_angle_gamma   90.12482139
_symmetry_Int_Tables_number   1
_chemical_formula_structural   TbEr7Sc11Si16Os
_chemical_formula_sum   'Tb1 Er7 Sc11 Si16 Os1'
_cell_volume   708.15708968
_cell_formula_units_Z   1
loop_
 _symmetry_equiv_pos_site_id
 _symmetry_equiv_pos_as_xyz
  1  'x, y, z'
loop_
 _atom_site_type_symbol
 _atom_site_label
 _atom_site_symmetry_multiplicity
 _atom_site_fract_x
 _atom_site_fract_y
 _atom_site_fract_z
 _atom_site_occupancy
  Tb  Tb0  1  0.012493  0.178379  0.092208  1
  Er  Er1  1  0.992862  0.818471  0.900741  1
  Er  Er2  1  0.489462  0.673274  0.902920  1
  Er  Er3  1  0.992845  0.818570  0.599108  1
  Er  Er4  1  0.511938  0.323264  0.094284  1
  Er  Er5  1  0.012600  0.178934  0.407376  1
  Er  Er6  1  0.511993  0.323013  0.405769  1
  Er  Er7  1  0.489438  0.673149  0.596937  1
  Sc  Sc8  1  0.843232  0.496424  0.250152  1
  Sc  Sc9  1  0.343778  0.003538  0.250139  1
  Sc  Sc10  1  0.655815  0.994605  0.750002  1
  Sc  Sc11  1  0.324482  0.175701  0.627483  1
  Sc  Sc12  1  0.673144  0.824947  0.374016  1
  Sc  Sc13  1  0.173514  0.673063  0.377128  1
  Sc  Sc14  1  0.673203  0.824774  0.126110  1
  Sc  Sc15  1  0.823208  0.331744  0.628742  1
  Sc  Sc16  1  0.324642  0.175547  0.872412  1
  Sc  Sc17  1  0.823029  0.331995  0.871227  1
  Sc  Sc18  1  0.173547  0.672889  0.122986  1
  Si  Si19  1  0.026306  0.116807  0.749968  1
  Si  Si20  1  0.975040  0.886734  0.250207  1
  Si  Si21  1  0.470803  0.613607  0.250045  1
  Si  Si22  1  0.511676  0.396686  0.749963  1
  Si  Si23  1  0.285209  0.856878  0.750020  1
  Si  Si24  1  0.717613  0.131507  0.250390  1
  Si  Si25  1  0.216587  0.369731  0.250366  1
  Si  Si26  1  0.794689  0.631773  0.749968  1
  Si  Si27  1  0.156369  0.466449  0.550098  1
  Si  Si28  1  0.842380  0.536178  0.464040  1
  Si  Si29  1  0.345172  0.964818  0.462870  1
  Si  Si30  1  0.842177  0.536875  0.035799  1
  Si  Si31  1  0.659302  0.034325  0.539724  1
  Si  Si32  1  0.156448  0.466969  0.949708  1
  Si  Si33  1  0.658976  0.034230  0.960210  1
  Si  Si34  1  0.346201  0.964344  0.036958  1
  Os  Os35  1  0.149832  0.499805  0.749927  1
