# generated using pymatgen
data_Pd6Pt2W
_symmetry_space_group_name_H-M   'P 1'
_cell_length_a   6.31194125
_cell_length_b   6.31194093
_cell_length_c   6.26023548
_cell_angle_alpha   95.53024728
_cell_angle_beta   95.53026098
_cell_angle_gamma   143.98239949
_symmetry_Int_Tables_number   1
_chemical_formula_structural   Pd6Pt2W
_chemical_formula_sum   'Pd6 Pt2 W1'
_cell_volume   139.35495228
_cell_formula_units_Z   1
loop_
 _symmetry_equiv_pos_site_id
 _symmetry_equiv_pos_as_xyz
  1  'x, y, z'
loop_
 _atom_site_type_symbol
 _atom_site_label
 _atom_site_symmetry_multiplicity
 _atom_site_fract_x
 _atom_site_fract_y
 _atom_site_fract_z
 _atom_site_occupancy
  Pd  Pd0  1  0.328386  0.998976  0.327362  1
  Pd  Pd1  1  0.671614  0.001024  0.672638  1
  Pd  Pd2  1  0.998976  0.328386  0.327362  1
  Pd  Pd3  1  0.001024  0.671614  0.672638  1
  Pd  Pd4  1  0.336724  0.336724  0.673448  1
  Pd  Pd5  1  0.663276  0.663276  0.326552  1
  Pt  Pt6  1  0.658467  0.341533  0.000000  1
  Pt  Pt7  1  0.341533  0.658467  0.000000  1
  W  W8  1  0.000000  0.000000  0.000000  1
