# generated using pymatgen
data_Zr8Al15Os7
_symmetry_space_group_name_H-M   'P 1'
_cell_length_a   8.92934142
_cell_length_b   8.92934178
_cell_length_c   8.92934043
_cell_angle_alpha   120.10002694
_cell_angle_beta   119.99572819
_cell_angle_gamma   89.91711819
_symmetry_Int_Tables_number   1
_chemical_formula_structural   Zr8Al15Os7
_chemical_formula_sum   'Zr8 Al15 Os7'
_cell_volume   503.06941301
_cell_formula_units_Z   1
loop_
 _symmetry_equiv_pos_site_id
 _symmetry_equiv_pos_as_xyz
  1  'x, y, z'
loop_
 _atom_site_type_symbol
 _atom_site_label
 _atom_site_symmetry_multiplicity
 _atom_site_fract_x
 _atom_site_fract_y
 _atom_site_fract_z
 _atom_site_occupancy
  Zr  Zr0  1  0.798776  0.287207  0.071127  1
  Zr  Zr1  1  0.216079  0.287207  0.488430  1
  Zr  Zr2  1  0.205171  0.705171  0.500000  1
  Zr  Zr3  1  0.216079  0.727649  0.928873  1
  Zr  Zr4  1  0.798776  0.727649  0.511570  1
  Zr  Zr5  1  0.774108  0.274108  0.500000  1
  Zr  Zr6  1  0.378719  0.120010  0.741291  1
  Zr  Zr7  1  0.378719  0.637428  0.258709  1
  Al  Al8  1  0.988923  0.488923  0.500000  1
  Al  Al9  1  0.161860  0.334348  0.172487  1
  Al  Al10  1  0.161860  0.989373  0.827513  1
  Al  Al11  1  0.152898  0.342602  0.810296  1
  Al  Al12  1  0.532305  0.342602  0.189704  1
  Al  Al13  1  0.839906  0.657971  0.818066  1
  Al  Al14  1  0.839906  0.021840  0.181934  1
  Al  Al15  1  0.836211  0.660865  0.175345  1
  Al  Al16  1  0.485520  0.660865  0.824655  1
  Al  Al17  1  0.376955  0.122627  0.254327  1
  Al  Al18  1  0.868302  0.122627  0.745673  1
  Al  Al19  1  0.620177  0.872181  0.252004  1
  Al  Al20  1  0.620177  0.368174  0.747996  1
  Al  Al21  1  0.621663  0.878191  0.743472  1
  Al  Al22  1  0.134717  0.878191  0.256528  1
  Os  Os23  1  0.993950  0.996393  0.498345  1
  Os  Os24  1  0.498047  0.996393  0.002443  1
  Os  Os25  1  0.499392  0.499392  0.000000  1
  Os  Os26  1  0.498047  0.495604  0.501655  1
  Os  Os27  1  0.993950  0.495604  0.997557  1
  Os  Os28  1  0.999634  0.999634  0.000000  1
  Os  Os29  1  0.509167  0.009167  0.500000  1
