# generated using pymatgen
data_Sr10Si4GeBi
_symmetry_space_group_name_H-M   'P 1'
_cell_length_a   9.84743443
_cell_length_b   9.84743339
_cell_length_c   9.84743412
_cell_angle_alpha   130.66618967
_cell_angle_beta   130.66618615
_cell_angle_gamma   72.34397669
_symmetry_Int_Tables_number   1
_chemical_formula_structural   Sr10Si4GeBi
_chemical_formula_sum   'Sr10 Si4 Ge1 Bi1'
_cell_volume   537.05829352
_cell_formula_units_Z   1
loop_
 _symmetry_equiv_pos_site_id
 _symmetry_equiv_pos_as_xyz
  1  'x, y, z'
loop_
 _atom_site_type_symbol
 _atom_site_label
 _atom_site_symmetry_multiplicity
 _atom_site_fract_x
 _atom_site_fract_y
 _atom_site_fract_z
 _atom_site_occupancy
  Sr  Sr0  1  0.048137  0.195100  0.520202  1
  Sr  Sr1  1  0.527936  0.048137  0.853038  1
  Sr  Sr2  1  0.195100  0.674898  0.146962  1
  Sr  Sr3  1  0.451863  0.972064  0.146962  1
  Sr  Sr4  1  0.674898  0.527936  0.479798  1
  Sr  Sr5  1  0.972064  0.825102  0.520202  1
  Sr  Sr6  1  0.304900  0.451863  0.479798  1
  Sr  Sr7  1  0.825102  0.304900  0.853038  1
  Sr  Sr8  1  0.510597  0.510597  0.000000  1
  Sr  Sr9  1  0.989403  0.989403  0.000000  1
  Si  Si10  1  0.109133  0.609133  0.718267  1
  Si  Si11  1  0.609133  0.890867  0.500000  1
  Si  Si12  1  0.390867  0.109133  0.500000  1
  Si  Si13  1  0.890867  0.390867  0.281733  1
  Ge  Ge14  1  0.250000  0.250000  0.000000  1
  Bi  Bi15  1  0.750000  0.750000  0.000000  1
