# generated using pymatgen
data_Pa2PbF12
_symmetry_space_group_name_H-M   'P 1'
_cell_length_a   8.57445182
_cell_length_b   8.57445248
_cell_length_c   8.62263153
_cell_angle_alpha   63.33688330
_cell_angle_beta   63.33688109
_cell_angle_gamma   80.66247381
_symmetry_Int_Tables_number   1
_chemical_formula_structural   Pa2PbF12
_chemical_formula_sum   'Pa4 Pb2 F24'
_cell_volume   505.68022981
_cell_formula_units_Z   2
loop_
 _symmetry_equiv_pos_site_id
 _symmetry_equiv_pos_as_xyz
  1  'x, y, z'
loop_
 _atom_site_type_symbol
 _atom_site_label
 _atom_site_symmetry_multiplicity
 _atom_site_fract_x
 _atom_site_fract_y
 _atom_site_fract_z
 _atom_site_occupancy
  Pa  Pa0  1  0.634915  0.776883  0.165213  1
  Pa  Pa1  1  0.776883  0.634915  0.665213  1
  Pa  Pa2  1  0.365085  0.223117  0.834787  1
  Pa  Pa3  1  0.223117  0.365085  0.334787  1
  Pb  Pb4  1  0.786839  0.213161  0.250000  1
  Pb  Pb5  1  0.213161  0.786839  0.750000  1
  F  F6  1  0.740012  0.684489  0.394173  1
  F  F7  1  0.579324  0.203013  0.593323  1
  F  F8  1  0.717790  0.515625  0.224693  1
  F  F9  1  0.315511  0.259988  0.105827  1
  F  F10  1  0.092552  0.173523  0.025254  1
  F  F11  1  0.203013  0.579324  0.093323  1
  F  F12  1  0.420676  0.796987  0.406677  1
  F  F13  1  0.395982  0.604018  0.250000  1
  F  F14  1  0.604018  0.395982  0.750000  1
  F  F15  1  0.515625  0.717790  0.724693  1
  F  F16  1  0.826477  0.907448  0.474746  1
  F  F17  1  0.173523  0.092552  0.525254  1
  F  F18  1  0.282210  0.484375  0.775307  1
  F  F19  1  0.259988  0.315511  0.605827  1
  F  F20  1  0.706977  0.015403  0.146769  1
  F  F21  1  0.000000  0.500000  0.500000  1
  F  F22  1  0.984597  0.293023  0.353231  1
  F  F23  1  0.796987  0.420676  0.906677  1
  F  F24  1  0.484375  0.282210  0.275307  1
  F  F25  1  0.907448  0.826477  0.974746  1
  F  F26  1  0.293023  0.984597  0.853231  1
  F  F27  1  0.684489  0.740012  0.894173  1
  F  F28  1  0.015403  0.706977  0.646769  1
  F  F29  1  0.500000  0.000000  0.000000  1
