# generated using pymatgen
data_Hf17Nb(Si8W)2
_symmetry_space_group_name_H-M   'P 1'
_cell_length_a   6.98935268
_cell_length_b   6.98935215
_cell_length_c   12.77345423
_cell_angle_alpha   90.04332761
_cell_angle_beta   89.95667301
_cell_angle_gamma   89.84386572
_symmetry_Int_Tables_number   1
_chemical_formula_structural   Hf17Nb(Si8W)2
_chemical_formula_sum   'Hf17 Nb1 Si16 W2'
_cell_volume   623.99394044
_cell_formula_units_Z   1
loop_
 _symmetry_equiv_pos_site_id
 _symmetry_equiv_pos_as_xyz
  1  'x, y, z'
loop_
 _atom_site_type_symbol
 _atom_site_label
 _atom_site_symmetry_multiplicity
 _atom_site_fract_x
 _atom_site_fract_y
 _atom_site_fract_z
 _atom_site_occupancy
  Hf  Hf0  1  0.175010  0.175010  0.000000  1
  Hf  Hf1  1  0.496638  0.154689  0.530129  1
  Hf  Hf2  1  0.504145  0.846120  0.031036  1
  Hf  Hf3  1  0.654410  0.002199  0.281870  1
  Hf  Hf4  1  0.345984  0.996011  0.780896  1
  Hf  Hf5  1  0.846120  0.504145  0.968964  1
  Hf  Hf6  1  0.154689  0.496638  0.469871  1
  Hf  Hf7  1  0.002199  0.654410  0.718130  1
  Hf  Hf8  1  0.996011  0.345984  0.219104  1
  Hf  Hf9  1  0.498142  0.355662  0.127032  1
  Hf  Hf10  1  0.502538  0.644205  0.626099  1
  Hf  Hf11  1  0.853414  0.001259  0.874145  1
  Hf  Hf12  1  0.145525  0.996748  0.376329  1
  Hf  Hf13  1  0.644205  0.502538  0.373901  1
  Hf  Hf14  1  0.355662  0.498142  0.872968  1
  Hf  Hf15  1  0.001259  0.853414  0.125855  1
  Hf  Hf16  1  0.996748  0.145525  0.623671  1
  Nb  Nb17  1  0.825264  0.825264  0.500000  1
  Si  Si18  1  0.796042  0.146740  0.071248  1
  Si  Si19  1  0.203692  0.853426  0.572059  1
  Si  Si20  1  0.646407  0.702537  0.821766  1
  Si  Si21  1  0.352727  0.297305  0.322566  1
  Si  Si22  1  0.853426  0.203692  0.427941  1
  Si  Si23  1  0.146740  0.796042  0.928752  1
  Si  Si24  1  0.702537  0.646407  0.178234  1
  Si  Si25  1  0.297305  0.352727  0.677434  1
  Si  Si26  1  0.550644  0.198938  0.933185  1
  Si  Si27  1  0.451933  0.802071  0.434214  1
  Si  Si28  1  0.695670  0.955094  0.684306  1
  Si  Si29  1  0.304847  0.043345  0.185777  1
  Si  Si30  1  0.802071  0.451933  0.565786  1
  Si  Si31  1  0.198938  0.550644  0.066815  1
  Si  Si32  1  0.955094  0.695670  0.315694  1
  Si  Si33  1  0.043345  0.304847  0.814223  1
  W  W34  1  0.675230  0.325387  0.749109  1
  W  W35  1  0.325387  0.675230  0.250891  1
