# generated using pymatgen
data_DyYNi3Ir
_symmetry_space_group_name_H-M   'P 1'
_cell_length_a   5.22506412
_cell_length_b   5.22506384
_cell_length_c   5.22506408
_cell_angle_alpha   58.08176325
_cell_angle_beta   58.08176295
_cell_angle_gamma   58.08177571
_symmetry_Int_Tables_number   1
_chemical_formula_structural   DyYNi3Ir
_chemical_formula_sum   'Dy1 Y1 Ni3 Ir1'
_cell_volume   96.43299098
_cell_formula_units_Z   1
loop_
 _symmetry_equiv_pos_site_id
 _symmetry_equiv_pos_as_xyz
  1  'x, y, z'
loop_
 _atom_site_type_symbol
 _atom_site_label
 _atom_site_symmetry_multiplicity
 _atom_site_fract_x
 _atom_site_fract_y
 _atom_site_fract_z
 _atom_site_occupancy
  Dy  Dy0  1  0.001578  0.001578  0.001578  1
  Y  Y1  1  0.248507  0.248507  0.248507  1
  Ni  Ni2  1  0.625123  0.625123  0.124657  1
  Ni  Ni3  1  0.625123  0.124657  0.625123  1
  Ni  Ni4  1  0.124657  0.625123  0.625123  1
  Ir  Ir5  1  0.625012  0.625012  0.625012  1
