# generated using pymatgen
data_PrI16
_symmetry_space_group_name_H-M   'P 1'
_cell_length_a   9.09220033
_cell_length_b   10.60366019
_cell_length_c   13.92941303
_cell_angle_alpha   101.68542206
_cell_angle_beta   93.90031656
_cell_angle_gamma   122.04600939
_symmetry_Int_Tables_number   1
_chemical_formula_structural   PrI16
_chemical_formula_sum   'Pr1 I16'
_cell_volume   1089.51929341
_cell_formula_units_Z   1
loop_
 _symmetry_equiv_pos_site_id
 _symmetry_equiv_pos_as_xyz
  1  'x, y, z'
loop_
 _atom_site_type_symbol
 _atom_site_label
 _atom_site_symmetry_multiplicity
 _atom_site_fract_x
 _atom_site_fract_y
 _atom_site_fract_z
 _atom_site_occupancy
  Pr  Pr0  1  0.000000  0.000000  0.000000  1
  I  I1  1  0.768082  0.941058  0.168908  1
  I  I2  1  0.231918  0.058942  0.831092  1
  I  I3  1  0.332689  0.208568  0.178347  1
  I  I4  1  0.667311  0.791432  0.821653  1
  I  I5  1  0.975610  0.281532  0.977163  1
  I  I6  1  0.024390  0.718468  0.022837  1
  I  I7  1  0.367922  0.487458  0.311417  1
  I  I8  1  0.632078  0.512542  0.688583  1
  I  I9  1  0.942238  0.582039  0.262045  1
  I  I10  1  0.057762  0.417961  0.737955  1
  I  I11  1  0.403036  0.834581  0.091771  1
  I  I12  1  0.596964  0.165419  0.908229  1
  I  I13  1  0.600711  0.251846  0.552940  1
  I  I14  1  0.399289  0.748154  0.447060  1
  I  I15  1  0.798209  0.427658  0.404073  1
  I  I16  1  0.201791  0.572342  0.595927  1
