# generated using pymatgen
data_Yb4Si10RuPt5
_symmetry_space_group_name_H-M   'P 1'
_cell_length_a   8.25193618
_cell_length_b   8.25193576
_cell_length_c   8.25193358
_cell_angle_alpha   138.97557929
_cell_angle_beta   104.33690285
_cell_angle_gamma   89.88238882
_symmetry_Int_Tables_number   1
_chemical_formula_structural   Yb4Si10RuPt5
_chemical_formula_sum   'Yb4 Si10 Ru1 Pt5'
_cell_volume   341.92683830
_cell_formula_units_Z   1
loop_
 _symmetry_equiv_pos_site_id
 _symmetry_equiv_pos_as_xyz
  1  'x, y, z'
loop_
 _atom_site_type_symbol
 _atom_site_label
 _atom_site_symmetry_multiplicity
 _atom_site_fract_x
 _atom_site_fract_y
 _atom_site_fract_z
 _atom_site_occupancy
  Yb  Yb0  1  0.102707  0.870125  0.232779  1
  Yb  Yb1  1  0.897293  0.130073  0.767418  1
  Yb  Yb2  1  0.637346  0.369927  0.267221  1
  Yb  Yb3  1  0.362655  0.629875  0.732582  1
  Si  Si4  1  0.000000  0.750000  0.750000  1
  Si  Si5  1  0.000000  0.250000  0.250000  1
  Si  Si6  1  0.272339  0.022339  0.750000  1
  Si  Si7  1  0.727661  0.477661  0.750000  1
  Si  Si8  1  0.724686  0.974686  0.250000  1
  Si  Si9  1  0.275314  0.525314  0.250000  1
  Si  Si10  1  0.758826  0.614885  0.156888  1
  Si  Si11  1  0.241174  0.398063  0.856059  1
  Si  Si12  1  0.457997  0.101937  0.343112  1
  Si  Si13  1  0.542003  0.885115  0.643941  1
  Ru  Ru14  1  0.500000  0.750000  0.250000  1
  Pt  Pt15  1  0.500000  0.250000  0.750000  1
  Pt  Pt16  1  0.021301  0.636116  0.381422  1
  Pt  Pt17  1  0.978700  0.360121  0.614815  1
  Pt  Pt18  1  0.254694  0.139879  0.118578  1
  Pt  Pt19  1  0.745306  0.863884  0.885185  1
