# generated using pymatgen
data_Er4Re15Si8Ir
_symmetry_space_group_name_H-M   'P 1'
_cell_length_a   4.11022600
_cell_length_b   7.31336925
_cell_length_c   15.27431536
_cell_angle_alpha   89.84471546
_cell_angle_beta   90.00000000
_cell_angle_gamma   90.00000000
_symmetry_Int_Tables_number   1
_chemical_formula_structural   Er4Re15Si8Ir
_chemical_formula_sum   'Er4 Re15 Si8 Ir1'
_cell_volume   459.13813009
_cell_formula_units_Z   1
loop_
 _symmetry_equiv_pos_site_id
 _symmetry_equiv_pos_as_xyz
  1  'x, y, z'
loop_
 _atom_site_type_symbol
 _atom_site_label
 _atom_site_symmetry_multiplicity
 _atom_site_fract_x
 _atom_site_fract_y
 _atom_site_fract_z
 _atom_site_occupancy
  Er  Er0  1  0.000000  0.576563  0.120738  1
  Er  Er1  1  0.000000  0.423501  0.879443  1
  Er  Er2  1  0.500000  0.077317  0.380960  1
  Er  Er3  1  0.500000  0.921447  0.618826  1
  Re  Re4  1  0.000000  0.858445  0.952612  1
  Re  Re5  1  0.500000  0.645894  0.448084  1
  Re  Re6  1  0.500000  0.358119  0.549842  1
  Re  Re7  1  0.000000  0.737765  0.322708  1
  Re  Re8  1  0.000000  0.265602  0.677820  1
  Re  Re9  1  0.500000  0.234823  0.176253  1
  Re  Re10  1  0.500000  0.766346  0.823138  1
  Re  Re11  1  0.000000  0.427184  0.416064  1
  Re  Re12  1  0.000000  0.572022  0.581131  1
  Re  Re13  1  0.500000  0.927481  0.084506  1
  Re  Re14  1  0.500000  0.067363  0.920779  1
  Re  Re15  1  0.000000  0.982416  0.202694  1
  Re  Re16  1  0.000000  0.011925  0.794270  1
  Re  Re17  1  0.500000  0.481486  0.294433  1
  Re  Re18  1  0.500000  0.511724  0.706654  1
  Si  Si19  1  0.000000  0.838290  0.478323  1
  Si  Si20  1  0.000000  0.164489  0.522243  1
  Si  Si21  1  0.500000  0.338993  0.021684  1
  Si  Si22  1  0.500000  0.663714  0.978574  1
  Si  Si23  1  0.000000  0.281879  0.271990  1
  Si  Si24  1  0.000000  0.712519  0.726102  1
  Si  Si25  1  0.500000  0.781383  0.228334  1
  Si  Si26  1  0.500000  0.209054  0.773946  1
  Ir  Ir27  1  0.000000  0.162256  0.047846  1
