# generated using pymatgen
data_TbNpP7(Rh3W)3
_symmetry_space_group_name_H-M   'P 1'
_cell_length_a   3.95662283
_cell_length_b   9.53758502
_cell_length_c   9.53738730
_cell_angle_alpha   120.00774740
_cell_angle_beta   90.01803640
_cell_angle_gamma   89.96807837
_symmetry_Int_Tables_number   1
_chemical_formula_structural   TbNpP7(Rh3W)3
_chemical_formula_sum   'Tb1 Np1 P7 Rh9 W3'
_cell_volume   311.66579986
_cell_formula_units_Z   1
loop_
 _symmetry_equiv_pos_site_id
 _symmetry_equiv_pos_as_xyz
  1  'x, y, z'
loop_
 _atom_site_type_symbol
 _atom_site_label
 _atom_site_symmetry_multiplicity
 _atom_site_fract_x
 _atom_site_fract_y
 _atom_site_fract_z
 _atom_site_occupancy
  Tb  Tb0  1  0.761923  0.333334  0.666664  1
  Np  Np1  1  0.261947  0.666668  0.333325  1
  P  P2  1  0.262062  0.000006  0.000011  1
  P  P3  1  0.761879  0.881297  0.592215  1
  P  P4  1  0.761918  0.407783  0.289084  1
  P  P5  1  0.761909  0.710906  0.118684  1
  P  P6  1  0.261880  0.117628  0.414419  1
  P  P7  1  0.261875  0.585590  0.703215  1
  P  P8  1  0.261912  0.296795  0.882375  1
  Rh  Rh9  1  0.261886  0.887580  0.160357  1
  Rh  Rh10  1  0.261872  0.839637  0.727209  1
  Rh  Rh11  1  0.261895  0.272796  0.112433  1
  Rh  Rh12  1  0.761876  0.612489  0.564256  1
  Rh  Rh13  1  0.761893  0.435736  0.048216  1
  Rh  Rh14  1  0.761889  0.951768  0.387523  1
  Rh  Rh15  1  0.261904  0.367469  0.435724  1
  Rh  Rh16  1  0.261884  0.564278  0.931752  1
  Rh  Rh17  1  0.261876  0.068234  0.632517  1
  W  W18  1  0.761891  0.088472  0.870953  1
  W  W19  1  0.761919  0.129055  0.217534  1
  W  W20  1  0.761906  0.782479  0.911534  1
