# generated using pymatgen
data_Zr7MnCo16(As5P)2
_symmetry_space_group_name_H-M   'P 1'
_cell_length_a   12.43607319
_cell_length_b   12.42952823
_cell_length_c   3.74777900
_cell_angle_alpha   90.00000000
_cell_angle_beta   90.00000000
_cell_angle_gamma   119.98212423
_symmetry_Int_Tables_number   1
_chemical_formula_structural   Zr7MnCo16(As5P)2
_chemical_formula_sum   'Zr7 Mn1 Co16 As10 P2'
_cell_volume   501.78851844
_cell_formula_units_Z   1
loop_
 _symmetry_equiv_pos_site_id
 _symmetry_equiv_pos_as_xyz
  1  'x, y, z'
loop_
 _atom_site_type_symbol
 _atom_site_label
 _atom_site_symmetry_multiplicity
 _atom_site_fract_x
 _atom_site_fract_y
 _atom_site_fract_z
 _atom_site_occupancy
  Zr  Zr0  1  0.556234  0.000131  0.000000  1
  Zr  Zr1  1  0.000154  0.557884  0.000000  1
  Zr  Zr2  1  0.666546  0.334514  0.000000  1
  Zr  Zr3  1  0.333364  0.665211  0.000000  1
  Zr  Zr4  1  0.825088  0.819263  0.500000  1
  Zr  Zr5  1  0.167853  0.998199  0.500000  1
  Zr  Zr6  1  0.003740  0.173093  0.500000  1
  Mn  Mn7  1  0.442016  0.442238  0.000000  1
  Co  Co8  1  0.198298  0.366107  0.000000  1
  Co  Co9  1  0.172976  0.808483  0.000000  1
  Co  Co10  1  0.826700  0.635915  0.000000  1
  Co  Co11  1  0.807331  0.177935  0.000000  1
  Co  Co12  1  0.367234  0.199133  0.000000  1
  Co  Co13  1  0.128193  0.478313  0.500000  1
  Co  Co14  1  0.354849  0.878488  0.500000  1
  Co  Co15  1  0.517212  0.639748  0.500000  1
  Co  Co16  1  0.641511  0.518176  0.500000  1
  Co  Co17  1  0.878998  0.356630  0.500000  1
  Co  Co18  1  0.478041  0.128164  0.500000  1
  Co  Co19  1  0.008093  0.000788  0.000000  1
  Co  Co20  1  0.721885  0.001627  0.500000  1
  Co  Co21  1  0.001342  0.728324  0.500000  1
  Co  Co22  1  0.628400  0.820139  0.000000  1
  Co  Co23  1  0.274689  0.274465  0.500000  1
  As  As24  1  0.642918  0.642393  0.000000  1
  As  As25  1  0.344776  0.004575  0.000000  1
  As  As26  1  0.004578  0.346327  0.000000  1
  As  As27  1  0.480931  0.316843  0.500000  1
  As  As28  1  0.690408  0.176418  0.500000  1
  As  As29  1  0.825241  0.517589  0.500000  1
  As  As30  1  0.515712  0.824091  0.500000  1
  As  As31  1  0.175230  0.691042  0.500000  1
  As  As32  1  0.827256  0.997523  0.000000  1
  As  As33  1  0.316150  0.480207  0.500000  1
  P  P34  1  0.999232  0.824296  0.000000  1
  P  P35  1  0.176816  0.175727  0.000000  1
