# generated using pymatgen
data_Sm3Y6ThSn8
_symmetry_space_group_name_H-M   'P 1'
_cell_length_a   8.15964000
_cell_length_b   8.30625465
_cell_length_c   15.67317100
_cell_angle_alpha   89.88529461
_cell_angle_beta   90.00000000
_cell_angle_gamma   90.00000000
_symmetry_Int_Tables_number   1
_chemical_formula_structural   Sm3Y6ThSn8
_chemical_formula_sum   'Sm6 Y12 Th2 Sn16'
_cell_volume   1062.26345586
_cell_formula_units_Z   2
loop_
 _symmetry_equiv_pos_site_id
 _symmetry_equiv_pos_as_xyz
  1  'x, y, z'
loop_
 _atom_site_type_symbol
 _atom_site_label
 _atom_site_symmetry_multiplicity
 _atom_site_fract_x
 _atom_site_fract_y
 _atom_site_fract_z
 _atom_site_occupancy
  Sm  Sm0  1  0.484687  0.678302  0.402700  1
  Sm  Sm1  1  0.984687  0.821698  0.097300  1
  Sm  Sm2  1  0.484353  0.678145  0.097440  1
  Sm  Sm3  1  0.984353  0.821855  0.402560  1
  Sm  Sm4  1  0.517672  0.321357  0.597646  1
  Sm  Sm5  1  0.017672  0.178643  0.902354  1
  Y  Y6  1  0.361543  0.836566  0.877013  1
  Y  Y7  1  0.861543  0.663434  0.622987  1
  Y  Y8  1  0.638354  0.162865  0.377514  1
  Y  Y9  1  0.138354  0.337135  0.122486  1
  Y  Y10  1  0.637309  0.163689  0.122957  1
  Y  Y11  1  0.137309  0.336311  0.377043  1
  Y  Y12  1  0.362492  0.835161  0.622791  1
  Y  Y13  1  0.862492  0.664839  0.877209  1
  Y  Y14  1  0.193735  0.500536  0.749678  1
  Y  Y15  1  0.693735  0.999464  0.750322  1
  Y  Y16  1  0.804422  0.499288  0.249490  1
  Y  Y17  1  0.304422  0.000712  0.250510  1
  Th  Th18  1  0.515869  0.321253  0.903008  1
  Th  Th19  1  0.015869  0.178747  0.596992  1
  Sn  Sn20  1  0.300509  0.041020  0.040836  1
  Sn  Sn21  1  0.800509  0.458980  0.459164  1
  Sn  Sn22  1  0.701514  0.961694  0.542570  1
  Sn  Sn23  1  0.201514  0.538306  0.957430  1
  Sn  Sn24  1  0.700560  0.963458  0.957055  1
  Sn  Sn25  1  0.200560  0.536542  0.542945  1
  Sn  Sn26  1  0.297998  0.040147  0.459290  1
  Sn  Sn27  1  0.797998  0.459853  0.040710  1
  Sn  Sn28  1  0.559721  0.622558  0.751497  1
  Sn  Sn29  1  0.059721  0.877442  0.748503  1
  Sn  Sn30  1  0.439002  0.376834  0.250366  1
  Sn  Sn31  1  0.939002  0.123166  0.249634  1
  Sn  Sn32  1  0.325290  0.143902  0.749539  1
  Sn  Sn33  1  0.825290  0.356098  0.750461  1
  Sn  Sn34  1  0.674973  0.855920  0.250011  1
  Sn  Sn35  1  0.174973  0.644080  0.249989  1
