# generated using pymatgen
data_Nd15Si9N
_symmetry_space_group_name_H-M   'P 1'
_cell_length_a   14.96328200
_cell_length_b   14.96328171
_cell_length_c   6.61476700
_cell_angle_alpha   90.00000000
_cell_angle_beta   90.00000000
_cell_angle_gamma   120.00000064
_symmetry_Int_Tables_number   1
_chemical_formula_structural   Nd15Si9N
_chemical_formula_sum   'Nd30 Si18 N2'
_cell_volume   1282.62261516
_cell_formula_units_Z   2
loop_
 _symmetry_equiv_pos_site_id
 _symmetry_equiv_pos_as_xyz
  1  'x, y, z'
loop_
 _atom_site_type_symbol
 _atom_site_label
 _atom_site_symmetry_multiplicity
 _atom_site_fract_x
 _atom_site_fract_y
 _atom_site_fract_z
 _atom_site_occupancy
  Nd  Nd0  1  0.973471  0.320307  0.498185  1
  Nd  Nd1  1  0.679693  0.653165  0.498185  1
  Nd  Nd2  1  0.346835  0.026529  0.498185  1
  Nd  Nd3  1  0.679693  0.026529  0.498185  1
  Nd  Nd4  1  0.346835  0.320307  0.498185  1
  Nd  Nd5  1  0.973471  0.653165  0.498185  1
  Nd  Nd6  1  0.026529  0.679693  0.998185  1
  Nd  Nd7  1  0.320307  0.346835  0.998185  1
  Nd  Nd8  1  0.653165  0.973471  0.998185  1
  Nd  Nd9  1  0.320307  0.973471  0.998185  1
  Nd  Nd10  1  0.653165  0.679693  0.998185  1
  Nd  Nd11  1  0.026529  0.346835  0.998185  1
  Nd  Nd12  1  0.586691  0.413309  0.230914  1
  Nd  Nd13  1  0.586691  0.173383  0.230914  1
  Nd  Nd14  1  0.826617  0.413309  0.230914  1
  Nd  Nd15  1  0.413309  0.586691  0.730914  1
  Nd  Nd16  1  0.413309  0.826617  0.730914  1
  Nd  Nd17  1  0.173383  0.586691  0.730914  1
  Nd  Nd18  1  0.743560  0.256440  0.782508  1
  Nd  Nd19  1  0.743560  0.487121  0.782508  1
  Nd  Nd20  1  0.512879  0.256440  0.782508  1
  Nd  Nd21  1  0.256440  0.743560  0.282508  1
  Nd  Nd22  1  0.256440  0.512879  0.282508  1
  Nd  Nd23  1  0.487121  0.743560  0.282508  1
  Nd  Nd24  1  0.921089  0.078911  0.234102  1
  Nd  Nd25  1  0.921089  0.842180  0.234102  1
  Nd  Nd26  1  0.157820  0.078911  0.234102  1
  Nd  Nd27  1  0.078911  0.921089  0.734102  1
  Nd  Nd28  1  0.078911  0.157820  0.734102  1
  Nd  Nd29  1  0.842180  0.921089  0.734102  1
  Si  Si30  1  0.862583  0.137417  0.825052  1
  Si  Si31  1  0.862583  0.725165  0.825052  1
  Si  Si32  1  0.274835  0.137417  0.825052  1
  Si  Si33  1  0.137417  0.862583  0.325052  1
  Si  Si34  1  0.137417  0.274835  0.325052  1
  Si  Si35  1  0.725165  0.862583  0.325052  1
  Si  Si36  1  0.530909  0.469091  0.771855  1
  Si  Si37  1  0.530909  0.061818  0.771855  1
  Si  Si38  1  0.938182  0.469091  0.771855  1
  Si  Si39  1  0.469091  0.530909  0.271855  1
  Si  Si40  1  0.469091  0.938182  0.271855  1
  Si  Si41  1  0.061818  0.530909  0.271855  1
  Si  Si42  1  0.807063  0.192937  0.166323  1
  Si  Si43  1  0.807063  0.614128  0.166323  1
  Si  Si44  1  0.385872  0.192937  0.166323  1
  Si  Si45  1  0.192937  0.807063  0.666323  1
  Si  Si46  1  0.192937  0.385872  0.666323  1
  Si  Si47  1  0.614128  0.807063  0.666323  1
  N  N48  1  0.666667  0.333333  0.010134  1
  N  N49  1  0.333333  0.666667  0.510134  1
