# generated using pymatgen
data_Ho17Tm3Si15P
_symmetry_space_group_name_H-M   'P 1'
_cell_length_a   7.43509429
_cell_length_b   7.59728835
_cell_length_c   14.52853200
_cell_angle_alpha   89.89676286
_cell_angle_beta   86.28287809
_cell_angle_gamma   89.98920556
_symmetry_Int_Tables_number   1
_chemical_formula_structural   Ho17Tm3Si15P
_chemical_formula_sum   'Ho17 Tm3 Si15 P1'
_cell_volume   818.93894833
_cell_formula_units_Z   1
loop_
 _symmetry_equiv_pos_site_id
 _symmetry_equiv_pos_as_xyz
  1  'x, y, z'
loop_
 _atom_site_type_symbol
 _atom_site_label
 _atom_site_symmetry_multiplicity
 _atom_site_fract_x
 _atom_site_fract_y
 _atom_site_fract_z
 _atom_site_occupancy
  Ho  Ho0  1  0.333839  0.005405  0.754556  1
  Ho  Ho1  1  0.002360  0.822912  0.099920  1
  Ho  Ho2  1  0.472264  0.684543  0.398500  1
  Ho  Ho3  1  0.499910  0.320613  0.901585  1
  Ho  Ho4  1  0.027795  0.185136  0.602143  1
  Ho  Ho5  1  0.000335  0.181173  0.901336  1
  Ho  Ho6  1  0.527452  0.314800  0.601698  1
  Ho  Ho7  1  0.500705  0.682661  0.098957  1
  Ho  Ho8  1  0.971594  0.813878  0.398383  1
  Ho  Ho9  1  0.648999  0.831066  0.880252  1
  Ho  Ho10  1  0.177076  0.675930  0.622744  1
  Ho  Ho11  1  0.851274  0.339139  0.115499  1
  Ho  Ho12  1  0.322947  0.176286  0.377523  1
  Ho  Ho13  1  0.351756  0.165622  0.120920  1
  Ho  Ho14  1  0.823040  0.323574  0.377856  1
  Ho  Ho15  1  0.144251  0.664615  0.882215  1
  Ho  Ho16  1  0.677332  0.823542  0.622813  1
  Tm  Tm17  1  0.667284  0.994855  0.245612  1
  Tm  Tm18  1  0.166123  0.505030  0.245190  1
  Tm  Tm19  1  0.833609  0.494449  0.753509  1
  Si  Si20  1  0.782770  0.629882  0.250684  1
  Si  Si21  1  0.282165  0.869232  0.251465  1
  Si  Si22  1  0.717321  0.131186  0.749347  1
  Si  Si23  1  0.215838  0.370734  0.749419  1
  Si  Si24  1  0.038596  0.108813  0.251590  1
  Si  Si25  1  0.540637  0.392073  0.251042  1
  Si  Si26  1  0.459931  0.608024  0.749552  1
  Si  Si27  1  0.960344  0.891098  0.749093  1
  Si  Si28  1  0.355966  0.971704  0.542708  1
  Si  Si29  1  0.701072  0.035164  0.042093  1
  Si  Si30  1  0.144850  0.471613  0.457732  1
  Si  Si31  1  0.207306  0.465948  0.043495  1
  Si  Si32  1  0.644283  0.027093  0.457032  1
  Si  Si33  1  0.300744  0.963898  0.957771  1
  Si  Si34  1  0.855573  0.527153  0.543160  1
  P  P35  1  0.792660  0.531154  0.952608  1
