# generated using pymatgen
data_Nd4Ag2O9
_symmetry_space_group_name_H-M   'P 1'
_cell_length_a   11.96311300
_cell_length_b   6.12156500
_cell_length_c   11.97666200
_cell_angle_alpha   90.00000000
_cell_angle_beta   90.00000000
_cell_angle_gamma   90.00000000
_symmetry_Int_Tables_number   1
_chemical_formula_structural   Nd4Ag2O9
_chemical_formula_sum   'Nd16 Ag8 O36'
_cell_volume   877.08657484
_cell_formula_units_Z   4
loop_
 _symmetry_equiv_pos_site_id
 _symmetry_equiv_pos_as_xyz
  1  'x, y, z'
loop_
 _atom_site_type_symbol
 _atom_site_label
 _atom_site_symmetry_multiplicity
 _atom_site_fract_x
 _atom_site_fract_y
 _atom_site_fract_z
 _atom_site_occupancy
  Nd  Nd0  1  0.488341  0.242130  0.089590  1
  Nd  Nd1  1  0.011660  0.742129  0.089590  1
  Nd  Nd2  1  0.841034  0.299142  0.235489  1
  Nd  Nd3  1  0.658966  0.799142  0.235489  1
  Nd  Nd4  1  0.158967  0.299142  0.264511  1
  Nd  Nd5  1  0.341033  0.799142  0.264511  1
  Nd  Nd6  1  0.511659  0.242130  0.410410  1
  Nd  Nd7  1  0.988341  0.742129  0.410410  1
  Nd  Nd8  1  0.011660  0.257872  0.589590  1
  Nd  Nd9  1  0.488341  0.757871  0.589590  1
  Nd  Nd10  1  0.658966  0.200859  0.735489  1
  Nd  Nd11  1  0.841034  0.700858  0.735489  1
  Nd  Nd12  1  0.341033  0.200859  0.764510  1
  Nd  Nd13  1  0.158967  0.700858  0.764510  1
  Nd  Nd14  1  0.988341  0.257872  0.910411  1
  Nd  Nd15  1  0.511659  0.757871  0.910411  1
  Ag  Ag16  1  0.227825  0.080125  0.011081  1
  Ag  Ag17  1  0.272174  0.580124  0.011081  1
  Ag  Ag18  1  0.772175  0.080125  0.488918  1
  Ag  Ag19  1  0.727825  0.580124  0.488918  1
  Ag  Ag20  1  0.272174  0.419875  0.511081  1
  Ag  Ag21  1  0.227825  0.919876  0.511081  1
  Ag  Ag22  1  0.727825  0.419875  0.988918  1
  Ag  Ag23  1  0.772175  0.919876  0.988918  1
  O  O24  1  0.884278  0.439523  0.053763  1
  O  O25  1  0.615722  0.939522  0.053763  1
  O  O26  1  0.075946  0.115082  0.089832  1
  O  O27  1  0.424054  0.615083  0.089832  1
  O  O28  1  0.662953  0.436513  0.148438  1
  O  O29  1  0.837046  0.936512  0.148438  1
  O  O30  1  0.303466  0.127553  0.158035  1
  O  O31  1  0.196535  0.627554  0.158035  1
  O  O32  1  0.500000  0.023354  0.250000  1
  O  O33  1  0.000000  0.523353  0.250000  1
  O  O34  1  0.696535  0.127553  0.341966  1
  O  O35  1  0.803465  0.627554  0.341966  1
  O  O36  1  0.337047  0.436513  0.351562  1
  O  O37  1  0.162953  0.936512  0.351562  1
  O  O38  1  0.924054  0.115082  0.410167  1
  O  O39  1  0.575946  0.615083  0.410167  1
  O  O40  1  0.115722  0.439523  0.446237  1
  O  O41  1  0.384278  0.939522  0.446237  1
  O  O42  1  0.615722  0.060477  0.553763  1
  O  O43  1  0.884278  0.560478  0.553763  1
  O  O44  1  0.424054  0.384918  0.589833  1
  O  O45  1  0.075946  0.884917  0.589833  1
  O  O46  1  0.837046  0.063488  0.648438  1
  O  O47  1  0.662953  0.563488  0.648438  1
  O  O48  1  0.196535  0.372447  0.658034  1
  O  O49  1  0.303466  0.872447  0.658034  1
  O  O50  1  0.000000  0.476646  0.749999  1
  O  O51  1  0.500000  0.976646  0.749999  1
  O  O52  1  0.803465  0.372447  0.841966  1
  O  O53  1  0.696535  0.872447  0.841966  1
  O  O54  1  0.162953  0.063488  0.851563  1
  O  O55  1  0.337047  0.563488  0.851563  1
  O  O56  1  0.575946  0.384918  0.910167  1
  O  O57  1  0.924054  0.884917  0.910167  1
  O  O58  1  0.384278  0.060477  0.946237  1
  O  O59  1  0.115722  0.560478  0.946237  1
