# generated using pymatgen
data_Li4ZrNi9As4P3
_symmetry_space_group_name_H-M   'P 1'
_cell_length_a   9.28758700
_cell_length_b   9.28758701
_cell_length_c   3.67536400
_cell_angle_alpha   90.00000000
_cell_angle_beta   90.00000000
_cell_angle_gamma   120.00000354
_symmetry_Int_Tables_number   1
_chemical_formula_structural   Li4ZrNi9As4P3
_chemical_formula_sum   'Li4 Zr1 Ni9 As4 P3'
_cell_volume   274.55968224
_cell_formula_units_Z   1
loop_
 _symmetry_equiv_pos_site_id
 _symmetry_equiv_pos_as_xyz
  1  'x, y, z'
loop_
 _atom_site_type_symbol
 _atom_site_label
 _atom_site_symmetry_multiplicity
 _atom_site_fract_x
 _atom_site_fract_y
 _atom_site_fract_z
 _atom_site_occupancy
  Li  Li0  1  0.882935  0.781644  0.500000  1
  Li  Li1  1  0.898708  0.117065  0.500000  1
  Li  Li2  1  0.218356  0.101292  0.500000  1
  Li  Li3  1  0.666667  0.333333  0.500000  1
  Zr  Zr4  1  0.333333  0.666667  0.000000  1
  Ni  Ni5  1  0.704223  0.873911  0.000000  1
  Ni  Ni6  1  0.169688  0.295777  0.000000  1
  Ni  Ni7  1  0.126089  0.830312  0.000000  1
  Ni  Ni8  1  0.619654  0.575638  0.000000  1
  Ni  Ni9  1  0.955983  0.380346  0.000000  1
  Ni  Ni10  1  0.424362  0.044017  0.000000  1
  Ni  Ni11  1  0.553076  0.941599  0.500000  1
  Ni  Ni12  1  0.388523  0.446924  0.500000  1
  Ni  Ni13  1  0.058401  0.611477  0.500000  1
  As  As14  1  0.000000  0.000000  0.000000  1
  As  As15  1  0.874472  0.577195  0.000000  1
  As  As16  1  0.702723  0.125528  0.000000  1
  As  As17  1  0.422805  0.297277  0.000000  1
  P  P18  1  0.583708  0.713093  0.500000  1
  P  P19  1  0.129385  0.416292  0.500000  1
  P  P20  1  0.286907  0.870615  0.500000  1
