# generated using pymatgen
data_Tb2SmCo8ReP6
_symmetry_space_group_name_H-M   'P 1'
_cell_length_a   3.72754600
_cell_length_b   10.51896700
_cell_length_c   12.24750400
_cell_angle_alpha   90.00000000
_cell_angle_beta   90.00000000
_cell_angle_gamma   90.00000000
_symmetry_Int_Tables_number   1
_chemical_formula_structural   Tb2SmCo8ReP6
_chemical_formula_sum   'Tb4 Sm2 Co16 Re2 P12'
_cell_volume   480.22381573
_cell_formula_units_Z   2
loop_
 _symmetry_equiv_pos_site_id
 _symmetry_equiv_pos_as_xyz
  1  'x, y, z'
loop_
 _atom_site_type_symbol
 _atom_site_label
 _atom_site_symmetry_multiplicity
 _atom_site_fract_x
 _atom_site_fract_y
 _atom_site_fract_z
 _atom_site_occupancy
  Tb  Tb0  1  0.500000  0.817871  0.205403  1
  Tb  Tb1  1  0.500000  0.182129  0.205403  1
  Tb  Tb2  1  0.000000  0.682129  0.794597  1
  Tb  Tb3  1  0.000000  0.317871  0.794597  1
  Sm  Sm4  1  0.000000  0.500000  0.523898  1
  Sm  Sm5  1  0.500000  0.000000  0.476102  1
  Co  Co6  1  0.500000  0.500000  0.703883  1
  Co  Co7  1  0.000000  0.000000  0.296117  1
  Co  Co8  1  0.000000  0.500000  0.987775  1
  Co  Co9  1  0.500000  0.000000  0.012225  1
  Co  Co10  1  0.500000  0.332324  0.990380  1
  Co  Co11  1  0.500000  0.667676  0.990380  1
  Co  Co12  1  0.000000  0.167676  0.009620  1
  Co  Co13  1  0.000000  0.832324  0.009620  1
  Co  Co14  1  0.500000  0.296286  0.430225  1
  Co  Co15  1  0.500000  0.703714  0.430225  1
  Co  Co16  1  0.000000  0.203714  0.569775  1
  Co  Co17  1  0.000000  0.796286  0.569775  1
  Co  Co18  1  0.500000  0.879766  0.710022  1
  Co  Co19  1  0.500000  0.120234  0.710022  1
  Co  Co20  1  0.000000  0.620234  0.289978  1
  Co  Co21  1  0.000000  0.379766  0.289978  1
  Re  Re22  1  0.500000  0.500000  0.154946  1
  Re  Re23  1  0.000000  0.000000  0.845054  1
  P  P24  1  0.500000  0.500000  0.881494  1
  P  P25  1  0.000000  0.000000  0.118506  1
  P  P26  1  0.500000  0.500000  0.346813  1
  P  P27  1  0.000000  0.000000  0.653187  1
  P  P28  1  0.500000  0.309610  0.616399  1
  P  P29  1  0.500000  0.690390  0.616399  1
  P  P30  1  0.000000  0.190390  0.383601  1
  P  P31  1  0.000000  0.809610  0.383601  1
  P  P32  1  0.500000  0.845858  0.893203  1
  P  P33  1  0.500000  0.154142  0.893203  1
  P  P34  1  0.000000  0.654142  0.106797  1
  P  P35  1  0.000000  0.345858  0.106797  1
