# generated using pymatgen
data_DyEr5(TcB7)2
_symmetry_space_group_name_H-M   'P 1'
_cell_length_a   8.01823833
_cell_length_b   8.01823885
_cell_length_c   9.31909100
_cell_angle_alpha   90.00000000
_cell_angle_beta   90.00000000
_cell_angle_gamma   154.65397679
_symmetry_Int_Tables_number   1
_chemical_formula_structural   DyEr5(TcB7)2
_chemical_formula_sum   'Dy1 Er5 Tc2 B14'
_cell_volume   256.48409174
_cell_formula_units_Z   1
loop_
 _symmetry_equiv_pos_site_id
 _symmetry_equiv_pos_as_xyz
  1  'x, y, z'
loop_
 _atom_site_type_symbol
 _atom_site_label
 _atom_site_symmetry_multiplicity
 _atom_site_fract_x
 _atom_site_fract_y
 _atom_site_fract_z
 _atom_site_occupancy
  Dy  Dy0  1  0.756848  0.243152  0.750000  1
  Er  Er1  1  0.895197  0.104803  0.440357  1
  Er  Er2  1  0.104676  0.895324  0.558908  1
  Er  Er3  1  0.895197  0.104803  0.059643  1
  Er  Er4  1  0.104676  0.895324  0.941092  1
  Er  Er5  1  0.242271  0.757729  0.250000  1
  Tc  Tc6  1  0.052691  0.947309  0.250000  1
  Tc  Tc7  1  0.947409  0.052591  0.750000  1
  B  B8  1  0.727353  0.272647  0.465773  1
  B  B9  1  0.272890  0.727110  0.531877  1
  B  B10  1  0.727353  0.272647  0.034227  1
  B  B11  1  0.272890  0.727110  0.968123  1
  B  B12  1  0.632214  0.367786  0.151143  1
  B  B13  1  0.367885  0.632115  0.849305  1
  B  B14  1  0.632214  0.367786  0.348857  1
  B  B15  1  0.367885  0.632115  0.650695  1
  B  B16  1  0.520457  0.479543  0.095477  1
  B  B17  1  0.479617  0.520383  0.904504  1
  B  B18  1  0.520457  0.479543  0.404523  1
  B  B19  1  0.479617  0.520383  0.595496  1
  B  B20  1  0.455936  0.544064  0.250000  1
  B  B21  1  0.544269  0.455731  0.750000  1
