# generated using pymatgen
data_Ho7Er5Ir4
_symmetry_space_group_name_H-M   'P 1'
_cell_length_a   6.37605358
_cell_length_b   7.22014137
_cell_length_c   9.12070674
_cell_angle_alpha   90.02206065
_cell_angle_beta   90.04008880
_cell_angle_gamma   90.02892353
_symmetry_Int_Tables_number   1
_chemical_formula_structural   Ho7Er5Ir4
_chemical_formula_sum   'Ho7 Er5 Ir4'
_cell_volume   419.88074304
_cell_formula_units_Z   1
loop_
 _symmetry_equiv_pos_site_id
 _symmetry_equiv_pos_as_xyz
  1  'x, y, z'
loop_
 _atom_site_type_symbol
 _atom_site_label
 _atom_site_symmetry_multiplicity
 _atom_site_fract_x
 _atom_site_fract_y
 _atom_site_fract_z
 _atom_site_occupancy
  Ho  Ho0  1  0.327402  0.677701  0.061583  1
  Ho  Ho1  1  0.172610  0.177431  0.437896  1
  Ho  Ho2  1  0.672539  0.322586  0.562007  1
  Ho  Ho3  1  0.871210  0.534119  0.249937  1
  Ho  Ho4  1  0.628619  0.033997  0.249657  1
  Ho  Ho5  1  0.128507  0.466018  0.750252  1
  Ho  Ho6  1  0.371483  0.965605  0.750103  1
  Er  Er7  1  0.827905  0.822600  0.937876  1
  Er  Er8  1  0.671685  0.322825  0.938036  1
  Er  Er9  1  0.828225  0.822903  0.562567  1
  Er  Er10  1  0.327936  0.677158  0.437603  1
  Er  Er11  1  0.171396  0.177005  0.061972  1
  Ir  Ir12  1  0.043420  0.883559  0.250475  1
  Ir  Ir13  1  0.456116  0.384150  0.249049  1
  Ir  Ir14  1  0.956413  0.116206  0.751330  1
  Ir  Ir15  1  0.544533  0.616137  0.749659  1
