# generated using pymatgen
data_Zr4Ta6ReIr
_symmetry_space_group_name_H-M   'P 1'
_cell_length_a   5.51357561
_cell_length_b   5.46620436
_cell_length_c   8.98142900
_cell_angle_alpha   90.00000000
_cell_angle_beta   90.00000000
_cell_angle_gamma   119.44898403
_symmetry_Int_Tables_number   1
_chemical_formula_structural   Zr4Ta6ReIr
_chemical_formula_sum   'Zr4 Ta6 Re1 Ir1'
_cell_volume   235.71106449
_cell_formula_units_Z   1
loop_
 _symmetry_equiv_pos_site_id
 _symmetry_equiv_pos_as_xyz
  1  'x, y, z'
loop_
 _atom_site_type_symbol
 _atom_site_label
 _atom_site_symmetry_multiplicity
 _atom_site_fract_x
 _atom_site_fract_y
 _atom_site_fract_z
 _atom_site_occupancy
  Zr  Zr0  1  0.332220  0.665580  0.437768  1
  Zr  Zr1  1  0.666737  0.330901  0.937277  1
  Zr  Zr2  1  0.666737  0.330901  0.562723  1
  Zr  Zr3  1  0.332220  0.665580  0.062232  1
  Ta  Ta4  1  0.658568  0.834522  0.750000  1
  Ta  Ta5  1  0.347670  0.179106  0.250000  1
  Ta  Ta6  1  0.832290  0.176623  0.250000  1
  Ta  Ta7  1  0.166846  0.341402  0.750000  1
  Ta  Ta8  1  0.998427  0.987015  0.497295  1
  Ta  Ta9  1  0.998427  0.987015  0.002705  1
  Re  Re10  1  0.166950  0.836014  0.750000  1
  Ir  Ir11  1  0.832908  0.665342  0.250000  1
