# generated using pymatgen
data_Er16MgHg3Ir4
_symmetry_space_group_name_H-M   'P 1'
_cell_length_a   9.53877644
_cell_length_b   9.52016310
_cell_length_c   9.52016400
_cell_angle_alpha   60.00000381
_cell_angle_beta   60.06453247
_cell_angle_gamma   60.06453609
_symmetry_Int_Tables_number   1
_chemical_formula_structural   Er16MgHg3Ir4
_chemical_formula_sum   'Er16 Mg1 Hg3 Ir4'
_cell_volume   611.91266480
_cell_formula_units_Z   1
loop_
 _symmetry_equiv_pos_site_id
 _symmetry_equiv_pos_as_xyz
  1  'x, y, z'
loop_
 _atom_site_type_symbol
 _atom_site_label
 _atom_site_symmetry_multiplicity
 _atom_site_fract_x
 _atom_site_fract_y
 _atom_site_fract_z
 _atom_site_occupancy
  Er  Er0  1  0.350849  0.348509  0.348509  1
  Er  Er1  1  0.350849  0.348509  0.952135  1
  Er  Er2  1  0.350849  0.952135  0.348509  1
  Er  Er3  1  0.939329  0.353558  0.353558  1
  Er  Er4  1  0.809635  0.190167  0.190167  1
  Er  Er5  1  0.186586  0.812803  0.812803  1
  Er  Er6  1  0.186586  0.812803  0.187809  1
  Er  Er7  1  0.809635  0.190167  0.810031  1
  Er  Er8  1  0.186586  0.187809  0.812803  1
  Er  Er9  1  0.809635  0.810031  0.190167  1
  Er  Er10  1  0.936606  0.562642  0.562642  1
  Er  Er11  1  0.562914  0.936856  0.936856  1
  Er  Er12  1  0.562914  0.936856  0.563373  1
  Er  Er13  1  0.936606  0.562642  0.938109  1
  Er  Er14  1  0.562914  0.563373  0.936856  1
  Er  Er15  1  0.936606  0.938109  0.562642  1
  Mg  Mg16  1  0.284174  0.571942  0.571942  1
  Hg  Hg17  1  0.581667  0.586766  0.586766  1
  Hg  Hg18  1  0.581667  0.586766  0.244799  1
  Hg  Hg19  1  0.581667  0.244799  0.586766  1
  Ir  Ir20  1  0.139274  0.144234  0.144234  1
  Ir  Ir21  1  0.139274  0.144234  0.572257  1
  Ir  Ir22  1  0.139274  0.572257  0.144234  1
  Ir  Ir23  1  0.573903  0.142032  0.142032  1
