# generated using pymatgen
data_ScTl(SO4)2
_symmetry_space_group_name_H-M   'P 1'
_cell_length_a   5.16245801
_cell_length_b   10.02371263
_cell_length_c   8.94944600
_cell_angle_alpha   63.39025990
_cell_angle_beta   90.06184111
_cell_angle_gamma   75.06391393
_symmetry_Int_Tables_number   1
_chemical_formula_structural   ScTl(SO4)2
_chemical_formula_sum   'Sc2 Tl2 S4 O16'
_cell_volume   396.40836137
_cell_formula_units_Z   2
loop_
 _symmetry_equiv_pos_site_id
 _symmetry_equiv_pos_as_xyz
  1  'x, y, z'
loop_
 _atom_site_type_symbol
 _atom_site_label
 _atom_site_symmetry_multiplicity
 _atom_site_fract_x
 _atom_site_fract_y
 _atom_site_fract_z
 _atom_site_occupancy
  Sc  Sc0  1  0.499423  0.000019  0.500016  1
  Sc  Sc1  1  0.000477  0.999922  0.000223  1
  Tl  Tl2  1  0.249798  0.499958  0.249976  1
  Tl  Tl3  1  0.749747  0.499966  0.750003  1
  S  S4  1  0.606800  0.786847  0.940073  1
  S  S5  1  0.106411  0.786890  0.440072  1
  S  S6  1  0.393695  0.213135  0.059901  1
  S  S7  1  0.893229  0.213149  0.559964  1
  O  O8  1  0.692320  0.616539  0.025732  1
  O  O9  1  0.191475  0.616588  0.525868  1
  O  O10  1  0.308069  0.383449  0.974283  1
  O  O11  1  0.807584  0.383459  0.474433  1
  O  O12  1  0.830404  0.847750  0.962913  1
  O  O13  1  0.330414  0.847538  0.462971  1
  O  O14  1  0.369127  0.847583  0.009819  1
  O  O15  1  0.868798  0.848006  0.509484  1
  O  O16  1  0.678264  0.152498  0.036970  1
  O  O17  1  0.177749  0.152623  0.536740  1
  O  O18  1  0.529201  0.847276  0.755938  1
  O  O19  1  0.029296  0.847196  0.255915  1
  O  O20  1  0.216942  0.152192  0.990200  1
  O  O21  1  0.716407  0.152197  0.490368  1
  O  O22  1  0.377119  0.152662  0.244007  1
  O  O23  1  0.877251  0.152559  0.744130  1
