# generated using pymatgen
data_La3HfZn2Ir3
_symmetry_space_group_name_H-M   'P 1'
_cell_length_a   7.43775042
_cell_length_b   7.33527286
_cell_length_c   4.21512400
_cell_angle_alpha   90.00000000
_cell_angle_beta   90.00000000
_cell_angle_gamma   119.54523970
_symmetry_Int_Tables_number   1
_chemical_formula_structural   La3HfZn2Ir3
_chemical_formula_sum   'La3 Hf1 Zn2 Ir3'
_cell_volume   200.06486132
_cell_formula_units_Z   1
loop_
 _symmetry_equiv_pos_site_id
 _symmetry_equiv_pos_as_xyz
  1  'x, y, z'
loop_
 _atom_site_type_symbol
 _atom_site_label
 _atom_site_symmetry_multiplicity
 _atom_site_fract_x
 _atom_site_fract_y
 _atom_site_fract_z
 _atom_site_occupancy
  La  La0  1  0.562812  0.579232  0.000000  1
  La  La1  1  0.437188  0.016420  0.000000  1
  La  La2  1  0.000000  0.390098  0.000000  1
  Hf  Hf3  1  0.000000  0.764835  0.500000  1
  Zn  Zn4  1  0.238750  0.235507  0.500000  1
  Zn  Zn5  1  0.761250  0.996758  0.500000  1
  Ir  Ir6  1  0.000000  0.980523  0.000000  1
  Ir  Ir7  1  0.684706  0.360667  0.500000  1
  Ir  Ir8  1  0.315294  0.675962  0.500000  1
