# generated using pymatgen
data_Tb3DyHo4(B6Os)4
_symmetry_space_group_name_H-M   'P 1'
_cell_length_a   3.65390000
_cell_length_b   9.15501100
_cell_length_c   11.54274500
_cell_angle_alpha   89.99953514
_cell_angle_beta   90.00000000
_cell_angle_gamma   90.00000000
_symmetry_Int_Tables_number   1
_chemical_formula_structural   Tb3DyHo4(B6Os)4
_chemical_formula_sum   'Tb3 Dy1 Ho4 B24 Os4'
_cell_volume   386.12207310
_cell_formula_units_Z   1
loop_
 _symmetry_equiv_pos_site_id
 _symmetry_equiv_pos_as_xyz
  1  'x, y, z'
loop_
 _atom_site_type_symbol
 _atom_site_label
 _atom_site_symmetry_multiplicity
 _atom_site_fract_x
 _atom_site_fract_y
 _atom_site_fract_z
 _atom_site_occupancy
  Tb  Tb0  1  0.000000  0.677536  0.586158  1
  Tb  Tb1  1  0.000000  0.822439  0.086215  1
  Tb  Tb2  1  0.000000  0.177565  0.913812  1
  Dy  Dy3  1  0.000000  0.322357  0.413873  1
  Ho  Ho4  1  0.000000  0.944139  0.372905  1
  Ho  Ho5  1  0.000000  0.055979  0.627029  1
  Ho  Ho6  1  0.000000  0.444063  0.127178  1
  Ho  Ho7  1  0.000000  0.555888  0.872838  1
  B  B8  1  0.500000  0.553944  0.432795  1
  B  B9  1  0.500000  0.445743  0.567034  1
  B  B10  1  0.500000  0.054230  0.067301  1
  B  B11  1  0.500000  0.945820  0.932755  1
  B  B12  1  0.500000  0.748034  0.419638  1
  B  B13  1  0.500000  0.251957  0.580082  1
  B  B14  1  0.500000  0.248132  0.080428  1
  B  B15  1  0.500000  0.751870  0.919650  1
  B  B16  1  0.500000  0.791064  0.266696  1
  B  B17  1  0.500000  0.208912  0.733236  1
  B  B18  1  0.500000  0.291242  0.233558  1
  B  B19  1  0.500000  0.708875  0.766640  1
  B  B20  1  0.500000  0.631657  0.185493  1
  B  B21  1  0.500000  0.368251  0.814523  1
  B  B22  1  0.500000  0.131938  0.314720  1
  B  B23  1  0.500000  0.868292  0.685404  1
  B  B24  1  0.500000  0.983617  0.213373  1
  B  B25  1  0.500000  0.016494  0.786661  1
  B  B26  1  0.500000  0.483252  0.286824  1
  B  B27  1  0.500000  0.516424  0.713236  1
  B  B28  1  0.500000  0.607203  0.029713  1
  B  B29  1  0.500000  0.392769  0.970313  1
  B  B30  1  0.500000  0.107703  0.470170  1
  B  B31  1  0.500000  0.892703  0.529710  1
  Os  Os32  1  0.000000  0.637327  0.321225  1
  Os  Os33  1  0.000000  0.362436  0.678701  1
  Os  Os34  1  0.000000  0.137719  0.179029  1
  Os  Os35  1  0.000000  0.862423  0.821087  1
