# generated using pymatgen
data_Ce10SiPb6Au
_symmetry_space_group_name_H-M   'P 1'
_cell_length_a   9.64681500
_cell_length_b   9.64681401
_cell_length_c   6.63125900
_cell_angle_alpha   90.00000000
_cell_angle_beta   90.00000000
_cell_angle_gamma   119.99999997
_symmetry_Int_Tables_number   1
_chemical_formula_structural   Ce10SiPb6Au
_chemical_formula_sum   'Ce10 Si1 Pb6 Au1'
_cell_volume   534.43449014
_cell_formula_units_Z   1
loop_
 _symmetry_equiv_pos_site_id
 _symmetry_equiv_pos_as_xyz
  1  'x, y, z'
loop_
 _atom_site_type_symbol
 _atom_site_label
 _atom_site_symmetry_multiplicity
 _atom_site_fract_x
 _atom_site_fract_y
 _atom_site_fract_z
 _atom_site_occupancy
  Ce  Ce0  1  0.666667  0.333333  0.500000  1
  Ce  Ce1  1  0.333333  0.666667  0.500000  1
  Ce  Ce2  1  0.333333  0.666667  0.000000  1
  Ce  Ce3  1  0.666667  0.333333  0.000000  1
  Ce  Ce4  1  0.738381  0.738381  0.237650  1
  Ce  Ce5  1  0.261619  0.000000  0.237650  1
  Ce  Ce6  1  0.000000  0.261619  0.237650  1
  Ce  Ce7  1  0.261619  0.261619  0.762350  1
  Ce  Ce8  1  0.738381  0.000000  0.762350  1
  Ce  Ce9  1  0.000000  0.738381  0.762350  1
  Si  Si10  1  0.000000  0.000000  0.000000  1
  Pb  Pb11  1  0.384024  0.384024  0.253813  1
  Pb  Pb12  1  0.615976  0.000000  0.253813  1
  Pb  Pb13  1  0.000000  0.615976  0.253813  1
  Pb  Pb14  1  0.615976  0.615976  0.746187  1
  Pb  Pb15  1  0.384024  0.000000  0.746187  1
  Pb  Pb16  1  0.000000  0.384024  0.746187  1
  Au  Au17  1  0.000000  0.000000  0.500000  1
