# generated using pymatgen
data_TbHo19(Bi2P)4
_symmetry_space_group_name_H-M   'P 1'
_cell_length_a   7.96124405
_cell_length_b   8.95432600
_cell_length_c   12.10026208
_cell_angle_alpha   90.00000000
_cell_angle_beta   90.01346707
_cell_angle_gamma   90.00000000
_symmetry_Int_Tables_number   1
_chemical_formula_structural   TbHo19(Bi2P)4
_chemical_formula_sum   'Tb1 Ho19 Bi8 P4'
_cell_volume   862.59831254
_cell_formula_units_Z   1
loop_
 _symmetry_equiv_pos_site_id
 _symmetry_equiv_pos_as_xyz
  1  'x, y, z'
loop_
 _atom_site_type_symbol
 _atom_site_label
 _atom_site_symmetry_multiplicity
 _atom_site_fract_x
 _atom_site_fract_y
 _atom_site_fract_z
 _atom_site_occupancy
  Tb  Tb0  1  0.849983  0.750000  0.793541  1
  Ho  Ho1  1  0.149642  0.250000  0.205953  1
  Ho  Ho2  1  0.350277  0.250000  0.705849  1
  Ho  Ho3  1  0.649709  0.750000  0.293982  1
  Ho  Ho4  1  0.375665  0.750000  0.699654  1
  Ho  Ho5  1  0.624057  0.250000  0.300309  1
  Ho  Ho6  1  0.875960  0.250000  0.800296  1
  Ho  Ho7  1  0.124108  0.750000  0.199762  1
  Ho  Ho8  1  0.958405  0.750000  0.501856  1
  Ho  Ho9  1  0.041822  0.250000  0.497995  1
  Ho  Ho10  1  0.458203  0.250000  0.998164  1
  Ho  Ho11  1  0.541659  0.750000  0.002020  1
  Ho  Ho12  1  0.682448  0.050841  0.563879  1
  Ho  Ho13  1  0.317531  0.949368  0.436033  1
  Ho  Ho14  1  0.182399  0.949371  0.936063  1
  Ho  Ho15  1  0.317531  0.550632  0.436033  1
  Ho  Ho16  1  0.817541  0.050617  0.063973  1
  Ho  Ho17  1  0.682448  0.449159  0.563879  1
  Ho  Ho18  1  0.817541  0.449383  0.063973  1
  Ho  Ho19  1  0.182399  0.550629  0.936063  1
  Bi  Bi20  1  0.576262  0.490317  0.826692  1
  Bi  Bi21  1  0.423258  0.509411  0.173406  1
  Bi  Bi22  1  0.077201  0.508939  0.673123  1
  Bi  Bi23  1  0.423258  0.990589  0.173406  1
  Bi  Bi24  1  0.923293  0.490622  0.326645  1
  Bi  Bi25  1  0.576262  0.009683  0.826692  1
  Bi  Bi26  1  0.923293  0.009378  0.326645  1
  Bi  Bi27  1  0.077201  0.991061  0.673123  1
  P  P28  1  0.575578  0.750000  0.512976  1
  P  P29  1  0.424605  0.250000  0.487111  1
  P  P30  1  0.075475  0.250000  0.987091  1
  P  P31  1  0.924985  0.750000  0.013810  1
