# generated using pymatgen
data_Er7Tm3(SiSb)4
_symmetry_space_group_name_H-M   'P 1'
_cell_length_a   8.44003676
_cell_length_b   8.44162180
_cell_length_c   7.77690807
_cell_angle_alpha   90.00995819
_cell_angle_beta   90.00406000
_cell_angle_gamma   125.32228005
_symmetry_Int_Tables_number   1
_chemical_formula_structural   Er7Tm3(SiSb)4
_chemical_formula_sum   'Er7 Tm3 Si4 Sb4'
_cell_volume   452.08587376
_cell_formula_units_Z   1
loop_
 _symmetry_equiv_pos_site_id
 _symmetry_equiv_pos_as_xyz
  1  'x, y, z'
loop_
 _atom_site_type_symbol
 _atom_site_label
 _atom_site_symmetry_multiplicity
 _atom_site_fract_x
 _atom_site_fract_y
 _atom_site_fract_z
 _atom_site_occupancy
  Er  Er0  1  0.540261  0.791215  0.165171  1
  Er  Er1  1  0.291157  0.040231  0.334786  1
  Er  Er2  1  0.208782  0.459821  0.834836  1
  Er  Er3  1  0.959775  0.708868  0.665201  1
  Er  Er4  1  0.708870  0.959797  0.665178  1
  Er  Er5  1  0.459746  0.208864  0.834808  1
  Er  Er6  1  0.791197  0.540275  0.165211  1
  Tm  Tm7  1  0.040340  0.290628  0.335027  1
  Tm  Tm8  1  0.499848  0.499949  0.499947  1
  Tm  Tm9  1  0.000014  0.000100  0.000088  1
  Si  Si10  1  0.632933  0.632941  0.868102  1
  Si  Si11  1  0.132878  0.133003  0.631668  1
  Si  Si12  1  0.867180  0.867328  0.368117  1
  Si  Si13  1  0.366823  0.367086  0.131990  1
  Sb  Sb14  1  0.293538  0.705932  0.499815  1
  Sb  Sb15  1  0.206233  0.793830  0.999956  1
  Sb  Sb16  1  0.706479  0.293796  0.499870  1
  Sb  Sb17  1  0.793947  0.206335  0.000229  1
