# generated using pymatgen
data_Yb3CeOs8
_symmetry_space_group_name_H-M   'P 1'
_cell_length_a   5.30666600
_cell_length_b   5.30666551
_cell_length_c   8.83580600
_cell_angle_alpha   90.00000000
_cell_angle_beta   90.00000000
_cell_angle_gamma   120.00000305
_symmetry_Int_Tables_number   1
_chemical_formula_structural   Yb3CeOs8
_chemical_formula_sum   'Yb3 Ce1 Os8'
_cell_volume   215.48659484
_cell_formula_units_Z   1
loop_
 _symmetry_equiv_pos_site_id
 _symmetry_equiv_pos_as_xyz
  1  'x, y, z'
loop_
 _atom_site_type_symbol
 _atom_site_label
 _atom_site_symmetry_multiplicity
 _atom_site_fract_x
 _atom_site_fract_y
 _atom_site_fract_z
 _atom_site_occupancy
  Yb  Yb0  1  0.333333  0.666667  0.438881  1
  Yb  Yb1  1  0.666667  0.333333  0.564161  1
  Yb  Yb2  1  0.666667  0.333333  0.933108  1
  Ce  Ce3  1  0.333333  0.666667  0.066305  1
  Os  Os4  1  0.000000  0.000000  0.498814  1
  Os  Os5  1  0.000000  0.000000  0.997675  1
  Os  Os6  1  0.827561  0.172439  0.251998  1
  Os  Os7  1  0.827561  0.655121  0.251998  1
  Os  Os8  1  0.344879  0.172439  0.251998  1
  Os  Os9  1  0.171979  0.828021  0.748354  1
  Os  Os10  1  0.171979  0.343958  0.748354  1
  Os  Os11  1  0.656042  0.828021  0.748354  1
