# generated using pymatgen
data_PrNd4TcRuO12
_symmetry_space_group_name_H-M   'P 1'
_cell_length_a   7.09808378
_cell_length_b   7.09808404
_cell_length_c   7.82697903
_cell_angle_alpha   73.84995390
_cell_angle_beta   73.84995049
_cell_angle_gamma   48.11876987
_symmetry_Int_Tables_number   1
_chemical_formula_structural   PrNd4TcRuO12
_chemical_formula_sum   'Pr1 Nd4 Tc1 Ru1 O12'
_cell_volume   279.64831561
_cell_formula_units_Z   1
loop_
 _symmetry_equiv_pos_site_id
 _symmetry_equiv_pos_as_xyz
  1  'x, y, z'
loop_
 _atom_site_type_symbol
 _atom_site_label
 _atom_site_symmetry_multiplicity
 _atom_site_fract_x
 _atom_site_fract_y
 _atom_site_fract_z
 _atom_site_occupancy
  Pr  Pr0  1  0.996138  0.003862  0.500000  1
  Nd  Nd1  1  0.298231  0.315611  0.354195  1
  Nd  Nd2  1  0.684389  0.701769  0.645805  1
  Nd  Nd3  1  0.683122  0.689033  0.168724  1
  Nd  Nd4  1  0.310967  0.316878  0.831276  1
  Tc  Tc5  1  0.793490  0.206510  0.000000  1
  Ru  Ru6  1  0.224885  0.775115  0.000000  1
  O  O7  1  0.090831  0.594232  0.579385  1
  O  O8  1  0.998387  0.000605  0.195005  1
  O  O9  1  0.405768  0.909169  0.420615  1
  O  O10  1  0.504926  0.492877  0.165798  1
  O  O11  1  0.085584  0.584119  0.080165  1
  O  O12  1  0.898048  0.409150  0.425366  1
  O  O13  1  0.999395  0.001613  0.804995  1
  O  O14  1  0.590850  0.101951  0.574634  1
  O  O15  1  0.507123  0.495074  0.834202  1
  O  O16  1  0.600844  0.088861  0.077751  1
  O  O17  1  0.415881  0.914416  0.919835  1
  O  O18  1  0.911139  0.399156  0.922249  1
