# generated using pymatgen
data_Er3GaSn3Ir2
_symmetry_space_group_name_H-M   'P 1'
_cell_length_a   7.40341000
_cell_length_b   7.40340988
_cell_length_c   4.09453100
_cell_angle_alpha   90.00000000
_cell_angle_beta   90.00000000
_cell_angle_gamma   120.00000052
_symmetry_Int_Tables_number   1
_chemical_formula_structural   Er3GaSn3Ir2
_chemical_formula_sum   'Er3 Ga1 Sn3 Ir2'
_cell_volume   194.35619521
_cell_formula_units_Z   1
loop_
 _symmetry_equiv_pos_site_id
 _symmetry_equiv_pos_as_xyz
  1  'x, y, z'
loop_
 _atom_site_type_symbol
 _atom_site_label
 _atom_site_symmetry_multiplicity
 _atom_site_fract_x
 _atom_site_fract_y
 _atom_site_fract_z
 _atom_site_occupancy
  Er  Er0  1  0.396283  0.409920  0.500000  1
  Er  Er1  1  0.590080  0.986363  0.500000  1
  Er  Er2  1  0.013637  0.603717  0.500000  1
  Ga  Ga3  1  0.666667  0.333333  0.000000  1
  Sn  Sn4  1  0.742485  0.747524  0.000000  1
  Sn  Sn5  1  0.252476  0.994961  0.000000  1
  Sn  Sn6  1  0.005039  0.257515  0.000000  1
  Ir  Ir7  1  0.333333  0.666667  0.000000  1
  Ir  Ir8  1  0.000000  0.000000  0.500000  1
