# generated using pymatgen
data_CeGaGeAu2
_symmetry_space_group_name_H-M   'P 1'
_cell_length_a   6.10525233
_cell_length_b   6.10525309
_cell_length_c   6.10525334
_cell_angle_alpha   137.23274122
_cell_angle_beta   137.23275676
_cell_angle_gamma   62.08013652
_symmetry_Int_Tables_number   1
_chemical_formula_structural   CeGaGeAu2
_chemical_formula_sum   'Ce1 Ga1 Ge1 Au2'
_cell_volume   103.68423160
_cell_formula_units_Z   1
loop_
 _symmetry_equiv_pos_site_id
 _symmetry_equiv_pos_as_xyz
  1  'x, y, z'
loop_
 _atom_site_type_symbol
 _atom_site_label
 _atom_site_symmetry_multiplicity
 _atom_site_fract_x
 _atom_site_fract_y
 _atom_site_fract_z
 _atom_site_occupancy
  Ce  Ce0  1  0.000484  0.000484  0.000000  1
  Ga  Ga1  1  0.618474  0.618474  0.000000  1
  Ge  Ge2  1  0.384895  0.384895  0.000000  1
  Au  Au3  1  0.748073  0.248073  0.500000  1
  Au  Au4  1  0.248073  0.748073  0.500000  1
