# generated using pymatgen
data_Tm3ThCdOs
_symmetry_space_group_name_H-M   'P 1'
_cell_length_a   9.64111778
_cell_length_b   9.64114805
_cell_length_c   9.64095717
_cell_angle_alpha   59.93714295
_cell_angle_beta   59.93739835
_cell_angle_gamma   59.94040409
_symmetry_Int_Tables_number   1
_chemical_formula_structural   Tm3ThCdOs
_chemical_formula_sum   'Tm12 Th4 Cd4 Os4'
_cell_volume   632.78073964
_cell_formula_units_Z   4
loop_
 _symmetry_equiv_pos_site_id
 _symmetry_equiv_pos_as_xyz
  1  'x, y, z'
loop_
 _atom_site_type_symbol
 _atom_site_label
 _atom_site_symmetry_multiplicity
 _atom_site_fract_x
 _atom_site_fract_y
 _atom_site_fract_z
 _atom_site_occupancy
  Tm  Tm0  1  0.062543  0.437765  0.437564  1
  Tm  Tm1  1  0.434487  0.061798  0.061868  1
  Tm  Tm2  1  0.437726  0.062526  0.437607  1
  Tm  Tm3  1  0.061780  0.434529  0.061846  1
  Tm  Tm4  1  0.437593  0.437706  0.062512  1
  Tm  Tm5  1  0.061743  0.061728  0.434475  1
  Tm  Tm6  1  0.185963  0.813240  0.813061  1
  Tm  Tm7  1  0.813308  0.185915  0.185731  1
  Tm  Tm8  1  0.813272  0.185997  0.813016  1
  Tm  Tm9  1  0.185902  0.813321  0.185718  1
  Tm  Tm10  1  0.813373  0.813346  0.185745  1
  Tm  Tm11  1  0.185880  0.185843  0.813139  1
  Th  Th12  1  0.598499  0.598494  0.598467  1
  Th  Th13  1  0.599281  0.599266  0.204582  1
  Th  Th14  1  0.599315  0.204339  0.599333  1
  Th  Th15  1  0.204350  0.599293  0.599318  1
  Cd  Cd16  1  0.832573  0.832597  0.832884  1
  Cd  Cd17  1  0.831293  0.831330  0.504245  1
  Cd  Cd18  1  0.831129  0.504520  0.831437  1
  Cd  Cd19  1  0.504570  0.831116  0.831405  1
  Os  Os20  1  0.392291  0.392267  0.392467  1
  Os  Os21  1  0.393605  0.393590  0.825977  1
  Os  Os22  1  0.393551  0.825945  0.393796  1
  Os  Os23  1  0.825975  0.393528  0.393805  1
