# generated using pymatgen
data_Er4GaSi3
_symmetry_space_group_name_H-M   'P 1'
_cell_length_a   3.84922600
_cell_length_b   4.27086700
_cell_length_c   10.51876200
_cell_angle_alpha   90.00000000
_cell_angle_beta   90.00000000
_cell_angle_gamma   90.00000000
_symmetry_Int_Tables_number   1
_chemical_formula_structural   Er4GaSi3
_chemical_formula_sum   'Er4 Ga1 Si3'
_cell_volume   172.92352764
_cell_formula_units_Z   1
loop_
 _symmetry_equiv_pos_site_id
 _symmetry_equiv_pos_as_xyz
  1  'x, y, z'
loop_
 _atom_site_type_symbol
 _atom_site_label
 _atom_site_symmetry_multiplicity
 _atom_site_fract_x
 _atom_site_fract_y
 _atom_site_fract_z
 _atom_site_occupancy
  Er  Er0  1  0.000000  0.000000  0.362524  1
  Er  Er1  1  0.000000  0.500000  0.857231  1
  Er  Er2  1  0.500000  0.500000  0.141588  1
  Er  Er3  1  0.500000  0.000000  0.639259  1
  Ga  Ga4  1  0.000000  0.000000  0.076991  1
  Si  Si5  1  0.000000  0.500000  0.576889  1
  Si  Si6  1  0.500000  0.500000  0.424382  1
  Si  Si7  1  0.500000  0.000000  0.921136  1
