# generated using pymatgen
data_Tb10Ho2Co3Si8Ni
_symmetry_space_group_name_H-M   'P 1'
_cell_length_a   4.11627200
_cell_length_b   11.14546009
_cell_length_c   11.37263005
_cell_angle_alpha   90.07544213
_cell_angle_beta   90.00000000
_cell_angle_gamma   90.00000000
_symmetry_Int_Tables_number   1
_chemical_formula_structural   Tb10Ho2Co3Si8Ni
_chemical_formula_sum   'Tb10 Ho2 Co3 Si8 Ni1'
_cell_volume   521.75017258
_cell_formula_units_Z   1
loop_
 _symmetry_equiv_pos_site_id
 _symmetry_equiv_pos_as_xyz
  1  'x, y, z'
loop_
 _atom_site_type_symbol
 _atom_site_label
 _atom_site_symmetry_multiplicity
 _atom_site_fract_x
 _atom_site_fract_y
 _atom_site_fract_z
 _atom_site_occupancy
  Tb  Tb0  1  0.250000  0.060678  0.881389  1
  Tb  Tb1  1  0.250000  0.440434  0.382000  1
  Tb  Tb2  1  0.250000  0.124801  0.557051  1
  Tb  Tb3  1  0.250000  0.373345  0.057428  1
  Tb  Tb4  1  0.750000  0.873080  0.441962  1
  Tb  Tb5  1  0.750000  0.624398  0.943499  1
  Tb  Tb6  1  0.250000  0.802462  0.715168  1
  Tb  Tb7  1  0.250000  0.699403  0.218121  1
  Tb  Tb8  1  0.750000  0.199239  0.282510  1
  Tb  Tb9  1  0.750000  0.301186  0.782929  1
  Ho  Ho10  1  0.750000  0.942458  0.118054  1
  Ho  Ho11  1  0.750000  0.557935  0.618358  1
  Co  Co12  1  0.250000  0.363833  0.630446  1
  Co  Co13  1  0.250000  0.135122  0.130150  1
  Co  Co14  1  0.750000  0.634303  0.371023  1
  Si  Si15  1  0.250000  0.815830  0.974975  1
  Si  Si16  1  0.250000  0.683061  0.475545  1
  Si  Si17  1  0.750000  0.182976  0.025623  1
  Si  Si18  1  0.750000  0.316509  0.526435  1
  Si  Si19  1  0.250000  0.496242  0.800266  1
  Si  Si20  1  0.250000  0.004273  0.300041  1
  Si  Si21  1  0.750000  0.505112  0.198297  1
  Si  Si22  1  0.750000  0.995602  0.696825  1
  Ni  Ni23  1  0.750000  0.867716  0.871902  1
