# generated using pymatgen
data_Ho8Nb9Si16W3
_symmetry_space_group_name_H-M   'P 1'
_cell_length_a   6.79306521
_cell_length_b   7.02591817
_cell_length_c   13.32198900
_cell_angle_alpha   90.00000000
_cell_angle_beta   90.00000000
_cell_angle_gamma   90.02148986
_symmetry_Int_Tables_number   1
_chemical_formula_structural   Ho8Nb9Si16W3
_chemical_formula_sum   'Ho8 Nb9 Si16 W3'
_cell_volume   635.82545631
_cell_formula_units_Z   1
loop_
 _symmetry_equiv_pos_site_id
 _symmetry_equiv_pos_as_xyz
  1  'x, y, z'
loop_
 _atom_site_type_symbol
 _atom_site_label
 _atom_site_symmetry_multiplicity
 _atom_site_fract_x
 _atom_site_fract_y
 _atom_site_fract_z
 _atom_site_occupancy
  Ho  Ho0  1  0.501390  0.328255  0.094839  1
  Ho  Ho1  1  0.001779  0.171968  0.404902  1
  Ho  Ho2  1  0.498065  0.672070  0.594731  1
  Ho  Ho3  1  0.997530  0.827945  0.905316  1
  Ho  Ho4  1  0.498065  0.672070  0.905269  1
  Ho  Ho5  1  0.997530  0.827945  0.594684  1
  Ho  Ho6  1  0.501390  0.328255  0.405161  1
  Ho  Ho7  1  0.001779  0.171968  0.095098  1
  Nb  Nb8  1  0.835383  0.330128  0.625849  1
  Nb  Nb9  1  0.333920  0.171706  0.874498  1
  Nb  Nb10  1  0.165282  0.669597  0.126718  1
  Nb  Nb11  1  0.666384  0.829431  0.372928  1
  Nb  Nb12  1  0.165282  0.669597  0.373282  1
  Nb  Nb13  1  0.666384  0.829431  0.127072  1
  Nb  Nb14  1  0.835383  0.330128  0.874151  1
  Nb  Nb15  1  0.333920  0.171706  0.625502  1
  Nb  Nb16  1  0.660834  0.008079  0.750000  1
  Si  Si17  1  0.663790  0.037941  0.541084  1
  Si  Si18  1  0.163908  0.461736  0.957300  1
  Si  Si19  1  0.336819  0.961804  0.043255  1
  Si  Si20  1  0.836286  0.538251  0.457005  1
  Si  Si21  1  0.336819  0.961804  0.456745  1
  Si  Si22  1  0.836286  0.538251  0.042995  1
  Si  Si23  1  0.663790  0.037941  0.958916  1
  Si  Si24  1  0.163908  0.461736  0.542700  1
  Si  Si25  1  0.534148  0.380717  0.750000  1
  Si  Si26  1  0.038238  0.121609  0.750000  1
  Si  Si27  1  0.464979  0.620734  0.250000  1
  Si  Si28  1  0.965982  0.880116  0.250000  1
  Si  Si29  1  0.798607  0.629977  0.750000  1
  Si  Si30  1  0.293210  0.865000  0.750000  1
  Si  Si31  1  0.201512  0.366523  0.250000  1
  Si  Si32  1  0.701804  0.134133  0.250000  1
  W  W33  1  0.160055  0.491043  0.750000  1
  W  W34  1  0.339572  0.991471  0.250000  1
  W  W35  1  0.839991  0.508937  0.250000  1
