# generated using pymatgen
data_Sm5As12Ru9Rh10
_symmetry_space_group_name_H-M   'P 1'
_cell_length_a   13.10754300
_cell_length_b   13.10754269
_cell_length_c   4.04429500
_cell_angle_alpha   90.00000000
_cell_angle_beta   90.00000000
_cell_angle_gamma   120.00000834
_symmetry_Int_Tables_number   1
_chemical_formula_structural   Sm5As12Ru9Rh10
_chemical_formula_sum   'Sm5 As12 Ru9 Rh10'
_cell_volume   601.74985427
_cell_formula_units_Z   1
loop_
 _symmetry_equiv_pos_site_id
 _symmetry_equiv_pos_as_xyz
  1  'x, y, z'
loop_
 _atom_site_type_symbol
 _atom_site_label
 _atom_site_symmetry_multiplicity
 _atom_site_fract_x
 _atom_site_fract_y
 _atom_site_fract_z
 _atom_site_occupancy
  Sm  Sm0  1  0.000000  0.186753  0.500000  1
  Sm  Sm1  1  0.813247  0.813247  0.500000  1
  Sm  Sm2  1  0.186753  0.000000  0.500000  1
  Sm  Sm3  1  0.666667  0.333333  0.000000  1
  Sm  Sm4  1  0.333333  0.666667  0.000000  1
  As  As5  1  0.000000  0.818327  0.000000  1
  As  As6  1  0.181673  0.181673  0.000000  1
  As  As7  1  0.818327  0.000000  0.000000  1
  As  As8  1  0.687267  0.170361  0.500000  1
  As  As9  1  0.829639  0.516906  0.500000  1
  As  As10  1  0.483094  0.312733  0.500000  1
  As  As11  1  0.170361  0.687267  0.500000  1
  As  As12  1  0.516906  0.829639  0.500000  1
  As  As13  1  0.312733  0.483094  0.500000  1
  As  As14  1  0.000000  0.369996  0.000000  1
  As  As15  1  0.630004  0.630004  0.000000  1
  As  As16  1  0.369996  0.000000  0.000000  1
  Ru  Ru17  1  0.000000  0.714589  0.500000  1
  Ru  Ru18  1  0.285411  0.285411  0.500000  1
  Ru  Ru19  1  0.714589  0.000000  0.500000  1
  Ru  Ru20  1  0.876042  0.360916  0.500000  1
  Ru  Ru21  1  0.639084  0.515126  0.500000  1
  Ru  Ru22  1  0.484874  0.123958  0.500000  1
  Ru  Ru23  1  0.360916  0.876042  0.500000  1
  Ru  Ru24  1  0.515126  0.639084  0.500000  1
  Ru  Ru25  1  0.123958  0.484874  0.500000  1
  Rh  Rh26  1  0.000000  0.554222  0.000000  1
  Rh  Rh27  1  0.445778  0.445778  0.000000  1
  Rh  Rh28  1  0.554222  0.000000  0.000000  1
  Rh  Rh29  1  0.806157  0.181879  0.000000  1
  Rh  Rh30  1  0.818121  0.624280  0.000000  1
  Rh  Rh31  1  0.375720  0.193843  0.000000  1
  Rh  Rh32  1  0.181879  0.806157  0.000000  1
  Rh  Rh33  1  0.624280  0.818121  0.000000  1
  Rh  Rh34  1  0.193843  0.375720  0.000000  1
  Rh  Rh35  1  0.000000  0.000000  0.000000  1
