# generated using pymatgen
data_Eu2TaCoO6
_symmetry_space_group_name_H-M   'P 1'
_cell_length_a   7.87353300
_cell_length_b   5.60984819
_cell_length_c   5.84994366
_cell_angle_alpha   88.82684991
_cell_angle_beta   90.00000000
_cell_angle_gamma   90.00000000
_symmetry_Int_Tables_number   1
_chemical_formula_structural   Eu2TaCoO6
_chemical_formula_sum   'Eu4 Ta2 Co2 O12'
_cell_volume   258.33390061
_cell_formula_units_Z   2
loop_
 _symmetry_equiv_pos_site_id
 _symmetry_equiv_pos_as_xyz
  1  'x, y, z'
loop_
 _atom_site_type_symbol
 _atom_site_label
 _atom_site_symmetry_multiplicity
 _atom_site_fract_x
 _atom_site_fract_y
 _atom_site_fract_z
 _atom_site_occupancy
  Eu  Eu0  1  0.750000  0.994049  0.042367  1
  Eu  Eu1  1  0.750000  0.509515  0.577158  1
  Eu  Eu2  1  0.250000  0.490485  0.422842  1
  Eu  Eu3  1  0.250000  0.005951  0.957633  1
  Ta  Ta4  1  0.000000  0.000000  0.500000  1
  Ta  Ta5  1  0.500000  0.000000  0.500000  1
  Co  Co6  1  0.000000  0.500000  0.000000  1
  Co  Co7  1  0.500000  0.500000  0.000000  1
  O  O8  1  0.449704  0.186753  0.214932  1
  O  O9  1  0.545686  0.714529  0.315761  1
  O  O10  1  0.550296  0.813247  0.785068  1
  O  O11  1  0.045686  0.285471  0.684239  1
  O  O12  1  0.250000  0.907078  0.531303  1
  O  O13  1  0.454314  0.285471  0.684239  1
  O  O14  1  0.954314  0.714529  0.315761  1
  O  O15  1  0.050296  0.186753  0.214932  1
  O  O16  1  0.750000  0.401092  0.966799  1
  O  O17  1  0.949704  0.813247  0.785068  1
  O  O18  1  0.250000  0.598908  0.033201  1
  O  O19  1  0.750000  0.092922  0.468697  1
