# generated using pymatgen
data_Pr2Sm5Sn23Ir6
_symmetry_space_group_name_H-M   'P 1'
_cell_length_a   9.91389649
_cell_length_b   9.91389640
_cell_length_c   10.17765200
_cell_angle_alpha   89.92954983
_cell_angle_beta   90.07045017
_cell_angle_gamma   119.93668987
_symmetry_Int_Tables_number   1
_chemical_formula_structural   Pr2Sm5Sn23Ir6
_chemical_formula_sum   'Pr2 Sm5 Sn23 Ir6'
_cell_volume   866.84860440
_cell_formula_units_Z   1
loop_
 _symmetry_equiv_pos_site_id
 _symmetry_equiv_pos_as_xyz
  1  'x, y, z'
loop_
 _atom_site_type_symbol
 _atom_site_label
 _atom_site_symmetry_multiplicity
 _atom_site_fract_x
 _atom_site_fract_y
 _atom_site_fract_z
 _atom_site_occupancy
  Pr  Pr0  1  0.000287  0.999713  0.999676  1
  Pr  Pr1  1  0.477659  0.522341  0.307586  1
  Sm  Sm2  1  0.520604  0.479396  0.693503  1
  Sm  Sm3  1  0.479723  0.958509  0.306554  1
  Sm  Sm4  1  0.520674  0.041683  0.693796  1
  Sm  Sm5  1  0.041491  0.520277  0.306554  1
  Sm  Sm6  1  0.958317  0.479326  0.693796  1
  Sn  Sn7  1  0.352404  0.999314  0.999681  1
  Sn  Sn8  1  0.647638  0.000248  0.999917  1
  Sn  Sn9  1  0.999752  0.352362  0.999917  1
  Sn  Sn10  1  0.000686  0.647596  0.999681  1
  Sn  Sn11  1  0.647940  0.647196  0.999730  1
  Sn  Sn12  1  0.352804  0.352060  0.999730  1
  Sn  Sn13  1  0.333443  0.666557  0.824880  1
  Sn  Sn14  1  0.666590  0.333410  0.174107  1
  Sn  Sn15  1  0.000320  0.999680  0.500512  1
  Sn  Sn16  1  0.778361  0.221639  0.455343  1
  Sn  Sn17  1  0.221848  0.778152  0.544828  1
  Sn  Sn18  1  0.779919  0.556514  0.455531  1
  Sn  Sn19  1  0.220237  0.443092  0.546086  1
  Sn  Sn20  1  0.443486  0.220081  0.455531  1
  Sn  Sn21  1  0.556908  0.779763  0.546086  1
  Sn  Sn22  1  0.330896  0.669104  0.116314  1
  Sn  Sn23  1  0.666608  0.333392  0.881420  1
  Sn  Sn24  1  0.118640  0.881360  0.284717  1
  Sn  Sn25  1  0.881691  0.118309  0.715568  1
  Sn  Sn26  1  0.116563  0.234211  0.284277  1
  Sn  Sn27  1  0.881600  0.763495  0.715603  1
  Sn  Sn28  1  0.765789  0.883437  0.284277  1
  Sn  Sn29  1  0.236505  0.118400  0.715603  1
  Ir  Ir30  1  0.830798  0.169202  0.198251  1
  Ir  Ir31  1  0.168717  0.831283  0.800992  1
  Ir  Ir32  1  0.833097  0.663213  0.198010  1
  Ir  Ir33  1  0.168484  0.337268  0.801964  1
  Ir  Ir34  1  0.336787  0.166903  0.198010  1
  Ir  Ir35  1  0.662732  0.831516  0.801964  1
