# generated using pymatgen
data_DyEr2Lu5Ga3Co
_symmetry_space_group_name_H-M   'P 1'
_cell_length_a   9.81976137
_cell_length_b   9.81976220
_cell_length_c   6.87941000
_cell_angle_alpha   90.00000000
_cell_angle_beta   90.00000000
_cell_angle_gamma   119.90941873
_symmetry_Int_Tables_number   1
_chemical_formula_structural   DyEr2Lu5Ga3Co
_chemical_formula_sum   'Dy2 Er4 Lu10 Ga6 Co2'
_cell_volume   575.01531528
_cell_formula_units_Z   2
loop_
 _symmetry_equiv_pos_site_id
 _symmetry_equiv_pos_as_xyz
  1  'x, y, z'
loop_
 _atom_site_type_symbol
 _atom_site_label
 _atom_site_symmetry_multiplicity
 _atom_site_fract_x
 _atom_site_fract_y
 _atom_site_fract_z
 _atom_site_occupancy
  Dy  Dy0  1  0.999988  0.000012  0.269907  1
  Dy  Dy1  1  0.000012  0.999988  0.769907  1
  Er  Er2  1  0.464105  0.928060  0.292776  1
  Er  Er3  1  0.071940  0.535895  0.292776  1
  Er  Er4  1  0.928060  0.464105  0.792776  1
  Er  Er5  1  0.535895  0.071940  0.792776  1
  Lu  Lu6  1  0.174252  0.825748  0.989052  1
  Lu  Lu7  1  0.825748  0.174252  0.489052  1
  Lu  Lu8  1  0.175538  0.348750  0.989518  1
  Lu  Lu9  1  0.651250  0.824462  0.989518  1
  Lu  Lu10  1  0.348750  0.175538  0.489518  1
  Lu  Lu11  1  0.824462  0.651250  0.489518  1
  Lu  Lu12  1  0.334011  0.665989  0.673592  1
  Lu  Lu13  1  0.665989  0.334011  0.173592  1
  Lu  Lu14  1  0.463768  0.536232  0.293794  1
  Lu  Lu15  1  0.536232  0.463768  0.793794  1
  Ga  Ga16  1  0.163950  0.836050  0.541874  1
  Ga  Ga17  1  0.836050  0.163950  0.041874  1
  Ga  Ga18  1  0.163932  0.328369  0.542111  1
  Ga  Ga19  1  0.671631  0.836068  0.542111  1
  Ga  Ga20  1  0.328369  0.163932  0.042111  1
  Ga  Ga21  1  0.836068  0.671631  0.042111  1
  Co  Co22  1  0.333968  0.666032  0.056029  1
  Co  Co23  1  0.666032  0.333968  0.556029  1
