# generated using pymatgen
data_Pr3Y2Sn3Cl
_symmetry_space_group_name_H-M   'P 1'
_cell_length_a   9.36014100
_cell_length_b   9.36014221
_cell_length_c   6.76266000
_cell_angle_alpha   90.00000000
_cell_angle_beta   90.00000000
_cell_angle_gamma   119.99999925
_symmetry_Int_Tables_number   1
_chemical_formula_structural   Pr3Y2Sn3Cl
_chemical_formula_sum   'Pr6 Y4 Sn6 Cl2'
_cell_volume   513.11301013
_cell_formula_units_Z   2
loop_
 _symmetry_equiv_pos_site_id
 _symmetry_equiv_pos_as_xyz
  1  'x, y, z'
loop_
 _atom_site_type_symbol
 _atom_site_label
 _atom_site_symmetry_multiplicity
 _atom_site_fract_x
 _atom_site_fract_y
 _atom_site_fract_z
 _atom_site_occupancy
  Pr  Pr0  1  0.739599  0.000000  0.750000  1
  Pr  Pr1  1  0.739599  0.739599  0.250000  1
  Pr  Pr2  1  0.000000  0.260401  0.250000  1
  Pr  Pr3  1  0.000000  0.739599  0.750000  1
  Pr  Pr4  1  0.260401  0.260401  0.750000  1
  Pr  Pr5  1  0.260401  0.000000  0.250000  1
  Y  Y6  1  0.666667  0.333333  0.000000  1
  Y  Y7  1  0.333333  0.666667  0.500000  1
  Y  Y8  1  0.666667  0.333333  0.500000  1
  Y  Y9  1  0.333333  0.666667  0.000000  1
  Sn  Sn10  1  0.606653  0.606653  0.750000  1
  Sn  Sn11  1  0.000000  0.606653  0.250000  1
  Sn  Sn12  1  0.606653  0.000000  0.250000  1
  Sn  Sn13  1  0.393347  0.000000  0.750000  1
  Sn  Sn14  1  0.000000  0.393347  0.750000  1
  Sn  Sn15  1  0.393347  0.393347  0.250000  1
  Cl  Cl16  1  0.000000  0.000000  0.500000  1
  Cl  Cl17  1  0.000000  0.000000  0.000000  1
