# generated using pymatgen
data_Cs3(TcO4)2
_symmetry_space_group_name_H-M   'P 1'
_cell_length_a   6.53442837
_cell_length_b   6.53442798
_cell_length_c   8.74795239
_cell_angle_alpha   68.54198602
_cell_angle_beta   68.54198574
_cell_angle_gamma   60.99903964
_symmetry_Int_Tables_number   1
_chemical_formula_structural   Cs3(TcO4)2
_chemical_formula_sum   'Cs3 Tc2 O8'
_cell_volume   295.78496882
_cell_formula_units_Z   1
loop_
 _symmetry_equiv_pos_site_id
 _symmetry_equiv_pos_as_xyz
  1  'x, y, z'
loop_
 _atom_site_type_symbol
 _atom_site_label
 _atom_site_symmetry_multiplicity
 _atom_site_fract_x
 _atom_site_fract_y
 _atom_site_fract_z
 _atom_site_occupancy
  Cs  Cs0  1  0.010055  0.989945  0.000000  1
  Cs  Cs1  1  0.190436  0.215988  0.391496  1
  Cs  Cs2  1  0.784012  0.809564  0.608504  1
  Tc  Tc3  1  0.393258  0.416405  0.779207  1
  Tc  Tc4  1  0.583595  0.606742  0.220793  1
  O  O5  1  0.267812  0.717962  0.301185  1
  O  O6  1  0.708188  0.288868  0.284364  1
  O  O7  1  0.710414  0.719926  0.301444  1
  O  O8  1  0.711132  0.291812  0.715636  1
  O  O9  1  0.282038  0.732188  0.698815  1
  O  O10  1  0.280074  0.289586  0.698556  1
  O  O11  1  0.296837  0.355852  0.001009  1
  O  O12  1  0.644148  0.703163  0.998991  1
