# generated using pymatgen
data_Tm4ReB12Ru
_symmetry_space_group_name_H-M   'P 1'
_cell_length_a   3.62705100
_cell_length_b   9.08235080
_cell_length_c   11.45145109
_cell_angle_alpha   89.80775370
_cell_angle_beta   90.00000000
_cell_angle_gamma   90.00000000
_symmetry_Int_Tables_number   1
_chemical_formula_structural   Tm4ReB12Ru
_chemical_formula_sum   'Tm8 Re2 B24 Ru2'
_cell_volume   377.23329095
_cell_formula_units_Z   2
loop_
 _symmetry_equiv_pos_site_id
 _symmetry_equiv_pos_as_xyz
  1  'x, y, z'
loop_
 _atom_site_type_symbol
 _atom_site_label
 _atom_site_symmetry_multiplicity
 _atom_site_fract_x
 _atom_site_fract_y
 _atom_site_fract_z
 _atom_site_occupancy
  Tm  Tm0  1  0.000000  0.324574  0.415479  1
  Tm  Tm1  1  0.000000  0.675426  0.584521  1
  Tm  Tm2  1  0.000000  0.820829  0.087820  1
  Tm  Tm3  1  0.000000  0.179171  0.912180  1
  Tm  Tm4  1  0.000000  0.943041  0.371058  1
  Tm  Tm5  1  0.000000  0.056959  0.628942  1
  Tm  Tm6  1  0.000000  0.442900  0.129122  1
  Tm  Tm7  1  0.000000  0.557100  0.870878  1
  Re  Re8  1  0.000000  0.638568  0.320236  1
  Re  Re9  1  0.000000  0.361432  0.679764  1
  B  B10  1  0.500000  0.552681  0.433536  1
  B  B11  1  0.500000  0.447319  0.566464  1
  B  B12  1  0.500000  0.053486  0.066599  1
  B  B13  1  0.500000  0.946514  0.933401  1
  B  B14  1  0.500000  0.749585  0.419815  1
  B  B15  1  0.500000  0.250415  0.580185  1
  B  B16  1  0.500000  0.248939  0.080484  1
  B  B17  1  0.500000  0.751061  0.919516  1
  B  B18  1  0.500000  0.792714  0.265109  1
  B  B19  1  0.500000  0.207286  0.734891  1
  B  B20  1  0.500000  0.291416  0.234145  1
  B  B21  1  0.500000  0.708584  0.765855  1
  B  B22  1  0.500000  0.631236  0.184459  1
  B  B23  1  0.500000  0.368764  0.815541  1
  B  B24  1  0.500000  0.131084  0.314526  1
  B  B25  1  0.500000  0.868916  0.685474  1
  B  B26  1  0.500000  0.982665  0.212042  1
  B  B27  1  0.500000  0.017335  0.787958  1
  B  B28  1  0.500000  0.481602  0.287205  1
  B  B29  1  0.500000  0.518398  0.712795  1
  B  B30  1  0.500000  0.603674  0.028509  1
  B  B31  1  0.500000  0.396326  0.971491  1
  B  B32  1  0.500000  0.103447  0.471192  1
  B  B33  1  0.500000  0.896553  0.528808  1
  Ru  Ru34  1  0.000000  0.137903  0.178514  1
  Ru  Ru35  1  0.000000  0.862097  0.821486  1
