# generated using pymatgen
data_Hg3PdPt3PbO14
_symmetry_space_group_name_H-M   'P 1'
_cell_length_a   7.36035688
_cell_length_b   7.26250549
_cell_length_c   7.26955369
_cell_angle_alpha   60.03206643
_cell_angle_beta   60.53544428
_cell_angle_gamma   60.43880339
_symmetry_Int_Tables_number   1
_chemical_formula_structural   Hg3PdPt3PbO14
_chemical_formula_sum   'Hg3 Pd1 Pt3 Pb1 O14'
_cell_volume   276.84893535
_cell_formula_units_Z   1
loop_
 _symmetry_equiv_pos_site_id
 _symmetry_equiv_pos_as_xyz
  1  'x, y, z'
loop_
 _atom_site_type_symbol
 _atom_site_label
 _atom_site_symmetry_multiplicity
 _atom_site_fract_x
 _atom_site_fract_y
 _atom_site_fract_z
 _atom_site_occupancy
  Hg  Hg0  1  0.125000  0.125000  0.125000  1
  Hg  Hg1  1  0.125000  0.625000  0.125000  1
  Hg  Hg2  1  0.125000  0.125000  0.625000  1
  Pd  Pd3  1  0.625000  0.625000  0.125000  1
  Pt  Pt4  1  0.625000  0.625000  0.625000  1
  Pt  Pt5  1  0.625000  0.125000  0.625000  1
  Pt  Pt6  1  0.125000  0.625000  0.625000  1
  Pb  Pb7  1  0.625000  0.125000  0.125000  1
  O  O8  1  0.700871  0.290599  0.293632  1
  O  O9  1  0.700893  0.292409  0.714289  1
  O  O10  1  0.999197  0.000463  0.999878  1
  O  O11  1  0.294989  0.704165  0.296681  1
  O  O12  1  0.700871  0.714897  0.293632  1
  O  O13  1  0.951837  0.545895  0.547135  1
  O  O14  1  0.298163  0.704105  0.702865  1
  O  O15  1  0.250803  0.249537  0.250122  1
  O  O16  1  0.955011  0.545835  0.953319  1
  O  O17  1  0.549107  0.957591  0.535711  1
  O  O18  1  0.549129  0.535103  0.956368  1
  O  O19  1  0.951837  0.955133  0.547135  1
  O  O20  1  0.549129  0.959401  0.956368  1
  O  O21  1  0.298163  0.294867  0.702865  1
