# generated using pymatgen
data_Ca4Cr3Co17As12
_symmetry_space_group_name_H-M   'P 1'
_cell_length_a   3.77675900
_cell_length_b   10.76774659
_cell_length_c   12.33909047
_cell_angle_alpha   89.97243842
_cell_angle_beta   90.00000000
_cell_angle_gamma   90.00000000
_symmetry_Int_Tables_number   1
_chemical_formula_structural   Ca4Cr3Co17As12
_chemical_formula_sum   'Ca4 Cr3 Co17 As12'
_cell_volume   501.79600250
_cell_formula_units_Z   1
loop_
 _symmetry_equiv_pos_site_id
 _symmetry_equiv_pos_as_xyz
  1  'x, y, z'
loop_
 _atom_site_type_symbol
 _atom_site_label
 _atom_site_symmetry_multiplicity
 _atom_site_fract_x
 _atom_site_fract_y
 _atom_site_fract_z
 _atom_site_occupancy
  Ca  Ca0  1  0.250000  0.579565  0.702789  1
  Ca  Ca1  1  0.250000  0.918293  0.204347  1
  Ca  Ca2  1  0.750000  0.417939  0.296336  1
  Ca  Ca3  1  0.750000  0.081182  0.794158  1
  Cr  Cr4  1  0.250000  0.704568  0.988473  1
  Cr  Cr5  1  0.250000  0.795944  0.489976  1
  Cr  Cr6  1  0.750000  0.295745  0.011507  1
  Co  Co7  1  0.750000  0.205884  0.510410  1
  Co  Co8  1  0.250000  0.405014  0.488814  1
  Co  Co9  1  0.250000  0.095925  0.990198  1
  Co  Co10  1  0.750000  0.596103  0.511102  1
  Co  Co11  1  0.750000  0.904926  0.011232  1
  Co  Co12  1  0.250000  0.215717  0.175298  1
  Co  Co13  1  0.250000  0.283868  0.674291  1
  Co  Co14  1  0.750000  0.784771  0.826878  1
  Co  Co15  1  0.750000  0.715480  0.325962  1
  Co  Co16  1  0.250000  0.882720  0.697109  1
  Co  Co17  1  0.250000  0.618015  0.197601  1
  Co  Co18  1  0.750000  0.118445  0.303930  1
  Co  Co19  1  0.750000  0.380876  0.801990  1
  Co  Co20  1  0.250000  0.464787  0.934455  1
  Co  Co21  1  0.250000  0.035035  0.433183  1
  Co  Co22  1  0.750000  0.535519  0.065303  1
  Co  Co23  1  0.750000  0.965886  0.565133  1
  As  As24  1  0.250000  0.418882  0.116650  1
  As  As25  1  0.250000  0.083348  0.613431  1
  As  As26  1  0.750000  0.580839  0.883163  1
  As  As27  1  0.750000  0.918239  0.383795  1
  As  As28  1  0.250000  0.266912  0.865087  1
  As  As29  1  0.250000  0.232857  0.368329  1
  As  As30  1  0.750000  0.732618  0.135055  1
  As  As31  1  0.750000  0.768040  0.635406  1
  As  As32  1  0.250000  0.595301  0.390521  1
  As  As33  1  0.250000  0.905817  0.889715  1
  As  As34  1  0.750000  0.398652  0.606775  1
  As  As35  1  0.750000  0.096285  0.111596  1
