# generated using pymatgen
data_DyLuMn9Fe3P7
_symmetry_space_group_name_H-M   'P 1'
_cell_length_a   9.26106800
_cell_length_b   9.26106700
_cell_length_c   3.55532000
_cell_angle_alpha   90.00000000
_cell_angle_beta   90.00000000
_cell_angle_gamma   120.00000357
_symmetry_Int_Tables_number   1
_chemical_formula_structural   DyLuMn9Fe3P7
_chemical_formula_sum   'Dy1 Lu1 Mn9 Fe3 P7'
_cell_volume   264.07750687
_cell_formula_units_Z   1
loop_
 _symmetry_equiv_pos_site_id
 _symmetry_equiv_pos_as_xyz
  1  'x, y, z'
loop_
 _atom_site_type_symbol
 _atom_site_label
 _atom_site_symmetry_multiplicity
 _atom_site_fract_x
 _atom_site_fract_y
 _atom_site_fract_z
 _atom_site_occupancy
  Dy  Dy0  1  0.333333  0.666667  0.000000  1
  Lu  Lu1  1  0.000000  0.000000  0.500000  1
  Mn  Mn2  1  0.717990  0.761918  0.000000  1
  Mn  Mn3  1  0.238082  0.956072  0.000000  1
  Mn  Mn4  1  0.043928  0.282010  0.000000  1
  Mn  Mn5  1  0.103816  0.726275  0.500000  1
  Mn  Mn6  1  0.273725  0.377541  0.500000  1
  Mn  Mn7  1  0.622459  0.896184  0.500000  1
  Mn  Mn8  1  0.770357  0.563068  0.500000  1
  Mn  Mn9  1  0.436932  0.207289  0.500000  1
  Mn  Mn10  1  0.792711  0.229643  0.500000  1
  Fe  Fe11  1  0.940433  0.489869  0.000000  1
  Fe  Fe12  1  0.510131  0.450563  0.000000  1
  Fe  Fe13  1  0.549437  0.059567  0.000000  1
  P  P14  1  0.955622  0.743738  0.000000  1
  P  P15  1  0.256262  0.211884  0.000000  1
  P  P16  1  0.788116  0.044378  0.000000  1
  P  P17  1  0.071840  0.459625  0.500000  1
  P  P18  1  0.540375  0.612214  0.500000  1
  P  P19  1  0.387786  0.928160  0.500000  1
  P  P20  1  0.666667  0.333333  0.000000  1
