# generated using pymatgen
data_Y13Ho3Cd4(CoPd)2
_symmetry_space_group_name_H-M   'P 1'
_cell_length_a   9.61187594
_cell_length_b   9.62213715
_cell_length_c   9.63618500
_cell_angle_alpha   59.95169688
_cell_angle_beta   59.91630731
_cell_angle_gamma   59.99029650
_symmetry_Int_Tables_number   1
_chemical_formula_structural   Y13Ho3Cd4(CoPd)2
_chemical_formula_sum   'Y13 Ho3 Cd4 Co2 Pd2'
_cell_volume   629.51197777
_cell_formula_units_Z   1
loop_
 _symmetry_equiv_pos_site_id
 _symmetry_equiv_pos_as_xyz
  1  'x, y, z'
loop_
 _atom_site_type_symbol
 _atom_site_label
 _atom_site_symmetry_multiplicity
 _atom_site_fract_x
 _atom_site_fract_y
 _atom_site_fract_z
 _atom_site_occupancy
  Y  Y0  1  0.956490  0.340091  0.351709  1
  Y  Y1  1  0.819435  0.188639  0.190220  1
  Y  Y2  1  0.188909  0.819470  0.800901  1
  Y  Y3  1  0.188909  0.819470  0.190720  1
  Y  Y4  1  0.819435  0.188639  0.801705  1
  Y  Y5  1  0.189097  0.189124  0.810889  1
  Y  Y6  1  0.809356  0.809725  0.190460  1
  Y  Y7  1  0.935849  0.561863  0.565513  1
  Y  Y8  1  0.561086  0.936142  0.937481  1
  Y  Y9  1  0.561086  0.936142  0.565292  1
  Y  Y10  1  0.935849  0.561863  0.936777  1
  Y  Y11  1  0.562124  0.562559  0.937659  1
  Y  Y12  1  0.935856  0.935322  0.564411  1
  Ho  Ho13  1  0.345701  0.345664  0.359468  1
  Ho  Ho14  1  0.345701  0.345664  0.949167  1
  Ho  Ho15  1  0.339427  0.958618  0.350977  1
  Cd  Cd16  1  0.580218  0.580482  0.579881  1
  Cd  Cd17  1  0.580218  0.580482  0.259420  1
  Cd  Cd18  1  0.582173  0.255094  0.581366  1
  Cd  Cd19  1  0.255221  0.582623  0.581078  1
  Co  Co20  1  0.145856  0.143018  0.140577  1
  Co  Co21  1  0.145856  0.143018  0.570549  1
  Pd  Pd22  1  0.148476  0.569266  0.141129  1
  Pd  Pd23  1  0.567671  0.147024  0.142652  1
