# generated using pymatgen
data_PaAl4Co
_symmetry_space_group_name_H-M   'P 1'
_cell_length_a   9.20180700
_cell_length_b   9.20180584
_cell_length_c   4.10197700
_cell_angle_alpha   90.00000000
_cell_angle_beta   90.00000000
_cell_angle_gamma   120.00000775
_symmetry_Int_Tables_number   1
_chemical_formula_structural   PaAl4Co
_chemical_formula_sum   'Pa3 Al12 Co3'
_cell_volume   300.79457852
_cell_formula_units_Z   3
loop_
 _symmetry_equiv_pos_site_id
 _symmetry_equiv_pos_as_xyz
  1  'x, y, z'
loop_
 _atom_site_type_symbol
 _atom_site_label
 _atom_site_symmetry_multiplicity
 _atom_site_fract_x
 _atom_site_fract_y
 _atom_site_fract_z
 _atom_site_occupancy
  Pa  Pa0  1  0.000000  0.409861  0.000000  1
  Pa  Pa1  1  0.590139  0.590139  0.000000  1
  Pa  Pa2  1  0.409861  0.000000  0.000000  1
  Al  Al3  1  0.000000  0.743898  0.000000  1
  Al  Al4  1  0.256102  0.256102  0.000000  1
  Al  Al5  1  0.743898  0.000000  0.000000  1
  Al  Al6  1  0.000000  0.167220  0.500000  1
  Al  Al7  1  0.832780  0.832780  0.500000  1
  Al  Al8  1  0.167220  0.000000  0.500000  1
  Al  Al9  1  0.296999  0.480335  0.500000  1
  Al  Al10  1  0.183337  0.703001  0.500000  1
  Al  Al11  1  0.519665  0.816663  0.500000  1
  Al  Al12  1  0.816663  0.519665  0.500000  1
  Al  Al13  1  0.703001  0.183337  0.500000  1
  Al  Al14  1  0.480335  0.296999  0.500000  1
  Co  Co15  1  0.666667  0.333333  0.000000  1
  Co  Co16  1  0.333333  0.666667  0.000000  1
  Co  Co17  1  0.000000  0.000000  0.000000  1
