# generated using pymatgen
data_Th3TlGe2Rh3
_symmetry_space_group_name_H-M   'P 1'
_cell_length_a   7.36680500
_cell_length_b   7.51067560
_cell_length_c   4.03662600
_cell_angle_alpha   90.00000000
_cell_angle_beta   90.00000000
_cell_angle_gamma   120.64940547
_symmetry_Int_Tables_number   1
_chemical_formula_structural   Th3TlGe2Rh3
_chemical_formula_sum   'Th3 Tl1 Ge2 Rh3'
_cell_volume   192.14452382
_cell_formula_units_Z   1
loop_
 _symmetry_equiv_pos_site_id
 _symmetry_equiv_pos_as_xyz
  1  'x, y, z'
loop_
 _atom_site_type_symbol
 _atom_site_label
 _atom_site_symmetry_multiplicity
 _atom_site_fract_x
 _atom_site_fract_y
 _atom_site_fract_z
 _atom_site_occupancy
  Th  Th0  1  0.999977  0.404824  0.500000  1
  Th  Th1  1  0.578506  0.583353  0.500000  1
  Th  Th2  1  0.421455  0.004819  0.500000  1
  Tl  Tl3  1  0.999983  0.752492  0.000000  1
  Ge  Ge4  1  0.250557  0.247726  0.000000  1
  Ge  Ge5  1  0.749471  0.997164  0.000000  1
  Rh  Rh6  1  0.346080  0.662509  0.000000  1
  Rh  Rh7  1  0.653943  0.316381  0.000000  1
  Rh  Rh8  1  0.000028  0.030733  0.500000  1
