# generated using pymatgen
data_Tb2Gd3Ho(AlC3)2
_symmetry_space_group_name_H-M   'P 1'
_cell_length_a   3.59563200
_cell_length_b   7.09849027
_cell_length_c   10.03962210
_cell_angle_alpha   90.22367766
_cell_angle_beta   90.00000000
_cell_angle_gamma   90.00000000
_symmetry_Int_Tables_number   1
_chemical_formula_structural   Tb2Gd3Ho(AlC3)2
_chemical_formula_sum   'Tb2 Gd3 Ho1 Al2 C6'
_cell_volume   256.24493194
_cell_formula_units_Z   1
loop_
 _symmetry_equiv_pos_site_id
 _symmetry_equiv_pos_as_xyz
  1  'x, y, z'
loop_
 _atom_site_type_symbol
 _atom_site_label
 _atom_site_symmetry_multiplicity
 _atom_site_fract_x
 _atom_site_fract_y
 _atom_site_fract_z
 _atom_site_occupancy
  Tb  Tb0  1  0.000000  0.747366  0.458509  1
  Tb  Tb1  1  0.000000  0.247419  0.540870  1
  Gd  Gd2  1  0.500000  0.494721  0.798284  1
  Gd  Gd3  1  0.500000  0.991079  0.199645  1
  Gd  Gd4  1  0.500000  0.012388  0.803445  1
  Ho  Ho5  1  0.500000  0.512490  0.199588  1
  Al  Al6  1  0.000000  0.744167  0.008483  1
  Al  Al7  1  0.000000  0.262187  0.993539  1
  C  C8  1  0.500000  0.505537  0.562352  1
  C  C9  1  0.500000  0.487448  0.430889  1
  C  C10  1  0.500000  0.988526  0.567244  1
  C  C11  1  0.500000  0.005632  0.435750  1
  C  C12  1  0.000000  0.747939  0.209881  1
  C  C13  1  0.000000  0.253103  0.791522  1
