# generated using pymatgen
data_Ca13Ac(PbN4)2
_symmetry_space_group_name_H-M   'P 1'
_cell_length_a   3.64996200
_cell_length_b   12.17679582
_cell_length_c   11.70496176
_cell_angle_alpha   90.07835748
_cell_angle_beta   90.00000000
_cell_angle_gamma   90.00000000
_symmetry_Int_Tables_number   1
_chemical_formula_structural   Ca13Ac(PbN4)2
_chemical_formula_sum   'Ca13 Ac1 Pb2 N8'
_cell_volume   520.22468994
_cell_formula_units_Z   1
loop_
 _symmetry_equiv_pos_site_id
 _symmetry_equiv_pos_as_xyz
  1  'x, y, z'
loop_
 _atom_site_type_symbol
 _atom_site_label
 _atom_site_symmetry_multiplicity
 _atom_site_fract_x
 _atom_site_fract_y
 _atom_site_fract_z
 _atom_site_occupancy
  Ca  Ca0  1  0.500335  0.673644  0.245038  1
  Ca  Ca1  1  0.500335  0.326356  0.754962  1
  Ca  Ca2  1  0.499517  0.165507  0.263176  1
  Ca  Ca3  1  0.499517  0.834493  0.736824  1
  Ca  Ca4  1  0.500344  0.000000  0.500000  1
  Ca  Ca5  1  0.999807  0.929075  0.265619  1
  Ca  Ca6  1  0.999807  0.070925  0.734381  1
  Ca  Ca7  1  0.001491  0.421704  0.247305  1
  Ca  Ca8  1  0.001491  0.578296  0.752695  1
  Ca  Ca9  1  0.000622  0.769336  0.480573  1
  Ca  Ca10  1  0.000622  0.230664  0.519427  1
  Ca  Ca11  1  0.997331  0.252774  0.023022  1
  Ca  Ca12  1  0.997331  0.747226  0.976978  1
  Ac  Ac13  1  0.499117  0.500000  0.000000  1
  Pb  Pb14  1  0.528339  0.500000  0.500000  1
  Pb  Pb15  1  0.472564  0.000000  0.000000  1
  N  N16  1  0.000134  0.605988  0.130718  1
  N  N17  1  0.000134  0.394012  0.869282  1
  N  N18  1  0.999776  0.101478  0.368959  1
  N  N19  1  0.999776  0.898522  0.631041  1
  N  N20  1  0.499956  0.834172  0.360452  1
  N  N21  1  0.499956  0.165828  0.639548  1
  N  N22  1  0.500849  0.332420  0.144466  1
  N  N23  1  0.500849  0.667580  0.855534  1
