# generated using pymatgen
data_LuSc2Co9(GeB2)2
_symmetry_space_group_name_H-M   'P 1'
_cell_length_a   5.08565400
_cell_length_b   5.08285688
_cell_length_c   9.36032330
_cell_angle_alpha   90.00853521
_cell_angle_beta   89.98295022
_cell_angle_gamma   120.01819263
_symmetry_Int_Tables_number   1
_chemical_formula_structural   LuSc2Co9(GeB2)2
_chemical_formula_sum   'Lu1 Sc2 Co9 Ge2 B4'
_cell_volume   209.50602101
_cell_formula_units_Z   1
loop_
 _symmetry_equiv_pos_site_id
 _symmetry_equiv_pos_as_xyz
  1  'x, y, z'
loop_
 _atom_site_type_symbol
 _atom_site_label
 _atom_site_symmetry_multiplicity
 _atom_site_fract_x
 _atom_site_fract_y
 _atom_site_fract_z
 _atom_site_occupancy
  Lu  Lu0  1  0.999964  0.000000  0.999999  1
  Sc  Sc1  1  0.999986  0.000000  0.342235  1
  Sc  Sc2  1  0.999972  0.000000  0.657848  1
  Co  Co3  1  0.500017  0.000000  0.500025  1
  Co  Co4  1  0.500006  0.500001  0.499995  1
  Co  Co5  1  0.000006  0.499999  0.499995  1
  Co  Co6  1  0.499976  0.000000  0.205977  1
  Co  Co7  1  0.499964  0.500003  0.205911  1
  Co  Co8  1  0.999961  0.499997  0.205911  1
  Co  Co9  1  0.500012  0.000000  0.793978  1
  Co  Co10  1  0.500017  0.500007  0.794043  1
  Co  Co11  1  0.000010  0.499993  0.794043  1
  Ge  Ge12  1  0.333262  0.666522  0.999983  1
  Ge  Ge13  1  0.666739  0.333478  0.999983  1
  B  B14  1  0.333410  0.666864  0.349310  1
  B  B15  1  0.666546  0.333136  0.349310  1
  B  B16  1  0.666622  0.333196  0.650727  1
  B  B17  1  0.333427  0.666804  0.650727  1
