# generated using pymatgen
data_ErTm(Lu4Pb3)2
_symmetry_space_group_name_H-M   'P 1'
_cell_length_a   8.89839300
_cell_length_b   8.91784088
_cell_length_c   6.50878000
_cell_angle_alpha   90.00000000
_cell_angle_beta   90.00000000
_cell_angle_gamma   119.92788274
_symmetry_Int_Tables_number   1
_chemical_formula_structural   ErTm(Lu4Pb3)2
_chemical_formula_sum   'Er1 Tm1 Lu8 Pb6'
_cell_volume   447.62740729
_cell_formula_units_Z   1
loop_
 _symmetry_equiv_pos_site_id
 _symmetry_equiv_pos_as_xyz
  1  'x, y, z'
loop_
 _atom_site_type_symbol
 _atom_site_label
 _atom_site_symmetry_multiplicity
 _atom_site_fract_x
 _atom_site_fract_y
 _atom_site_fract_z
 _atom_site_occupancy
  Er  Er0  1  0.765122  0.000000  0.750000  1
  Tm  Tm1  1  0.233544  0.000000  0.250000  1
  Lu  Lu2  1  0.235012  0.235600  0.750000  1
  Lu  Lu3  1  0.334077  0.667709  0.000040  1
  Lu  Lu4  1  0.666369  0.332291  0.000040  1
  Lu  Lu5  1  0.999411  0.764400  0.750000  1
  Lu  Lu6  1  0.764626  0.763694  0.250000  1
  Lu  Lu7  1  0.000934  0.236306  0.250000  1
  Lu  Lu8  1  0.334077  0.667709  0.499960  1
  Lu  Lu9  1  0.666369  0.332291  0.499960  1
  Pb  Pb10  1  0.001441  0.396605  0.750000  1
  Pb  Pb11  1  0.395055  0.395643  0.250000  1
  Pb  Pb12  1  0.606077  0.000000  0.250000  1
  Pb  Pb13  1  0.604836  0.603395  0.750000  1
  Pb  Pb14  1  0.393640  0.000000  0.750000  1
  Pb  Pb15  1  0.999412  0.604357  0.250000  1
