# generated using pymatgen
data_Zr12Zn8CuAu3N4
_symmetry_space_group_name_H-M   'P 1'
_cell_length_a   8.64033741
_cell_length_b   8.64193164
_cell_length_c   8.64193200
_cell_angle_alpha   59.99999863
_cell_angle_beta   59.99389489
_cell_angle_gamma   59.99389210
_symmetry_Int_Tables_number   1
_chemical_formula_structural   Zr12Zn8CuAu3N4
_chemical_formula_sum   'Zr12 Zn8 Cu1 Au3 N4'
_cell_volume   456.24411949
_cell_formula_units_Z   1
loop_
 _symmetry_equiv_pos_site_id
 _symmetry_equiv_pos_as_xyz
  1  'x, y, z'
loop_
 _atom_site_type_symbol
 _atom_site_label
 _atom_site_symmetry_multiplicity
 _atom_site_fract_x
 _atom_site_fract_y
 _atom_site_fract_z
 _atom_site_occupancy
  Zr  Zr0  1  0.813136  0.186935  0.186935  1
  Zr  Zr1  1  0.187984  0.812591  0.186832  1
  Zr  Zr2  1  0.813136  0.812995  0.186935  1
  Zr  Zr3  1  0.187984  0.812591  0.812591  1
  Zr  Zr4  1  0.813136  0.186935  0.812995  1
  Zr  Zr5  1  0.187984  0.186832  0.812591  1
  Zr  Zr6  1  0.436864  0.063065  0.063065  1
  Zr  Zr7  1  0.062016  0.437409  0.063168  1
  Zr  Zr8  1  0.436864  0.437005  0.063065  1
  Zr  Zr9  1  0.062016  0.437409  0.437409  1
  Zr  Zr10  1  0.436864  0.063065  0.437005  1
  Zr  Zr11  1  0.062016  0.063168  0.437409  1
  Zn  Zn12  1  0.407537  0.422609  0.747245  1
  Zn  Zn13  1  0.407537  0.422609  0.422609  1
  Zn  Zn14  1  0.748498  0.417167  0.417167  1
  Zn  Zn15  1  0.407537  0.747245  0.422609  1
  Zn  Zn16  1  0.842463  0.827391  0.502755  1
  Zn  Zn17  1  0.842463  0.827391  0.827391  1
  Zn  Zn18  1  0.501502  0.832833  0.832833  1
  Zn  Zn19  1  0.842463  0.502755  0.827391  1
  Cu  Cu20  1  0.125000  0.625000  0.625000  1
  Au  Au21  1  0.625000  0.625000  0.125000  1
  Au  Au22  1  0.625000  0.625000  0.625000  1
  Au  Au23  1  0.625000  0.125000  0.625000  1
  N  N24  1  0.125000  0.125000  0.625000  1
  N  N25  1  0.125000  0.125000  0.125000  1
  N  N26  1  0.625000  0.125000  0.125000  1
  N  N27  1  0.125000  0.625000  0.125000  1
