# generated using pymatgen
data_U2MnSiNi2
_symmetry_space_group_name_H-M   'P 1'
_cell_length_a   5.30083434
_cell_length_b   5.08249669
_cell_length_c   7.58993600
_cell_angle_alpha   90.00000000
_cell_angle_beta   90.00000000
_cell_angle_gamma   58.54785269
_symmetry_Int_Tables_number   1
_chemical_formula_structural   U2MnSiNi2
_chemical_formula_sum   'U4 Mn2 Si2 Ni4'
_cell_volume   174.44049138
_cell_formula_units_Z   2
loop_
 _symmetry_equiv_pos_site_id
 _symmetry_equiv_pos_as_xyz
  1  'x, y, z'
loop_
 _atom_site_type_symbol
 _atom_site_label
 _atom_site_symmetry_multiplicity
 _atom_site_fract_x
 _atom_site_fract_y
 _atom_site_fract_z
 _atom_site_occupancy
  U  U0  1  0.343837  0.311867  0.560698  1
  U  U1  1  0.656377  0.687870  0.422856  1
  U  U2  1  0.656377  0.687870  0.077144  1
  U  U3  1  0.343837  0.311867  0.939302  1
  Mn  Mn4  1  0.663247  0.175239  0.250000  1
  Mn  Mn5  1  0.161233  0.175519  0.250000  1
  Si  Si6  1  0.997900  0.004183  0.499383  1
  Si  Si7  1  0.997900  0.004183  0.000617  1
  Ni  Ni8  1  0.833543  0.332654  0.750000  1
  Ni  Ni9  1  0.335879  0.818222  0.750000  1
  Ni  Ni10  1  0.845387  0.818626  0.750000  1
  Ni  Ni11  1  0.164487  0.671903  0.250000  1
