# generated using pymatgen
data_Ho3Tm3Al24Os5Pt3
_symmetry_space_group_name_H-M   'P 1'
_cell_length_a   8.80181133
_cell_length_b   8.82461599
_cell_length_c   9.52284547
_cell_angle_alpha   90.15775876
_cell_angle_beta   89.70782744
_cell_angle_gamma   119.53433488
_symmetry_Int_Tables_number   1
_chemical_formula_structural   Ho3Tm3Al24Os5Pt3
_chemical_formula_sum   'Ho3 Tm3 Al24 Os5 Pt3'
_cell_volume   643.54418911
_cell_formula_units_Z   1
loop_
 _symmetry_equiv_pos_site_id
 _symmetry_equiv_pos_as_xyz
  1  'x, y, z'
loop_
 _atom_site_type_symbol
 _atom_site_label
 _atom_site_symmetry_multiplicity
 _atom_site_fract_x
 _atom_site_fract_y
 _atom_site_fract_z
 _atom_site_occupancy
  Ho  Ho0  1  0.187876  0.384210  0.251477  1
  Ho  Ho1  1  0.811953  0.615746  0.748540  1
  Ho  Ho2  1  0.613471  0.814280  0.252485  1
  Tm  Tm3  1  0.388373  0.185805  0.747394  1
  Tm  Tm4  1  0.197121  0.808273  0.252038  1
  Tm  Tm5  1  0.802483  0.191652  0.747953  1
  Al  Al6  1  0.335068  0.671322  0.030793  1
  Al  Al7  1  0.664619  0.328685  0.968651  1
  Al  Al8  1  0.668957  0.331302  0.528724  1
  Al  Al9  1  0.330810  0.668761  0.471755  1
  Al  Al10  1  0.157721  0.325135  0.576261  1
  Al  Al11  1  0.842400  0.674672  0.424098  1
  Al  Al12  1  0.673228  0.840678  0.576462  1
  Al  Al13  1  0.837181  0.676255  0.078383  1
  Al  Al14  1  0.326675  0.159347  0.424126  1
  Al  Al15  1  0.162975  0.323541  0.921225  1
  Al  Al16  1  0.163598  0.835030  0.576324  1
  Al  Al17  1  0.325556  0.158916  0.076561  1
  Al  Al18  1  0.836358  0.165289  0.424057  1
  Al  Al19  1  0.674364  0.841104  0.922872  1
  Al  Al20  1  0.831663  0.159767  0.077477  1
  Al  Al21  1  0.168315  0.840605  0.922121  1
  Al  Al22  1  0.560960  0.125278  0.249885  1
  Al  Al23  1  0.438744  0.874805  0.750141  1
  Al  Al24  1  0.874295  0.438052  0.252574  1
  Al  Al25  1  0.125619  0.561867  0.747479  1
  Al  Al26  1  0.562343  0.436563  0.249785  1
  Al  Al27  1  0.437429  0.562810  0.750217  1
  Al  Al28  1  0.999958  0.002846  0.250228  1
  Al  Al29  1  0.001180  0.997776  0.749749  1
  Os  Os30  1  0.499824  0.000221  0.999631  1
  Os  Os31  1  0.499782  0.000250  0.500416  1
  Os  Os32  1  0.999899  0.499969  0.500092  1
  Os  Os33  1  0.999861  0.999881  0.000043  1
  Os  Os34  1  0.999837  0.999862  0.499970  1
  Pt  Pt35  1  0.999836  0.499947  0.999980  1
  Pt  Pt36  1  0.499846  0.499771  0.999849  1
  Pt  Pt37  1  0.499822  0.499725  0.500183  1
