# generated using pymatgen
data_Tb8CdNiHgRu
_symmetry_space_group_name_H-M   'P 1'
_cell_length_a   9.60779171
_cell_length_b   9.60779103
_cell_length_c   9.66633500
_cell_angle_alpha   59.79822347
_cell_angle_beta   59.79822581
_cell_angle_gamma   59.83659080
_symmetry_Int_Tables_number   1
_chemical_formula_structural   Tb8CdNiHgRu
_chemical_formula_sum   'Tb16 Cd2 Ni2 Hg2 Ru2'
_cell_volume   628.24171382
_cell_formula_units_Z   2
loop_
 _symmetry_equiv_pos_site_id
 _symmetry_equiv_pos_as_xyz
  1  'x, y, z'
loop_
 _atom_site_type_symbol
 _atom_site_label
 _atom_site_symmetry_multiplicity
 _atom_site_fract_x
 _atom_site_fract_y
 _atom_site_fract_z
 _atom_site_occupancy
  Tb  Tb0  1  0.350293  0.350293  0.343670  1
  Tb  Tb1  1  0.350293  0.350293  0.955745  1
  Tb  Tb2  1  0.352510  0.952401  0.347545  1
  Tb  Tb3  1  0.952401  0.352510  0.347545  1
  Tb  Tb4  1  0.810795  0.186627  0.190721  1
  Tb  Tb5  1  0.186627  0.810795  0.811857  1
  Tb  Tb6  1  0.186627  0.810795  0.190721  1
  Tb  Tb7  1  0.810795  0.186627  0.811857  1
  Tb  Tb8  1  0.188236  0.188236  0.811764  1
  Tb  Tb9  1  0.808249  0.808249  0.191751  1
  Tb  Tb10  1  0.937463  0.558018  0.566133  1
  Tb  Tb11  1  0.558018  0.937463  0.938386  1
  Tb  Tb12  1  0.558018  0.937463  0.566133  1
  Tb  Tb13  1  0.937463  0.558018  0.938386  1
  Tb  Tb14  1  0.564985  0.564985  0.935015  1
  Tb  Tb15  1  0.939291  0.939291  0.560709  1
  Cd  Cd16  1  0.580187  0.256815  0.581498  1
  Cd  Cd17  1  0.256815  0.580187  0.581498  1
  Ni  Ni18  1  0.142433  0.575942  0.140813  1
  Ni  Ni19  1  0.575942  0.142433  0.140813  1
  Hg  Hg20  1  0.582696  0.582696  0.587776  1
  Hg  Hg21  1  0.582696  0.582696  0.246831  1
  Ru  Ru22  1  0.143583  0.143583  0.138241  1
  Ru  Ru23  1  0.143583  0.143583  0.574592  1
