# generated using pymatgen
data_LiSm2Co2P6Rh7
_symmetry_space_group_name_H-M   'P 1'
_cell_length_a   3.86926600
_cell_length_b   10.78024000
_cell_length_c   12.49525200
_cell_angle_alpha   90.00000000
_cell_angle_beta   90.00000000
_cell_angle_gamma   90.00000000
_symmetry_Int_Tables_number   1
_chemical_formula_structural   LiSm2Co2P6Rh7
_chemical_formula_sum   'Li2 Sm4 Co4 P12 Rh14'
_cell_volume   521.19715454
_cell_formula_units_Z   2
loop_
 _symmetry_equiv_pos_site_id
 _symmetry_equiv_pos_as_xyz
  1  'x, y, z'
loop_
 _atom_site_type_symbol
 _atom_site_label
 _atom_site_symmetry_multiplicity
 _atom_site_fract_x
 _atom_site_fract_y
 _atom_site_fract_z
 _atom_site_occupancy
  Li  Li0  1  0.250000  0.704926  0.987658  1
  Li  Li1  1  0.250000  0.795074  0.487658  1
  Sm  Sm2  1  0.250000  0.583032  0.707961  1
  Sm  Sm3  1  0.250000  0.916968  0.207961  1
  Sm  Sm4  1  0.750000  0.420140  0.294429  1
  Sm  Sm5  1  0.750000  0.079860  0.794429  1
  Co  Co6  1  0.250000  0.462918  0.934933  1
  Co  Co7  1  0.250000  0.037082  0.434933  1
  Co  Co8  1  0.750000  0.534936  0.062576  1
  Co  Co9  1  0.750000  0.965064  0.562576  1
  P  P10  1  0.250000  0.426500  0.105879  1
  P  P11  1  0.250000  0.073500  0.605879  1
  P  P12  1  0.750000  0.574428  0.891465  1
  P  P13  1  0.750000  0.925572  0.391465  1
  P  P14  1  0.250000  0.271659  0.871106  1
  P  P15  1  0.250000  0.228341  0.371106  1
  P  P16  1  0.750000  0.727671  0.132771  1
  P  P17  1  0.750000  0.772329  0.632771  1
  P  P18  1  0.250000  0.603143  0.390013  1
  P  P19  1  0.250000  0.896857  0.890013  1
  P  P20  1  0.750000  0.399502  0.609561  1
  P  P21  1  0.750000  0.100498  0.109561  1
  Rh  Rh22  1  0.750000  0.288555  0.013056  1
  Rh  Rh23  1  0.750000  0.211445  0.513056  1
  Rh  Rh24  1  0.250000  0.405408  0.482654  1
  Rh  Rh25  1  0.250000  0.094592  0.982654  1
  Rh  Rh26  1  0.750000  0.593863  0.519874  1
  Rh  Rh27  1  0.750000  0.906137  0.019874  1
  Rh  Rh28  1  0.250000  0.229650  0.177092  1
  Rh  Rh29  1  0.250000  0.270350  0.677092  1
  Rh  Rh30  1  0.750000  0.775943  0.825132  1
  Rh  Rh31  1  0.750000  0.724057  0.325132  1
  Rh  Rh32  1  0.250000  0.881479  0.692652  1
  Rh  Rh33  1  0.250000  0.618521  0.192652  1
  Rh  Rh34  1  0.750000  0.116059  0.301190  1
  Rh  Rh35  1  0.750000  0.383941  0.801190  1
