# generated using pymatgen
data_Sm4DyTm3(ReB6)4
_symmetry_space_group_name_H-M   'P 1'
_cell_length_a   3.69737600
_cell_length_b   9.19317303
_cell_length_c   11.62119404
_cell_angle_alpha   90.00977706
_cell_angle_beta   90.00000000
_cell_angle_gamma   90.00000000
_symmetry_Int_Tables_number   1
_chemical_formula_structural   Sm4DyTm3(ReB6)4
_chemical_formula_sum   'Sm4 Dy1 Tm3 Re4 B24'
_cell_volume   395.01155395
_cell_formula_units_Z   1
loop_
 _symmetry_equiv_pos_site_id
 _symmetry_equiv_pos_as_xyz
  1  'x, y, z'
loop_
 _atom_site_type_symbol
 _atom_site_label
 _atom_site_symmetry_multiplicity
 _atom_site_fract_x
 _atom_site_fract_y
 _atom_site_fract_z
 _atom_site_occupancy
  Sm  Sm0  1  0.000000  0.323088  0.414231  1
  Sm  Sm1  1  0.000000  0.676783  0.586037  1
  Sm  Sm2  1  0.000000  0.822884  0.085578  1
  Sm  Sm3  1  0.000000  0.177122  0.914039  1
  Dy  Dy4  1  0.000000  0.943319  0.370085  1
  Tm  Tm5  1  0.000000  0.057099  0.631041  1
  Tm  Tm6  1  0.000000  0.443173  0.130049  1
  Tm  Tm7  1  0.000000  0.556847  0.869654  1
  Re  Re8  1  0.000000  0.638559  0.319304  1
  Re  Re9  1  0.000000  0.360573  0.680759  1
  Re  Re10  1  0.000000  0.140129  0.179955  1
  Re  Re11  1  0.000000  0.860401  0.819533  1
  B  B12  1  0.500000  0.553928  0.431351  1
  B  B13  1  0.500000  0.445409  0.568837  1
  B  B14  1  0.500000  0.054615  0.068353  1
  B  B15  1  0.500000  0.945514  0.931207  1
  B  B16  1  0.500000  0.749090  0.416727  1
  B  B17  1  0.500000  0.249604  0.583342  1
  B  B18  1  0.500000  0.250740  0.083002  1
  B  B19  1  0.500000  0.749479  0.916744  1
  B  B20  1  0.500000  0.791254  0.265486  1
  B  B21  1  0.500000  0.207832  0.734292  1
  B  B22  1  0.500000  0.292781  0.234000  1
  B  B23  1  0.500000  0.707685  0.765833  1
  B  B24  1  0.500000  0.629324  0.185278  1
  B  B25  1  0.500000  0.370355  0.814455  1
  B  B26  1  0.500000  0.130713  0.313775  1
  B  B27  1  0.500000  0.870247  0.685724  1
  B  B28  1  0.500000  0.983645  0.212377  1
  B  B29  1  0.500000  0.016941  0.786975  1
  B  B30  1  0.500000  0.482683  0.286713  1
  B  B31  1  0.500000  0.517008  0.713143  1
  B  B32  1  0.500000  0.596557  0.026675  1
  B  B33  1  0.500000  0.403450  0.973130  1
  B  B34  1  0.500000  0.097977  0.474207  1
  B  B35  1  0.500000  0.903193  0.528108  1
