# generated using pymatgen
data_GeSe31
_symmetry_space_group_name_H-M   'P 1'
_cell_length_a   12.52299241
_cell_length_b   15.09828562
_cell_length_c   6.33638047
_cell_angle_alpha   94.54968388
_cell_angle_beta   90.70537532
_cell_angle_gamma   87.69216984
_symmetry_Int_Tables_number   1
_chemical_formula_structural   GeSe31
_chemical_formula_sum   'Ge1 Se31'
_cell_volume   1193.26184550
_cell_formula_units_Z   1
loop_
 _symmetry_equiv_pos_site_id
 _symmetry_equiv_pos_as_xyz
  1  'x, y, z'
loop_
 _atom_site_type_symbol
 _atom_site_label
 _atom_site_symmetry_multiplicity
 _atom_site_fract_x
 _atom_site_fract_y
 _atom_site_fract_z
 _atom_site_occupancy
  Ge  Ge0  1  0.957468  0.841692  0.962986  1
  Se  Se1  1  0.061101  0.592063  0.486846  1
  Se  Se2  1  0.063291  0.356435  0.777907  1
  Se  Se3  1  0.984223  0.410890  0.091292  1
  Se  Se4  1  0.056555  0.563854  0.131198  1
  Se  Se5  1  0.590108  0.885687  0.792245  1
  Se  Se6  1  0.471523  0.038048  0.044399  1
  Se  Se7  1  0.553625  0.045709  0.364626  1
  Se  Se8  1  0.490383  0.906958  0.491072  1
  Se  Se9  1  0.836801  0.981448  0.963586  1
  Se  Se10  1  0.201352  0.032520  0.777815  1
  Se  Se11  1  0.530918  0.323745  0.323064  1
  Se  Se12  1  0.445960  0.645300  0.272675  1
  Se  Se13  1  0.642868  0.523662  0.627927  1
  Se  Se14  1  0.253468  0.518362  0.561226  1
  Se  Se15  1  0.029555  0.146219  0.204565  1
  Se  Se16  1  0.023262  0.865413  0.318325  1
  Se  Se17  1  0.825059  0.728143  0.885652  1
  Se  Se18  1  0.235991  0.286645  0.881532  1
  Se  Se19  1  0.812659  0.271132  0.514443  1
  Se  Se20  1  0.166737  0.752821  0.135677  1
  Se  Se21  1  0.742837  0.798693  0.609502  1
  Se  Se22  1  0.268687  0.171564  0.630572  1
  Se  Se23  1  0.714064  0.248222  0.222600  1
  Se  Se24  1  0.130893  0.807868  0.801678  1
  Se  Se25  1  0.864590  0.993760  0.320257  1
  Se  Se26  1  0.216875  0.068697  0.130004  1
  Se  Se27  1  0.559138  0.372055  0.660790  1
  Se  Se28  1  0.391832  0.664681  0.605332  1
  Se  Se29  1  0.621798  0.548349  0.287274  1
  Se  Se30  1  0.303120  0.474487  0.236324  1
  Se  Se31  1  0.953257  0.134875  0.886607  1
