# generated using pymatgen
data_Pr3ThCdRu
_symmetry_space_group_name_H-M   'P 1'
_cell_length_a   9.99883710
_cell_length_b   9.99896162
_cell_length_c   9.99902400
_cell_angle_alpha   60.00084535
_cell_angle_beta   60.00008099
_cell_angle_gamma   60.00002479
_symmetry_Int_Tables_number   1
_chemical_formula_structural   Pr3ThCdRu
_chemical_formula_sum   'Pr12 Th4 Cd4 Ru4'
_cell_volume   706.88721827
_cell_formula_units_Z   4
loop_
 _symmetry_equiv_pos_site_id
 _symmetry_equiv_pos_as_xyz
  1  'x, y, z'
loop_
 _atom_site_type_symbol
 _atom_site_label
 _atom_site_symmetry_multiplicity
 _atom_site_fract_x
 _atom_site_fract_y
 _atom_site_fract_z
 _atom_site_occupancy
  Pr  Pr0  1  0.560177  0.560178  0.939824  1
  Pr  Pr1  1  0.939815  0.560179  0.939824  1
  Pr  Pr2  1  0.560175  0.939823  0.939822  1
  Pr  Pr3  1  0.939814  0.939826  0.560180  1
  Pr  Pr4  1  0.560177  0.939826  0.560177  1
  Pr  Pr5  1  0.939817  0.560181  0.560181  1
  Pr  Pr6  1  0.191576  0.191578  0.808425  1
  Pr  Pr7  1  0.808414  0.191577  0.808431  1
  Pr  Pr8  1  0.191579  0.808419  0.808420  1
  Pr  Pr9  1  0.808415  0.808430  0.191576  1
  Pr  Pr10  1  0.191577  0.808424  0.191575  1
  Pr  Pr11  1  0.808417  0.191578  0.191576  1
  Th  Th12  1  0.343753  0.343735  0.968779  1
  Th  Th13  1  0.343749  0.968784  0.343737  1
  Th  Th14  1  0.968779  0.343738  0.343746  1
  Th  Th15  1  0.343751  0.343730  0.343736  1
  Cd  Cd16  1  0.579282  0.579284  0.262146  1
  Cd  Cd17  1  0.579284  0.262144  0.579283  1
  Cd  Cd18  1  0.262145  0.579285  0.579282  1
  Cd  Cd19  1  0.579283  0.579285  0.579286  1
  Ru  Ru20  1  0.145512  0.145511  0.563469  1
  Ru  Ru21  1  0.145512  0.563470  0.145511  1
  Ru  Ru22  1  0.563482  0.145506  0.145505  1
  Ru  Ru23  1  0.145512  0.145510  0.145508  1
