# generated using pymatgen
data_Hf15Zr(NbPt3)2
_symmetry_space_group_name_H-M   'P 1'
_cell_length_a   8.89189472
_cell_length_b   8.89566965
_cell_length_c   8.78615160
_cell_angle_alpha   60.50107462
_cell_angle_beta   60.39878084
_cell_angle_gamma   60.30609703
_symmetry_Int_Tables_number   1
_chemical_formula_structural   Hf15Zr(NbPt3)2
_chemical_formula_sum   'Hf15 Zr1 Nb2 Pt6'
_cell_volume   495.88882943
_cell_formula_units_Z   1
loop_
 _symmetry_equiv_pos_site_id
 _symmetry_equiv_pos_as_xyz
  1  'x, y, z'
loop_
 _atom_site_type_symbol
 _atom_site_label
 _atom_site_symmetry_multiplicity
 _atom_site_fract_x
 _atom_site_fract_y
 _atom_site_fract_z
 _atom_site_occupancy
  Hf  Hf0  1  0.098482  0.629111  0.636035  1
  Hf  Hf1  1  0.628737  0.099473  0.636102  1
  Hf  Hf2  1  0.638808  0.637194  0.082579  1
  Hf  Hf3  1  0.638721  0.638505  0.640940  1
  Hf  Hf4  1  0.794512  0.790848  0.207676  1
  Hf  Hf5  1  0.197437  0.197493  0.801649  1
  Hf  Hf6  1  0.806502  0.196196  0.799100  1
  Hf  Hf7  1  0.195802  0.804739  0.198492  1
  Hf  Hf8  1  0.196559  0.805828  0.799062  1
  Hf  Hf9  1  0.806829  0.195642  0.197773  1
  Hf  Hf10  1  0.432445  0.432705  0.067223  1
  Hf  Hf11  1  0.064067  0.066220  0.435495  1
  Hf  Hf12  1  0.432268  0.062387  0.433202  1
  Hf  Hf13  1  0.061602  0.432023  0.073721  1
  Hf  Hf14  1  0.062785  0.430874  0.431730  1
  Zr  Zr15  1  0.430370  0.062850  0.075674  1
  Nb  Nb16  1  0.757368  0.415493  0.413602  1
  Nb  Nb17  1  0.415308  0.757843  0.413520  1
  Pt  Pt18  1  0.417621  0.421111  0.755704  1
  Pt  Pt19  1  0.417663  0.417554  0.406246  1
  Pt  Pt20  1  0.435699  0.860598  0.852044  1
  Pt  Pt21  1  0.861042  0.435353  0.851720  1
  Pt  Pt22  1  0.854653  0.855251  0.442255  1
  Pt  Pt23  1  0.854724  0.854712  0.848459  1
