# generated using pymatgen
data_Ta4Sn2PbO13
_symmetry_space_group_name_H-M   'P 1'
_cell_length_a   7.59318716
_cell_length_b   7.58578810
_cell_length_c   7.58578822
_cell_angle_alpha   59.58025535
_cell_angle_beta   59.59206500
_cell_angle_gamma   59.59207650
_symmetry_Int_Tables_number   1
_chemical_formula_structural   Ta4Sn2PbO13
_chemical_formula_sum   'Ta4 Sn2 Pb1 O13'
_cell_volume   306.07335155
_cell_formula_units_Z   1
loop_
 _symmetry_equiv_pos_site_id
 _symmetry_equiv_pos_as_xyz
  1  'x, y, z'
loop_
 _atom_site_type_symbol
 _atom_site_label
 _atom_site_symmetry_multiplicity
 _atom_site_fract_x
 _atom_site_fract_y
 _atom_site_fract_z
 _atom_site_occupancy
  Ta  Ta0  1  0.496738  0.498460  0.498460  1
  Ta  Ta1  1  0.997447  0.502970  0.502970  1
  Ta  Ta2  1  0.502774  0.500234  0.998958  1
  Ta  Ta3  1  0.502774  0.998958  0.500234  1
  Sn  Sn4  1  0.029741  0.027699  0.500484  1
  Sn  Sn5  1  0.029741  0.500484  0.027699  1
  Pb  Pb6  1  0.512270  0.011325  0.011325  1
  O  O7  1  0.811368  0.427318  0.427318  1
  O  O8  1  0.437997  0.803002  0.803002  1
  O  O9  1  0.423324  0.431043  0.813046  1
  O  O10  1  0.800776  0.801357  0.435635  1
  O  O11  1  0.800776  0.435635  0.801357  1
  O  O12  1  0.423324  0.813046  0.431043  1
  O  O13  1  0.187842  0.553498  0.553498  1
  O  O14  1  0.553539  0.182945  0.182945  1
  O  O15  1  0.552000  0.558851  0.187399  1
  O  O16  1  0.180353  0.180810  0.549458  1
  O  O17  1  0.180353  0.549458  0.180810  1
  O  O18  1  0.552000  0.187399  0.558851  1
  O  O19  1  0.149858  0.160506  0.160506  1
