# generated using pymatgen
data_Tb2YbUS4
_symmetry_space_group_name_H-M   'P 1'
_cell_length_a   13.17066297
_cell_length_b   13.17066321
_cell_length_c   13.17066360
_cell_angle_alpha   16.96885793
_cell_angle_beta   16.96885243
_cell_angle_gamma   16.96885501
_symmetry_Int_Tables_number   1
_chemical_formula_structural   Tb2YbUS4
_chemical_formula_sum   'Tb2 Yb1 U1 S4'
_cell_volume   169.76213776
_cell_formula_units_Z   1
loop_
 _symmetry_equiv_pos_site_id
 _symmetry_equiv_pos_as_xyz
  1  'x, y, z'
loop_
 _atom_site_type_symbol
 _atom_site_label
 _atom_site_symmetry_multiplicity
 _atom_site_fract_x
 _atom_site_fract_y
 _atom_site_fract_z
 _atom_site_occupancy
  Tb  Tb0  1  0.247724  0.247724  0.247724  1
  Tb  Tb1  1  0.752276  0.752276  0.752276  1
  Yb  Yb2  1  0.000000  0.000000  0.000000  1
  U  U3  1  0.500000  0.500000  0.500000  1
  S  S4  1  0.375335  0.375335  0.375335  1
  S  S5  1  0.125480  0.125480  0.125480  1
  S  S6  1  0.624665  0.624665  0.624665  1
  S  S7  1  0.874520  0.874520  0.874520  1
