# generated using pymatgen
data_Ce12Mn4Al6CuAu
_symmetry_space_group_name_H-M   'P 1'
_cell_length_a   7.77067001
_cell_length_b   7.81881523
_cell_length_c   9.68850063
_cell_angle_alpha   88.30113366
_cell_angle_beta   90.03280206
_cell_angle_gamma   119.78169350
_symmetry_Int_Tables_number   1
_chemical_formula_structural   Ce12Mn4Al6CuAu
_chemical_formula_sum   'Ce12 Mn4 Al6 Cu1 Au1'
_cell_volume   510.60968670
_cell_formula_units_Z   1
loop_
 _symmetry_equiv_pos_site_id
 _symmetry_equiv_pos_as_xyz
  1  'x, y, z'
loop_
 _atom_site_type_symbol
 _atom_site_label
 _atom_site_symmetry_multiplicity
 _atom_site_fract_x
 _atom_site_fract_y
 _atom_site_fract_z
 _atom_site_occupancy
  Ce  Ce0  1  0.998002  0.617315  0.526509  1
  Ce  Ce1  1  0.550776  0.988756  0.495082  1
  Ce  Ce2  1  0.445204  0.436335  0.498013  1
  Ce  Ce3  1  0.989929  0.433798  0.995921  1
  Ce  Ce4  1  0.435743  0.988421  0.994558  1
  Ce  Ce5  1  0.610614  0.607890  0.018035  1
  Ce  Ce6  1  0.008204  0.750368  0.178556  1
  Ce  Ce7  1  0.727515  0.975567  0.166560  1
  Ce  Ce8  1  0.288248  0.264641  0.160767  1
  Ce  Ce9  1  0.982352  0.264217  0.670330  1
  Ce  Ce10  1  0.252858  0.985246  0.669543  1
  Ce  Ce11  1  0.742600  0.750275  0.678347  1
  Mn  Mn12  1  0.352073  0.997994  0.340381  1
  Mn  Mn13  1  0.647045  0.645438  0.345441  1
  Mn  Mn14  1  0.997170  0.643400  0.845543  1
  Mn  Mn15  1  0.644740  0.997803  0.840035  1
  Al  Al16  1  0.673896  0.335836  0.274066  1
  Al  Al17  1  0.330872  0.663365  0.274367  1
  Al  Al18  1  0.333507  0.661550  0.774679  1
  Al  Al19  1  0.657344  0.336111  0.775284  1
  Al  Al20  1  0.003743  0.999128  0.416812  1
  Al  Al21  1  0.998915  0.999123  0.916443  1
  Cu  Cu22  1  0.328109  0.328540  0.835926  1
  Au  Au23  1  0.000547  0.328884  0.338047  1
