# generated using pymatgen
data_CaTb3MgSb3O14
_symmetry_space_group_name_H-M   'P 1'
_cell_length_a   7.29888961
_cell_length_b   7.29889048
_cell_length_c   7.29888812
_cell_angle_alpha   118.75560894
_cell_angle_beta   61.24439582
_cell_angle_gamma   118.75561278
_symmetry_Int_Tables_number   1
_chemical_formula_structural   CaTb3MgSb3O14
_chemical_formula_sum   'Ca1 Tb3 Mg1 Sb3 O14'
_cell_volume   282.64499450
_cell_formula_units_Z   1
loop_
 _symmetry_equiv_pos_site_id
 _symmetry_equiv_pos_as_xyz
  1  'x, y, z'
loop_
 _atom_site_type_symbol
 _atom_site_label
 _atom_site_symmetry_multiplicity
 _atom_site_fract_x
 _atom_site_fract_y
 _atom_site_fract_z
 _atom_site_occupancy
  Ca  Ca0  1  0.499999  0.500001  0.000000  1
  Tb  Tb1  1  0.999999  0.500000  0.000001  1
  Tb  Tb2  1  0.500001  0.000001  0.999998  1
  Tb  Tb3  1  0.500001  0.500001  0.499999  1
  Mg  Mg4  1  0.000001  0.000000  0.500002  1
  Sb  Sb5  1  0.500003  0.999996  0.500003  1
  Sb  Sb6  1  0.999999  0.500002  0.499995  1
  Sb  Sb7  1  0.000000  0.000003  0.999999  1
  O  O8  1  0.626989  0.373011  0.126988  1
  O  O9  1  0.373011  0.626991  0.873011  1
  O  O10  1  0.080979  0.327053  0.172946  1
  O  O11  1  0.672945  0.919019  0.172944  1
  O  O12  1  0.672944  0.327056  0.580983  1
  O  O13  1  0.919020  0.672944  0.827056  1
  O  O14  1  0.327054  0.080978  0.827054  1
  O  O15  1  0.327056  0.672944  0.419018  1
  O  O16  1  0.655128  0.912786  0.587212  1
  O  O17  1  0.087216  0.344872  0.587215  1
  O  O18  1  0.087213  0.912785  0.155130  1
  O  O19  1  0.344872  0.087216  0.412784  1
  O  O20  1  0.912786  0.655127  0.412787  1
  O  O21  1  0.912786  0.087214  0.844872  1
