# generated using pymatgen
data_HoEr2ThPt4
_symmetry_space_group_name_H-M   'P 1'
_cell_length_a   4.55888900
_cell_length_b   5.62205246
_cell_length_c   7.04148208
_cell_angle_alpha   89.69062337
_cell_angle_beta   90.00000000
_cell_angle_gamma   90.00000000
_symmetry_Int_Tables_number   1
_chemical_formula_structural   HoEr2ThPt4
_chemical_formula_sum   'Ho1 Er2 Th1 Pt4'
_cell_volume   180.47275968
_cell_formula_units_Z   1
loop_
 _symmetry_equiv_pos_site_id
 _symmetry_equiv_pos_as_xyz
  1  'x, y, z'
loop_
 _atom_site_type_symbol
 _atom_site_label
 _atom_site_symmetry_multiplicity
 _atom_site_fract_x
 _atom_site_fract_y
 _atom_site_fract_z
 _atom_site_occupancy
  Ho  Ho0  1  0.750000  0.356928  0.813965  1
  Er  Er1  1  0.750000  0.142098  0.321739  1
  Er  Er2  1  0.250000  0.859847  0.682742  1
  Th  Th3  1  0.250000  0.640726  0.182477  1
  Pt  Pt4  1  0.250000  0.157730  0.042663  1
  Pt  Pt5  1  0.750000  0.843348  0.951667  1
  Pt  Pt6  1  0.750000  0.658867  0.459941  1
  Pt  Pt7  1  0.250000  0.340455  0.544806  1
