# generated using pymatgen
data_Li3Sc(ZnPt2)4
_symmetry_space_group_name_H-M   'P 1'
_cell_length_a   5.72608600
_cell_length_b   5.72614600
_cell_length_c   7.10400700
_cell_angle_alpha   89.99986513
_cell_angle_beta   90.00056858
_cell_angle_gamma   89.99997999
_symmetry_Int_Tables_number   1
_chemical_formula_structural   Li3Sc(ZnPt2)4
_chemical_formula_sum   'Li3 Sc1 Zn4 Pt8'
_cell_volume   232.92905469
_cell_formula_units_Z   1
loop_
 _symmetry_equiv_pos_site_id
 _symmetry_equiv_pos_as_xyz
  1  'x, y, z'
loop_
 _atom_site_type_symbol
 _atom_site_label
 _atom_site_symmetry_multiplicity
 _atom_site_fract_x
 _atom_site_fract_y
 _atom_site_fract_z
 _atom_site_occupancy
  Li  Li0  1  0.750316  0.249994  0.000010  1
  Li  Li1  1  0.249651  0.749996  0.999996  1
  Li  Li2  1  0.250331  0.749993  0.500006  1
  Sc  Sc3  1  0.749888  0.250030  0.499961  1
  Zn  Zn4  1  0.249946  0.249990  0.999993  1
  Zn  Zn5  1  0.750020  0.749997  0.000011  1
  Zn  Zn6  1  0.749971  0.750017  0.499993  1
  Zn  Zn7  1  0.249964  0.249991  0.500024  1
  Pt  Pt8  1  0.496148  0.996186  0.245927  1
  Pt  Pt9  1  0.496145  0.503807  0.245924  1
  Pt  Pt10  1  0.003797  0.996172  0.246104  1
  Pt  Pt11  1  0.003803  0.503827  0.246098  1
  Pt  Pt12  1  0.003811  0.996171  0.753896  1
  Pt  Pt13  1  0.003818  0.503827  0.753901  1
  Pt  Pt14  1  0.496197  0.996193  0.754077  1
  Pt  Pt15  1  0.496196  0.503808  0.754083  1
