# generated using pymatgen
data_Ti3(NbP)4
_symmetry_space_group_name_H-M   'P 1'
_cell_length_a   7.67487907
_cell_length_b   7.67487885
_cell_length_c   13.75439394
_cell_angle_alpha   75.72228927
_cell_angle_beta   75.72229006
_cell_angle_gamma   25.89844477
_symmetry_Int_Tables_number   1
_chemical_formula_structural   Ti3(NbP)4
_chemical_formula_sum   'Ti6 Nb8 P8'
_cell_volume   342.35268810
_cell_formula_units_Z   2
loop_
 _symmetry_equiv_pos_site_id
 _symmetry_equiv_pos_as_xyz
  1  'x, y, z'
loop_
 _atom_site_type_symbol
 _atom_site_label
 _atom_site_symmetry_multiplicity
 _atom_site_fract_x
 _atom_site_fract_y
 _atom_site_fract_z
 _atom_site_occupancy
  Ti  Ti0  1  0.999969  0.999969  0.999808  1
  Ti  Ti1  1  0.662368  0.662368  0.030744  1
  Ti  Ti2  1  0.003807  0.003807  0.334922  1
  Ti  Ti3  1  0.996545  0.996545  0.664237  1
  Ti  Ti4  1  0.177789  0.177789  0.458205  1
  Ti  Ti5  1  0.822242  0.822242  0.541650  1
  Nb  Nb6  1  0.500034  0.500034  0.499864  1
  Nb  Nb7  1  0.429105  0.429105  0.170820  1
  Nb  Nb8  1  0.570863  0.570863  0.829374  1
  Nb  Nb9  1  0.196740  0.196740  0.688593  1
  Nb  Nb10  1  0.802956  0.802956  0.311662  1
  Nb  Nb11  1  0.207503  0.207503  0.201452  1
  Nb  Nb12  1  0.792206  0.792206  0.797932  1
  Nb  Nb13  1  0.337200  0.337200  0.970018  1
  P  P14  1  0.174871  0.174871  0.893773  1
  P  P15  1  0.824543  0.824543  0.109558  1
  P  P16  1  0.375837  0.375837  0.399097  1
  P  P17  1  0.624544  0.624544  0.600557  1
  P  P18  1  0.371410  0.371410  0.660801  1
  P  P19  1  0.628784  0.628784  0.339156  1
  P  P20  1  0.060935  0.060935  0.150204  1
  P  P21  1  0.939750  0.939750  0.847574  1
