# generated using pymatgen
data_Tb19HoTc2(NiSb4)2
_symmetry_space_group_name_H-M   'P 1'
_cell_length_a   7.93532410
_cell_length_b   8.87713200
_cell_length_c   12.24991516
_cell_angle_alpha   90.00000000
_cell_angle_beta   89.98150983
_cell_angle_gamma   90.00000000
_symmetry_Int_Tables_number   1
_chemical_formula_structural   Tb19HoTc2(NiSb4)2
_chemical_formula_sum   'Tb19 Ho1 Tc2 Ni2 Sb8'
_cell_volume   862.91974287
_cell_formula_units_Z   1
loop_
 _symmetry_equiv_pos_site_id
 _symmetry_equiv_pos_as_xyz
  1  'x, y, z'
loop_
 _atom_site_type_symbol
 _atom_site_label
 _atom_site_symmetry_multiplicity
 _atom_site_fract_x
 _atom_site_fract_y
 _atom_site_fract_z
 _atom_site_occupancy
  Tb  Tb0  1  0.322089  0.539350  0.435604  1
  Tb  Tb1  1  0.872816  0.250000  0.802733  1
  Tb  Tb2  1  0.178152  0.539388  0.935707  1
  Tb  Tb3  1  0.322089  0.960650  0.435604  1
  Tb  Tb4  1  0.125292  0.750000  0.199056  1
  Tb  Tb5  1  0.839836  0.750000  0.787422  1
  Tb  Tb6  1  0.374797  0.750000  0.699317  1
  Tb  Tb7  1  0.951537  0.750000  0.501698  1
  Tb  Tb8  1  0.453480  0.250000  0.996987  1
  Tb  Tb9  1  0.681750  0.458086  0.566696  1
  Tb  Tb10  1  0.818074  0.041403  0.066308  1
  Tb  Tb11  1  0.660201  0.750000  0.286490  1
  Tb  Tb12  1  0.046268  0.250000  0.497091  1
  Tb  Tb13  1  0.681750  0.041914  0.566696  1
  Tb  Tb14  1  0.178152  0.960612  0.935707  1
  Tb  Tb15  1  0.626860  0.250000  0.302352  1
  Tb  Tb16  1  0.341973  0.250000  0.707381  1
  Tb  Tb17  1  0.818074  0.458597  0.066308  1
  Tb  Tb18  1  0.158389  0.250000  0.206998  1
  Ho  Ho19  1  0.548232  0.750000  0.001684  1
  Tc  Tc20  1  0.919474  0.750000  0.014346  1
  Tc  Tc21  1  0.580173  0.750000  0.514088  1
  Ni  Ni22  1  0.077268  0.250000  0.985742  1
  Ni  Ni23  1  0.422796  0.250000  0.485783  1
  Sb  Sb24  1  0.928635  0.490760  0.328038  1
  Sb  Sb25  1  0.427696  0.507444  0.171713  1
  Sb  Sb26  1  0.427696  0.992556  0.171713  1
  Sb  Sb27  1  0.571251  0.491361  0.828872  1
  Sb  Sb28  1  0.072657  0.506862  0.672478  1
  Sb  Sb29  1  0.571251  0.008639  0.828872  1
  Sb  Sb30  1  0.928635  0.009240  0.328038  1
  Sb  Sb31  1  0.072657  0.993138  0.672478  1
