# generated using pymatgen
data_Nd5Gd5Pt8
_symmetry_space_group_name_H-M   'P 1'
_cell_length_a   7.64851900
_cell_length_b   7.83533810
_cell_length_c   14.78259400
_cell_angle_alpha   89.94900273
_cell_angle_beta   90.00000000
_cell_angle_gamma   90.00000000
_symmetry_Int_Tables_number   1
_chemical_formula_structural   Nd5Gd5Pt8
_chemical_formula_sum   'Nd10 Gd10 Pt16'
_cell_volume   885.90176846
_cell_formula_units_Z   2
loop_
 _symmetry_equiv_pos_site_id
 _symmetry_equiv_pos_as_xyz
  1  'x, y, z'
loop_
 _atom_site_type_symbol
 _atom_site_label
 _atom_site_symmetry_multiplicity
 _atom_site_fract_x
 _atom_site_fract_y
 _atom_site_fract_z
 _atom_site_occupancy
  Nd  Nd0  1  0.336856  0.833129  0.120393  1
  Nd  Nd1  1  0.836856  0.666871  0.379607  1
  Nd  Nd2  1  0.991723  0.180395  0.094073  1
  Nd  Nd3  1  0.491723  0.319605  0.405927  1
  Nd  Nd4  1  0.507375  0.678450  0.902667  1
  Nd  Nd5  1  0.007375  0.821550  0.597333  1
  Nd  Nd6  1  0.006841  0.821235  0.903608  1
  Nd  Nd7  1  0.506841  0.678765  0.596392  1
  Nd  Nd8  1  0.493436  0.322882  0.094401  1
  Nd  Nd9  1  0.993436  0.177118  0.405599  1
  Gd  Gd10  1  0.837038  0.666440  0.122153  1
  Gd  Gd11  1  0.337038  0.833560  0.377847  1
  Gd  Gd12  1  0.662816  0.165930  0.877609  1
  Gd  Gd13  1  0.162816  0.334070  0.622391  1
  Gd  Gd14  1  0.162490  0.334801  0.877245  1
  Gd  Gd15  1  0.662490  0.165199  0.622755  1
  Gd  Gd16  1  0.675646  0.013282  0.249580  1
  Gd  Gd17  1  0.175646  0.486718  0.250420  1
  Gd  Gd18  1  0.824915  0.509027  0.750383  1
  Gd  Gd19  1  0.324915  0.990973  0.749617  1
  Pt  Pt20  1  0.040144  0.884013  0.250063  1
  Pt  Pt21  1  0.540144  0.615987  0.249937  1
  Pt  Pt22  1  0.459316  0.378632  0.749658  1
  Pt  Pt23  1  0.959316  0.121368  0.750342  1
  Pt  Pt24  1  0.805251  0.359696  0.249173  1
  Pt  Pt25  1  0.305251  0.140304  0.250827  1
  Pt  Pt26  1  0.697366  0.861557  0.750016  1
  Pt  Pt27  1  0.197366  0.638443  0.749984  1
  Pt  Pt28  1  0.820545  0.466444  0.956213  1
  Pt  Pt29  1  0.320545  0.033556  0.543787  1
  Pt  Pt30  1  0.681242  0.966044  0.041903  1
  Pt  Pt31  1  0.181242  0.533956  0.458097  1
  Pt  Pt32  1  0.172982  0.529908  0.043025  1
  Pt  Pt33  1  0.672982  0.970092  0.456975  1
  Pt  Pt34  1  0.324015  0.035170  0.952842  1
  Pt  Pt35  1  0.824015  0.464830  0.547158  1
