# generated using pymatgen
data_PrAgRu2O7
_symmetry_space_group_name_H-M   'P 1'
_cell_length_a   7.29787956
_cell_length_b   7.47101451
_cell_length_c   7.29787995
_cell_angle_alpha   59.21206405
_cell_angle_beta   59.39229556
_cell_angle_gamma   59.21206461
_symmetry_Int_Tables_number   1
_chemical_formula_structural   PrAgRu2O7
_chemical_formula_sum   'Pr2 Ag2 Ru4 O14'
_cell_volume   276.69148150
_cell_formula_units_Z   2
loop_
 _symmetry_equiv_pos_site_id
 _symmetry_equiv_pos_as_xyz
  1  'x, y, z'
loop_
 _atom_site_type_symbol
 _atom_site_label
 _atom_site_symmetry_multiplicity
 _atom_site_fract_x
 _atom_site_fract_y
 _atom_site_fract_z
 _atom_site_occupancy
  Pr  Pr0  1  0.625000  0.125000  0.625000  1
  Pr  Pr1  1  0.625000  0.625000  0.625000  1
  Ag  Ag2  1  0.625000  0.625000  0.125000  1
  Ag  Ag3  1  0.125000  0.625000  0.625000  1
  Ru  Ru4  1  0.125000  0.125000  0.625000  1
  Ru  Ru5  1  0.125000  0.625000  0.125000  1
  Ru  Ru6  1  0.625000  0.125000  0.125000  1
  Ru  Ru7  1  0.125000  0.125000  0.125000  1
  O  O8  1  0.765015  0.734985  0.765015  1
  O  O9  1  0.484985  0.515015  0.484985  1
  O  O10  1  0.063305  0.436695  0.063305  1
  O  O11  1  0.793401  0.206599  0.793401  1
  O  O12  1  0.051958  0.059619  0.446474  1
  O  O13  1  0.446474  0.059619  0.051958  1
  O  O14  1  0.051958  0.441950  0.446474  1
  O  O15  1  0.446474  0.441950  0.051958  1
  O  O16  1  0.456599  0.043401  0.456599  1
  O  O17  1  0.198042  0.808050  0.803526  1
  O  O18  1  0.803526  0.190381  0.198042  1
  O  O19  1  0.186695  0.813305  0.186695  1
  O  O20  1  0.803526  0.808050  0.198042  1
  O  O21  1  0.198042  0.190381  0.803526  1
