# generated using pymatgen
data_Yb3CuNi8
_symmetry_space_group_name_H-M   'P 1'
_cell_length_a   8.48304540
_cell_length_b   8.48304538
_cell_length_c   8.48304611
_cell_angle_alpha   33.44264142
_cell_angle_beta   33.44263919
_cell_angle_gamma   33.44263749
_symmetry_Int_Tables_number   1
_chemical_formula_structural   Yb3CuNi8
_chemical_formula_sum   'Yb3 Cu1 Ni8'
_cell_volume   165.11265301
_cell_formula_units_Z   1
loop_
 _symmetry_equiv_pos_site_id
 _symmetry_equiv_pos_as_xyz
  1  'x, y, z'
loop_
 _atom_site_type_symbol
 _atom_site_label
 _atom_site_symmetry_multiplicity
 _atom_site_fract_x
 _atom_site_fract_y
 _atom_site_fract_z
 _atom_site_occupancy
  Yb  Yb0  1  0.000095  0.000095  0.000095  1
  Yb  Yb1  1  0.140175  0.140175  0.140175  1
  Yb  Yb2  1  0.859456  0.859456  0.859456  1
  Cu  Cu3  1  0.333118  0.333118  0.333118  1
  Ni  Ni4  1  0.667369  0.667369  0.667369  1
  Ni  Ni5  1  0.499870  0.499870  0.499870  1
  Ni  Ni6  1  0.584043  0.081130  0.584044  1
  Ni  Ni7  1  0.584043  0.584043  0.081132  1
  Ni  Ni8  1  0.081130  0.584043  0.584044  1
  Ni  Ni9  1  0.916135  0.417283  0.417283  1
  Ni  Ni10  1  0.417284  0.417284  0.916134  1
  Ni  Ni11  1  0.417283  0.916135  0.417283  1
