# generated using pymatgen
data_LuTe35
_symmetry_space_group_name_H-M   'P 1'
_cell_length_a   4.06689400
_cell_length_b   11.65570467
_cell_length_c   27.84982411
_cell_angle_alpha   83.31877646
_cell_angle_beta   90.00000000
_cell_angle_gamma   90.00000000
_symmetry_Int_Tables_number   1
_chemical_formula_structural   LuTe35
_chemical_formula_sum   'Lu1 Te35'
_cell_volume   1311.18634249
_cell_formula_units_Z   1
loop_
 _symmetry_equiv_pos_site_id
 _symmetry_equiv_pos_as_xyz
  1  'x, y, z'
loop_
 _atom_site_type_symbol
 _atom_site_label
 _atom_site_symmetry_multiplicity
 _atom_site_fract_x
 _atom_site_fract_y
 _atom_site_fract_z
 _atom_site_occupancy
  Lu  Lu0  1  0.250000  0.932418  0.468949  1
  Te  Te1  1  0.250000  0.153973  0.398519  1
  Te  Te2  1  0.750000  0.819733  0.544463  1
  Te  Te3  1  0.750000  0.640010  0.109854  1
  Te  Te4  1  0.250000  0.345858  0.882314  1
  Te  Te5  1  0.250000  0.442537  0.301108  1
  Te  Te6  1  0.750000  0.531860  0.662504  1
  Te  Te7  1  0.750000  0.949930  0.128418  1
  Te  Te8  1  0.250000  0.060678  0.841065  1
  Te  Te9  1  0.250000  0.824968  0.269856  1
  Te  Te10  1  0.750000  0.209565  0.764266  1
  Te  Te11  1  0.750000  0.315611  0.240689  1
  Te  Te12  1  0.250000  0.743504  0.785991  1
  Te  Te13  1  0.250000  0.172406  0.010866  1
  Te  Te14  1  0.750000  0.823155  0.982074  1
  Te  Te15  1  0.750000  0.579226  0.470810  1
  Te  Te16  1  0.250000  0.313952  0.563959  1
  Te  Te17  1  0.250000  0.550403  0.175440  1
  Te  Te18  1  0.750000  0.494927  0.832738  1
  Te  Te19  1  0.750000  0.941426  0.384074  1
  Te  Te20  1  0.250000  0.035525  0.672323  1
  Te  Te21  1  0.250000  0.588020  0.003977  1
  Te  Te22  1  0.750000  0.420702  0.992895  1
  Te  Te23  1  0.750000  0.063141  0.525239  1
  Te  Te24  1  0.250000  0.876004  0.055644  1
  Te  Te25  1  0.750000  0.139337  0.929716  1
  Te  Te26  1  0.750000  0.298603  0.438619  1
  Te  Te27  1  0.250000  0.546895  0.572529  1
  Te  Te28  1  0.250000  0.716179  0.415450  1
  Te  Te29  1  0.750000  0.224417  0.647491  1
  Te  Te30  1  0.750000  0.185979  0.092867  1
  Te  Te31  1  0.250000  0.818122  0.876994  1
  Te  Te32  1  0.250000  0.170479  0.200844  1
  Te  Te33  1  0.750000  0.961056  0.751782  1
  Te  Te34  1  0.750000  0.648985  0.270550  1
  Te  Te35  1  0.250000  0.460419  0.735129  1
