# generated using pymatgen
data_Yb5Ni2Hg
_symmetry_space_group_name_H-M   'P 1'
_cell_length_a   8.87330955
_cell_length_b   8.87330956
_cell_length_c   8.87331000
_cell_angle_alpha   129.14455645
_cell_angle_beta   129.14455650
_cell_angle_gamma   74.77808651
_symmetry_Int_Tables_number   1
_chemical_formula_structural   Yb5Ni2Hg
_chemical_formula_sum   'Yb10 Ni4 Hg2'
_cell_volume   409.35053837
_cell_formula_units_Z   2
loop_
 _symmetry_equiv_pos_site_id
 _symmetry_equiv_pos_as_xyz
  1  'x, y, z'
loop_
 _atom_site_type_symbol
 _atom_site_label
 _atom_site_symmetry_multiplicity
 _atom_site_fract_x
 _atom_site_fract_y
 _atom_site_fract_z
 _atom_site_occupancy
  Yb  Yb0  1  0.000000  0.000000  0.000000  1
  Yb  Yb1  1  0.500000  0.500000  0.000000  1
  Yb  Yb2  1  0.799263  0.299263  0.837936  1
  Yb  Yb3  1  0.200737  0.700737  0.162064  1
  Yb  Yb4  1  0.461325  0.961325  0.162064  1
  Yb  Yb5  1  0.299263  0.461325  0.500000  1
  Yb  Yb6  1  0.038675  0.200737  0.500000  1
  Yb  Yb7  1  0.538675  0.038675  0.837936  1
  Yb  Yb8  1  0.700737  0.538675  0.500000  1
  Yb  Yb9  1  0.961325  0.799263  0.500000  1
  Ni  Ni10  1  0.115158  0.615158  0.730316  1
  Ni  Ni11  1  0.884842  0.384842  0.269684  1
  Ni  Ni12  1  0.615158  0.884842  0.500000  1
  Ni  Ni13  1  0.384842  0.115158  0.500000  1
  Hg  Hg14  1  0.250000  0.250000  0.000000  1
  Hg  Hg15  1  0.750000  0.750000  0.000000  1
