# generated using pymatgen
data_Nd8ZnGeBr12
_symmetry_space_group_name_H-M   'P 1'
_cell_length_a   4.20006200
_cell_length_b   13.84027508
_cell_length_c   14.61804856
_cell_angle_alpha   89.88375486
_cell_angle_beta   90.00000000
_cell_angle_gamma   90.00000000
_symmetry_Int_Tables_number   1
_chemical_formula_structural   Nd8ZnGeBr12
_chemical_formula_sum   'Nd8 Zn1 Ge1 Br12'
_cell_volume   849.74561056
_cell_formula_units_Z   1
loop_
 _symmetry_equiv_pos_site_id
 _symmetry_equiv_pos_as_xyz
  1  'x, y, z'
loop_
 _atom_site_type_symbol
 _atom_site_label
 _atom_site_symmetry_multiplicity
 _atom_site_fract_x
 _atom_site_fract_y
 _atom_site_fract_z
 _atom_site_occupancy
  Nd  Nd0  1  0.500000  0.119379  0.339111  1
  Nd  Nd1  1  0.500000  0.880621  0.660889  1
  Nd  Nd2  1  0.500000  0.618622  0.160197  1
  Nd  Nd3  1  0.500000  0.381378  0.839803  1
  Nd  Nd4  1  0.000000  0.123426  0.582073  1
  Nd  Nd5  1  0.000000  0.876574  0.417927  1
  Nd  Nd6  1  0.000000  0.620191  0.920279  1
  Nd  Nd7  1  0.000000  0.379809  0.079721  1
  Zn  Zn8  1  0.500000  0.000000  0.500000  1
  Ge  Ge9  1  0.500000  0.500000  0.000000  1
  Br  Br10  1  0.500000  0.244871  0.162065  1
  Br  Br11  1  0.500000  0.755129  0.837935  1
  Br  Br12  1  0.500000  0.742643  0.335516  1
  Br  Br13  1  0.500000  0.257357  0.664484  1
  Br  Br14  1  0.000000  0.254122  0.411488  1
  Br  Br15  1  0.000000  0.745878  0.588512  1
  Br  Br16  1  0.000000  0.752870  0.088435  1
  Br  Br17  1  0.000000  0.247130  0.911565  1
  Br  Br18  1  0.000000  0.001138  0.244246  1
  Br  Br19  1  0.000000  0.998862  0.755754  1
  Br  Br20  1  0.000000  0.501244  0.254807  1
  Br  Br21  1  0.000000  0.498756  0.745193  1
