# generated using pymatgen
data_HoErOF4
_symmetry_space_group_name_H-M   'P 1'
_cell_length_a   6.71944968
_cell_length_b   6.71944968
_cell_length_c   5.66554376
_cell_angle_alpha   79.75506542
_cell_angle_beta   79.75506663
_cell_angle_gamma   46.34276017
_symmetry_Int_Tables_number   1
_chemical_formula_structural   HoErOF4
_chemical_formula_sum   'Ho2 Er2 O2 F8'
_cell_volume   181.57402392
_cell_formula_units_Z   2
loop_
 _symmetry_equiv_pos_site_id
 _symmetry_equiv_pos_as_xyz
  1  'x, y, z'
loop_
 _atom_site_type_symbol
 _atom_site_label
 _atom_site_symmetry_multiplicity
 _atom_site_fract_x
 _atom_site_fract_y
 _atom_site_fract_z
 _atom_site_occupancy
  Ho  Ho0  1  0.104302  0.681232  0.577861  1
  Ho  Ho1  1  0.681232  0.104302  0.077861  1
  Er  Er2  1  0.318790  0.895890  0.921666  1
  Er  Er3  1  0.895890  0.318790  0.421666  1
  O  O4  1  0.951500  0.049448  0.749418  1
  O  O5  1  0.049448  0.951500  0.249418  1
  F  F6  1  0.314529  0.516653  0.925152  1
  F  F7  1  0.516653  0.314529  0.425152  1
  F  F8  1  0.704526  0.854014  0.828932  1
  F  F9  1  0.854014  0.704526  0.328932  1
  F  F10  1  0.146393  0.293078  0.670576  1
  F  F11  1  0.293078  0.146393  0.170576  1
  F  F12  1  0.486055  0.683590  0.576396  1
  F  F13  1  0.683590  0.486055  0.076396  1
