# generated using pymatgen
data_La2Y4OsI10
_symmetry_space_group_name_H-M   'P 1'
_cell_length_a   7.88802835
_cell_length_b   9.95951878
_cell_length_c   9.87125165
_cell_angle_alpha   106.46615227
_cell_angle_beta   95.65852369
_cell_angle_gamma   105.46466073
_symmetry_Int_Tables_number   1
_chemical_formula_structural   La2Y4OsI10
_chemical_formula_sum   'La2 Y4 Os1 I10'
_cell_volume   703.92214093
_cell_formula_units_Z   1
loop_
 _symmetry_equiv_pos_site_id
 _symmetry_equiv_pos_as_xyz
  1  'x, y, z'
loop_
 _atom_site_type_symbol
 _atom_site_label
 _atom_site_symmetry_multiplicity
 _atom_site_fract_x
 _atom_site_fract_y
 _atom_site_fract_z
 _atom_site_occupancy
  La  La0  1  0.115187  0.043919  0.769879  1
  La  La1  1  0.884813  0.956081  0.230121  1
  Y  Y2  1  0.970439  0.289475  0.087562  1
  Y  Y3  1  0.029561  0.710525  0.912438  1
  Y  Y4  1  0.352186  0.127357  0.166643  1
  Y  Y5  1  0.647814  0.872643  0.833357  1
  Os  Os6  1  0.000000  0.000000  0.000000  1
  I  I7  1  0.345521  0.445096  0.268481  1
  I  I8  1  0.654479  0.554904  0.731519  1
  I  I9  1  0.268669  0.089395  0.454198  1
  I  I10  1  0.731331  0.910605  0.545802  1
  I  I11  1  0.083181  0.379313  0.825757  1
  I  I12  1  0.916819  0.620687  0.174243  1
  I  I13  1  0.447795  0.818200  0.087717  1
  I  I14  1  0.552205  0.181800  0.912283  1
  I  I15  1  0.774482  0.262049  0.340975  1
  I  I16  1  0.225518  0.737951  0.659025  1
