# generated using pymatgen
data_Tb5Dy3Sc11Si16Hg
_symmetry_space_group_name_H-M   'P 1'
_cell_length_a   7.06888312
_cell_length_b   7.41507450
_cell_length_c   14.05491023
_cell_angle_alpha   89.99783805
_cell_angle_beta   90.02071320
_cell_angle_gamma   89.88828952
_symmetry_Int_Tables_number   1
_chemical_formula_structural   Tb5Dy3Sc11Si16Hg
_chemical_formula_sum   'Tb5 Dy3 Sc11 Si16 Hg1'
_cell_volume   736.70487164
_cell_formula_units_Z   1
loop_
 _symmetry_equiv_pos_site_id
 _symmetry_equiv_pos_as_xyz
  1  'x, y, z'
loop_
 _atom_site_type_symbol
 _atom_site_label
 _atom_site_symmetry_multiplicity
 _atom_site_fract_x
 _atom_site_fract_y
 _atom_site_fract_z
 _atom_site_occupancy
  Tb  Tb0  1  0.010086  0.173816  0.096848  1
  Tb  Tb1  1  0.990960  0.817275  0.901621  1
  Tb  Tb2  1  0.484396  0.673153  0.901747  1
  Tb  Tb3  1  0.990970  0.817262  0.598320  1
  Tb  Tb4  1  0.511254  0.324034  0.097148  1
  Dy  Dy5  1  0.010229  0.173949  0.403083  1
  Dy  Dy6  1  0.511224  0.323921  0.402803  1
  Dy  Dy7  1  0.484434  0.673246  0.598279  1
  Sc  Sc8  1  0.838308  0.497886  0.250059  1
  Sc  Sc9  1  0.339499  0.002889  0.250069  1
  Sc  Sc10  1  0.657690  0.998373  0.749990  1
  Sc  Sc11  1  0.325654  0.183216  0.625674  1
  Sc  Sc12  1  0.671114  0.823892  0.375082  1
  Sc  Sc13  1  0.169663  0.679902  0.373225  1
  Sc  Sc14  1  0.671125  0.823933  0.124960  1
  Sc  Sc15  1  0.837888  0.325333  0.625822  1
  Sc  Sc16  1  0.325589  0.183104  0.874295  1
  Sc  Sc17  1  0.837955  0.325361  0.874158  1
  Sc  Sc18  1  0.169684  0.679876  0.126798  1
  Si  Si19  1  0.027932  0.096342  0.749971  1
  Si  Si20  1  0.967632  0.886560  0.250056  1
  Si  Si21  1  0.467079  0.617520  0.250061  1
  Si  Si22  1  0.544454  0.379129  0.749939  1
  Si  Si23  1  0.291653  0.889258  0.749926  1
  Si  Si24  1  0.713143  0.127687  0.250174  1
  Si  Si25  1  0.212595  0.373236  0.250148  1
  Si  Si26  1  0.769701  0.630541  0.749895  1
  Si  Si27  1  0.161734  0.459230  0.528621  1
  Si  Si28  1  0.842297  0.536078  0.461881  1
  Si  Si29  1  0.344287  0.965953  0.462049  1
  Si  Si30  1  0.842558  0.536290  0.038044  1
  Si  Si31  1  0.657344  0.033276  0.540472  1
  Si  Si32  1  0.161403  0.459347  0.971364  1
  Si  Si33  1  0.657399  0.033274  0.959500  1
  Si  Si34  1  0.344402  0.965832  0.037921  1
  Hg  Hg35  1  0.156665  0.510024  0.749997  1
