# generated using pymatgen
data_Tb4Ce(SiB4)2
_symmetry_space_group_name_H-M   'P 1'
_cell_length_a   7.27040894
_cell_length_b   7.27040894
_cell_length_c   8.19800402
_cell_angle_alpha   89.99460250
_cell_angle_beta   89.99460250
_cell_angle_gamma   90.10284278
_symmetry_Int_Tables_number   1
_chemical_formula_structural   Tb4Ce(SiB4)2
_chemical_formula_sum   'Tb8 Ce2 Si4 B16'
_cell_volume   433.33633079
_cell_formula_units_Z   2
loop_
 _symmetry_equiv_pos_site_id
 _symmetry_equiv_pos_as_xyz
  1  'x, y, z'
loop_
 _atom_site_type_symbol
 _atom_site_label
 _atom_site_symmetry_multiplicity
 _atom_site_fract_x
 _atom_site_fract_y
 _atom_site_fract_z
 _atom_site_occupancy
  Tb  Tb0  1  0.319092  0.819092  0.222594  1
  Tb  Tb1  1  0.819480  0.680138  0.222035  1
  Tb  Tb2  1  0.819862  0.680520  0.777965  1
  Tb  Tb3  1  0.680908  0.180908  0.777406  1
  Tb  Tb4  1  0.180520  0.319862  0.777965  1
  Tb  Tb5  1  0.180138  0.319480  0.222035  1
  Tb  Tb6  1  0.000000  0.000000  0.500000  1
  Tb  Tb7  1  0.500000  0.500000  0.500000  1
  Ce  Ce8  1  0.682467  0.182467  0.228202  1
  Ce  Ce9  1  0.317533  0.817533  0.771798  1
  Si  Si10  1  0.114312  0.614312  0.500537  1
  Si  Si11  1  0.885688  0.385688  0.499463  1
  Si  Si12  1  0.385927  0.114073  0.500000  1
  Si  Si13  1  0.614073  0.885927  0.500000  1
  B  B14  1  0.172328  0.038935  0.999526  1
  B  B15  1  0.827672  0.961065  0.000474  1
  B  B16  1  0.960218  0.171879  0.000093  1
  B  B17  1  0.328121  0.539782  0.999907  1
  B  B18  1  0.039782  0.828121  0.999907  1
  B  B19  1  0.671879  0.460218  0.000093  1
  B  B20  1  0.538935  0.672328  0.999526  1
  B  B21  1  0.461065  0.327672  0.000474  1
  B  B22  1  0.091190  0.591190  0.998547  1
  B  B23  1  0.908810  0.408810  0.001453  1
  B  B24  1  0.409530  0.090470  0.000000  1
  B  B25  1  0.590470  0.909530  0.000000  1
  B  B26  1  0.999062  0.000125  0.160264  1
  B  B27  1  0.000938  0.999875  0.839736  1
  B  B28  1  0.499875  0.500938  0.839736  1
  B  B29  1  0.500125  0.499062  0.160264  1
