# generated using pymatgen
data_Y2Zn2Si2RuPt3
_symmetry_space_group_name_H-M   'P 1'
_cell_length_a   4.06995700
_cell_length_b   4.06995700
_cell_length_c   10.72059900
_cell_angle_alpha   90.00000000
_cell_angle_beta   90.00000000
_cell_angle_gamma   90.00000000
_symmetry_Int_Tables_number   1
_chemical_formula_structural   Y2Zn2Si2RuPt3
_chemical_formula_sum   'Y2 Zn2 Si2 Ru1 Pt3'
_cell_volume   177.58189797
_cell_formula_units_Z   1
loop_
 _symmetry_equiv_pos_site_id
 _symmetry_equiv_pos_as_xyz
  1  'x, y, z'
loop_
 _atom_site_type_symbol
 _atom_site_label
 _atom_site_symmetry_multiplicity
 _atom_site_fract_x
 _atom_site_fract_y
 _atom_site_fract_z
 _atom_site_occupancy
  Y  Y0  1  0.000000  0.500000  0.242672  1
  Y  Y1  1  0.500000  0.000000  0.757328  1
  Zn  Zn2  1  0.000000  0.000000  0.500000  1
  Zn  Zn3  1  0.500000  0.500000  0.500000  1
  Si  Si4  1  0.000000  0.500000  0.878275  1
  Si  Si5  1  0.500000  0.000000  0.121725  1
  Ru  Ru6  1  0.000000  0.000000  0.000000  1
  Pt  Pt7  1  0.500000  0.500000  0.000000  1
  Pt  Pt8  1  0.000000  0.500000  0.656914  1
  Pt  Pt9  1  0.500000  0.000000  0.343086  1
