# generated using pymatgen
data_La3In2Rh3Au
_symmetry_space_group_name_H-M   'P 1'
_cell_length_a   7.54955297
_cell_length_b   7.77593900
_cell_length_c   4.14314900
_cell_angle_alpha   90.00000000
_cell_angle_beta   90.00000000
_cell_angle_gamma   120.99700612
_symmetry_Int_Tables_number   1
_chemical_formula_structural   La3In2Rh3Au
_chemical_formula_sum   'La3 In2 Rh3 Au1'
_cell_volume   208.48934427
_cell_formula_units_Z   1
loop_
 _symmetry_equiv_pos_site_id
 _symmetry_equiv_pos_as_xyz
  1  'x, y, z'
loop_
 _atom_site_type_symbol
 _atom_site_label
 _atom_site_symmetry_multiplicity
 _atom_site_fract_x
 _atom_site_fract_y
 _atom_site_fract_z
 _atom_site_occupancy
  La  La0  1  0.000000  0.580897  0.500000  1
  La  La1  1  0.603379  0.007829  0.500000  1
  La  La2  1  0.396621  0.404450  0.500000  1
  In  In3  1  0.250825  0.001366  0.000000  1
  In  In4  1  0.749175  0.750541  0.000000  1
  Rh  Rh5  1  0.000000  0.980108  0.500000  1
  Rh  Rh6  1  0.662980  0.344191  0.000000  1
  Rh  Rh7  1  0.337020  0.681212  0.000000  1
  Au  Au8  1  0.000000  0.249405  0.000000  1
