# generated using pymatgen
data_Dy2Ho3(SnPb)2
_symmetry_space_group_name_H-M   'P 1'
_cell_length_a   8.08413800
_cell_length_b   8.20983900
_cell_length_c   15.52592900
_cell_angle_alpha   90.00000000
_cell_angle_beta   90.00000000
_cell_angle_gamma   90.00000000
_symmetry_Int_Tables_number   1
_chemical_formula_structural   Dy2Ho3(SnPb)2
_chemical_formula_sum   'Dy8 Ho12 Sn8 Pb8'
_cell_volume   1030.44770125
_cell_formula_units_Z   4
loop_
 _symmetry_equiv_pos_site_id
 _symmetry_equiv_pos_as_xyz
  1  'x, y, z'
loop_
 _atom_site_type_symbol
 _atom_site_label
 _atom_site_symmetry_multiplicity
 _atom_site_fract_x
 _atom_site_fract_y
 _atom_site_fract_z
 _atom_site_occupancy
  Dy  Dy0  1  0.523522  0.321669  0.899412  1
  Dy  Dy1  1  0.023522  0.178331  0.600588  1
  Dy  Dy2  1  0.476478  0.678331  0.399412  1
  Dy  Dy3  1  0.976478  0.821669  0.100588  1
  Dy  Dy4  1  0.476478  0.678331  0.100588  1
  Dy  Dy5  1  0.976478  0.821669  0.399412  1
  Dy  Dy6  1  0.523522  0.321669  0.600588  1
  Dy  Dy7  1  0.023522  0.178331  0.899412  1
  Ho  Ho8  1  0.368307  0.838224  0.875742  1
  Ho  Ho9  1  0.868307  0.661776  0.624258  1
  Ho  Ho10  1  0.631693  0.161776  0.375742  1
  Ho  Ho11  1  0.131693  0.338224  0.124258  1
  Ho  Ho12  1  0.631693  0.161776  0.124258  1
  Ho  Ho13  1  0.131693  0.338224  0.375742  1
  Ho  Ho14  1  0.368307  0.838224  0.624258  1
  Ho  Ho15  1  0.868307  0.661776  0.875742  1
  Ho  Ho16  1  0.198970  0.503004  0.750000  1
  Ho  Ho17  1  0.698970  0.996996  0.750000  1
  Ho  Ho18  1  0.801030  0.496996  0.250000  1
  Ho  Ho19  1  0.301030  0.003004  0.250000  1
  Sn  Sn20  1  0.564417  0.620135  0.750000  1
  Sn  Sn21  1  0.064417  0.879865  0.750000  1
  Sn  Sn22  1  0.435583  0.379865  0.250000  1
  Sn  Sn23  1  0.935583  0.120135  0.250000  1
  Sn  Sn24  1  0.331312  0.148903  0.750000  1
  Sn  Sn25  1  0.831312  0.351097  0.750000  1
  Sn  Sn26  1  0.668688  0.851097  0.250000  1
  Sn  Sn27  1  0.168688  0.648903  0.250000  1
  Pb  Pb28  1  0.290850  0.037804  0.040917  1
  Pb  Pb29  1  0.790850  0.462196  0.459083  1
  Pb  Pb30  1  0.709150  0.962196  0.540917  1
  Pb  Pb31  1  0.209150  0.537804  0.959083  1
  Pb  Pb32  1  0.709150  0.962196  0.959083  1
  Pb  Pb33  1  0.209150  0.537804  0.540917  1
  Pb  Pb34  1  0.290850  0.037804  0.459083  1
  Pb  Pb35  1  0.790850  0.462196  0.040917  1
