# generated using pymatgen
data_TbHo5Co17TcP12
_symmetry_space_group_name_H-M   'P 1'
_cell_length_a   3.69334600
_cell_length_b   10.50941900
_cell_length_c   12.19312700
_cell_angle_alpha   90.00000000
_cell_angle_beta   90.00000000
_cell_angle_gamma   90.00000000
_symmetry_Int_Tables_number   1
_chemical_formula_structural   TbHo5Co17TcP12
_chemical_formula_sum   'Tb1 Ho5 Co17 Tc1 P12'
_cell_volume   473.27525669
_cell_formula_units_Z   1
loop_
 _symmetry_equiv_pos_site_id
 _symmetry_equiv_pos_as_xyz
  1  'x, y, z'
loop_
 _atom_site_type_symbol
 _atom_site_label
 _atom_site_symmetry_multiplicity
 _atom_site_fract_x
 _atom_site_fract_y
 _atom_site_fract_z
 _atom_site_occupancy
  Tb  Tb0  1  0.500000  0.000000  0.478013  1
  Ho  Ho1  1  0.000000  0.500000  0.523938  1
  Ho  Ho2  1  0.500000  0.817619  0.206606  1
  Ho  Ho3  1  0.500000  0.182381  0.206606  1
  Ho  Ho4  1  0.000000  0.682737  0.794915  1
  Ho  Ho5  1  0.000000  0.317263  0.794915  1
  Co  Co6  1  0.000000  0.000000  0.840222  1
  Co  Co7  1  0.500000  0.500000  0.703196  1
  Co  Co8  1  0.000000  0.000000  0.295675  1
  Co  Co9  1  0.000000  0.500000  0.987389  1
  Co  Co10  1  0.500000  0.000000  0.014583  1
  Co  Co11  1  0.500000  0.331998  0.991022  1
  Co  Co12  1  0.500000  0.668002  0.991022  1
  Co  Co13  1  0.000000  0.166464  0.005663  1
  Co  Co14  1  0.000000  0.833536  0.005663  1
  Co  Co15  1  0.500000  0.297152  0.430687  1
  Co  Co16  1  0.500000  0.702848  0.430687  1
  Co  Co17  1  0.000000  0.203835  0.569227  1
  Co  Co18  1  0.000000  0.796165  0.569227  1
  Co  Co19  1  0.500000  0.878838  0.709426  1
  Co  Co20  1  0.500000  0.121162  0.709426  1
  Co  Co21  1  0.000000  0.620828  0.291669  1
  Co  Co22  1  0.000000  0.379172  0.291669  1
  Tc  Tc23  1  0.500000  0.500000  0.156833  1
  P  P24  1  0.500000  0.500000  0.881264  1
  P  P25  1  0.000000  0.000000  0.117302  1
  P  P26  1  0.500000  0.500000  0.349209  1
  P  P27  1  0.000000  0.000000  0.656424  1
  P  P28  1  0.500000  0.311452  0.616650  1
  P  P29  1  0.500000  0.688548  0.616650  1
  P  P30  1  0.000000  0.188833  0.383835  1
  P  P31  1  0.000000  0.811167  0.383835  1
  P  P32  1  0.500000  0.849259  0.891926  1
  P  P33  1  0.500000  0.150741  0.891926  1
  P  P34  1  0.000000  0.655873  0.106352  1
  P  P35  1  0.000000  0.344127  0.106352  1
