# generated using pymatgen
data_LuHf5(Be2Ir5)2
_symmetry_space_group_name_H-M   'P 1'
_cell_length_a   9.53693119
_cell_length_b   9.53693119
_cell_length_c   3.31951600
_cell_angle_alpha   90.00000000
_cell_angle_beta   90.00000000
_cell_angle_gamma   89.89256887
_symmetry_Int_Tables_number   1
_chemical_formula_structural   LuHf5(Be2Ir5)2
_chemical_formula_sum   'Lu1 Hf5 Be4 Ir10'
_cell_volume   301.91959572
_cell_formula_units_Z   1
loop_
 _symmetry_equiv_pos_site_id
 _symmetry_equiv_pos_as_xyz
  1  'x, y, z'
loop_
 _atom_site_type_symbol
 _atom_site_label
 _atom_site_symmetry_multiplicity
 _atom_site_fract_x
 _atom_site_fract_y
 _atom_site_fract_z
 _atom_site_occupancy
  Lu  Lu0  1  0.175133  0.675133  0.000000  1
  Hf  Hf1  1  0.324537  0.174493  0.000000  1
  Hf  Hf2  1  0.825208  0.325208  0.000000  1
  Hf  Hf3  1  0.499584  0.499957  0.000000  1
  Hf  Hf4  1  0.674493  0.824537  0.000000  1
  Hf  Hf5  1  0.999957  0.999584  0.000000  1
  Be  Be6  1  0.381872  0.881872  0.000000  1
  Be  Be7  1  0.118585  0.379325  0.000000  1
  Be  Be8  1  0.879325  0.618585  0.000000  1
  Be  Be9  1  0.619610  0.119610  0.000000  1
  Ir  Ir10  1  0.219799  0.935531  0.500000  1
  Ir  Ir11  1  0.922376  0.783841  0.500000  1
  Ir  Ir12  1  0.435531  0.719799  0.500000  1
  Ir  Ir13  1  0.573150  0.283964  0.500000  1
  Ir  Ir14  1  0.715155  0.571146  0.500000  1
  Ir  Ir15  1  0.283841  0.422376  0.500000  1
  Ir  Ir16  1  0.071146  0.215155  0.500000  1
  Ir  Ir17  1  0.994809  0.494809  0.500000  1
  Ir  Ir18  1  0.501923  0.001923  0.500000  1
  Ir  Ir19  1  0.783964  0.073150  0.500000  1
