# generated using pymatgen
data_Dy2LuZnRu2
_symmetry_space_group_name_H-M   'P 1'
_cell_length_a   3.39539100
_cell_length_b   3.39539100
_cell_length_c   10.68244500
_cell_angle_alpha   90.00000000
_cell_angle_beta   90.00000000
_cell_angle_gamma   90.00000000
_symmetry_Int_Tables_number   1
_chemical_formula_structural   Dy2LuZnRu2
_chemical_formula_sum   'Dy2 Lu1 Zn1 Ru2'
_cell_volume   123.15449048
_cell_formula_units_Z   1
loop_
 _symmetry_equiv_pos_site_id
 _symmetry_equiv_pos_as_xyz
  1  'x, y, z'
loop_
 _atom_site_type_symbol
 _atom_site_label
 _atom_site_symmetry_multiplicity
 _atom_site_fract_x
 _atom_site_fract_y
 _atom_site_fract_z
 _atom_site_occupancy
  Dy  Dy0  1  0.499999  0.499999  0.311070  1
  Dy  Dy1  1  0.499999  0.499999  0.688930  1
  Lu  Lu2  1  0.499999  0.499999  0.000000  1
  Zn  Zn3  1  0.000000  0.000000  0.500000  1
  Ru  Ru4  1  0.000000  0.000000  0.159489  1
  Ru  Ru5  1  0.000000  0.000000  0.840511  1
