# generated using pymatgen
data_DyY3Co18(P6Ru)2
_symmetry_space_group_name_H-M   'P 1'
_cell_length_a   3.67404100
_cell_length_b   10.33729603
_cell_length_c   11.75806803
_cell_angle_alpha   89.99173853
_cell_angle_beta   90.00000000
_cell_angle_gamma   90.00000000
_symmetry_Int_Tables_number   1
_chemical_formula_structural   DyY3Co18(P6Ru)2
_chemical_formula_sum   'Dy1 Y3 Co18 P12 Ru2'
_cell_volume   446.56729715
_cell_formula_units_Z   1
loop_
 _symmetry_equiv_pos_site_id
 _symmetry_equiv_pos_as_xyz
  1  'x, y, z'
loop_
 _atom_site_type_symbol
 _atom_site_label
 _atom_site_symmetry_multiplicity
 _atom_site_fract_x
 _atom_site_fract_y
 _atom_site_fract_z
 _atom_site_occupancy
  Dy  Dy0  1  0.250000  0.917578  0.202317  1
  Y  Y1  1  0.250000  0.582495  0.702300  1
  Y  Y2  1  0.750000  0.414165  0.295573  1
  Y  Y3  1  0.750000  0.085811  0.795566  1
  Co  Co4  1  0.750000  0.283828  0.009158  1
  Co  Co5  1  0.750000  0.216129  0.509134  1
  Co  Co6  1  0.250000  0.406280  0.487970  1
  Co  Co7  1  0.250000  0.093711  0.988017  1
  Co  Co8  1  0.750000  0.591283  0.510261  1
  Co  Co9  1  0.750000  0.908742  0.010387  1
  Co  Co10  1  0.250000  0.220638  0.176525  1
  Co  Co11  1  0.250000  0.279298  0.676507  1
  Co  Co12  1  0.750000  0.778351  0.822997  1
  Co  Co13  1  0.750000  0.721699  0.322963  1
  Co  Co14  1  0.250000  0.886347  0.701404  1
  Co  Co15  1  0.250000  0.613719  0.201432  1
  Co  Co16  1  0.750000  0.116627  0.301212  1
  Co  Co17  1  0.750000  0.383272  0.801267  1
  Co  Co18  1  0.250000  0.464257  0.932523  1
  Co  Co19  1  0.250000  0.035709  0.432460  1
  Co  Co20  1  0.750000  0.532886  0.068810  1
  Co  Co21  1  0.750000  0.967117  0.568797  1
  P  P22  1  0.250000  0.417234  0.112032  1
  P  P23  1  0.250000  0.082760  0.612006  1
  P  P24  1  0.750000  0.578529  0.887087  1
  P  P25  1  0.750000  0.921476  0.387011  1
  P  P26  1  0.250000  0.270446  0.869277  1
  P  P27  1  0.250000  0.229550  0.369291  1
  P  P28  1  0.750000  0.728715  0.132681  1
  P  P29  1  0.750000  0.771403  0.632607  1
  P  P30  1  0.250000  0.595288  0.390320  1
  P  P31  1  0.250000  0.904713  0.890330  1
  P  P32  1  0.750000  0.396960  0.608583  1
  P  P33  1  0.750000  0.102972  0.108624  1
  Ru  Ru34  1  0.250000  0.714926  0.991316  1
  Ru  Ru35  1  0.250000  0.785086  0.491256  1
