# generated using pymatgen
data_ErTa6InSe12
_symmetry_space_group_name_H-M   'P 1'
_cell_length_a   6.08954900
_cell_length_b   6.08954914
_cell_length_c   15.39761500
_cell_angle_alpha   90.00000000
_cell_angle_beta   90.00000000
_cell_angle_gamma   120.00000469
_symmetry_Int_Tables_number   1
_chemical_formula_structural   ErTa6InSe12
_chemical_formula_sum   'Er1 Ta6 In1 Se12'
_cell_volume   494.48638233
_cell_formula_units_Z   1
loop_
 _symmetry_equiv_pos_site_id
 _symmetry_equiv_pos_as_xyz
  1  'x, y, z'
loop_
 _atom_site_type_symbol
 _atom_site_label
 _atom_site_symmetry_multiplicity
 _atom_site_fract_x
 _atom_site_fract_y
 _atom_site_fract_z
 _atom_site_occupancy
  Er  Er0  1  0.666667  0.333333  0.750000  1
  Ta  Ta1  1  0.333333  0.666667  0.515230  1
  Ta  Ta2  1  0.666667  0.333333  0.983883  1
  Ta  Ta3  1  0.666667  0.333333  0.516117  1
  Ta  Ta4  1  0.333333  0.666667  0.984770  1
  Ta  Ta5  1  0.000000  0.000000  0.514804  1
  Ta  Ta6  1  0.000000  0.000000  0.985196  1
  In  In7  1  0.333333  0.666667  0.250000  1
  Se  Se8  1  0.334207  0.332813  0.091785  1
  Se  Se9  1  0.667187  0.001392  0.091785  1
  Se  Se10  1  0.998608  0.665793  0.091785  1
  Se  Se11  1  0.005082  0.333251  0.624164  1
  Se  Se12  1  0.666749  0.994918  0.875836  1
  Se  Se13  1  0.666749  0.671832  0.624164  1
  Se  Se14  1  0.328168  0.994918  0.624164  1
  Se  Se15  1  0.667187  0.665793  0.408215  1
  Se  Se16  1  0.334207  0.001392  0.408215  1
  Se  Se17  1  0.328168  0.333251  0.875836  1
  Se  Se18  1  0.005082  0.671832  0.875836  1
  Se  Se19  1  0.998608  0.332813  0.408215  1
