# generated using pymatgen
data_TbDyMg2(AlPt)4
_symmetry_space_group_name_H-M   'P 1'
_cell_length_a   4.20019900
_cell_length_b   6.75722333
_cell_length_c   7.84863067
_cell_angle_alpha   84.82220963
_cell_angle_beta   90.00000000
_cell_angle_gamma   90.00000000
_symmetry_Int_Tables_number   1
_chemical_formula_structural   TbDyMg2(AlPt)4
_chemical_formula_sum   'Tb1 Dy1 Mg2 Al4 Pt4'
_cell_volume   221.84837390
_cell_formula_units_Z   1
loop_
 _symmetry_equiv_pos_site_id
 _symmetry_equiv_pos_as_xyz
  1  'x, y, z'
loop_
 _atom_site_type_symbol
 _atom_site_label
 _atom_site_symmetry_multiplicity
 _atom_site_fract_x
 _atom_site_fract_y
 _atom_site_fract_z
 _atom_site_occupancy
  Tb  Tb0  1  0.750000  0.031658  0.682343  1
  Dy  Dy1  1  0.250000  0.968058  0.317308  1
  Mg  Mg2  1  0.250000  0.468130  0.165734  1
  Mg  Mg3  1  0.750000  0.532127  0.834574  1
  Al  Al4  1  0.250000  0.848437  0.940271  1
  Al  Al5  1  0.750000  0.151464  0.060095  1
  Al  Al6  1  0.750000  0.634356  0.446179  1
  Al  Al7  1  0.250000  0.365430  0.553429  1
  Pt  Pt8  1  0.250000  0.717982  0.635481  1
  Pt  Pt9  1  0.750000  0.281556  0.363874  1
  Pt  Pt10  1  0.750000  0.762075  0.120843  1
  Pt  Pt11  1  0.250000  0.238725  0.879869  1
