# generated using pymatgen
data_Tm2Ta3B4Ru10W
_symmetry_space_group_name_H-M   'P 1'
_cell_length_a   9.53116202
_cell_length_b   9.51432839
_cell_length_c   3.06608200
_cell_angle_alpha   90.00000000
_cell_angle_beta   90.00000000
_cell_angle_gamma   90.40700332
_symmetry_Int_Tables_number   1
_chemical_formula_structural   Tm2Ta3B4Ru10W
_chemical_formula_sum   'Tm2 Ta3 B4 Ru10 W1'
_cell_volume   278.03328923
_cell_formula_units_Z   1
loop_
 _symmetry_equiv_pos_site_id
 _symmetry_equiv_pos_as_xyz
  1  'x, y, z'
loop_
 _atom_site_type_symbol
 _atom_site_label
 _atom_site_symmetry_multiplicity
 _atom_site_fract_x
 _atom_site_fract_y
 _atom_site_fract_z
 _atom_site_occupancy
  Tm  Tm0  1  0.824284  0.676022  0.000000  1
  Tm  Tm1  1  0.175716  0.323978  0.000000  1
  Ta  Ta2  1  0.323559  0.825299  0.000000  1
  Ta  Ta3  1  0.676441  0.174701  0.000000  1
  Ta  Ta4  1  0.000000  0.000000  0.000000  1
  B  B5  1  0.621324  0.880293  0.000000  1
  B  B6  1  0.378676  0.119707  0.000000  1
  B  B7  1  0.120052  0.621685  0.000000  1
  B  B8  1  0.879948  0.378315  0.000000  1
  Ru  Ru9  1  0.560882  0.719583  0.500000  1
  Ru  Ru10  1  0.439118  0.280417  0.500000  1
  Ru  Ru11  1  0.080966  0.784516  0.500000  1
  Ru  Ru12  1  0.919034  0.215484  0.500000  1
  Ru  Ru13  1  0.287402  0.577632  0.500000  1
  Ru  Ru14  1  0.712598  0.422368  0.500000  1
  Ru  Ru15  1  0.222382  0.062444  0.500000  1
  Ru  Ru16  1  0.777618  0.937556  0.500000  1
  Ru  Ru17  1  0.500000  0.000000  0.500000  1
  Ru  Ru18  1  0.000000  0.500000  0.500000  1
  W  W19  1  0.500000  0.500000  0.000000  1
