# generated using pymatgen
data_Y9Tm(In3Br)2
_symmetry_space_group_name_H-M   'P 1'
_cell_length_a   9.20414200
_cell_length_b   9.20414218
_cell_length_c   6.77165000
_cell_angle_alpha   90.00000000
_cell_angle_beta   90.00000000
_cell_angle_gamma   119.99999935
_symmetry_Int_Tables_number   1
_chemical_formula_structural   Y9Tm(In3Br)2
_chemical_formula_sum   'Y9 Tm1 In6 Br2'
_cell_volume   496.81164465
_cell_formula_units_Z   1
loop_
 _symmetry_equiv_pos_site_id
 _symmetry_equiv_pos_as_xyz
  1  'x, y, z'
loop_
 _atom_site_type_symbol
 _atom_site_label
 _atom_site_symmetry_multiplicity
 _atom_site_fract_x
 _atom_site_fract_y
 _atom_site_fract_z
 _atom_site_occupancy
  Y  Y0  1  0.734462  0.734081  0.249680  1
  Y  Y1  1  0.999621  0.734081  0.750320  1
  Y  Y2  1  0.734462  0.000379  0.750320  1
  Y  Y3  1  0.333333  0.666667  0.500000  1
  Y  Y4  1  0.265919  0.265538  0.750320  1
  Y  Y5  1  0.999621  0.265538  0.249680  1
  Y  Y6  1  0.666667  0.333333  0.500000  1
  Y  Y7  1  0.265919  0.000379  0.249680  1
  Y  Y8  1  0.333333  0.666667  0.000000  1
  Tm  Tm9  1  0.666667  0.333333  0.000000  1
  In  In10  1  0.394179  0.000586  0.750878  1
  In  In11  1  0.999414  0.605821  0.249122  1
  In  In12  1  0.606407  0.000586  0.249122  1
  In  In13  1  0.999414  0.393593  0.750878  1
  In  In14  1  0.394179  0.393593  0.249122  1
  In  In15  1  0.606407  0.605821  0.750878  1
  Br  Br16  1  0.000000  0.000000  0.500000  1
  Br  Br17  1  0.000000  0.000000  0.000000  1
