# generated using pymatgen
data_HfTaGaB2Ru5
_symmetry_space_group_name_H-M   'P 1'
_cell_length_a   9.31751570
_cell_length_b   9.31751627
_cell_length_c   3.05748300
_cell_angle_alpha   90.00000000
_cell_angle_beta   90.00000000
_cell_angle_gamma   90.25822901
_symmetry_Int_Tables_number   1
_chemical_formula_structural   HfTaGaB2Ru5
_chemical_formula_sum   'Hf2 Ta2 Ga2 B4 Ru10'
_cell_volume   265.43606678
_cell_formula_units_Z   2
loop_
 _symmetry_equiv_pos_site_id
 _symmetry_equiv_pos_as_xyz
  1  'x, y, z'
loop_
 _atom_site_type_symbol
 _atom_site_label
 _atom_site_symmetry_multiplicity
 _atom_site_fract_x
 _atom_site_fract_y
 _atom_site_fract_z
 _atom_site_occupancy
  Hf  Hf0  1  0.823090  0.676910  0.000000  1
  Hf  Hf1  1  0.176910  0.323090  0.000000  1
  Ta  Ta2  1  0.323481  0.823481  0.000000  1
  Ta  Ta3  1  0.676519  0.176519  0.000000  1
  Ga  Ga4  1  0.500000  0.500000  0.000000  1
  Ga  Ga5  1  0.000000  0.000000  0.000000  1
  B  B6  1  0.624290  0.875710  0.000000  1
  B  B7  1  0.375710  0.124290  0.000000  1
  B  B8  1  0.124822  0.624822  0.000000  1
  B  B9  1  0.875178  0.375178  0.000000  1
  Ru  Ru10  1  0.565152  0.717550  0.500000  1
  Ru  Ru11  1  0.434848  0.282450  0.500000  1
  Ru  Ru12  1  0.073921  0.785803  0.500000  1
  Ru  Ru13  1  0.926079  0.214197  0.500000  1
  Ru  Ru14  1  0.285803  0.573921  0.500000  1
  Ru  Ru15  1  0.714197  0.426079  0.500000  1
  Ru  Ru16  1  0.217550  0.065152  0.500000  1
  Ru  Ru17  1  0.782450  0.934848  0.500000  1
  Ru  Ru18  1  0.500000  0.000000  0.500000  1
  Ru  Ru19  1  0.000000  0.500000  0.500000  1
