# generated using pymatgen
data_PrYHo4Ta2O14
_symmetry_space_group_name_H-M   'P 1'
_cell_length_a   6.49500463
_cell_length_b   6.49500491
_cell_length_c   7.53129001
_cell_angle_alpha   89.86362808
_cell_angle_beta   90.13637271
_cell_angle_gamma   108.78326100
_symmetry_Int_Tables_number   1
_chemical_formula_structural   PrYHo4Ta2O14
_chemical_formula_sum   'Pr1 Y1 Ho4 Ta2 O14'
_cell_volume   300.78677100
_cell_formula_units_Z   1
loop_
 _symmetry_equiv_pos_site_id
 _symmetry_equiv_pos_as_xyz
  1  'x, y, z'
loop_
 _atom_site_type_symbol
 _atom_site_label
 _atom_site_symmetry_multiplicity
 _atom_site_fract_x
 _atom_site_fract_y
 _atom_site_fract_z
 _atom_site_occupancy
  Pr  Pr0  1  0.513600  0.513600  0.500000  1
  Y  Y1  1  0.463940  0.463940  0.000000  1
  Ho  Ho2  1  0.000049  0.534563  0.240670  1
  Ho  Ho3  1  0.998504  0.466170  0.746661  1
  Ho  Ho4  1  0.534563  0.000049  0.759330  1
  Ho  Ho5  1  0.466170  0.998504  0.253339  1
  Ta  Ta6  1  0.001528  0.001528  0.500000  1
  Ta  Ta7  1  0.997137  0.997137  0.000000  1
  O  O8  1  0.933174  0.067122  0.749589  1
  O  O9  1  0.067122  0.933174  0.250411  1
  O  O10  1  0.357341  0.642830  0.240061  1
  O  O11  1  0.642830  0.357341  0.759939  1
  O  O12  1  0.365590  0.633437  0.759879  1
  O  O13  1  0.633437  0.365590  0.240121  1
  O  O14  1  0.326270  0.079225  0.973618  1
  O  O15  1  0.675493  0.926752  0.472278  1
  O  O16  1  0.315357  0.061557  0.540845  1
  O  O17  1  0.690788  0.949571  0.041613  1
  O  O18  1  0.061557  0.315357  0.459155  1
  O  O19  1  0.949571  0.690788  0.958387  1
  O  O20  1  0.926752  0.675493  0.527722  1
  O  O21  1  0.079225  0.326270  0.026382  1
