# generated using pymatgen
data_Sc12ReSi12OsRh2
_symmetry_space_group_name_H-M   'P 1'
_cell_length_a   4.01406600
_cell_length_b   10.31533714
_cell_length_c   11.71759806
_cell_angle_alpha   89.94225618
_cell_angle_beta   90.00000000
_cell_angle_gamma   90.00000000
_symmetry_Int_Tables_number   1
_chemical_formula_structural   Sc12ReSi12OsRh2
_chemical_formula_sum   'Sc12 Re1 Si12 Os1 Rh2'
_cell_volume   485.18382272
_cell_formula_units_Z   1
loop_
 _symmetry_equiv_pos_site_id
 _symmetry_equiv_pos_as_xyz
  1  'x, y, z'
loop_
 _atom_site_type_symbol
 _atom_site_label
 _atom_site_symmetry_multiplicity
 _atom_site_fract_x
 _atom_site_fract_y
 _atom_site_fract_z
 _atom_site_occupancy
  Sc  Sc0  1  0.250000  0.876439  0.021279  1
  Sc  Sc1  1  0.250000  0.623625  0.521128  1
  Sc  Sc2  1  0.750000  0.122821  0.983415  1
  Sc  Sc3  1  0.750000  0.378259  0.482642  1
  Sc  Sc4  1  0.250000  0.921563  0.602537  1
  Sc  Sc5  1  0.250000  0.577938  0.101380  1
  Sc  Sc6  1  0.750000  0.079371  0.394003  1
  Sc  Sc7  1  0.750000  0.421326  0.894142  1
  Sc  Sc8  1  0.250000  0.660171  0.798062  1
  Sc  Sc9  1  0.250000  0.836891  0.297796  1
  Sc  Sc10  1  0.750000  0.343812  0.201078  1
  Sc  Sc11  1  0.750000  0.156413  0.701121  1
  Re  Re12  1  0.250000  0.108437  0.176900  1
  Si  Si13  1  0.250000  0.015087  0.824021  1
  Si  Si14  1  0.250000  0.486158  0.323594  1
  Si  Si15  1  0.750000  0.980819  0.178783  1
  Si  Si16  1  0.750000  0.516584  0.678031  1
  Si  Si17  1  0.250000  0.250399  0.841385  1
  Si  Si18  1  0.250000  0.251456  0.343535  1
  Si  Si19  1  0.750000  0.745128  0.156244  1
  Si  Si20  1  0.750000  0.752479  0.657024  1
  Si  Si21  1  0.250000  0.196659  0.545891  1
  Si  Si22  1  0.250000  0.306254  0.043946  1
  Si  Si23  1  0.750000  0.808281  0.455179  1
  Si  Si24  1  0.750000  0.692299  0.954085  1
  Os  Os25  1  0.250000  0.391125  0.676744  1
  Rh  Rh26  1  0.750000  0.611437  0.323415  1
  Rh  Rh27  1  0.750000  0.888769  0.822638  1
