# generated using pymatgen
data_Sc22Tc2(IrRu)3
_symmetry_space_group_name_H-M   'P 1'
_cell_length_a   9.47877618
_cell_length_b   9.46664999
_cell_length_c   9.47526641
_cell_angle_alpha   60.05460457
_cell_angle_beta   60.11699764
_cell_angle_gamma   60.01779685
_symmetry_Int_Tables_number   1
_chemical_formula_structural   Sc22Tc2(IrRu)3
_chemical_formula_sum   'Sc22 Tc2 Ir3 Ru3'
_cell_volume   602.06766890
_cell_formula_units_Z   1
loop_
 _symmetry_equiv_pos_site_id
 _symmetry_equiv_pos_as_xyz
  1  'x, y, z'
loop_
 _atom_site_type_symbol
 _atom_site_label
 _atom_site_symmetry_multiplicity
 _atom_site_fract_x
 _atom_site_fract_y
 _atom_site_fract_z
 _atom_site_occupancy
  Sc  Sc0  1  0.803438  0.802528  0.196562  1
  Sc  Sc1  1  0.197636  0.802364  0.197636  1
  Sc  Sc2  1  0.802899  0.197700  0.197101  1
  Sc  Sc3  1  0.196562  0.197472  0.803438  1
  Sc  Sc4  1  0.802364  0.197636  0.802364  1
  Sc  Sc5  1  0.197101  0.802300  0.802899  1
  Sc  Sc6  1  0.615300  0.617694  0.150388  1
  Sc  Sc7  1  0.615949  0.150131  0.617101  1
  Sc  Sc8  1  0.150388  0.616616  0.615300  1
  Sc  Sc9  1  0.617101  0.616817  0.615949  1
  Sc  Sc10  1  0.384700  0.382306  0.849612  1
  Sc  Sc11  1  0.384051  0.849869  0.382899  1
  Sc  Sc12  1  0.849612  0.383384  0.384700  1
  Sc  Sc13  1  0.382899  0.383183  0.384051  1
  Sc  Sc14  1  0.842114  0.844466  0.469332  1
  Sc  Sc15  1  0.842656  0.470770  0.843605  1
  Sc  Sc16  1  0.469332  0.844087  0.842114  1
  Sc  Sc17  1  0.843605  0.842967  0.842656  1
  Sc  Sc18  1  0.157886  0.155534  0.530668  1
  Sc  Sc19  1  0.157344  0.529230  0.156395  1
  Sc  Sc20  1  0.530668  0.155913  0.157886  1
  Sc  Sc21  1  0.156395  0.157033  0.157344  1
  Tc  Tc22  1  0.000000  0.500000  0.500000  1
  Tc  Tc23  1  0.500000  0.000000  0.000000  1
  Ir  Ir24  1  0.000000  0.000000  0.500000  1
  Ir  Ir25  1  0.500000  0.500000  0.000000  1
  Ir  Ir26  1  0.000000  0.500000  0.000000  1
  Ru  Ru27  1  0.000000  0.000000  0.000000  1
  Ru  Ru28  1  0.500000  0.500000  0.500000  1
  Ru  Ru29  1  0.500000  0.000000  0.500000  1
