# generated using pymatgen
data_La3Pr5AsPd24
_symmetry_space_group_name_H-M   'P 1'
_cell_length_a   8.55209026
_cell_length_b   8.55209062
_cell_length_c   8.55155700
_cell_angle_alpha   89.98575660
_cell_angle_beta   90.01424340
_cell_angle_gamma   90.04250595
_symmetry_Int_Tables_number   1
_chemical_formula_structural   La3Pr5AsPd24
_chemical_formula_sum   'La3 Pr5 As1 Pd24'
_cell_volume   625.44571077
_cell_formula_units_Z   1
loop_
 _symmetry_equiv_pos_site_id
 _symmetry_equiv_pos_as_xyz
  1  'x, y, z'
loop_
 _atom_site_type_symbol
 _atom_site_label
 _atom_site_symmetry_multiplicity
 _atom_site_fract_x
 _atom_site_fract_y
 _atom_site_fract_z
 _atom_site_occupancy
  La  La0  1  0.253500  0.746500  0.252938  1
  La  La1  1  0.253283  0.746717  0.747086  1
  La  La2  1  0.746464  0.253536  0.253275  1
  Pr  Pr3  1  0.252188  0.252463  0.252658  1
  Pr  Pr4  1  0.747472  0.747191  0.747095  1
  Pr  Pr5  1  0.747537  0.747812  0.252658  1
  Pr  Pr6  1  0.747287  0.252713  0.747823  1
  Pr  Pr7  1  0.252809  0.252528  0.747095  1
  As  As8  1  0.000009  0.999991  0.000105  1
  Pd  Pd9  1  0.261532  0.500276  0.999976  1
  Pd  Pd10  1  0.738372  0.499795  0.000013  1
  Pd  Pd11  1  0.999992  0.261715  0.499912  1
  Pd  Pd12  1  0.500205  0.261628  0.000013  1
  Pd  Pd13  1  0.000009  0.738380  0.500049  1
  Pd  Pd14  1  0.499724  0.738468  0.999976  1
  Pd  Pd15  1  0.500034  0.000028  0.261530  1
  Pd  Pd16  1  0.261620  0.999991  0.500049  1
  Pd  Pd17  1  0.499896  0.999981  0.738345  1
  Pd  Pd18  1  0.738285  0.000008  0.499912  1
  Pd  Pd19  1  0.999972  0.499966  0.261530  1
  Pd  Pd20  1  0.000019  0.500104  0.738345  1
  Pd  Pd21  1  0.253645  0.499709  0.499972  1
  Pd  Pd22  1  0.746353  0.500153  0.500112  1
  Pd  Pd23  1  0.499847  0.253647  0.500112  1
  Pd  Pd24  1  0.500291  0.746355  0.499972  1
  Pd  Pd25  1  0.499987  0.500013  0.253613  1
  Pd  Pd26  1  0.500135  0.499865  0.746350  1
  Pd  Pd27  1  0.294146  0.000894  0.000092  1
  Pd  Pd28  1  0.705829  0.999324  0.999625  1
  Pd  Pd29  1  0.000676  0.294171  0.999625  1
  Pd  Pd30  1  0.999106  0.705854  0.000092  1
  Pd  Pd31  1  0.000109  0.999891  0.294381  1
  Pd  Pd32  1  0.999667  0.000333  0.705669  1
