# generated using pymatgen
data_YHo2Co8P6Ru
_symmetry_space_group_name_H-M   'P 1'
_cell_length_a   3.70276300
_cell_length_b   10.50964000
_cell_length_c   12.24001000
_cell_angle_alpha   90.00000000
_cell_angle_beta   90.00000000
_cell_angle_gamma   90.00000000
_symmetry_Int_Tables_number   1
_chemical_formula_structural   YHo2Co8P6Ru
_chemical_formula_sum   'Y2 Ho4 Co16 P12 Ru2'
_cell_volume   476.31639224
_cell_formula_units_Z   2
loop_
 _symmetry_equiv_pos_site_id
 _symmetry_equiv_pos_as_xyz
  1  'x, y, z'
loop_
 _atom_site_type_symbol
 _atom_site_label
 _atom_site_symmetry_multiplicity
 _atom_site_fract_x
 _atom_site_fract_y
 _atom_site_fract_z
 _atom_site_occupancy
  Y  Y0  1  0.000000  0.500000  0.524580  1
  Y  Y1  1  0.500000  0.000000  0.475420  1
  Ho  Ho2  1  0.500000  0.817133  0.206961  1
  Ho  Ho3  1  0.500000  0.182867  0.206961  1
  Ho  Ho4  1  0.000000  0.682867  0.793039  1
  Ho  Ho5  1  0.000000  0.317133  0.793039  1
  Co  Co6  1  0.000000  0.500000  0.986176  1
  Co  Co7  1  0.500000  0.000000  0.013824  1
  Co  Co8  1  0.500000  0.297231  0.431107  1
  Co  Co9  1  0.500000  0.702769  0.431107  1
  Co  Co10  1  0.000000  0.202769  0.568893  1
  Co  Co11  1  0.000000  0.797231  0.568893  1
  Co  Co12  1  0.500000  0.878919  0.707705  1
  Co  Co13  1  0.500000  0.121081  0.707705  1
  Co  Co14  1  0.000000  0.621081  0.292295  1
  Co  Co15  1  0.000000  0.378919  0.292295  1
  Co  Co16  1  0.500000  0.332408  0.990517  1
  Co  Co17  1  0.500000  0.667592  0.990517  1
  Co  Co18  1  0.000000  0.167592  0.009483  1
  Co  Co19  1  0.000000  0.832408  0.009483  1
  Co  Co20  1  0.500000  0.500000  0.704509  1
  Co  Co21  1  0.000000  0.000000  0.295491  1
  P  P22  1  0.500000  0.311466  0.616447  1
  P  P23  1  0.500000  0.688534  0.616447  1
  P  P24  1  0.000000  0.188534  0.383553  1
  P  P25  1  0.000000  0.811466  0.383553  1
  P  P26  1  0.500000  0.500000  0.881684  1
  P  P27  1  0.000000  0.000000  0.118316  1
  P  P28  1  0.500000  0.846439  0.893154  1
  P  P29  1  0.500000  0.153561  0.893154  1
  P  P30  1  0.000000  0.653561  0.106846  1
  P  P31  1  0.000000  0.346439  0.106846  1
  P  P32  1  0.500000  0.500000  0.350206  1
  P  P33  1  0.000000  0.000000  0.649794  1
  Ru  Ru34  1  0.500000  0.500000  0.159561  1
  Ru  Ru35  1  0.000000  0.000000  0.840439  1
