# generated using pymatgen
data_DyHo11TlCo4Ru
_symmetry_space_group_name_H-M   'P 1'
_cell_length_a   8.27555449
_cell_length_b   8.27555300
_cell_length_c   8.27431841
_cell_angle_alpha   106.74607949
_cell_angle_beta   110.50047439
_cell_angle_gamma   111.20768014
_symmetry_Int_Tables_number   1
_chemical_formula_structural   DyHo11TlCo4Ru
_chemical_formula_sum   'Dy1 Ho11 Tl1 Co4 Ru1'
_cell_volume   435.43349461
_cell_formula_units_Z   1
loop_
 _symmetry_equiv_pos_site_id
 _symmetry_equiv_pos_as_xyz
  1  'x, y, z'
loop_
 _atom_site_type_symbol
 _atom_site_label
 _atom_site_symmetry_multiplicity
 _atom_site_fract_x
 _atom_site_fract_y
 _atom_site_fract_z
 _atom_site_occupancy
  Dy  Dy0  1  0.806811  0.214751  0.021563  1
  Ho  Ho1  1  0.470967  0.287102  0.184067  1
  Ho  Ho2  1  0.103305  0.287297  0.815822  1
  Ho  Ho3  1  0.896967  0.713100  0.184067  1
  Ho  Ho4  1  0.528525  0.712517  0.815822  1
  Ho  Ho5  1  0.306362  0.619813  0.313924  1
  Ho  Ho6  1  0.305665  0.992365  0.686203  1
  Ho  Ho7  1  0.693840  0.380538  0.686203  1
  Ho  Ho8  1  0.694111  0.007561  0.313924  1
  Ho  Ho9  1  0.193656  0.214553  0.408208  1
  Ho  Ho10  1  0.806755  0.785226  0.591982  1
  Ho  Ho11  1  0.193457  0.785488  0.978944  1
  Tl  Tl12  1  0.000168  0.500107  0.500274  1
  Co  Co13  1  0.499949  0.611664  0.111613  1
  Co  Co14  1  0.499781  0.388329  0.888110  1
  Co  Co15  1  0.378194  0.999981  0.378175  1
  Co  Co16  1  0.621139  0.999905  0.621044  1
  Ru  Ru17  1  0.000348  0.999705  0.000052  1
