# generated using pymatgen
data_LiTb17(ZrIr6)2
_symmetry_space_group_name_H-M   'P 1'
_cell_length_a   10.86937000
_cell_length_b   10.86937000
_cell_length_c   6.29185300
_cell_angle_alpha   90.00000000
_cell_angle_beta   90.00000000
_cell_angle_gamma   90.00000000
_symmetry_Int_Tables_number   1
_chemical_formula_structural   LiTb17(ZrIr6)2
_chemical_formula_sum   'Li1 Tb17 Zr2 Ir12'
_cell_volume   743.33967376
_cell_formula_units_Z   1
loop_
 _symmetry_equiv_pos_site_id
 _symmetry_equiv_pos_as_xyz
  1  'x, y, z'
loop_
 _atom_site_type_symbol
 _atom_site_label
 _atom_site_symmetry_multiplicity
 _atom_site_fract_x
 _atom_site_fract_y
 _atom_site_fract_z
 _atom_site_occupancy
  Li  Li0  1  0.000000  0.000000  0.500000  1
  Tb  Tb1  1  0.280410  0.082433  0.378650  1
  Tb  Tb2  1  0.293010  0.911403  0.878361  1
  Tb  Tb3  1  0.706990  0.088597  0.878361  1
  Tb  Tb4  1  0.719590  0.917567  0.378650  1
  Tb  Tb5  1  0.588718  0.789747  0.877536  1
  Tb  Tb6  1  0.584651  0.210068  0.375205  1
  Tb  Tb7  1  0.415349  0.789932  0.375205  1
  Tb  Tb8  1  0.411282  0.210253  0.877536  1
  Tb  Tb9  1  0.210068  0.415349  0.624795  1
  Tb  Tb10  1  0.210253  0.588718  0.122464  1
  Tb  Tb11  1  0.789747  0.411282  0.122464  1
  Tb  Tb12  1  0.789932  0.584651  0.624795  1
  Tb  Tb13  1  0.911403  0.706990  0.121639  1
  Tb  Tb14  1  0.917567  0.280410  0.621350  1
  Tb  Tb15  1  0.082433  0.719590  0.621350  1
  Tb  Tb16  1  0.088597  0.293010  0.121639  1
  Tb  Tb17  1  0.000000  0.000000  0.000000  1
  Zr  Zr18  1  0.500000  0.500000  0.000000  1
  Zr  Zr19  1  0.500000  0.500000  0.500000  1
  Ir  Ir20  1  0.844457  0.156993  0.242892  1
  Ir  Ir21  1  0.843007  0.844457  0.757108  1
  Ir  Ir22  1  0.156993  0.155543  0.757108  1
  Ir  Ir23  1  0.155543  0.843007  0.242892  1
  Ir  Ir24  1  0.643204  0.356109  0.748668  1
  Ir  Ir25  1  0.643891  0.643204  0.251332  1
  Ir  Ir26  1  0.356109  0.356796  0.251332  1
  Ir  Ir27  1  0.356796  0.643891  0.748668  1
  Ir  Ir28  1  0.500000  0.000000  0.125976  1
  Ir  Ir29  1  0.500000  0.000000  0.618857  1
  Ir  Ir30  1  0.000000  0.500000  0.874024  1
  Ir  Ir31  1  0.000000  0.500000  0.381143  1
