# generated using pymatgen
data_PrHo2Co8MoP6
_symmetry_space_group_name_H-M   'P 1'
_cell_length_a   3.74692500
_cell_length_b   10.62505000
_cell_length_c   12.32622300
_cell_angle_alpha   90.00000000
_cell_angle_beta   90.00000000
_cell_angle_gamma   90.00000000
_symmetry_Int_Tables_number   1
_chemical_formula_structural   PrHo2Co8MoP6
_chemical_formula_sum   'Pr2 Ho4 Co16 Mo2 P12'
_cell_volume   490.72253611
_cell_formula_units_Z   2
loop_
 _symmetry_equiv_pos_site_id
 _symmetry_equiv_pos_as_xyz
  1  'x, y, z'
loop_
 _atom_site_type_symbol
 _atom_site_label
 _atom_site_symmetry_multiplicity
 _atom_site_fract_x
 _atom_site_fract_y
 _atom_site_fract_z
 _atom_site_occupancy
  Pr  Pr0  1  0.000000  0.500000  0.525235  1
  Pr  Pr1  1  0.500000  0.000000  0.474765  1
  Ho  Ho2  1  0.500000  0.818789  0.203302  1
  Ho  Ho3  1  0.500000  0.181211  0.203302  1
  Ho  Ho4  1  0.000000  0.681211  0.796698  1
  Ho  Ho5  1  0.000000  0.318789  0.796698  1
  Co  Co6  1  0.000000  0.500000  0.986421  1
  Co  Co7  1  0.500000  0.000000  0.013579  1
  Co  Co8  1  0.500000  0.295270  0.429632  1
  Co  Co9  1  0.500000  0.704730  0.429632  1
  Co  Co10  1  0.000000  0.204730  0.570368  1
  Co  Co11  1  0.000000  0.795270  0.570368  1
  Co  Co12  1  0.500000  0.878664  0.710235  1
  Co  Co13  1  0.500000  0.121336  0.710235  1
  Co  Co14  1  0.000000  0.621336  0.289765  1
  Co  Co15  1  0.000000  0.378664  0.289765  1
  Co  Co16  1  0.500000  0.332111  0.990254  1
  Co  Co17  1  0.500000  0.667889  0.990254  1
  Co  Co18  1  0.000000  0.167889  0.009746  1
  Co  Co19  1  0.000000  0.832111  0.009746  1
  Co  Co20  1  0.500000  0.500000  0.705940  1
  Co  Co21  1  0.000000  0.000000  0.294060  1
  Mo  Mo22  1  0.500000  0.500000  0.153755  1
  Mo  Mo23  1  0.000000  0.000000  0.846245  1
  P  P24  1  0.500000  0.307347  0.618220  1
  P  P25  1  0.500000  0.692653  0.618220  1
  P  P26  1  0.000000  0.192653  0.381780  1
  P  P27  1  0.000000  0.807347  0.381780  1
  P  P28  1  0.500000  0.500000  0.882577  1
  P  P29  1  0.000000  0.000000  0.117423  1
  P  P30  1  0.500000  0.844740  0.894002  1
  P  P31  1  0.500000  0.155260  0.894002  1
  P  P32  1  0.000000  0.655260  0.105998  1
  P  P33  1  0.000000  0.344740  0.105998  1
  P  P34  1  0.500000  0.500000  0.344273  1
  P  P35  1  0.000000  0.000000  0.655727  1
