# generated using pymatgen
data_ErB9N
_symmetry_space_group_name_H-M   'P 1'
_cell_length_a   5.50374389
_cell_length_b   5.50374531
_cell_length_c   7.57092331
_cell_angle_alpha   111.31401153
_cell_angle_beta   68.68598402
_cell_angle_gamma   119.99999365
_symmetry_Int_Tables_number   1
_chemical_formula_structural   ErB9N
_chemical_formula_sum   'Er2 B18 N2'
_cell_volume   180.26795016
_cell_formula_units_Z   2
loop_
 _symmetry_equiv_pos_site_id
 _symmetry_equiv_pos_as_xyz
  1  'x, y, z'
loop_
 _atom_site_type_symbol
 _atom_site_label
 _atom_site_symmetry_multiplicity
 _atom_site_fract_x
 _atom_site_fract_y
 _atom_site_fract_z
 _atom_site_occupancy
  Er  Er0  1  0.299343  0.700656  0.101970  1
  Er  Er1  1  0.700655  0.299344  0.898030  1
  B  B2  1  0.180805  0.143249  0.105693  1
  B  B3  1  0.856752  0.143248  0.105693  1
  B  B4  1  0.856752  0.819196  0.105693  1
  B  B5  1  0.352003  0.323727  0.295451  1
  B  B6  1  0.676274  0.323726  0.295451  1
  B  B7  1  0.676274  0.647998  0.295451  1
  B  B8  1  0.337296  0.133576  0.458985  1
  B  B9  1  0.337296  0.662704  0.458985  1
  B  B10  1  0.866423  0.662704  0.458985  1
  B  B11  1  0.133576  0.337296  0.541016  1
  B  B12  1  0.662704  0.337296  0.541016  1
  B  B13  1  0.662704  0.866424  0.541016  1
  B  B14  1  0.323727  0.352003  0.704549  1
  B  B15  1  0.323727  0.676274  0.704549  1
  B  B16  1  0.647996  0.676273  0.704549  1
  B  B17  1  0.143249  0.180805  0.894307  1
  B  B18  1  0.143249  0.856752  0.894307  1
  B  B19  1  0.819196  0.856752  0.894307  1
  N  N20  1  0.190097  0.809902  0.429707  1
  N  N21  1  0.809902  0.190097  0.570293  1
