# generated using pymatgen
data_DyTm15Cd4TcNi3
_symmetry_space_group_name_H-M   'P 1'
_cell_length_a   9.45332469
_cell_length_b   9.45332442
_cell_length_c   9.46470405
_cell_angle_alpha   59.74626261
_cell_angle_beta   59.74626776
_cell_angle_gamma   59.64582708
_symmetry_Int_Tables_number   1
_chemical_formula_structural   DyTm15Cd4TcNi3
_chemical_formula_sum   'Dy1 Tm15 Cd4 Tc1 Ni3'
_cell_volume   594.17977942
_cell_formula_units_Z   1
loop_
 _symmetry_equiv_pos_site_id
 _symmetry_equiv_pos_as_xyz
  1  'x, y, z'
loop_
 _atom_site_type_symbol
 _atom_site_label
 _atom_site_symmetry_multiplicity
 _atom_site_fract_x
 _atom_site_fract_y
 _atom_site_fract_z
 _atom_site_occupancy
  Dy  Dy0  1  0.188758  0.188758  0.805978  1
  Tm  Tm1  1  0.597842  0.597842  0.597589  1
  Tm  Tm2  1  0.601928  0.601928  0.203971  1
  Tm  Tm3  1  0.602475  0.204336  0.601272  1
  Tm  Tm4  1  0.204336  0.602475  0.601272  1
  Tm  Tm5  1  0.060483  0.438222  0.437129  1
  Tm  Tm6  1  0.437758  0.060518  0.061153  1
  Tm  Tm7  1  0.438222  0.060483  0.437129  1
  Tm  Tm8  1  0.060518  0.437758  0.061153  1
  Tm  Tm9  1  0.437758  0.437758  0.060928  1
  Tm  Tm10  1  0.060859  0.060859  0.437002  1
  Tm  Tm11  1  0.185308  0.813748  0.814583  1
  Tm  Tm12  1  0.804964  0.189046  0.189804  1
  Tm  Tm13  1  0.813748  0.185308  0.814583  1
  Tm  Tm14  1  0.189046  0.804964  0.189804  1
  Tm  Tm15  1  0.814782  0.814782  0.185340  1
  Cd  Cd16  1  0.830398  0.830398  0.830513  1
  Cd  Cd17  1  0.830397  0.830397  0.505227  1
  Cd  Cd18  1  0.829287  0.506182  0.830491  1
  Cd  Cd19  1  0.506182  0.829287  0.830491  1
  Tc  Tc20  1  0.394283  0.394283  0.393869  1
  Ni  Ni21  1  0.392751  0.392751  0.825689  1
  Ni  Ni22  1  0.392511  0.825405  0.392514  1
  Ni  Ni23  1  0.825405  0.392511  0.392514  1
