# generated using pymatgen
data_Y6ScCrO12
_symmetry_space_group_name_H-M   'P 1'
_cell_length_a   6.57592827
_cell_length_b   6.57592976
_cell_length_c   6.57592852
_cell_angle_alpha   92.79133417
_cell_angle_beta   92.79133523
_cell_angle_gamma   92.79134243
_symmetry_Int_Tables_number   1
_chemical_formula_structural   Y6ScCrO12
_chemical_formula_sum   'Y6 Sc1 Cr1 O12'
_cell_volume   283.31549808
_cell_formula_units_Z   1
loop_
 _symmetry_equiv_pos_site_id
 _symmetry_equiv_pos_as_xyz
  1  'x, y, z'
loop_
 _atom_site_type_symbol
 _atom_site_label
 _atom_site_symmetry_multiplicity
 _atom_site_fract_x
 _atom_site_fract_y
 _atom_site_fract_z
 _atom_site_occupancy
  Y  Y0  1  0.742687  0.926509  0.435557  1
  Y  Y1  1  0.926509  0.435557  0.742687  1
  Y  Y2  1  0.435557  0.742687  0.926509  1
  Y  Y3  1  0.257313  0.073491  0.564443  1
  Y  Y4  1  0.073491  0.564443  0.257313  1
  Y  Y5  1  0.564443  0.257313  0.073491  1
  Sc  Sc6  1  0.000000  0.000000  0.000000  1
  Cr  Cr7  1  0.500000  0.500000  0.500000  1
  O  O8  1  0.586626  0.458975  0.798232  1
  O  O9  1  0.458975  0.798232  0.586626  1
  O  O10  1  0.798232  0.586626  0.458975  1
  O  O11  1  0.413374  0.541025  0.201768  1
  O  O12  1  0.541025  0.201768  0.413374  1
  O  O13  1  0.201768  0.413374  0.541025  1
  O  O14  1  0.068141  0.916507  0.307531  1
  O  O15  1  0.916507  0.307531  0.068141  1
  O  O16  1  0.692469  0.931859  0.083493  1
  O  O17  1  0.083493  0.692469  0.931859  1
  O  O18  1  0.931859  0.083493  0.692469  1
  O  O19  1  0.307531  0.068141  0.916507  1
