# generated using pymatgen
data_Ca2GdNbN4
_symmetry_space_group_name_H-M   'P 1'
_cell_length_a   5.92863883
_cell_length_b   5.93451665
_cell_length_c   4.93515155
_cell_angle_alpha   65.11270395
_cell_angle_beta   65.47934986
_cell_angle_gamma   49.16540366
_symmetry_Int_Tables_number   1
_chemical_formula_structural   Ca2GdNbN4
_chemical_formula_sum   'Ca2 Gd1 Nb1 N4'
_cell_volume   116.67361235
_cell_formula_units_Z   1
loop_
 _symmetry_equiv_pos_site_id
 _symmetry_equiv_pos_as_xyz
  1  'x, y, z'
loop_
 _atom_site_type_symbol
 _atom_site_label
 _atom_site_symmetry_multiplicity
 _atom_site_fract_x
 _atom_site_fract_y
 _atom_site_fract_z
 _atom_site_occupancy
  Ca  Ca0  1  0.249878  0.250122  0.250122  1
  Ca  Ca1  1  0.504559  0.495441  0.495441  1
  Gd  Gd2  1  0.752529  0.747471  0.747471  1
  Nb  Nb3  1  0.045348  0.954652  0.954652  1
  N  N4  1  0.003096  0.989116  0.564388  1
  N  N5  1  0.202569  0.229726  0.793150  1
  N  N6  1  0.443400  0.564388  0.989116  1
  N  N7  1  0.774556  0.793150  0.229726  1
