# generated using pymatgen
data_Tb(Nd2Rh)2
_symmetry_space_group_name_H-M   'P 1'
_cell_length_a   6.60460531
_cell_length_b   7.23816628
_cell_length_c   9.03816246
_cell_angle_alpha   96.60931416
_cell_angle_beta   111.43056510
_cell_angle_gamma   89.99999655
_symmetry_Int_Tables_number   1
_chemical_formula_structural   Tb(Nd2Rh)2
_chemical_formula_sum   'Tb2 Nd8 Rh4'
_cell_volume   399.11208852
_cell_formula_units_Z   2
loop_
 _symmetry_equiv_pos_site_id
 _symmetry_equiv_pos_as_xyz
  1  'x, y, z'
loop_
 _atom_site_type_symbol
 _atom_site_label
 _atom_site_symmetry_multiplicity
 _atom_site_fract_x
 _atom_site_fract_y
 _atom_site_fract_z
 _atom_site_occupancy
  Tb  Tb0  1  0.433030  0.750000  0.000000  1
  Tb  Tb1  1  0.566970  0.250000  0.000000  1
  Nd  Nd2  1  0.981767  0.921534  0.185842  1
  Nd  Nd3  1  0.795925  0.578466  0.814158  1
  Nd  Nd4  1  0.018233  0.078466  0.814158  1
  Nd  Nd5  1  0.204075  0.421534  0.185842  1
  Nd  Nd6  1  0.644108  0.811914  0.430014  1
  Nd  Nd7  1  0.214094  0.688086  0.569986  1
  Nd  Nd8  1  0.355892  0.188086  0.569986  1
  Nd  Nd9  1  0.785906  0.311914  0.430014  1
  Rh  Rh10  1  0.808019  0.571845  0.214822  1
  Rh  Rh11  1  0.593196  0.928155  0.785178  1
  Rh  Rh12  1  0.191981  0.428155  0.785178  1
  Rh  Rh13  1  0.406804  0.071845  0.214822  1
