# generated using pymatgen
data_La3Sm(Lu3Si4)2
_symmetry_space_group_name_H-M   'P 1'
_cell_length_a   7.71915241
_cell_length_b   7.71736341
_cell_length_c   14.18678900
_cell_angle_alpha   90.00000000
_cell_angle_beta   90.00000000
_cell_angle_gamma   90.10766913
_symmetry_Int_Tables_number   1
_chemical_formula_structural   La3Sm(Lu3Si4)2
_chemical_formula_sum   'La6 Sm2 Lu12 Si16'
_cell_volume   845.12686996
_cell_formula_units_Z   2
loop_
 _symmetry_equiv_pos_site_id
 _symmetry_equiv_pos_as_xyz
  1  'x, y, z'
loop_
 _atom_site_type_symbol
 _atom_site_label
 _atom_site_symmetry_multiplicity
 _atom_site_fract_x
 _atom_site_fract_y
 _atom_site_fract_z
 _atom_site_occupancy
  La  La0  1  0.646040  0.993733  0.961675  1
  La  La1  1  0.145383  0.508041  0.789151  1
  La  La2  1  0.854617  0.491959  0.289151  1
  La  La3  1  0.506319  0.145592  0.210386  1
  La  La4  1  0.493681  0.854408  0.710386  1
  La  La5  1  0.353960  0.006267  0.461675  1
  Sm  Sm6  1  0.994764  0.643741  0.039468  1
  Sm  Sm7  1  0.005236  0.356259  0.539468  1
  Lu  Lu8  1  0.357274  0.493367  0.375843  1
  Lu  Lu9  1  0.858857  0.004314  0.374636  1
  Lu  Lu10  1  0.995356  0.141143  0.125109  1
  Lu  Lu11  1  0.004644  0.858857  0.625109  1
  Lu  Lu12  1  0.642726  0.506633  0.875843  1
  Lu  Lu13  1  0.493716  0.357202  0.624029  1
  Lu  Lu14  1  0.506284  0.642798  0.124029  1
  Lu  Lu15  1  0.141143  0.995686  0.874636  1
  Lu  Lu16  1  0.681414  0.678761  0.499891  1
  Lu  Lu17  1  0.820336  0.182031  0.749913  1
  Lu  Lu18  1  0.179664  0.817969  0.249913  1
  Lu  Lu19  1  0.318586  0.321239  0.999891  1
  Si  Si20  1  0.059835  0.706927  0.438190  1
  Si  Si21  1  0.940165  0.293073  0.938190  1
  Si  Si22  1  0.713752  0.064201  0.562284  1
  Si  Si23  1  0.209497  0.440950  0.186749  1
  Si  Si24  1  0.790504  0.559050  0.686749  1
  Si  Si25  1  0.437299  0.211918  0.812060  1
  Si  Si26  1  0.562701  0.788083  0.312060  1
  Si  Si27  1  0.286248  0.935799  0.062284  1
  Si  Si28  1  0.853612  0.793848  0.812901  1
  Si  Si29  1  0.146388  0.206152  0.312901  1
  Si  Si30  1  0.796098  0.851512  0.186153  1
  Si  Si31  1  0.290499  0.643272  0.562736  1
  Si  Si32  1  0.709501  0.356728  0.062736  1
  Si  Si33  1  0.650151  0.294012  0.438824  1
  Si  Si34  1  0.349849  0.705988  0.938824  1
  Si  Si35  1  0.203902  0.148488  0.686153  1
