# generated using pymatgen
data_Nd5Gd5Rh8
_symmetry_space_group_name_H-M   'P 1'
_cell_length_a   7.42117900
_cell_length_b   7.51733301
_cell_length_c   14.69392600
_cell_angle_alpha   90.00257618
_cell_angle_beta   90.00000000
_cell_angle_gamma   90.00000000
_symmetry_Int_Tables_number   1
_chemical_formula_structural   Nd5Gd5Rh8
_chemical_formula_sum   'Nd10 Gd10 Rh16'
_cell_volume   819.73701168
_cell_formula_units_Z   2
loop_
 _symmetry_equiv_pos_site_id
 _symmetry_equiv_pos_as_xyz
  1  'x, y, z'
loop_
 _atom_site_type_symbol
 _atom_site_label
 _atom_site_symmetry_multiplicity
 _atom_site_fract_x
 _atom_site_fract_y
 _atom_site_fract_z
 _atom_site_occupancy
  Nd  Nd0  1  0.662053  0.167369  0.877828  1
  Nd  Nd1  1  0.162053  0.332631  0.622172  1
  Nd  Nd2  1  0.510271  0.680206  0.591793  1
  Nd  Nd3  1  0.010271  0.819794  0.908207  1
  Nd  Nd4  1  0.489975  0.321490  0.093367  1
  Nd  Nd5  1  0.989975  0.178510  0.406633  1
  Nd  Nd6  1  0.491001  0.321082  0.407160  1
  Nd  Nd7  1  0.991001  0.178918  0.092840  1
  Nd  Nd8  1  0.509137  0.679350  0.908347  1
  Nd  Nd9  1  0.009137  0.820650  0.591653  1
  Gd  Gd10  1  0.662060  0.167073  0.622489  1
  Gd  Gd11  1  0.162060  0.332927  0.877511  1
  Gd  Gd12  1  0.337992  0.832830  0.122896  1
  Gd  Gd13  1  0.837992  0.667170  0.377104  1
  Gd  Gd14  1  0.337889  0.832801  0.376988  1
  Gd  Gd15  1  0.837889  0.667199  0.123012  1
  Gd  Gd16  1  0.824082  0.511554  0.750009  1
  Gd  Gd17  1  0.324082  0.988446  0.749991  1
  Gd  Gd18  1  0.175191  0.490722  0.250021  1
  Gd  Gd19  1  0.675191  0.009278  0.249979  1
  Rh  Rh20  1  0.677500  0.966218  0.458823  1
  Rh  Rh21  1  0.177500  0.533782  0.041177  1
  Rh  Rh22  1  0.320046  0.032957  0.959792  1
  Rh  Rh23  1  0.820046  0.467043  0.540208  1
  Rh  Rh24  1  0.324718  0.030572  0.540202  1
  Rh  Rh25  1  0.824718  0.469428  0.959798  1
  Rh  Rh26  1  0.677484  0.964261  0.042858  1
  Rh  Rh27  1  0.177484  0.535739  0.457142  1
  Rh  Rh28  1  0.461586  0.394865  0.750187  1
  Rh  Rh29  1  0.961586  0.105135  0.749813  1
  Rh  Rh30  1  0.539199  0.609227  0.250016  1
  Rh  Rh31  1  0.039199  0.890773  0.249984  1
  Rh  Rh32  1  0.695751  0.855780  0.748911  1
  Rh  Rh33  1  0.195751  0.644220  0.751089  1
  Rh  Rh34  1  0.304062  0.141887  0.249890  1
  Rh  Rh35  1  0.804062  0.358113  0.250110  1
