# generated using pymatgen
data_Li2MnNi9P7W2
_symmetry_space_group_name_H-M   'P 1'
_cell_length_a   9.08459400
_cell_length_b   9.09131014
_cell_length_c   3.59093200
_cell_angle_alpha   90.00000000
_cell_angle_beta   90.00000000
_cell_angle_gamma   119.97758843
_symmetry_Int_Tables_number   1
_chemical_formula_structural   Li2MnNi9P7W2
_chemical_formula_sum   'Li2 Mn1 Ni9 P7 W2'
_cell_volume   256.90221206
_cell_formula_units_Z   1
loop_
 _symmetry_equiv_pos_site_id
 _symmetry_equiv_pos_as_xyz
  1  'x, y, z'
loop_
 _atom_site_type_symbol
 _atom_site_label
 _atom_site_symmetry_multiplicity
 _atom_site_fract_x
 _atom_site_fract_y
 _atom_site_fract_z
 _atom_site_occupancy
  Li  Li0  1  0.335075  0.666918  0.000000  1
  Li  Li1  1  0.667699  0.334363  0.500000  1
  Mn  Mn2  1  0.873738  0.774942  0.500000  1
  Ni  Ni3  1  0.715296  0.874889  0.000000  1
  Ni  Ni4  1  0.162431  0.287532  0.000000  1
  Ni  Ni5  1  0.122005  0.835938  0.000000  1
  Ni  Ni6  1  0.628608  0.564146  0.000000  1
  Ni  Ni7  1  0.936024  0.374645  0.000000  1
  Ni  Ni8  1  0.435124  0.062667  0.000000  1
  Ni  Ni9  1  0.557001  0.942043  0.500000  1
  Ni  Ni10  1  0.387959  0.444875  0.500000  1
  Ni  Ni11  1  0.051280  0.613045  0.500000  1
  P  P12  1  0.591392  0.709887  0.500000  1
  P  P13  1  0.126569  0.419178  0.500000  1
  P  P14  1  0.290193  0.872973  0.500000  1
  P  P15  1  0.996071  0.992491  0.000000  1
  P  P16  1  0.878586  0.586628  0.000000  1
  P  P17  1  0.702627  0.120619  0.000000  1
  P  P18  1  0.418430  0.298160  0.000000  1
  W  W19  1  0.902536  0.125427  0.500000  1
  W  W20  1  0.221354  0.098635  0.500000  1
