# generated using pymatgen
data_Gd2Ho2TmSn4
_symmetry_space_group_name_H-M   'P 1'
_cell_length_a   8.01714100
_cell_length_b   8.16187400
_cell_length_c   15.43889000
_cell_angle_alpha   90.00000000
_cell_angle_beta   90.00000000
_cell_angle_gamma   90.00000000
_symmetry_Int_Tables_number   1
_chemical_formula_structural   Gd2Ho2TmSn4
_chemical_formula_sum   'Gd8 Ho8 Tm4 Sn16'
_cell_volume   1010.24214116
_cell_formula_units_Z   4
loop_
 _symmetry_equiv_pos_site_id
 _symmetry_equiv_pos_as_xyz
  1  'x, y, z'
loop_
 _atom_site_type_symbol
 _atom_site_label
 _atom_site_symmetry_multiplicity
 _atom_site_fract_x
 _atom_site_fract_y
 _atom_site_fract_z
 _atom_site_occupancy
  Gd  Gd0  1  0.519118  0.319223  0.904338  1
  Gd  Gd1  1  0.019118  0.180777  0.595662  1
  Gd  Gd2  1  0.480882  0.680777  0.404338  1
  Gd  Gd3  1  0.980882  0.819223  0.095662  1
  Gd  Gd4  1  0.480882  0.680777  0.095662  1
  Gd  Gd5  1  0.980882  0.819223  0.404338  1
  Gd  Gd6  1  0.519118  0.319223  0.595662  1
  Gd  Gd7  1  0.019118  0.180777  0.904338  1
  Ho  Ho8  1  0.366068  0.836990  0.877614  1
  Ho  Ho9  1  0.866068  0.663010  0.622386  1
  Ho  Ho10  1  0.633932  0.163010  0.377614  1
  Ho  Ho11  1  0.133932  0.336990  0.122386  1
  Ho  Ho12  1  0.633932  0.163010  0.122386  1
  Ho  Ho13  1  0.133932  0.336990  0.377614  1
  Ho  Ho14  1  0.366068  0.836990  0.622386  1
  Ho  Ho15  1  0.866068  0.663010  0.877614  1
  Tm  Tm16  1  0.197793  0.502944  0.750000  1
  Tm  Tm17  1  0.697793  0.997056  0.750000  1
  Tm  Tm18  1  0.802207  0.497056  0.250000  1
  Tm  Tm19  1  0.302207  0.002944  0.250000  1
  Sn  Sn20  1  0.295667  0.037442  0.041972  1
  Sn  Sn21  1  0.795667  0.462558  0.458028  1
  Sn  Sn22  1  0.704333  0.962558  0.541972  1
  Sn  Sn23  1  0.204333  0.537442  0.958028  1
  Sn  Sn24  1  0.704333  0.962558  0.958028  1
  Sn  Sn25  1  0.204333  0.537442  0.541972  1
  Sn  Sn26  1  0.295667  0.037442  0.458028  1
  Sn  Sn27  1  0.795667  0.462558  0.041972  1
  Sn  Sn28  1  0.563772  0.618588  0.750000  1
  Sn  Sn29  1  0.063772  0.881412  0.750000  1
  Sn  Sn30  1  0.436228  0.381412  0.250000  1
  Sn  Sn31  1  0.936228  0.118588  0.250000  1
  Sn  Sn32  1  0.328314  0.146825  0.750000  1
  Sn  Sn33  1  0.828314  0.353175  0.750000  1
  Sn  Sn34  1  0.671686  0.853175  0.250000  1
  Sn  Sn35  1  0.171686  0.646825  0.250000  1
