# generated using pymatgen
data_Zr10InB2Sb5
_symmetry_space_group_name_H-M   'P 1'
_cell_length_a   8.52970889
_cell_length_b   8.52970854
_cell_length_c   5.80495600
_cell_angle_alpha   90.00000000
_cell_angle_beta   90.00000000
_cell_angle_gamma   119.94753871
_symmetry_Int_Tables_number   1
_chemical_formula_structural   Zr10InB2Sb5
_chemical_formula_sum   'Zr10 In1 B2 Sb5'
_cell_volume   365.95467994
_cell_formula_units_Z   1
loop_
 _symmetry_equiv_pos_site_id
 _symmetry_equiv_pos_as_xyz
  1  'x, y, z'
loop_
 _atom_site_type_symbol
 _atom_site_label
 _atom_site_symmetry_multiplicity
 _atom_site_fract_x
 _atom_site_fract_y
 _atom_site_fract_z
 _atom_site_occupancy
  Zr  Zr0  1  0.669364  0.332678  0.999546  1
  Zr  Zr1  1  0.332678  0.669364  0.999546  1
  Zr  Zr2  1  0.332678  0.669364  0.500454  1
  Zr  Zr3  1  0.669364  0.332678  0.500454  1
  Zr  Zr4  1  0.767583  0.767583  0.750000  1
  Zr  Zr5  1  0.233391  0.000666  0.750000  1
  Zr  Zr6  1  0.000666  0.233391  0.750000  1
  Zr  Zr7  1  0.229007  0.229007  0.250000  1
  Zr  Zr8  1  0.766830  0.998703  0.250000  1
  Zr  Zr9  1  0.998703  0.766830  0.250000  1
  In  In10  1  0.399511  0.399511  0.750000  1
  B  B11  1  0.000668  0.000668  0.998919  1
  B  B12  1  0.000668  0.000668  0.501081  1
  Sb  Sb13  1  0.602295  0.000169  0.750000  1
  Sb  Sb14  1  0.000169  0.602295  0.750000  1
  Sb  Sb15  1  0.595591  0.595591  0.250000  1
  Sb  Sb16  1  0.398769  0.002066  0.250000  1
  Sb  Sb17  1  0.002066  0.398769  0.250000  1
