# generated using pymatgen
data_Y11Ho9(Bi2Os)4
_symmetry_space_group_name_H-M   'P 1'
_cell_length_a   7.96257302
_cell_length_b   9.00832600
_cell_length_c   12.54311703
_cell_angle_alpha   89.99964376
_cell_angle_beta   89.99247273
_cell_angle_gamma   89.99996652
_symmetry_Int_Tables_number   1
_chemical_formula_structural   Y11Ho9(Bi2Os)4
_chemical_formula_sum   'Y11 Ho9 Bi8 Os4'
_cell_volume   899.71092224
_cell_formula_units_Z   1
loop_
 _symmetry_equiv_pos_site_id
 _symmetry_equiv_pos_as_xyz
  1  'x, y, z'
loop_
 _atom_site_type_symbol
 _atom_site_label
 _atom_site_symmetry_multiplicity
 _atom_site_fract_x
 _atom_site_fract_y
 _atom_site_fract_z
 _atom_site_occupancy
  Y  Y0  1  0.839466  0.749999  0.791478  1
  Y  Y1  1  0.160286  0.250005  0.208670  1
  Y  Y2  1  0.339755  0.249998  0.708784  1
  Y  Y3  1  0.660298  0.749997  0.291068  1
  Y  Y4  1  0.374010  0.749998  0.691604  1
  Y  Y5  1  0.625852  0.249999  0.308389  1
  Y  Y6  1  0.874042  0.250002  0.808450  1
  Y  Y7  1  0.125893  0.749996  0.191513  1
  Y  Y8  1  0.943872  0.750001  0.504215  1
  Y  Y9  1  0.056039  0.249995  0.495740  1
  Y  Y10  1  0.443805  0.249998  0.995719  1
  Ho  Ho11  1  0.557749  0.750000  0.004177  1
  Ho  Ho12  1  0.672673  0.041626  0.564421  1
  Ho  Ho13  1  0.327409  0.958206  0.435543  1
  Ho  Ho14  1  0.172903  0.957917  0.935721  1
  Ho  Ho15  1  0.327408  0.541788  0.435546  1
  Ho  Ho16  1  0.827111  0.041517  0.064315  1
  Ho  Ho17  1  0.672674  0.458389  0.564421  1
  Ho  Ho18  1  0.827106  0.458485  0.064314  1
  Ho  Ho19  1  0.172903  0.542080  0.935718  1
  Bi  Bi20  1  0.566279  0.493600  0.827900  1
  Bi  Bi21  1  0.433840  0.507011  0.172029  1
  Bi  Bi22  1  0.066377  0.506726  0.672455  1
  Bi  Bi23  1  0.433837  0.992991  0.172029  1
  Bi  Bi24  1  0.933616  0.493302  0.327570  1
  Bi  Bi25  1  0.566274  0.006396  0.827900  1
  Bi  Bi26  1  0.933619  0.006699  0.327567  1
  Bi  Bi27  1  0.066375  0.993275  0.672459  1
  Os  Os28  1  0.574105  0.750001  0.509502  1
  Os  Os29  1  0.425920  0.249999  0.490491  1
  Os  Os30  1  0.074150  0.250001  0.990459  1
  Os  Os31  1  0.924354  0.750000  0.009830  1
