# generated using pymatgen
data_Zr5Re6Si6W
_symmetry_space_group_name_H-M   'P 1'
_cell_length_a   7.74554454
_cell_length_b   7.74610600
_cell_length_c   7.74554499
_cell_angle_alpha   126.45545959
_cell_angle_beta   127.65447310
_cell_angle_gamma   78.16324200
_symmetry_Int_Tables_number   1
_chemical_formula_structural   Zr5Re6Si6W
_chemical_formula_sum   'Zr5 Re6 Si6 W1'
_cell_volume   286.68642961
_cell_formula_units_Z   1
loop_
 _symmetry_equiv_pos_site_id
 _symmetry_equiv_pos_as_xyz
  1  'x, y, z'
loop_
 _atom_site_type_symbol
 _atom_site_label
 _atom_site_symmetry_multiplicity
 _atom_site_fract_x
 _atom_site_fract_y
 _atom_site_fract_z
 _atom_site_occupancy
  Zr  Zr0  1  0.948720  0.911253  0.462533  1
  Zr  Zr1  1  0.045754  0.494272  0.948518  1
  Zr  Zr2  1  0.551272  0.513793  0.462520  1
  Zr  Zr3  1  0.454246  0.902738  0.948492  1
  Zr  Zr4  1  0.749993  0.099536  0.849543  1
  Re  Re5  1  0.490688  0.758839  0.249651  1
  Re  Re6  1  0.009188  0.758839  0.768151  1
  Re  Re7  1  0.874679  0.247796  0.373822  1
  Re  Re8  1  0.126101  0.499126  0.373801  1
  Re  Re9  1  0.373974  0.247796  0.873116  1
  Re  Re10  1  0.625324  0.499126  0.873026  1
  Si  Si11  1  0.750017  0.506009  0.255992  1
  Si  Si12  1  0.250004  0.497722  0.747718  1
  Si  Si13  1  0.654222  0.168937  0.495600  1
  Si  Si14  1  0.326672  0.841402  0.495615  1
  Si  Si15  1  0.173337  0.168937  0.014716  1
  Si  Si16  1  0.845787  0.841402  0.014730  1
  W  W17  1  0.250020  0.100276  0.350256  1
