# generated using pymatgen
data_ThMnFeP2
_symmetry_space_group_name_H-M   'P 1'
_cell_length_a   5.63941248
_cell_length_b   5.63941213
_cell_length_c   5.63941295
_cell_angle_alpha   139.24253513
_cell_angle_beta   139.24252618
_cell_angle_gamma   59.00523041
_symmetry_Int_Tables_number   1
_chemical_formula_structural   ThMnFeP2
_chemical_formula_sum   'Th1 Mn1 Fe1 P2'
_cell_volume   75.71203527
_cell_formula_units_Z   1
loop_
 _symmetry_equiv_pos_site_id
 _symmetry_equiv_pos_as_xyz
  1  'x, y, z'
loop_
 _atom_site_type_symbol
 _atom_site_label
 _atom_site_symmetry_multiplicity
 _atom_site_fract_x
 _atom_site_fract_y
 _atom_site_fract_z
 _atom_site_occupancy
  Th  Th0  1  0.000000  0.000000  0.000000  1
  Mn  Mn1  1  0.750000  0.250000  0.500000  1
  Fe  Fe2  1  0.250000  0.750000  0.500000  1
  P  P3  1  0.642821  0.642821  0.000000  1
  P  P4  1  0.357179  0.357179  0.000000  1
