# generated using pymatgen
data_Ho3Mg3Si2Rh
_symmetry_space_group_name_H-M   'P 1'
_cell_length_a   7.16093000
_cell_length_b   7.16092974
_cell_length_c   4.26580100
_cell_angle_alpha   90.00000000
_cell_angle_beta   90.00000000
_cell_angle_gamma   120.00000118
_symmetry_Int_Tables_number   1
_chemical_formula_structural   Ho3Mg3Si2Rh
_chemical_formula_sum   'Ho3 Mg3 Si2 Rh1'
_cell_volume   189.43929097
_cell_formula_units_Z   1
loop_
 _symmetry_equiv_pos_site_id
 _symmetry_equiv_pos_as_xyz
  1  'x, y, z'
loop_
 _atom_site_type_symbol
 _atom_site_label
 _atom_site_symmetry_multiplicity
 _atom_site_fract_x
 _atom_site_fract_y
 _atom_site_fract_z
 _atom_site_occupancy
  Ho  Ho0  1  0.413241  0.000000  0.000000  1
  Ho  Ho1  1  0.000000  0.413242  0.000000  1
  Ho  Ho2  1  0.586759  0.586759  0.000000  1
  Mg  Mg3  1  0.759936  0.000000  0.500000  1
  Mg  Mg4  1  0.240065  0.240064  0.500000  1
  Mg  Mg5  1  0.000000  0.759936  0.500000  1
  Si  Si6  1  0.666668  0.333334  0.500000  1
  Si  Si7  1  0.333333  0.666666  0.500000  1
  Rh  Rh8  1  0.000000  0.000000  0.000000  1
