# generated using pymatgen
data_La6Si2Tc
_symmetry_space_group_name_H-M   'P 1'
_cell_length_a   8.06883200
_cell_length_b   8.06883244
_cell_length_c   4.50982300
_cell_angle_alpha   90.00000000
_cell_angle_beta   90.00000000
_cell_angle_gamma   119.99999819
_symmetry_Int_Tables_number   1
_chemical_formula_structural   La6Si2Tc
_chemical_formula_sum   'La6 Si2 Tc1'
_cell_volume   254.27959255
_cell_formula_units_Z   1
loop_
 _symmetry_equiv_pos_site_id
 _symmetry_equiv_pos_as_xyz
  1  'x, y, z'
loop_
 _atom_site_type_symbol
 _atom_site_label
 _atom_site_symmetry_multiplicity
 _atom_site_fract_x
 _atom_site_fract_y
 _atom_site_fract_z
 _atom_site_occupancy
  La  La0  1  0.423167  0.000000  0.000000  1
  La  La1  1  0.000000  0.423167  0.000000  1
  La  La2  1  0.576833  0.576832  0.000000  1
  La  La3  1  0.759500  0.000000  0.500000  1
  La  La4  1  0.240500  0.240500  0.500000  1
  La  La5  1  0.000000  0.759501  0.500000  1
  Si  Si6  1  0.666666  0.333334  0.500000  1
  Si  Si7  1  0.333334  0.666667  0.500000  1
  Tc  Tc8  1  0.000000  0.000000  0.000000  1
