# generated using pymatgen
data_ReS27
_symmetry_space_group_name_H-M   'P 1'
_cell_length_a   14.99144924
_cell_length_b   14.99144923
_cell_length_c   14.99144884
_cell_angle_alpha   118.82458785
_cell_angle_beta   118.82458810
_cell_angle_gamma   118.82458143
_symmetry_Int_Tables_number   1
_chemical_formula_structural   ReS27
_chemical_formula_sum   'Re1 S27'
_cell_volume   944.05761529
_cell_formula_units_Z   1
loop_
 _symmetry_equiv_pos_site_id
 _symmetry_equiv_pos_as_xyz
  1  'x, y, z'
loop_
 _atom_site_type_symbol
 _atom_site_label
 _atom_site_symmetry_multiplicity
 _atom_site_fract_x
 _atom_site_fract_y
 _atom_site_fract_z
 _atom_site_occupancy
  Re  Re0  1  0.156649  0.156649  0.156649  1
  S  S1  1  0.009470  0.606736  0.606736  1
  S  S2  1  0.606736  0.606736  0.009470  1
  S  S3  1  0.606736  0.009470  0.606736  1
  S  S4  1  0.235345  0.847889  0.717987  1
  S  S5  1  0.847889  0.717987  0.235345  1
  S  S6  1  0.717987  0.235345  0.847889  1
  S  S7  1  0.847889  0.235345  0.717987  1
  S  S8  1  0.235345  0.717987  0.847889  1
  S  S9  1  0.717987  0.847889  0.235345  1
  S  S10  1  0.098307  0.627793  0.443645  1
  S  S11  1  0.627793  0.443645  0.098307  1
  S  S12  1  0.443645  0.098307  0.627793  1
  S  S13  1  0.627793  0.098307  0.443645  1
  S  S14  1  0.098307  0.443645  0.627793  1
  S  S15  1  0.443645  0.627793  0.098307  1
  S  S16  1  0.361094  0.748438  0.618071  1
  S  S17  1  0.748438  0.618071  0.361094  1
  S  S18  1  0.618071  0.361094  0.748438  1
  S  S19  1  0.748438  0.361094  0.618071  1
  S  S20  1  0.361094  0.618071  0.748438  1
  S  S21  1  0.618071  0.748438  0.361094  1
  S  S22  1  0.187824  0.465583  0.465583  1
  S  S23  1  0.465583  0.465583  0.187824  1
  S  S24  1  0.465583  0.187824  0.465583  1
  S  S25  1  0.142122  0.004629  0.004629  1
  S  S26  1  0.004629  0.004629  0.142122  1
  S  S27  1  0.004629  0.142122  0.004629  1
