# generated using pymatgen
data_ErLu3(Ga3Rh)6
_symmetry_space_group_name_H-M   'P 1'
_cell_length_a   7.54294901
_cell_length_b   7.54374450
_cell_length_c   9.48425400
_cell_angle_alpha   90.00000000
_cell_angle_beta   90.00000000
_cell_angle_gamma   119.81683636
_symmetry_Int_Tables_number   1
_chemical_formula_structural   ErLu3(Ga3Rh)6
_chemical_formula_sum   'Er1 Lu3 Ga18 Rh6'
_cell_volume   468.23143138
_cell_formula_units_Z   1
loop_
 _symmetry_equiv_pos_site_id
 _symmetry_equiv_pos_as_xyz
  1  'x, y, z'
loop_
 _atom_site_type_symbol
 _atom_site_label
 _atom_site_symmetry_multiplicity
 _atom_site_fract_x
 _atom_site_fract_y
 _atom_site_fract_z
 _atom_site_occupancy
  Er  Er0  1  0.997831  0.669557  0.250000  1
  Lu  Lu1  1  0.002167  0.330410  0.750000  1
  Lu  Lu2  1  0.669576  0.997892  0.250000  1
  Lu  Lu3  1  0.330438  0.002150  0.750000  1
  Ga  Ga4  1  0.339013  0.549565  0.250000  1
  Ga  Ga5  1  0.661058  0.450404  0.750000  1
  Ga  Ga6  1  0.549443  0.338800  0.250000  1
  Ga  Ga7  1  0.450428  0.661070  0.750000  1
  Ga  Ga8  1  0.999948  0.334826  0.080837  1
  Ga  Ga9  1  0.000040  0.664943  0.918950  1
  Ga  Ga10  1  0.000040  0.664943  0.581050  1
  Ga  Ga11  1  0.335247  0.000136  0.419154  1
  Ga  Ga12  1  0.999948  0.334826  0.419163  1
  Ga  Ga13  1  0.664933  0.000052  0.580931  1
  Ga  Ga14  1  0.664933  0.000052  0.919069  1
  Ga  Ga15  1  0.335247  0.000136  0.080846  1
  Ga  Ga16  1  0.332116  0.332126  0.566645  1
  Ga  Ga17  1  0.667703  0.667893  0.433501  1
  Ga  Ga18  1  0.667703  0.667893  0.066499  1
  Ga  Ga19  1  0.332116  0.332126  0.933355  1
  Ga  Ga20  1  0.125782  0.125896  0.250000  1
  Ga  Ga21  1  0.874256  0.874239  0.750000  1
  Rh  Rh22  1  0.671831  0.328052  0.999975  1
  Rh  Rh23  1  0.328137  0.671874  0.999974  1
  Rh  Rh24  1  0.328137  0.671874  0.500026  1
  Rh  Rh25  1  0.671831  0.328052  0.500025  1
  Rh  Rh26  1  0.000048  0.000105  0.999955  1
  Rh  Rh27  1  0.000048  0.000105  0.500045  1
