# generated using pymatgen
data_YbY3VRe3B16
_symmetry_space_group_name_H-M   'P 1'
_cell_length_a   3.57705200
_cell_length_b   5.98567271
_cell_length_c   11.57396510
_cell_angle_alpha   89.85308027
_cell_angle_beta   90.00000000
_cell_angle_gamma   90.00000000
_symmetry_Int_Tables_number   1
_chemical_formula_structural   YbY3VRe3B16
_chemical_formula_sum   'Yb1 Y3 V1 Re3 B16'
_cell_volume   247.81007590
_cell_formula_units_Z   1
loop_
 _symmetry_equiv_pos_site_id
 _symmetry_equiv_pos_as_xyz
  1  'x, y, z'
loop_
 _atom_site_type_symbol
 _atom_site_label
 _atom_site_symmetry_multiplicity
 _atom_site_fract_x
 _atom_site_fract_y
 _atom_site_fract_z
 _atom_site_occupancy
  Yb  Yb0  1  0.000000  0.625679  0.351616  1
  Y  Y1  1  0.000000  0.375569  0.647501  1
  Y  Y2  1  0.000000  0.127182  0.153341  1
  Y  Y3  1  0.000000  0.872438  0.846299  1
  V  V4  1  0.000000  0.872629  0.582018  1
  Re  Re5  1  0.000000  0.633063  0.085495  1
  Re  Re6  1  0.000000  0.367371  0.915068  1
  Re  Re7  1  0.000000  0.127217  0.416904  1
  B  B8  1  0.500000  0.783767  0.186684  1
  B  B9  1  0.500000  0.215416  0.813966  1
  B  B10  1  0.500000  0.285774  0.315935  1
  B  B11  1  0.500000  0.713776  0.684349  1
  B  B12  1  0.500000  0.864243  0.031632  1
  B  B13  1  0.500000  0.135816  0.968478  1
  B  B14  1  0.500000  0.364674  0.467339  1
  B  B15  1  0.500000  0.635254  0.532781  1
  B  B16  1  0.500000  0.885039  0.453208  1
  B  B17  1  0.500000  0.112994  0.546727  1
  B  B18  1  0.500000  0.387091  0.047793  1
  B  B19  1  0.500000  0.613721  0.952311  1
  B  B20  1  0.500000  0.976764  0.308312  1
  B  B21  1  0.500000  0.023642  0.692007  1
  B  B22  1  0.500000  0.476747  0.193183  1
  B  B23  1  0.500000  0.524133  0.807054  1
