# generated using pymatgen
data_Y3Ga6Ni7Ru2
_symmetry_space_group_name_H-M   'P 1'
_cell_length_a   9.17650419
_cell_length_b   8.98978542
_cell_length_c   3.87985500
_cell_angle_alpha   90.00000000
_cell_angle_beta   90.00000000
_cell_angle_gamma   119.27996095
_symmetry_Int_Tables_number   1
_chemical_formula_structural   Y3Ga6Ni7Ru2
_chemical_formula_sum   'Y3 Ga6 Ni7 Ru2'
_cell_volume   279.17612583
_cell_formula_units_Z   1
loop_
 _symmetry_equiv_pos_site_id
 _symmetry_equiv_pos_as_xyz
  1  'x, y, z'
loop_
 _atom_site_type_symbol
 _atom_site_label
 _atom_site_symmetry_multiplicity
 _atom_site_fract_x
 _atom_site_fract_y
 _atom_site_fract_z
 _atom_site_occupancy
  Y  Y0  1  0.000016  0.000057  0.000000  1
  Y  Y1  1  0.654211  0.326796  0.500000  1
  Y  Y2  1  0.345808  0.673182  0.500000  1
  Ga  Ga3  1  0.694182  0.006582  0.500000  1
  Ga  Ga4  1  0.305828  0.993439  0.500000  1
  Ga  Ga5  1  0.999304  0.327626  0.500000  1
  Ga  Ga6  1  0.307112  0.312850  0.500000  1
  Ga  Ga7  1  0.692869  0.687168  0.500000  1
  Ga  Ga8  1  0.000722  0.672381  0.500000  1
  Ni  Ni9  1  0.826977  0.184304  0.000000  1
  Ni  Ni10  1  0.346247  0.173219  0.000000  1
  Ni  Ni11  1  0.172762  0.356391  0.000000  1
  Ni  Ni12  1  0.000009  0.499875  0.000000  1
  Ni  Ni13  1  0.827212  0.643645  0.000000  1
  Ni  Ni14  1  0.653755  0.826833  0.000000  1
  Ni  Ni15  1  0.173064  0.815733  0.000000  1
  Ru  Ru16  1  0.500014  0.000019  0.000000  1
  Ru  Ru17  1  0.500011  0.500001  0.000000  1
