# generated using pymatgen
data_Tb7Ce(ReC2)4
_symmetry_space_group_name_H-M   'P 1'
_cell_length_a   5.17786300
_cell_length_b   6.60236028
_cell_length_c   9.90957986
_cell_angle_alpha   89.95941017
_cell_angle_beta   90.00000000
_cell_angle_gamma   90.00000000
_symmetry_Int_Tables_number   1
_chemical_formula_structural   Tb7Ce(ReC2)4
_chemical_formula_sum   'Tb7 Ce1 Re4 C8'
_cell_volume   338.76997197
_cell_formula_units_Z   1
loop_
 _symmetry_equiv_pos_site_id
 _symmetry_equiv_pos_as_xyz
  1  'x, y, z'
loop_
 _atom_site_type_symbol
 _atom_site_label
 _atom_site_symmetry_multiplicity
 _atom_site_fract_x
 _atom_site_fract_y
 _atom_site_fract_z
 _atom_site_occupancy
  Tb  Tb0  1  0.250000  0.681469  0.555860  1
  Tb  Tb1  1  0.750000  0.321851  0.445824  1
  Tb  Tb2  1  0.750000  0.819109  0.053436  1
  Tb  Tb3  1  0.250000  0.180233  0.945367  1
  Tb  Tb4  1  0.250000  0.531890  0.213943  1
  Tb  Tb5  1  0.750000  0.468299  0.785285  1
  Tb  Tb6  1  0.750000  0.968784  0.714824  1
  Ce  Ce7  1  0.250000  0.029743  0.284579  1
  Re  Re8  1  0.250000  0.721928  0.865167  1
  Re  Re9  1  0.750000  0.277577  0.135095  1
  Re  Re10  1  0.750000  0.778457  0.364223  1
  Re  Re11  1  0.250000  0.221606  0.636018  1
  C  C12  1  0.250000  0.455965  0.759463  1
  C  C13  1  0.750000  0.544189  0.240402  1
  C  C14  1  0.750000  0.044624  0.258439  1
  C  C15  1  0.250000  0.955211  0.741412  1
  C  C16  1  0.250000  0.822879  0.049983  1
  C  C17  1  0.750000  0.179082  0.951658  1
  C  C18  1  0.750000  0.677653  0.547579  1
  C  C19  1  0.250000  0.319452  0.451443  1
