# generated using pymatgen
data_Tb12Si11Ag
_symmetry_space_group_name_H-M   'P 1'
_cell_length_a   3.91172700
_cell_length_b   5.75664632
_cell_length_c   23.97338542
_cell_angle_alpha   82.67049020
_cell_angle_beta   90.00000000
_cell_angle_gamma   90.00000000
_symmetry_Int_Tables_number   1
_chemical_formula_structural   Tb12Si11Ag
_chemical_formula_sum   'Tb12 Si11 Ag1'
_cell_volume   535.43184528
_cell_formula_units_Z   1
loop_
 _symmetry_equiv_pos_site_id
 _symmetry_equiv_pos_as_xyz
  1  'x, y, z'
loop_
 _atom_site_type_symbol
 _atom_site_label
 _atom_site_symmetry_multiplicity
 _atom_site_fract_x
 _atom_site_fract_y
 _atom_site_fract_z
 _atom_site_occupancy
  Tb  Tb0  1  0.750000  0.360739  0.057748  1
  Tb  Tb1  1  0.250000  0.661776  0.939434  1
  Tb  Tb2  1  0.750000  0.528021  0.227291  1
  Tb  Tb3  1  0.250000  0.470513  0.773324  1
  Tb  Tb4  1  0.750000  0.167748  0.393589  1
  Tb  Tb5  1  0.250000  0.826139  0.606528  1
  Tb  Tb6  1  0.750000  0.350536  0.559649  1
  Tb  Tb7  1  0.250000  0.643603  0.440011  1
  Tb  Tb8  1  0.750000  0.995596  0.726737  1
  Tb  Tb9  1  0.250000  0.993392  0.274910  1
  Tb  Tb10  1  0.750000  0.169479  0.893062  1
  Tb  Tb11  1  0.250000  0.844068  0.105902  1
  Si  Si12  1  0.750000  0.876833  0.011604  1
  Si  Si13  1  0.250000  0.147317  0.987014  1
  Si  Si14  1  0.750000  0.026213  0.182023  1
  Si  Si15  1  0.250000  0.955672  0.821111  1
  Si  Si16  1  0.750000  0.702712  0.346254  1
  Si  Si17  1  0.250000  0.290346  0.654064  1
  Si  Si18  1  0.750000  0.863553  0.512227  1
  Si  Si19  1  0.250000  0.131579  0.487345  1
  Si  Si20  1  0.750000  0.532457  0.678973  1
  Si  Si21  1  0.250000  0.459934  0.321320  1
  Si  Si22  1  0.750000  0.684806  0.845612  1
  Ag  Ag23  1  0.250000  0.316967  0.154264  1
