# generated using pymatgen
data_Pr4SnI6
_symmetry_space_group_name_H-M   'P 1'
_cell_length_a   4.48589300
_cell_length_b   14.83509900
_cell_length_c   15.66060800
_cell_angle_alpha   90.00000000
_cell_angle_beta   90.00000000
_cell_angle_gamma   90.00000000
_symmetry_Int_Tables_number   1
_chemical_formula_structural   Pr4SnI6
_chemical_formula_sum   'Pr8 Sn2 I12'
_cell_volume   1042.19258303
_cell_formula_units_Z   2
loop_
 _symmetry_equiv_pos_site_id
 _symmetry_equiv_pos_as_xyz
  1  'x, y, z'
loop_
 _atom_site_type_symbol
 _atom_site_label
 _atom_site_symmetry_multiplicity
 _atom_site_fract_x
 _atom_site_fract_y
 _atom_site_fract_z
 _atom_site_occupancy
  Pr  Pr0  1  0.500000  0.118930  0.340832  1
  Pr  Pr1  1  0.500000  0.881070  0.659168  1
  Pr  Pr2  1  0.500000  0.618930  0.159168  1
  Pr  Pr3  1  0.500000  0.381070  0.840832  1
  Pr  Pr4  1  0.000000  0.119458  0.579539  1
  Pr  Pr5  1  0.000000  0.880542  0.420461  1
  Pr  Pr6  1  0.000000  0.619458  0.920461  1
  Pr  Pr7  1  0.000000  0.380542  0.079539  1
  Sn  Sn8  1  0.500000  0.000000  0.500000  1
  Sn  Sn9  1  0.500000  0.500000  0.000000  1
  I  I10  1  0.500000  0.243584  0.161582  1
  I  I11  1  0.500000  0.756416  0.838418  1
  I  I12  1  0.500000  0.743584  0.338418  1
  I  I13  1  0.500000  0.256416  0.661582  1
  I  I14  1  0.000000  0.255270  0.412411  1
  I  I15  1  0.000000  0.744730  0.587589  1
  I  I16  1  0.000000  0.755270  0.087589  1
  I  I17  1  0.000000  0.244730  0.912411  1
  I  I18  1  0.000000  0.000674  0.243540  1
  I  I19  1  0.000000  0.999326  0.756460  1
  I  I20  1  0.000000  0.500674  0.256460  1
  I  I21  1  0.000000  0.499326  0.743540  1
