# generated using pymatgen
data_Tm3ScCo7NiP6
_symmetry_space_group_name_H-M   'P 1'
_cell_length_a   3.70705800
_cell_length_b   10.61405900
_cell_length_c   12.29845600
_cell_angle_alpha   90.00000000
_cell_angle_beta   90.00000000
_cell_angle_gamma   90.00000000
_symmetry_Int_Tables_number   1
_chemical_formula_structural   Tm3ScCo7NiP6
_chemical_formula_sum   'Tm6 Sc2 Co14 Ni2 P12'
_cell_volume   483.90651598
_cell_formula_units_Z   2
loop_
 _symmetry_equiv_pos_site_id
 _symmetry_equiv_pos_as_xyz
  1  'x, y, z'
loop_
 _atom_site_type_symbol
 _atom_site_label
 _atom_site_symmetry_multiplicity
 _atom_site_fract_x
 _atom_site_fract_y
 _atom_site_fract_z
 _atom_site_occupancy
  Tm  Tm0  1  0.000000  0.500000  0.526719  1
  Tm  Tm1  1  0.500000  0.000000  0.473281  1
  Tm  Tm2  1  0.500000  0.820573  0.203920  1
  Tm  Tm3  1  0.500000  0.179427  0.203920  1
  Tm  Tm4  1  0.000000  0.679427  0.796080  1
  Tm  Tm5  1  0.000000  0.320573  0.796080  1
  Sc  Sc6  1  0.500000  0.500000  0.157314  1
  Sc  Sc7  1  0.000000  0.000000  0.842686  1
  Co  Co8  1  0.000000  0.500000  0.987532  1
  Co  Co9  1  0.500000  0.000000  0.012468  1
  Co  Co10  1  0.500000  0.331673  0.994400  1
  Co  Co11  1  0.500000  0.668327  0.994400  1
  Co  Co12  1  0.000000  0.168327  0.005600  1
  Co  Co13  1  0.000000  0.831673  0.005600  1
  Co  Co14  1  0.500000  0.296270  0.433492  1
  Co  Co15  1  0.500000  0.703730  0.433492  1
  Co  Co16  1  0.000000  0.203730  0.566508  1
  Co  Co17  1  0.000000  0.796270  0.566508  1
  Co  Co18  1  0.500000  0.876848  0.702999  1
  Co  Co19  1  0.500000  0.123152  0.702999  1
  Co  Co20  1  0.000000  0.623152  0.297001  1
  Co  Co21  1  0.000000  0.376848  0.297001  1
  Ni  Ni22  1  0.500000  0.500000  0.703076  1
  Ni  Ni23  1  0.000000  0.000000  0.296924  1
  P  P24  1  0.500000  0.500000  0.884619  1
  P  P25  1  0.000000  0.000000  0.115381  1
  P  P26  1  0.500000  0.500000  0.360879  1
  P  P27  1  0.000000  0.000000  0.639121  1
  P  P28  1  0.500000  0.310107  0.615822  1
  P  P29  1  0.500000  0.689893  0.615822  1
  P  P30  1  0.000000  0.189893  0.384178  1
  P  P31  1  0.000000  0.810107  0.384178  1
  P  P32  1  0.500000  0.838590  0.891666  1
  P  P33  1  0.500000  0.161410  0.891666  1
  P  P34  1  0.000000  0.661410  0.108334  1
  P  P35  1  0.000000  0.338590  0.108334  1
