# generated using pymatgen
data_Dy2Y2Al18Rh5Au
_symmetry_space_group_name_H-M   'P 1'
_cell_length_a   7.60030319
_cell_length_b   7.60047317
_cell_length_c   9.48711300
_cell_angle_alpha   89.98771145
_cell_angle_beta   89.98738190
_cell_angle_gamma   119.61170089
_symmetry_Int_Tables_number   1
_chemical_formula_structural   Dy2Y2Al18Rh5Au
_chemical_formula_sum   'Dy2 Y2 Al18 Rh5 Au1'
_cell_volume   476.45538354
_cell_formula_units_Z   1
loop_
 _symmetry_equiv_pos_site_id
 _symmetry_equiv_pos_as_xyz
  1  'x, y, z'
loop_
 _atom_site_type_symbol
 _atom_site_label
 _atom_site_symmetry_multiplicity
 _atom_site_fract_x
 _atom_site_fract_y
 _atom_site_fract_z
 _atom_site_occupancy
  Dy  Dy0  1  0.671280  0.997936  0.750072  1
  Dy  Dy1  1  0.332756  0.007534  0.249510  1
  Y  Y2  1  0.992462  0.667241  0.750498  1
  Y  Y3  1  0.002085  0.328721  0.249914  1
  Al  Al4  1  0.126312  0.124294  0.751254  1
  Al  Al5  1  0.875753  0.873639  0.248747  1
  Al  Al6  1  0.011179  0.335111  0.578512  1
  Al  Al7  1  0.008342  0.674743  0.421956  1
  Al  Al8  1  0.002145  0.665857  0.073843  1
  Al  Al9  1  0.334215  0.997895  0.926195  1
  Al  Al10  1  0.000760  0.334400  0.925180  1
  Al  Al11  1  0.665528  0.999200  0.074782  1
  Al  Al12  1  0.664814  0.988786  0.421524  1
  Al  Al13  1  0.325339  0.991703  0.578010  1
  Al  Al14  1  0.331482  0.331957  0.050411  1
  Al  Al15  1  0.668006  0.668551  0.949586  1
  Al  Al16  1  0.665778  0.673056  0.557696  1
  Al  Al17  1  0.326980  0.334188  0.442304  1
  Al  Al18  1  0.340732  0.551614  0.751462  1
  Al  Al19  1  0.660506  0.458294  0.241547  1
  Al  Al20  1  0.541660  0.339394  0.758458  1
  Al  Al21  1  0.448430  0.659360  0.248538  1
  Rh  Rh22  1  0.328587  0.671407  0.499994  1
  Rh  Rh23  1  0.328394  0.671631  0.000005  1
  Rh  Rh24  1  0.672735  0.327248  0.999996  1
  Rh  Rh25  1  0.999877  0.000123  0.500000  1
  Rh  Rh26  1  0.000323  0.999685  0.999999  1
  Au  Au27  1  0.673539  0.326432  0.500004  1
