# generated using pymatgen
data_YbPrTm2(B6Os)2
_symmetry_space_group_name_H-M   'P 1'
_cell_length_a   3.65656500
_cell_length_b   9.16959639
_cell_length_c   11.59878302
_cell_angle_alpha   90.12028192
_cell_angle_beta   90.00000000
_cell_angle_gamma   90.00000000
_symmetry_Int_Tables_number   1
_chemical_formula_structural   YbPrTm2(B6Os)2
_chemical_formula_sum   'Yb2 Pr2 Tm4 B24 Os4'
_cell_volume   388.89735148
_cell_formula_units_Z   2
loop_
 _symmetry_equiv_pos_site_id
 _symmetry_equiv_pos_as_xyz
  1  'x, y, z'
loop_
 _atom_site_type_symbol
 _atom_site_label
 _atom_site_symmetry_multiplicity
 _atom_site_fract_x
 _atom_site_fract_y
 _atom_site_fract_z
 _atom_site_occupancy
  Yb  Yb0  1  0.000000  0.824602  0.084387  1
  Yb  Yb1  1  0.000000  0.175398  0.915613  1
  Pr  Pr2  1  0.000000  0.321848  0.413432  1
  Pr  Pr3  1  0.000000  0.678152  0.586568  1
  Tm  Tm4  1  0.000000  0.943396  0.367800  1
  Tm  Tm5  1  0.000000  0.056604  0.632201  1
  Tm  Tm6  1  0.000000  0.442231  0.127813  1
  Tm  Tm7  1  0.000000  0.557769  0.872186  1
  B  B8  1  0.500000  0.556629  0.428668  1
  B  B9  1  0.500000  0.443371  0.571332  1
  B  B10  1  0.500000  0.054124  0.066768  1
  B  B11  1  0.500000  0.945876  0.933232  1
  B  B12  1  0.500000  0.750629  0.414080  1
  B  B13  1  0.500000  0.249371  0.585920  1
  B  B14  1  0.500000  0.248231  0.080964  1
  B  B15  1  0.500000  0.751769  0.919036  1
  B  B16  1  0.500000  0.791679  0.262434  1
  B  B17  1  0.500000  0.208321  0.737566  1
  B  B18  1  0.500000  0.289934  0.231559  1
  B  B19  1  0.500000  0.710065  0.768441  1
  B  B20  1  0.500000  0.631548  0.183122  1
  B  B21  1  0.500000  0.368452  0.816878  1
  B  B22  1  0.500000  0.129059  0.311920  1
  B  B23  1  0.500000  0.870941  0.688080  1
  B  B24  1  0.500000  0.983101  0.210183  1
  B  B25  1  0.500000  0.016899  0.789817  1
  B  B26  1  0.500000  0.485762  0.284310  1
  B  B27  1  0.500000  0.514238  0.715690  1
  B  B28  1  0.500000  0.599712  0.027173  1
  B  B29  1  0.500000  0.400288  0.972827  1
  B  B30  1  0.500000  0.097141  0.473512  1
  B  B31  1  0.500000  0.902859  0.526488  1
  Os  Os32  1  0.000000  0.639964  0.317351  1
  Os  Os33  1  0.000000  0.360036  0.682649  1
  Os  Os34  1  0.000000  0.139119  0.179274  1
  Os  Os35  1  0.000000  0.860881  0.820726  1
