# generated using pymatgen
data_YHo6Tm13Pb16
_symmetry_space_group_name_H-M   'P 1'
_cell_length_a   8.15186809
_cell_length_b   15.49971119
_cell_length_c   8.21339765
_cell_angle_alpha   90.00508630
_cell_angle_beta   89.87499533
_cell_angle_gamma   90.09987298
_symmetry_Int_Tables_number   1
_chemical_formula_structural   YHo6Tm13Pb16
_chemical_formula_sum   'Y1 Ho6 Tm13 Pb16'
_cell_volume   1037.77189298
_cell_formula_units_Z   1
loop_
 _symmetry_equiv_pos_site_id
 _symmetry_equiv_pos_as_xyz
  1  'x, y, z'
loop_
 _atom_site_type_symbol
 _atom_site_label
 _atom_site_symmetry_multiplicity
 _atom_site_fract_x
 _atom_site_fract_y
 _atom_site_fract_z
 _atom_site_occupancy
  Y  Y0  1  0.963548  0.900286  0.823407  1
  Ho  Ho1  1  0.536686  0.099607  0.323663  1
  Ho  Ho2  1  0.037037  0.400266  0.176176  1
  Ho  Ho3  1  0.537106  0.400351  0.323935  1
  Ho  Ho4  1  0.036639  0.099565  0.176436  1
  Ho  Ho5  1  0.463610  0.900483  0.676348  1
  Ho  Ho6  1  0.963160  0.599729  0.823527  1
  Tm  Tm7  1  0.623054  0.621454  0.158354  1
  Tm  Tm8  1  0.123585  0.878505  0.341795  1
  Tm  Tm9  1  0.376617  0.121484  0.841827  1
  Tm  Tm10  1  0.877094  0.378651  0.658414  1
  Tm  Tm11  1  0.377182  0.378862  0.841513  1
  Tm  Tm12  1  0.876420  0.121524  0.658151  1
  Tm  Tm13  1  0.623276  0.878338  0.158189  1
  Tm  Tm14  1  0.123077  0.621409  0.341833  1
  Tm  Tm15  1  0.462054  0.599995  0.675687  1
  Tm  Tm16  1  0.791290  0.749688  0.495422  1
  Tm  Tm17  1  0.291796  0.749774  0.004749  1
  Tm  Tm18  1  0.208508  0.250118  0.504590  1
  Tm  Tm19  1  0.708420  0.250100  0.995326  1
  Pb  Pb20  1  0.718335  0.457312  0.966539  1
  Pb  Pb21  1  0.217887  0.042663  0.534289  1
  Pb  Pb22  1  0.282613  0.957216  0.034167  1
  Pb  Pb23  1  0.780830  0.542821  0.467060  1
  Pb  Pb24  1  0.282189  0.542900  0.033249  1
  Pb  Pb25  1  0.782160  0.957238  0.465529  1
  Pb  Pb26  1  0.717654  0.042763  0.966138  1
  Pb  Pb27  1  0.218486  0.457745  0.534181  1
  Pb  Pb28  1  0.428794  0.749996  0.373097  1
  Pb  Pb29  1  0.928884  0.749928  0.127543  1
  Pb  Pb30  1  0.571089  0.250100  0.627166  1
  Pb  Pb31  1  0.071075  0.250018  0.872498  1
  Pb  Pb32  1  0.650846  0.749408  0.845107  1
  Pb  Pb33  1  0.152197  0.749747  0.653951  1
  Pb  Pb34  1  0.348443  0.250036  0.154197  1
  Pb  Pb35  1  0.848357  0.249923  0.345945  1
