# generated using pymatgen
data_Sm2MnIr3
_symmetry_space_group_name_H-M   'P 1'
_cell_length_a   5.53825070
_cell_length_b   5.24850511
_cell_length_c   5.53825100
_cell_angle_alpha   58.15638446
_cell_angle_beta   60.00000418
_cell_angle_gamma   58.15638667
_symmetry_Int_Tables_number   1
_chemical_formula_structural   Sm2MnIr3
_chemical_formula_sum   'Sm2 Mn1 Ir3'
_cell_volume   110.55646094
_cell_formula_units_Z   1
loop_
 _symmetry_equiv_pos_site_id
 _symmetry_equiv_pos_as_xyz
  1  'x, y, z'
loop_
 _atom_site_type_symbol
 _atom_site_label
 _atom_site_symmetry_multiplicity
 _atom_site_fract_x
 _atom_site_fract_y
 _atom_site_fract_z
 _atom_site_occupancy
  Sm  Sm0  1  0.874185  0.877444  0.874185  1
  Sm  Sm1  1  0.125815  0.122556  0.125815  1
  Mn  Mn2  1  0.500000  0.000000  0.500000  1
  Ir  Ir3  1  0.500000  0.500000  0.500000  1
  Ir  Ir4  1  0.500000  0.500000  0.000000  1
  Ir  Ir5  1  0.000000  0.500000  0.500000  1
