# generated using pymatgen
data_Ac5Np5O18
_symmetry_space_group_name_H-M   'P 1'
_cell_length_a   7.20776388
_cell_length_b   7.85407877
_cell_length_c   8.88013100
_cell_angle_alpha   99.01673987
_cell_angle_beta   98.35429765
_cell_angle_gamma   107.62944807
_symmetry_Int_Tables_number   1
_chemical_formula_structural   Ac5Np5O18
_chemical_formula_sum   'Ac5 Np5 O18'
_cell_volume   463.14887892
_cell_formula_units_Z   1
loop_
 _symmetry_equiv_pos_site_id
 _symmetry_equiv_pos_as_xyz
  1  'x, y, z'
loop_
 _atom_site_type_symbol
 _atom_site_label
 _atom_site_symmetry_multiplicity
 _atom_site_fract_x
 _atom_site_fract_y
 _atom_site_fract_z
 _atom_site_occupancy
  Ac  Ac0  1  0.800238  0.103967  0.585937  1
  Ac  Ac1  1  0.598426  0.699458  0.193947  1
  Ac  Ac2  1  0.401574  0.300542  0.806053  1
  Ac  Ac3  1  0.199762  0.896033  0.414063  1
  Ac  Ac4  1  0.000000  0.500000  0.000000  1
  Np  Np5  1  0.000000  0.000000  0.000000  1
  Np  Np6  1  0.793333  0.579770  0.589932  1
  Np  Np7  1  0.617008  0.202879  0.196133  1
  Np  Np8  1  0.382992  0.797121  0.803867  1
  Np  Np9  1  0.206667  0.420230  0.410068  1
  O  O10  1  0.830747  0.797672  0.464087  1
  O  O11  1  0.011847  0.238191  0.169444  1
  O  O12  1  0.664270  0.415843  0.060947  1
  O  O13  1  0.460909  0.007946  0.672638  1
  O  O14  1  0.856173  0.342274  0.422987  1
  O  O15  1  0.495287  0.400720  0.339254  1
  O  O16  1  0.246004  0.617418  0.269278  1
  O  O17  1  0.971738  0.813924  0.153988  1
  O  O18  1  0.663381  0.930515  0.995998  1
  O  O19  1  0.336619  0.069485  0.004002  1
  O  O20  1  0.028262  0.186076  0.846012  1
  O  O21  1  0.753996  0.382582  0.730722  1
  O  O22  1  0.504713  0.599280  0.660746  1
  O  O23  1  0.143827  0.657726  0.577013  1
  O  O24  1  0.539091  0.992054  0.327362  1
  O  O25  1  0.335730  0.584157  0.939053  1
  O  O26  1  0.988153  0.761809  0.830556  1
  O  O27  1  0.169253  0.202328  0.535913  1
