# generated using pymatgen
data_VSb8Mo3Se4
_symmetry_space_group_name_H-M   'P 1'
_cell_length_a   6.59443800
_cell_length_b   6.56257935
_cell_length_c   18.71637016
_cell_angle_alpha   85.93950156
_cell_angle_beta   90.00000000
_cell_angle_gamma   90.00000000
_symmetry_Int_Tables_number   1
_chemical_formula_structural   VSb8Mo3Se4
_chemical_formula_sum   'V2 Sb16 Mo6 Se8'
_cell_volume   807.94623751
_cell_formula_units_Z   2
loop_
 _symmetry_equiv_pos_site_id
 _symmetry_equiv_pos_as_xyz
  1  'x, y, z'
loop_
 _atom_site_type_symbol
 _atom_site_label
 _atom_site_symmetry_multiplicity
 _atom_site_fract_x
 _atom_site_fract_y
 _atom_site_fract_z
 _atom_site_occupancy
  V  V0  1  0.875273  0.664801  0.492609  1
  V  V1  1  0.375273  0.335199  0.007391  1
  Sb  Sb2  1  0.401457  0.206186  0.273748  1
  Sb  Sb3  1  0.901457  0.793814  0.226252  1
  Sb  Sb4  1  0.597843  0.794008  0.726138  1
  Sb  Sb5  1  0.097843  0.205992  0.773862  1
  Sb  Sb6  1  0.849350  0.207716  0.273798  1
  Sb  Sb7  1  0.349350  0.792284  0.226202  1
  Sb  Sb8  1  0.151627  0.793218  0.726347  1
  Sb  Sb9  1  0.651627  0.206782  0.773653  1
  Sb  Sb10  1  0.375527  0.076087  0.426126  1
  Sb  Sb11  1  0.875527  0.923913  0.073874  1
  Sb  Sb12  1  0.630205  0.921641  0.573535  1
  Sb  Sb13  1  0.130205  0.078359  0.926465  1
  Sb  Sb14  1  0.874484  0.072040  0.425931  1
  Sb  Sb15  1  0.374484  0.927960  0.074069  1
  Sb  Sb16  1  0.119599  0.921645  0.573753  1
  Sb  Sb17  1  0.619599  0.078355  0.926247  1
  Mo  Mo18  1  0.123964  0.330096  0.506488  1
  Mo  Mo19  1  0.623964  0.669904  0.993512  1
  Mo  Mo20  1  0.625983  0.330078  0.506683  1
  Mo  Mo21  1  0.125983  0.669922  0.993317  1
  Mo  Mo22  1  0.374827  0.670541  0.493732  1
  Mo  Mo23  1  0.874827  0.329459  0.006268  1
  Se  Se24  1  0.875087  0.417485  0.599943  1
  Se  Se25  1  0.375087  0.582515  0.900057  1
  Se  Se26  1  0.120554  0.591582  0.400316  1
  Se  Se27  1  0.620554  0.408418  0.099684  1
  Se  Se28  1  0.629512  0.591714  0.400452  1
  Se  Se29  1  0.129512  0.408286  0.099548  1
  Se  Se30  1  0.374707  0.411374  0.600822  1
  Se  Se31  1  0.874707  0.588626  0.899178  1
