# generated using pymatgen
data_Ti3Al3(Ru2Rh)2
_symmetry_space_group_name_H-M   'P 1'
_cell_length_a   4.32056700
_cell_length_b   6.09774000
_cell_length_c   12.89597100
_cell_angle_alpha   90.00000000
_cell_angle_beta   89.99970307
_cell_angle_gamma   90.00000000
_symmetry_Int_Tables_number   1
_chemical_formula_structural   Ti3Al3(Ru2Rh)2
_chemical_formula_sum   'Ti6 Al6 Ru8 Rh4'
_cell_volume   339.75330862
_cell_formula_units_Z   2
loop_
 _symmetry_equiv_pos_site_id
 _symmetry_equiv_pos_as_xyz
  1  'x, y, z'
loop_
 _atom_site_type_symbol
 _atom_site_label
 _atom_site_symmetry_multiplicity
 _atom_site_fract_x
 _atom_site_fract_y
 _atom_site_fract_z
 _atom_site_occupancy
  Ti  Ti0  1  0.000001  0.000000  0.005218  1
  Ti  Ti1  1  0.500005  0.500000  0.167136  1
  Ti  Ti2  1  0.000011  0.000000  0.332875  1
  Ti  Ti3  1  0.500005  0.500000  0.494788  1
  Ti  Ti4  1  0.999994  0.000000  0.661203  1
  Ti  Ti5  1  0.499993  0.500000  0.838792  1
  Al  Al6  1  0.999999  0.500000  0.001888  1
  Al  Al7  1  0.500002  0.000000  0.166655  1
  Al  Al8  1  0.000006  0.500000  0.333344  1
  Al  Al9  1  0.500002  0.000000  0.498127  1
  Al  Al10  1  0.999993  0.500000  0.665214  1
  Al  Al11  1  0.499993  0.000000  0.834785  1
  Ru  Ru12  1  0.500002  0.250260  0.997444  1
  Ru  Ru13  1  0.500002  0.749738  0.997444  1
  Ru  Ru14  1  0.000002  0.249614  0.166006  1
  Ru  Ru15  1  0.000002  0.750387  0.166006  1
  Ru  Ru16  1  0.500009  0.250387  0.334014  1
  Ru  Ru17  1  0.500009  0.749614  0.334014  1
  Ru  Ru18  1  0.000003  0.249711  0.502559  1
  Ru  Ru19  1  0.000003  0.750288  0.502559  1
  Rh  Rh20  1  0.499986  0.249269  0.668344  1
  Rh  Rh21  1  0.499986  0.750732  0.668344  1
  Rh  Rh22  1  0.999993  0.250771  0.831621  1
  Rh  Rh23  1  0.999993  0.749230  0.831621  1
