# generated using pymatgen
data_Dy15Th(InIr)4
_symmetry_space_group_name_H-M   'P 1'
_cell_length_a   9.67873584
_cell_length_b   9.67873572
_cell_length_c   9.67873518
_cell_angle_alpha   60.38771591
_cell_angle_beta   60.38771992
_cell_angle_gamma   60.38771224
_symmetry_Int_Tables_number   1
_chemical_formula_structural   Dy15Th(InIr)4
_chemical_formula_sum   'Dy15 Th1 In4 Ir4'
_cell_volume   646.74412867
_cell_formula_units_Z   1
loop_
 _symmetry_equiv_pos_site_id
 _symmetry_equiv_pos_as_xyz
  1  'x, y, z'
loop_
 _atom_site_type_symbol
 _atom_site_label
 _atom_site_symmetry_multiplicity
 _atom_site_fract_x
 _atom_site_fract_y
 _atom_site_fract_z
 _atom_site_occupancy
  Dy  Dy0  1  0.600647  0.600647  0.199590  1
  Dy  Dy1  1  0.600647  0.199590  0.600647  1
  Dy  Dy2  1  0.199590  0.600647  0.600647  1
  Dy  Dy3  1  0.061297  0.439760  0.439760  1
  Dy  Dy4  1  0.440888  0.059259  0.059259  1
  Dy  Dy5  1  0.439760  0.061297  0.439760  1
  Dy  Dy6  1  0.059259  0.440888  0.059259  1
  Dy  Dy7  1  0.439760  0.439760  0.061297  1
  Dy  Dy8  1  0.059259  0.059259  0.440888  1
  Dy  Dy9  1  0.188491  0.812661  0.812661  1
  Dy  Dy10  1  0.811141  0.191022  0.191022  1
  Dy  Dy11  1  0.812661  0.188491  0.812661  1
  Dy  Dy12  1  0.191022  0.811141  0.191022  1
  Dy  Dy13  1  0.812661  0.812661  0.188491  1
  Dy  Dy14  1  0.191022  0.191022  0.811141  1
  Th  Th15  1  0.594761  0.594761  0.594761  1
  In  In16  1  0.833239  0.833239  0.833239  1
  In  In17  1  0.833146  0.833146  0.500331  1
  In  In18  1  0.833146  0.500331  0.833146  1
  In  In19  1  0.500331  0.833146  0.833146  1
  Ir  Ir20  1  0.391716  0.391716  0.391716  1
  Ir  Ir21  1  0.390426  0.390426  0.824706  1
  Ir  Ir22  1  0.390426  0.824706  0.390426  1
  Ir  Ir23  1  0.824706  0.390426  0.390426  1
