# generated using pymatgen
data_CsHf2(Zr5Te8)2
_symmetry_space_group_name_H-M   'P 1'
_cell_length_a   7.88931648
_cell_length_b   11.23060617
_cell_length_c   11.89554891
_cell_angle_alpha   118.16822853
_cell_angle_beta   109.35416622
_cell_angle_gamma   90.01552798
_symmetry_Int_Tables_number   1
_chemical_formula_structural   CsHf2(Zr5Te8)2
_chemical_formula_sum   'Cs1 Hf2 Zr10 Te16'
_cell_volume   860.93202061
_cell_formula_units_Z   1
loop_
 _symmetry_equiv_pos_site_id
 _symmetry_equiv_pos_as_xyz
  1  'x, y, z'
loop_
 _atom_site_type_symbol
 _atom_site_label
 _atom_site_symmetry_multiplicity
 _atom_site_fract_x
 _atom_site_fract_y
 _atom_site_fract_z
 _atom_site_occupancy
  Cs  Cs0  1  0.499510  0.999959  0.999416  1
  Hf  Hf1  1  0.122551  0.126612  0.491611  1
  Hf  Hf2  1  0.619835  0.125561  0.492844  1
  Zr  Zr3  1  0.310991  0.366887  0.874703  1
  Zr  Zr4  1  0.812705  0.367413  0.874161  1
  Zr  Zr5  1  0.189983  0.507413  0.632305  1
  Zr  Zr6  1  0.693935  0.508455  0.634365  1
  Zr  Zr7  1  0.379983  0.873914  0.506933  1
  Zr  Zr8  1  0.877430  0.872894  0.508083  1
  Zr  Zr9  1  0.187544  0.632903  0.126259  1
  Zr  Zr10  1  0.689210  0.633506  0.125825  1
  Zr  Zr11  1  0.306248  0.490560  0.365753  1
  Zr  Zr12  1  0.810027  0.491644  0.367815  1
  Te  Te13  1  0.729386  0.057046  0.708213  1
  Te  Te14  1  0.226461  0.057492  0.705262  1
  Te  Te15  1  0.847763  0.654627  0.944823  1
  Te  Te16  1  0.345275  0.651567  0.944015  1
  Te  Te17  1  0.548689  0.290821  0.349743  1
  Te  Te18  1  0.048358  0.288068  0.345940  1
  Te  Te19  1  0.774052  0.947462  0.295540  1
  Te  Te20  1  0.271141  0.947973  0.292488  1
  Te  Te21  1  0.654761  0.348658  0.056110  1
  Te  Te22  1  0.152265  0.345562  0.055330  1
  Te  Te23  1  0.951913  0.710402  0.654758  1
  Te  Te24  1  0.451641  0.707514  0.650928  1
  Te  Te25  1  0.957212  0.330827  0.664295  1
  Te  Te26  1  0.457646  0.332496  0.665487  1
  Te  Te27  1  0.541483  0.665080  0.332923  1
  Te  Te28  1  0.042003  0.666687  0.334074  1
