# generated using pymatgen
data_La8Y12GaSi15
_symmetry_space_group_name_H-M   'P 1'
_cell_length_a   7.89599014
_cell_length_b   7.92365702
_cell_length_c   14.52306600
_cell_angle_alpha   89.77562945
_cell_angle_beta   89.76906720
_cell_angle_gamma   90.03146126
_symmetry_Int_Tables_number   1
_chemical_formula_structural   La8Y12GaSi15
_chemical_formula_sum   'La8 Y12 Ga1 Si15'
_cell_volume   908.62284071
_cell_formula_units_Z   1
loop_
 _symmetry_equiv_pos_site_id
 _symmetry_equiv_pos_as_xyz
  1  'x, y, z'
loop_
 _atom_site_type_symbol
 _atom_site_label
 _atom_site_symmetry_multiplicity
 _atom_site_fract_x
 _atom_site_fract_y
 _atom_site_fract_z
 _atom_site_occupancy
  La  La0  1  0.642865  0.990933  0.458521  1
  La  La1  1  0.361103  0.009053  0.957303  1
  La  La2  1  0.988813  0.636750  0.541477  1
  La  La3  1  0.491287  0.858357  0.207932  1
  La  La4  1  0.510775  0.144505  0.709646  1
  La  La5  1  0.859824  0.493959  0.792472  1
  La  La6  1  0.139162  0.506384  0.291843  1
  La  La7  1  0.009177  0.359558  0.042188  1
  Y  Y8  1  0.490938  0.360695  0.124916  1
  Y  Y9  1  0.987989  0.142700  0.627674  1
  Y  Y10  1  0.861687  0.009529  0.874554  1
  Y  Y11  1  0.137193  0.989714  0.373652  1
  Y  Y12  1  0.510237  0.634908  0.624934  1
  Y  Y13  1  0.364037  0.492718  0.875270  1
  Y  Y14  1  0.638591  0.505921  0.374407  1
  Y  Y15  1  0.008419  0.861844  0.125017  1
  Y  Y16  1  0.315156  0.318806  0.499239  1
  Y  Y17  1  0.183848  0.817738  0.750955  1
  Y  Y18  1  0.815929  0.181167  0.250516  1
  Y  Y19  1  0.683183  0.684062  0.000162  1
  Ga  Ga20  1  0.286061  0.933136  0.562187  1
  Si  Si21  1  0.711357  0.065876  0.061921  1
  Si  Si22  1  0.934498  0.288420  0.438279  1
  Si  Si23  1  0.433078  0.210457  0.312028  1
  Si  Si24  1  0.567781  0.789534  0.810680  1
  Si  Si25  1  0.211353  0.434606  0.688818  1
  Si  Si26  1  0.788501  0.565686  0.188004  1
  Si  Si27  1  0.066938  0.711797  0.938244  1
  Si  Si28  1  0.795401  0.847332  0.690990  1
  Si  Si29  1  0.202463  0.153450  0.191347  1
  Si  Si30  1  0.845546  0.794282  0.308529  1
  Si  Si31  1  0.347317  0.701852  0.439379  1
  Si  Si32  1  0.654830  0.297453  0.941816  1
  Si  Si33  1  0.703435  0.345718  0.557947  1
  Si  Si34  1  0.297161  0.654231  0.058096  1
  Si  Si35  1  0.154071  0.206870  0.809057  1
