# generated using pymatgen
data_Er18Th2Si15As
_symmetry_space_group_name_H-M   'P 1'
_cell_length_a   7.45503194
_cell_length_b   7.60813397
_cell_length_c   14.52180751
_cell_angle_alpha   90.09056720
_cell_angle_beta   93.38642705
_cell_angle_gamma   90.02395585
_symmetry_Int_Tables_number   1
_chemical_formula_structural   Er18Th2Si15As
_chemical_formula_sum   'Er18 Th2 Si15 As1'
_cell_volume   822.22131236
_cell_formula_units_Z   1
loop_
 _symmetry_equiv_pos_site_id
 _symmetry_equiv_pos_as_xyz
  1  'x, y, z'
loop_
 _atom_site_type_symbol
 _atom_site_label
 _atom_site_symmetry_multiplicity
 _atom_site_fract_x
 _atom_site_fract_y
 _atom_site_fract_z
 _atom_site_occupancy
  Er  Er0  1  0.321217  0.823238  0.122906  1
  Er  Er1  1  0.821475  0.676340  0.123080  1
  Er  Er2  1  0.837264  0.506474  0.747709  1
  Er  Er3  1  0.471165  0.315015  0.101737  1
  Er  Er4  1  0.029179  0.814867  0.898540  1
  Er  Er5  1  0.495662  0.320933  0.401151  1
  Er  Er6  1  0.662663  0.006662  0.251416  1
  Er  Er7  1  0.530083  0.686767  0.898465  1
  Er  Er8  1  0.677324  0.177471  0.878840  1
  Er  Er9  1  0.151445  0.332234  0.622099  1
  Er  Er10  1  0.177612  0.323270  0.878865  1
  Er  Er11  1  0.848447  0.664447  0.376647  1
  Er  Er12  1  0.346677  0.833120  0.378658  1
  Er  Er13  1  0.337838  0.994027  0.746894  1
  Er  Er14  1  0.650722  0.167781  0.620129  1
  Er  Er15  1  0.163779  0.492891  0.253274  1
  Er  Er16  1  0.971795  0.184789  0.101190  1
  Er  Er17  1  0.002193  0.182190  0.400604  1
  Th  Th18  1  0.002950  0.814703  0.598433  1
  Th  Th19  1  0.500589  0.679996  0.597532  1
  Si  Si20  1  0.220283  0.628141  0.753791  1
  Si  Si21  1  0.299249  0.039028  0.541532  1
  Si  Si22  1  0.035836  0.892232  0.248737  1
  Si  Si23  1  0.719514  0.873056  0.752642  1
  Si  Si24  1  0.282340  0.130306  0.249230  1
  Si  Si25  1  0.806496  0.460577  0.540514  1
  Si  Si26  1  0.463073  0.391329  0.752241  1
  Si  Si27  1  0.193565  0.533869  0.457199  1
  Si  Si28  1  0.143614  0.527781  0.043307  1
  Si  Si29  1  0.961734  0.109041  0.752044  1
  Si  Si30  1  0.781553  0.367950  0.248716  1
  Si  Si31  1  0.355303  0.028766  0.958133  1
  Si  Si32  1  0.855792  0.472824  0.957382  1
  Si  Si33  1  0.644497  0.972368  0.042772  1
  Si  Si34  1  0.535544  0.608397  0.248299  1
  As  As35  1  0.701529  0.967119  0.455292  1
