# generated using pymatgen
data_Dy3Er3Zn2(SiRh3)4
_symmetry_space_group_name_H-M   'P 1'
_cell_length_a   5.56010100
_cell_length_b   5.56010013
_cell_length_c   15.29420000
_cell_angle_alpha   90.00000000
_cell_angle_beta   90.00000000
_cell_angle_gamma   119.99999921
_symmetry_Int_Tables_number   1
_chemical_formula_structural   Dy3Er3Zn2(SiRh3)4
_chemical_formula_sum   'Dy3 Er3 Zn2 Si4 Rh12'
_cell_volume   409.47057069
_cell_formula_units_Z   1
loop_
 _symmetry_equiv_pos_site_id
 _symmetry_equiv_pos_as_xyz
  1  'x, y, z'
loop_
 _atom_site_type_symbol
 _atom_site_label
 _atom_site_symmetry_multiplicity
 _atom_site_fract_x
 _atom_site_fract_y
 _atom_site_fract_z
 _atom_site_occupancy
  Dy  Dy0  1  0.333333  0.666667  0.537440  1
  Dy  Dy1  1  0.333333  0.666667  0.750158  1
  Dy  Dy2  1  0.666667  0.333333  0.249905  1
  Er  Er3  1  0.666667  0.333333  0.462534  1
  Er  Er4  1  0.666667  0.333333  0.037256  1
  Er  Er5  1  0.333333  0.666667  0.962758  1
  Zn  Zn6  1  0.000000  0.000000  0.999988  1
  Zn  Zn7  1  0.000000  0.000000  0.499973  1
  Si  Si8  1  0.000000  0.000000  0.249907  1
  Si  Si9  1  0.000000  0.000000  0.750109  1
  Si  Si10  1  0.333333  0.666667  0.249957  1
  Si  Si11  1  0.666667  0.333333  0.750083  1
  Rh  Rh12  1  0.167905  0.335809  0.133643  1
  Rh  Rh13  1  0.832078  0.664155  0.866356  1
  Rh  Rh14  1  0.664191  0.832095  0.133643  1
  Rh  Rh15  1  0.832071  0.664142  0.633886  1
  Rh  Rh16  1  0.335845  0.167922  0.866356  1
  Rh  Rh17  1  0.167777  0.335555  0.366092  1
  Rh  Rh18  1  0.167905  0.832095  0.133643  1
  Rh  Rh19  1  0.335858  0.167929  0.633886  1
  Rh  Rh20  1  0.832078  0.167922  0.866356  1
  Rh  Rh21  1  0.664445  0.832223  0.366092  1
  Rh  Rh22  1  0.832071  0.167929  0.633886  1
  Rh  Rh23  1  0.167777  0.832223  0.366092  1
