# generated using pymatgen
data_Y5GeSe4
_symmetry_space_group_name_H-M   'P 1'
_cell_length_a   7.11552896
_cell_length_b   7.11553000
_cell_length_c   7.11552911
_cell_angle_alpha   99.59951447
_cell_angle_beta   99.59950847
_cell_angle_gamma   131.79592204
_symmetry_Int_Tables_number   1
_chemical_formula_structural   Y5GeSe4
_chemical_formula_sum   'Y5 Ge1 Se4'
_cell_volume   245.17032356
_cell_formula_units_Z   1
loop_
 _symmetry_equiv_pos_site_id
 _symmetry_equiv_pos_as_xyz
  1  'x, y, z'
loop_
 _atom_site_type_symbol
 _atom_site_label
 _atom_site_symmetry_multiplicity
 _atom_site_fract_x
 _atom_site_fract_y
 _atom_site_fract_z
 _atom_site_occupancy
  Y  Y0  1  0.402825  0.792148  0.194973  1
  Y  Y1  1  0.000000  0.000000  0.000000  1
  Y  Y2  1  0.597175  0.207852  0.805027  1
  Y  Y3  1  0.207852  0.402825  0.610677  1
  Y  Y4  1  0.792148  0.597175  0.389323  1
  Ge  Ge5  1  0.500000  0.500000  0.000000  1
  Se  Se6  1  0.097153  0.698046  0.795197  1
  Se  Se7  1  0.698046  0.902847  0.600894  1
  Se  Se8  1  0.301954  0.097153  0.399106  1
  Se  Se9  1  0.902847  0.301954  0.204803  1
