# generated using pymatgen
data_DyLu9(Bi2Ir)2
_symmetry_space_group_name_H-M   'P 1'
_cell_length_a   7.83299243
_cell_length_b   8.94555700
_cell_length_c   12.33015381
_cell_angle_alpha   90.00000000
_cell_angle_beta   90.12113383
_cell_angle_gamma   90.00000000
_symmetry_Int_Tables_number   1
_chemical_formula_structural   DyLu9(Bi2Ir)2
_chemical_formula_sum   'Dy2 Lu18 Bi8 Ir4'
_cell_volume   863.97786796
_cell_formula_units_Z   2
loop_
 _symmetry_equiv_pos_site_id
 _symmetry_equiv_pos_as_xyz
  1  'x, y, z'
loop_
 _atom_site_type_symbol
 _atom_site_label
 _atom_site_symmetry_multiplicity
 _atom_site_fract_x
 _atom_site_fract_y
 _atom_site_fract_z
 _atom_site_occupancy
  Dy  Dy0  1  0.444928  0.250000  0.999563  1
  Dy  Dy1  1  0.555072  0.750000  0.000437  1
  Lu  Lu2  1  0.839110  0.750000  0.791613  1
  Lu  Lu3  1  0.160890  0.250000  0.208387  1
  Lu  Lu4  1  0.339272  0.250000  0.706010  1
  Lu  Lu5  1  0.660728  0.750000  0.293990  1
  Lu  Lu6  1  0.378237  0.750000  0.689654  1
  Lu  Lu7  1  0.621763  0.250000  0.310346  1
  Lu  Lu8  1  0.877794  0.250000  0.809435  1
  Lu  Lu9  1  0.122206  0.750000  0.190565  1
  Lu  Lu10  1  0.940650  0.750000  0.501718  1
  Lu  Lu11  1  0.059350  0.250000  0.498282  1
  Lu  Lu12  1  0.673084  0.042620  0.565427  1
  Lu  Lu13  1  0.326916  0.957380  0.434573  1
  Lu  Lu14  1  0.171429  0.957556  0.932785  1
  Lu  Lu15  1  0.326916  0.542620  0.434573  1
  Lu  Lu16  1  0.828571  0.042444  0.067215  1
  Lu  Lu17  1  0.673084  0.457380  0.565427  1
  Lu  Lu18  1  0.828571  0.457556  0.067215  1
  Lu  Lu19  1  0.171429  0.542444  0.932785  1
  Bi  Bi20  1  0.565701  0.490384  0.825637  1
  Bi  Bi21  1  0.434299  0.509616  0.174363  1
  Bi  Bi22  1  0.065258  0.509471  0.671528  1
  Bi  Bi23  1  0.434299  0.990384  0.174363  1
  Bi  Bi24  1  0.934742  0.490529  0.328472  1
  Bi  Bi25  1  0.565701  0.009616  0.825637  1
  Bi  Bi26  1  0.934742  0.009471  0.328472  1
  Bi  Bi27  1  0.065258  0.990529  0.671528  1
  Ir  Ir28  1  0.572853  0.750000  0.508333  1
  Ir  Ir29  1  0.427147  0.250000  0.491667  1
  Ir  Ir30  1  0.070208  0.250000  0.992762  1
  Ir  Ir31  1  0.929792  0.750000  0.007238  1
