# generated using pymatgen
data_AcNd7(Sc3Sn4)4
_symmetry_space_group_name_H-M   'P 1'
_cell_length_a   7.85935217
_cell_length_b   7.99160957
_cell_length_c   15.04374700
_cell_angle_alpha   90.01074707
_cell_angle_beta   90.07739944
_cell_angle_gamma   90.09257226
_symmetry_Int_Tables_number   1
_chemical_formula_structural   AcNd7(Sc3Sn4)4
_chemical_formula_sum   'Ac1 Nd7 Sc12 Sn16'
_cell_volume   944.87869831
_cell_formula_units_Z   1
loop_
 _symmetry_equiv_pos_site_id
 _symmetry_equiv_pos_as_xyz
  1  'x, y, z'
loop_
 _atom_site_type_symbol
 _atom_site_label
 _atom_site_symmetry_multiplicity
 _atom_site_fract_x
 _atom_site_fract_y
 _atom_site_fract_z
 _atom_site_occupancy
  Ac  Ac0  1  0.009993  0.171706  0.907162  1
  Nd  Nd1  1  0.512006  0.327770  0.904880  1
  Nd  Nd2  1  0.012498  0.173781  0.594782  1
  Nd  Nd3  1  0.488297  0.674228  0.404781  1
  Nd  Nd4  1  0.988137  0.825132  0.096767  1
  Nd  Nd5  1  0.486016  0.673255  0.097043  1
  Nd  Nd6  1  0.988063  0.826025  0.404577  1
  Nd  Nd7  1  0.511106  0.326702  0.593037  1
  Sc  Sc8  1  0.351602  0.836647  0.872425  1
  Sc  Sc9  1  0.850465  0.663373  0.624402  1
  Sc  Sc10  1  0.649282  0.162569  0.373630  1
  Sc  Sc11  1  0.149376  0.338646  0.127016  1
  Sc  Sc12  1  0.649914  0.163768  0.127582  1
  Sc  Sc13  1  0.148789  0.336296  0.373654  1
  Sc  Sc14  1  0.351278  0.836982  0.625356  1
  Sc  Sc15  1  0.850946  0.662280  0.873785  1
  Sc  Sc16  1  0.183861  0.505425  0.749117  1
  Sc  Sc17  1  0.683589  0.993304  0.748882  1
  Sc  Sc18  1  0.816968  0.494936  0.250361  1
  Sc  Sc19  1  0.317674  0.005838  0.250763  1
  Sn  Sn20  1  0.323567  0.042691  0.046262  1
  Sn  Sn21  1  0.817189  0.455106  0.456241  1
  Sn  Sn22  1  0.683473  0.955374  0.542898  1
  Sn  Sn23  1  0.186061  0.551120  0.957682  1
  Sn  Sn24  1  0.675627  0.949344  0.958824  1
  Sn  Sn25  1  0.182912  0.544644  0.542760  1
  Sn  Sn26  1  0.316716  0.044736  0.456559  1
  Sn  Sn27  1  0.813572  0.458910  0.045581  1
  Sn  Sn28  1  0.547783  0.631652  0.749378  1
  Sn  Sn29  1  0.048229  0.864900  0.747890  1
  Sn  Sn30  1  0.452289  0.368666  0.250629  1
  Sn  Sn31  1  0.952730  0.131230  0.249842  1
  Sn  Sn32  1  0.325011  0.141469  0.747957  1
  Sn  Sn33  1  0.816774  0.361512  0.746455  1
  Sn  Sn34  1  0.679289  0.858272  0.250542  1
  Sn  Sn35  1  0.178918  0.641707  0.250497  1
