# generated using pymatgen
data_GdAl2ZnGa
_symmetry_space_group_name_H-M   'P 1'
_cell_length_a   4.17296107
_cell_length_b   4.17296171
_cell_length_c   6.22297155
_cell_angle_alpha   70.41001012
_cell_angle_beta   70.41000481
_cell_angle_gamma   89.99998734
_symmetry_Int_Tables_number   1
_chemical_formula_structural   GdAl2ZnGa
_chemical_formula_sum   'Gd1 Al2 Zn1 Ga1'
_cell_volume   95.40776081
_cell_formula_units_Z   1
loop_
 _symmetry_equiv_pos_site_id
 _symmetry_equiv_pos_as_xyz
  1  'x, y, z'
loop_
 _atom_site_type_symbol
 _atom_site_label
 _atom_site_symmetry_multiplicity
 _atom_site_fract_x
 _atom_site_fract_y
 _atom_site_fract_z
 _atom_site_occupancy
  Gd  Gd0  1  0.001748  0.001748  0.996505  1
  Al  Al1  1  0.752081  0.252081  0.495837  1
  Al  Al2  1  0.252081  0.752081  0.495837  1
  Zn  Zn3  1  0.386547  0.386547  0.226907  1
  Ga  Ga4  1  0.607543  0.607543  0.784914  1
