# generated using pymatgen
data_Ho4Pd2PtPb2Au
_symmetry_space_group_name_H-M   'P 1'
_cell_length_a   8.05662909
_cell_length_b   8.07029634
_cell_length_c   3.54731300
_cell_angle_alpha   90.00000000
_cell_angle_beta   90.00000000
_cell_angle_gamma   90.43947825
_symmetry_Int_Tables_number   1
_chemical_formula_structural   Ho4Pd2PtPb2Au
_chemical_formula_sum   'Ho4 Pd2 Pt1 Pb2 Au1'
_cell_volume   230.63732200
_cell_formula_units_Z   1
loop_
 _symmetry_equiv_pos_site_id
 _symmetry_equiv_pos_as_xyz
  1  'x, y, z'
loop_
 _atom_site_type_symbol
 _atom_site_label
 _atom_site_symmetry_multiplicity
 _atom_site_fract_x
 _atom_site_fract_y
 _atom_site_fract_z
 _atom_site_occupancy
  Ho  Ho0  1  0.676756  0.166702  0.500000  1
  Ho  Ho1  1  0.163066  0.342702  0.500000  1
  Ho  Ho2  1  0.836073  0.669997  0.500000  1
  Ho  Ho3  1  0.328802  0.819552  0.500000  1
  Pd  Pd4  1  0.626609  0.873276  0.000000  1
  Pd  Pd5  1  0.870106  0.373013  0.000000  1
  Pt  Pt6  1  0.122194  0.624849  0.000000  1
  Pb  Pb7  1  0.995379  0.001579  0.000000  1
  Pb  Pb8  1  0.505028  0.504778  0.000000  1
  Au  Au9  1  0.375986  0.123551  0.000000  1
