# generated using pymatgen
data_Er2Si2Os2C
_symmetry_space_group_name_H-M   'P 1'
_cell_length_a   5.77792365
_cell_length_b   5.77792376
_cell_length_c   6.79478426
_cell_angle_alpha   125.45500576
_cell_angle_beta   125.45500830
_cell_angle_gamma   41.07621770
_symmetry_Int_Tables_number   1
_chemical_formula_structural   Er2Si2Os2C
_chemical_formula_sum   'Er2 Si2 Os2 C1'
_cell_volume   117.00971295
_cell_formula_units_Z   1
loop_
 _symmetry_equiv_pos_site_id
 _symmetry_equiv_pos_as_xyz
  1  'x, y, z'
loop_
 _atom_site_type_symbol
 _atom_site_label
 _atom_site_symmetry_multiplicity
 _atom_site_fract_x
 _atom_site_fract_y
 _atom_site_fract_z
 _atom_site_occupancy
  Er  Er0  1  0.436198  0.436198  0.169324  1
  Er  Er1  1  0.563802  0.563802  0.830676  1
  Si  Si2  1  0.849977  0.849977  0.394546  1
  Si  Si3  1  0.150024  0.150024  0.605455  1
  Os  Os4  1  0.207248  0.207248  0.308555  1
  Os  Os5  1  0.792752  0.792752  0.691445  1
  C  C6  1  0.000000  0.000000  0.000000  1
