# generated using pymatgen
data_Ho15ErIn4NiRu3
_symmetry_space_group_name_H-M   'P 1'
_cell_length_a   9.59292313
_cell_length_b   9.61380149
_cell_length_c   9.60464200
_cell_angle_alpha   60.03151839
_cell_angle_beta   59.95958792
_cell_angle_gamma   59.95835930
_symmetry_Int_Tables_number   1
_chemical_formula_structural   Ho15ErIn4NiRu3
_chemical_formula_sum   'Ho15 Er1 In4 Ni1 Ru3'
_cell_volume   626.10319735
_cell_formula_units_Z   1
loop_
 _symmetry_equiv_pos_site_id
 _symmetry_equiv_pos_as_xyz
  1  'x, y, z'
loop_
 _atom_site_type_symbol
 _atom_site_label
 _atom_site_symmetry_multiplicity
 _atom_site_fract_x
 _atom_site_fract_y
 _atom_site_fract_z
 _atom_site_occupancy
  Ho  Ho0  1  0.650283  0.653464  0.041609  1
  Ho  Ho1  1  0.190579  0.810603  0.190271  1
  Ho  Ho2  1  0.058565  0.441812  0.057589  1
  Ho  Ho3  1  0.190579  0.810603  0.808545  1
  Ho  Ho4  1  0.058565  0.441812  0.442032  1
  Ho  Ho5  1  0.810252  0.191428  0.190407  1
  Ho  Ho6  1  0.650283  0.653464  0.654645  1
  Ho  Ho7  1  0.810252  0.191428  0.807913  1
  Ho  Ho8  1  0.190076  0.192381  0.808771  1
  Ho  Ho9  1  0.046417  0.650410  0.651586  1
  Ho  Ho10  1  0.441685  0.062308  0.061905  1
  Ho  Ho11  1  0.056866  0.056255  0.443440  1
  Ho  Ho12  1  0.649406  0.041484  0.654556  1
  Ho  Ho13  1  0.809321  0.809490  0.190594  1
  Ho  Ho14  1  0.441685  0.062308  0.434103  1
  Er  Er15  1  0.441471  0.434025  0.062253  1
  In  In16  1  0.419585  0.416786  0.416037  1
  In  In17  1  0.419585  0.416786  0.747594  1
  In  In18  1  0.419527  0.747480  0.416497  1
  In  In19  1  0.748159  0.416990  0.417427  1
  Ni  Ni20  1  0.419182  0.859298  0.860760  1
  Ru  Ru21  1  0.859072  0.859170  0.861190  1
  Ru  Ru22  1  0.859530  0.421045  0.859711  1
  Ru  Ru23  1  0.859072  0.859170  0.420566  1
