# generated using pymatgen
data_PrMgCo(PRh)3
_symmetry_space_group_name_H-M   'P 1'
_cell_length_a   3.90297500
_cell_length_b   10.94349800
_cell_length_c   12.76222500
_cell_angle_alpha   90.00000000
_cell_angle_beta   90.00000000
_cell_angle_gamma   90.00000000
_symmetry_Int_Tables_number   1
_chemical_formula_structural   PrMgCo(PRh)3
_chemical_formula_sum   'Pr4 Mg4 Co4 P12 Rh12'
_cell_volume   545.10269524
_cell_formula_units_Z   4
loop_
 _symmetry_equiv_pos_site_id
 _symmetry_equiv_pos_as_xyz
  1  'x, y, z'
loop_
 _atom_site_type_symbol
 _atom_site_label
 _atom_site_symmetry_multiplicity
 _atom_site_fract_x
 _atom_site_fract_y
 _atom_site_fract_z
 _atom_site_occupancy
  Pr  Pr0  1  0.250000  0.580812  0.708553  1
  Pr  Pr1  1  0.250000  0.919188  0.208553  1
  Pr  Pr2  1  0.750000  0.419188  0.291447  1
  Pr  Pr3  1  0.750000  0.080812  0.791447  1
  Mg  Mg4  1  0.250000  0.704283  0.987239  1
  Mg  Mg5  1  0.250000  0.795717  0.487239  1
  Mg  Mg6  1  0.750000  0.295717  0.012761  1
  Mg  Mg7  1  0.750000  0.204283  0.512761  1
  Co  Co8  1  0.250000  0.465792  0.937262  1
  Co  Co9  1  0.250000  0.034208  0.437262  1
  Co  Co10  1  0.750000  0.534208  0.062738  1
  Co  Co11  1  0.750000  0.965792  0.562738  1
  P  P12  1  0.250000  0.427218  0.109230  1
  P  P13  1  0.250000  0.072782  0.609230  1
  P  P14  1  0.750000  0.572782  0.890770  1
  P  P15  1  0.750000  0.927218  0.390770  1
  P  P16  1  0.250000  0.273915  0.862388  1
  P  P17  1  0.250000  0.226085  0.362388  1
  P  P18  1  0.750000  0.726085  0.137612  1
  P  P19  1  0.750000  0.773915  0.637612  1
  P  P20  1  0.250000  0.596259  0.388065  1
  P  P21  1  0.250000  0.903741  0.888065  1
  P  P22  1  0.750000  0.403741  0.611935  1
  P  P23  1  0.750000  0.096259  0.111935  1
  Rh  Rh24  1  0.250000  0.403670  0.481213  1
  Rh  Rh25  1  0.250000  0.096330  0.981213  1
  Rh  Rh26  1  0.750000  0.596330  0.518787  1
  Rh  Rh27  1  0.750000  0.903670  0.018787  1
  Rh  Rh28  1  0.250000  0.223206  0.173947  1
  Rh  Rh29  1  0.250000  0.276794  0.673947  1
  Rh  Rh30  1  0.750000  0.776794  0.826053  1
  Rh  Rh31  1  0.750000  0.723206  0.326053  1
  Rh  Rh32  1  0.250000  0.880247  0.692421  1
  Rh  Rh33  1  0.250000  0.619753  0.192421  1
  Rh  Rh34  1  0.750000  0.119753  0.307579  1
  Rh  Rh35  1  0.750000  0.380247  0.807579  1
