# generated using pymatgen
data_Li3MnCrNiO6
_symmetry_space_group_name_H-M   'P 1'
_cell_length_a   5.09130842
_cell_length_b   5.09130909
_cell_length_c   5.11435607
_cell_angle_alpha   80.44996966
_cell_angle_beta   80.44996203
_cell_angle_gamma   120.03365541
_symmetry_Int_Tables_number   1
_chemical_formula_structural   Li3MnCrNiO6
_chemical_formula_sum   'Li3 Mn1 Cr1 Ni1 O6'
_cell_volume   108.26188918
_cell_formula_units_Z   1
loop_
 _symmetry_equiv_pos_site_id
 _symmetry_equiv_pos_as_xyz
  1  'x, y, z'
loop_
 _atom_site_type_symbol
 _atom_site_label
 _atom_site_symmetry_multiplicity
 _atom_site_fract_x
 _atom_site_fract_y
 _atom_site_fract_z
 _atom_site_occupancy
  Li  Li0  1  0.169919  0.830081  0.500000  1
  Li  Li1  1  0.493104  0.506896  0.500000  1
  Li  Li2  1  0.836140  0.163860  0.500000  1
  Mn  Mn3  1  0.333130  0.666870  0.000000  1
  Cr  Cr4  1  0.666541  0.333459  0.000000  1
  Ni  Ni5  1  0.000076  0.999924  0.000000  1
  O  O6  1  0.267708  0.278654  0.229270  1
  O  O7  1  0.570073  0.913556  0.225517  1
  O  O8  1  0.935973  0.580455  0.227392  1
  O  O9  1  0.086444  0.429927  0.774483  1
  O  O10  1  0.419545  0.064027  0.772608  1
  O  O11  1  0.721346  0.732292  0.770730  1
