# generated using pymatgen
data_Mn4Re5Si6Mo
_symmetry_space_group_name_H-M   'P 1'
_cell_length_a   6.99293217
_cell_length_b   6.99022575
_cell_length_c   4.84871300
_cell_angle_alpha   90.00000000
_cell_angle_beta   90.00000000
_cell_angle_gamma   119.98719495
_symmetry_Int_Tables_number   1
_chemical_formula_structural   Mn4Re5Si6Mo
_chemical_formula_sum   'Mn4 Re5 Si6 Mo1'
_cell_volume   205.28804129
_cell_formula_units_Z   1
loop_
 _symmetry_equiv_pos_site_id
 _symmetry_equiv_pos_as_xyz
  1  'x, y, z'
loop_
 _atom_site_type_symbol
 _atom_site_label
 _atom_site_symmetry_multiplicity
 _atom_site_fract_x
 _atom_site_fract_y
 _atom_site_fract_z
 _atom_site_occupancy
  Mn  Mn0  1  0.332431  0.666776  0.499662  1
  Mn  Mn1  1  0.667569  0.334344  0.000338  1
  Mn  Mn2  1  0.667569  0.334344  0.499662  1
  Mn  Mn3  1  0.332431  0.666776  0.000338  1
  Re  Re4  1  0.000000  0.236898  0.250000  1
  Re  Re5  1  0.758832  0.759302  0.250000  1
  Re  Re6  1  0.759272  0.000260  0.750000  1
  Re  Re7  1  0.240728  0.240988  0.750000  1
  Re  Re8  1  0.241168  0.000470  0.250000  1
  Si  Si9  1  0.406154  0.001562  0.750000  1
  Si  Si10  1  0.404227  0.404075  0.250000  1
  Si  Si11  1  0.000000  0.594868  0.250000  1
  Si  Si12  1  0.000000  0.402943  0.750000  1
  Si  Si13  1  0.593846  0.595408  0.750000  1
  Si  Si14  1  0.595773  0.999848  0.250000  1
  Mo  Mo15  1  0.000000  0.761139  0.750000  1
