# generated using pymatgen
data_Dy2Mn5Fe4NiP6
_symmetry_space_group_name_H-M   'P 1'
_cell_length_a   3.64042400
_cell_length_b   10.34727780
_cell_length_c   12.10858607
_cell_angle_alpha   89.85950969
_cell_angle_beta   90.00000000
_cell_angle_gamma   90.00000000
_symmetry_Int_Tables_number   1
_chemical_formula_structural   Dy2Mn5Fe4NiP6
_chemical_formula_sum   'Dy4 Mn10 Fe8 Ni2 P12'
_cell_volume   456.11064223
_cell_formula_units_Z   2
loop_
 _symmetry_equiv_pos_site_id
 _symmetry_equiv_pos_as_xyz
  1  'x, y, z'
loop_
 _atom_site_type_symbol
 _atom_site_label
 _atom_site_symmetry_multiplicity
 _atom_site_fract_x
 _atom_site_fract_y
 _atom_site_fract_z
 _atom_site_occupancy
  Dy  Dy0  1  0.250000  0.582288  0.709262  1
  Dy  Dy1  1  0.250000  0.915587  0.212614  1
  Dy  Dy2  1  0.750000  0.423163  0.290553  1
  Dy  Dy3  1  0.750000  0.078220  0.792045  1
  Mn  Mn4  1  0.250000  0.708242  0.997626  1
  Mn  Mn5  1  0.250000  0.793810  0.491929  1
  Mn  Mn6  1  0.750000  0.289850  0.008607  1
  Mn  Mn7  1  0.750000  0.209666  0.509894  1
  Mn  Mn8  1  0.250000  0.411510  0.491072  1
  Mn  Mn9  1  0.250000  0.090179  0.992949  1
  Mn  Mn10  1  0.750000  0.593958  0.507326  1
  Mn  Mn11  1  0.750000  0.902531  0.009857  1
  Mn  Mn12  1  0.250000  0.218580  0.172497  1
  Mn  Mn13  1  0.250000  0.282034  0.674217  1
  Fe  Fe14  1  0.750000  0.724157  0.328898  1
  Fe  Fe15  1  0.250000  0.622074  0.196778  1
  Fe  Fe16  1  0.750000  0.127187  0.300017  1
  Fe  Fe17  1  0.750000  0.372695  0.799529  1
  Fe  Fe18  1  0.250000  0.461735  0.932785  1
  Fe  Fe19  1  0.250000  0.039207  0.434143  1
  Fe  Fe20  1  0.750000  0.537048  0.064142  1
  Fe  Fe21  1  0.750000  0.964799  0.566456  1
  Ni  Ni22  1  0.750000  0.773093  0.820591  1
  Ni  Ni23  1  0.250000  0.879457  0.699168  1
  P  P24  1  0.250000  0.426685  0.111037  1
  P  P25  1  0.250000  0.078074  0.610015  1
  P  P26  1  0.750000  0.570677  0.886558  1
  P  P27  1  0.750000  0.926853  0.388293  1
  P  P28  1  0.250000  0.265575  0.868420  1
  P  P29  1  0.250000  0.234552  0.366593  1
  P  P30  1  0.750000  0.729239  0.139909  1
  P  P31  1  0.750000  0.767208  0.628805  1
  P  P32  1  0.250000  0.604578  0.381654  1
  P  P33  1  0.250000  0.897797  0.888965  1
  P  P34  1  0.750000  0.404879  0.612914  1
  P  P35  1  0.750000  0.092813  0.113876  1
