# generated using pymatgen
data_La5(Cd2Rh)2
_symmetry_space_group_name_H-M   'P 1'
_cell_length_a   8.28503100
_cell_length_b   18.60077600
_cell_length_c   3.85112700
_cell_angle_alpha   90.00000000
_cell_angle_beta   90.00000000
_cell_angle_gamma   90.00000000
_symmetry_Int_Tables_number   1
_chemical_formula_structural   La5(Cd2Rh)2
_chemical_formula_sum   'La10 Cd8 Rh4'
_cell_volume   593.48950199
_cell_formula_units_Z   2
loop_
 _symmetry_equiv_pos_site_id
 _symmetry_equiv_pos_as_xyz
  1  'x, y, z'
loop_
 _atom_site_type_symbol
 _atom_site_label
 _atom_site_symmetry_multiplicity
 _atom_site_fract_x
 _atom_site_fract_y
 _atom_site_fract_z
 _atom_site_occupancy
  La  La0  1  0.500000  0.500000  0.000000  1
  La  La1  1  0.000000  0.000000  0.000000  1
  La  La2  1  0.733467  0.283342  0.000000  1
  La  La3  1  0.266533  0.716658  0.000000  1
  La  La4  1  0.766533  0.783342  0.000000  1
  La  La5  1  0.233467  0.216658  0.000000  1
  La  La6  1  0.610648  0.089561  0.000000  1
  La  La7  1  0.389352  0.910439  0.000000  1
  La  La8  1  0.889352  0.589561  0.000000  1
  La  La9  1  0.110648  0.410439  0.000000  1
  Cd  Cd10  1  0.710889  0.935410  0.500000  1
  Cd  Cd11  1  0.289111  0.064590  0.500000  1
  Cd  Cd12  1  0.789111  0.435410  0.500000  1
  Cd  Cd13  1  0.210889  0.564590  0.500000  1
  Cd  Cd14  1  0.582332  0.650985  0.500000  1
  Cd  Cd15  1  0.417668  0.349015  0.500000  1
  Cd  Cd16  1  0.917668  0.150985  0.500000  1
  Cd  Cd17  1  0.082332  0.849015  0.500000  1
  Rh  Rh18  1  0.520614  0.195764  0.500000  1
  Rh  Rh19  1  0.479386  0.804236  0.500000  1
  Rh  Rh20  1  0.979386  0.695764  0.500000  1
  Rh  Rh21  1  0.020614  0.304236  0.500000  1
