# generated using pymatgen
data_Ba4HoSc(CoO5)2
_symmetry_space_group_name_H-M   'P 1'
_cell_length_a   6.05233100
_cell_length_b   7.89626510
_cell_length_c   12.33222957
_cell_angle_alpha   91.66513480
_cell_angle_beta   90.00000000
_cell_angle_gamma   90.00000000
_symmetry_Int_Tables_number   1
_chemical_formula_structural   Ba4HoSc(CoO5)2
_chemical_formula_sum   'Ba8 Ho2 Sc2 Co4 O20'
_cell_volume   589.11836704
_cell_formula_units_Z   2
loop_
 _symmetry_equiv_pos_site_id
 _symmetry_equiv_pos_as_xyz
  1  'x, y, z'
loop_
 _atom_site_type_symbol
 _atom_site_label
 _atom_site_symmetry_multiplicity
 _atom_site_fract_x
 _atom_site_fract_y
 _atom_site_fract_z
 _atom_site_occupancy
  Ba  Ba0  1  0.756711  0.491999  0.363596  1
  Ba  Ba1  1  0.743289  0.991999  0.863596  1
  Ba  Ba2  1  0.241602  0.505803  0.637193  1
  Ba  Ba3  1  0.258398  0.005803  0.137193  1
  Ba  Ba4  1  0.754566  0.994782  0.384119  1
  Ba  Ba5  1  0.745434  0.494782  0.884119  1
  Ba  Ba6  1  0.245553  0.007777  0.615375  1
  Ba  Ba7  1  0.254447  0.507777  0.115375  1
  Ho  Ho8  1  0.251910  0.738247  0.368482  1
  Ho  Ho9  1  0.248090  0.238247  0.868482  1
  Sc  Sc10  1  0.747065  0.258203  0.632112  1
  Sc  Sc11  1  0.752935  0.758203  0.132112  1
  Co  Co12  1  0.741955  0.746692  0.594102  1
  Co  Co13  1  0.758045  0.246692  0.094102  1
  Co  Co14  1  0.257764  0.255118  0.411856  1
  Co  Co15  1  0.242236  0.755118  0.911856  1
  O  O16  1  0.753809  0.976050  0.632501  1
  O  O17  1  0.746191  0.476050  0.132501  1
  O  O18  1  0.245820  0.029236  0.367320  1
  O  O19  1  0.254180  0.529236  0.867320  1
  O  O20  1  0.740588  0.049016  0.167103  1
  O  O21  1  0.759412  0.549016  0.667103  1
  O  O22  1  0.260031  0.946236  0.831796  1
  O  O23  1  0.239969  0.446236  0.331796  1
  O  O24  1  0.537169  0.747818  0.259471  1
  O  O25  1  0.962831  0.247818  0.759471  1
  O  O26  1  0.476684  0.253301  0.729636  1
  O  O27  1  0.023316  0.753301  0.229636  1
  O  O28  1  0.527018  0.231247  0.987554  1
  O  O29  1  0.972982  0.731247  0.487554  1
  O  O30  1  0.483542  0.768313  0.014089  1
  O  O31  1  0.016458  0.268313  0.514089  1
  O  O32  1  0.026965  0.234209  0.013675  1
  O  O33  1  0.473035  0.734209  0.513675  1
  O  O34  1  0.969559  0.765952  0.990021  1
  O  O35  1  0.530441  0.265952  0.490021  1
