# generated using pymatgen
data_RbH2Br3
_symmetry_space_group_name_H-M   'P 1'
_cell_length_a   5.20671208
_cell_length_b   6.74113443
_cell_length_c   7.06471155
_cell_angle_alpha   60.76837765
_cell_angle_beta   67.29200724
_cell_angle_gamma   86.40903877
_symmetry_Int_Tables_number   1
_chemical_formula_structural   RbH2Br3
_chemical_formula_sum   'Rb1 H2 Br3'
_cell_volume   197.15845260
_cell_formula_units_Z   1
loop_
 _symmetry_equiv_pos_site_id
 _symmetry_equiv_pos_as_xyz
  1  'x, y, z'
loop_
 _atom_site_type_symbol
 _atom_site_label
 _atom_site_symmetry_multiplicity
 _atom_site_fract_x
 _atom_site_fract_y
 _atom_site_fract_z
 _atom_site_occupancy
  Rb  Rb0  1  0.367664  0.741560  0.954212  1
  H  H1  1  0.764726  0.064148  0.177194  1
  H  H2  1  0.968112  0.279067  0.731877  1
  Br  Br3  1  0.674437  0.800126  0.333245  1
  Br  Br4  1  0.019813  0.167560  0.577100  1
  Br  Br5  1  0.895229  0.395797  0.954359  1
