# generated using pymatgen
data_LuNb5SeS9
_symmetry_space_group_name_H-M   'P 1'
_cell_length_a   5.87138328
_cell_length_b   7.68052067
_cell_length_c   8.42228794
_cell_angle_alpha   112.40355475
_cell_angle_beta   96.69818524
_cell_angle_gamma   104.69796054
_symmetry_Int_Tables_number   1
_chemical_formula_structural   LuNb5SeS9
_chemical_formula_sum   'Lu1 Nb5 Se1 S9'
_cell_volume   329.84151115
_cell_formula_units_Z   1
loop_
 _symmetry_equiv_pos_site_id
 _symmetry_equiv_pos_as_xyz
  1  'x, y, z'
loop_
 _atom_site_type_symbol
 _atom_site_label
 _atom_site_symmetry_multiplicity
 _atom_site_fract_x
 _atom_site_fract_y
 _atom_site_fract_z
 _atom_site_occupancy
  Lu  Lu0  1  0.666285  0.508069  0.992753  1
  Nb  Nb1  1  0.000817  0.996871  0.997635  1
  Nb  Nb2  1  0.603853  0.201974  0.202169  1
  Nb  Nb3  1  0.198615  0.403997  0.401057  1
  Nb  Nb4  1  0.799587  0.602005  0.600889  1
  Nb  Nb5  1  0.399843  0.798061  0.797906  1
  Se  Se6  1  0.232725  0.046811  0.304043  1
  S  S7  1  0.042155  0.654837  0.893790  1
  S  S8  1  0.836098  0.262429  0.492631  1
  S  S9  1  0.634850  0.863237  0.098626  1
  S  S10  1  0.427974  0.450625  0.688313  1
  S  S11  1  0.898496  0.547798  0.306384  1
  S  S12  1  0.698807  0.140334  0.903628  1
  S  S13  1  0.497658  0.741521  0.508392  1
  S  S14  1  0.296552  0.340100  0.105940  1
  S  S15  1  0.098486  0.938930  0.707443  1
