# generated using pymatgen
data_Dy16Lu4Si15As
_symmetry_space_group_name_H-M   'P 1'
_cell_length_a   7.49205693
_cell_length_b   7.62855317
_cell_length_c   14.62063300
_cell_angle_alpha   89.88342633
_cell_angle_beta   85.62308927
_cell_angle_gamma   89.94599840
_symmetry_Int_Tables_number   1
_chemical_formula_structural   Dy16Lu4Si15As
_chemical_formula_sum   'Dy16 Lu4 Si15 As1'
_cell_volume   833.18214644
_cell_formula_units_Z   1
loop_
 _symmetry_equiv_pos_site_id
 _symmetry_equiv_pos_as_xyz
  1  'x, y, z'
loop_
 _atom_site_type_symbol
 _atom_site_label
 _atom_site_symmetry_multiplicity
 _atom_site_fract_x
 _atom_site_fract_y
 _atom_site_fract_z
 _atom_site_occupancy
  Dy  Dy0  1  0.011581  0.823694  0.102998  1
  Dy  Dy1  1  0.473842  0.684700  0.397632  1
  Dy  Dy2  1  0.487185  0.319276  0.897853  1
  Dy  Dy3  1  0.026450  0.185104  0.602719  1
  Dy  Dy4  1  0.991689  0.178042  0.898133  1
  Dy  Dy5  1  0.525357  0.314962  0.601944  1
  Dy  Dy6  1  0.507168  0.681841  0.102752  1
  Dy  Dy7  1  0.973437  0.813672  0.397523  1
  Dy  Dy8  1  0.638504  0.838018  0.881009  1
  Dy  Dy9  1  0.174386  0.677011  0.622406  1
  Dy  Dy10  1  0.861710  0.335741  0.118065  1
  Dy  Dy11  1  0.325687  0.176367  0.377830  1
  Dy  Dy12  1  0.360681  0.163657  0.119089  1
  Dy  Dy13  1  0.825801  0.322793  0.377937  1
  Dy  Dy14  1  0.140354  0.665050  0.882092  1
  Dy  Dy15  1  0.674641  0.823733  0.622454  1
  Lu  Lu16  1  0.673561  0.995169  0.245875  1
  Lu  Lu17  1  0.172636  0.503885  0.245620  1
  Lu  Lu18  1  0.827410  0.495513  0.751235  1
  Lu  Lu19  1  0.326367  0.004877  0.753705  1
  Si  Si20  1  0.787334  0.629565  0.251451  1
  Si  Si21  1  0.287219  0.869272  0.252041  1
  Si  Si22  1  0.711662  0.131724  0.748550  1
  Si  Si23  1  0.211454  0.370070  0.748839  1
  Si  Si24  1  0.044803  0.109213  0.251668  1
  Si  Si25  1  0.545487  0.390627  0.250840  1
  Si  Si26  1  0.455281  0.609353  0.749606  1
  Si  Si27  1  0.955092  0.890951  0.749375  1
  Si  Si28  1  0.356424  0.972536  0.542827  1
  Si  Si29  1  0.710611  0.031101  0.044142  1
  Si  Si30  1  0.144788  0.471712  0.457938  1
  Si  Si31  1  0.213547  0.469232  0.044737  1
  Si  Si32  1  0.644139  0.026519  0.457023  1
  Si  Si33  1  0.291234  0.968868  0.955347  1
  Si  Si34  1  0.855809  0.526903  0.542753  1
  As  As35  1  0.786666  0.529253  0.953994  1
