# generated using pymatgen
data_BeAlIn(Ni10B3)2
_symmetry_space_group_name_H-M   'P 1'
_cell_length_a   7.41501580
_cell_length_b   7.41501590
_cell_length_c   7.41501600
_cell_angle_alpha   59.99999956
_cell_angle_beta   59.99999913
_cell_angle_gamma   59.99999728
_symmetry_Int_Tables_number   1
_chemical_formula_structural   BeAlIn(Ni10B3)2
_chemical_formula_sum   'Be1 Al1 In1 Ni20 B6'
_cell_volume   288.28447118
_cell_formula_units_Z   1
loop_
 _symmetry_equiv_pos_site_id
 _symmetry_equiv_pos_as_xyz
  1  'x, y, z'
loop_
 _atom_site_type_symbol
 _atom_site_label
 _atom_site_symmetry_multiplicity
 _atom_site_fract_x
 _atom_site_fract_y
 _atom_site_fract_z
 _atom_site_occupancy
  Be  Be0  1  0.000000  0.000000  0.000000  1
  Al  Al1  1  0.750000  0.750000  0.750000  1
  In  In2  1  0.250000  0.250000  0.250000  1
  Ni  Ni3  1  0.387958  0.387958  0.387958  1
  Ni  Ni4  1  0.619224  0.619224  0.619224  1
  Ni  Ni5  1  0.387958  0.387958  0.836125  1
  Ni  Ni6  1  0.387958  0.836125  0.387958  1
  Ni  Ni7  1  0.619224  0.619224  0.142330  1
  Ni  Ni8  1  0.619224  0.142330  0.619224  1
  Ni  Ni9  1  0.836125  0.387958  0.387958  1
  Ni  Ni10  1  0.142330  0.619224  0.619224  1
  Ni  Ni11  1  0.335425  0.998755  0.998755  1
  Ni  Ni12  1  0.667066  0.998755  0.998755  1
  Ni  Ni13  1  0.998755  0.335425  0.667066  1
  Ni  Ni14  1  0.998755  0.667066  0.335425  1
  Ni  Ni15  1  0.998755  0.335425  0.998755  1
  Ni  Ni16  1  0.667066  0.998755  0.335425  1
  Ni  Ni17  1  0.998755  0.667066  0.998755  1
  Ni  Ni18  1  0.335425  0.998755  0.667066  1
  Ni  Ni19  1  0.998755  0.998755  0.335425  1
  Ni  Ni20  1  0.998755  0.998755  0.667066  1
  Ni  Ni21  1  0.667066  0.335425  0.998755  1
  Ni  Ni22  1  0.335425  0.667066  0.998755  1
  B  B23  1  0.727115  0.272885  0.272885  1
  B  B24  1  0.272885  0.727115  0.727115  1
  B  B25  1  0.272885  0.727115  0.272885  1
  B  B26  1  0.727115  0.272885  0.727115  1
  B  B27  1  0.272885  0.272885  0.727115  1
  B  B28  1  0.727115  0.727115  0.272885  1
