# generated using pymatgen
data_Yb3DyCu2Sn5
_symmetry_space_group_name_H-M   'P 1'
_cell_length_a   4.43758900
_cell_length_b   8.81984300
_cell_length_c   14.06450500
_cell_angle_alpha   90.00000000
_cell_angle_beta   90.00000000
_cell_angle_gamma   90.00000000
_symmetry_Int_Tables_number   1
_chemical_formula_structural   Yb3DyCu2Sn5
_chemical_formula_sum   'Yb6 Dy2 Cu4 Sn10'
_cell_volume   550.46838666
_cell_formula_units_Z   2
loop_
 _symmetry_equiv_pos_site_id
 _symmetry_equiv_pos_as_xyz
  1  'x, y, z'
loop_
 _atom_site_type_symbol
 _atom_site_label
 _atom_site_symmetry_multiplicity
 _atom_site_fract_x
 _atom_site_fract_y
 _atom_site_fract_z
 _atom_site_occupancy
  Yb  Yb0  1  0.500000  0.792745  0.742353  1
  Yb  Yb1  1  0.000000  0.207255  0.757647  1
  Yb  Yb2  1  0.000000  0.207255  0.242353  1
  Yb  Yb3  1  0.500000  0.136789  0.000000  1
  Yb  Yb4  1  0.000000  0.863211  0.500000  1
  Yb  Yb5  1  0.500000  0.792745  0.257647  1
  Dy  Dy6  1  0.500000  0.699013  0.000000  1
  Dy  Dy7  1  0.000000  0.300987  0.500000  1
  Cu  Cu8  1  0.500000  0.377949  0.644450  1
  Cu  Cu9  1  0.000000  0.622051  0.855550  1
  Cu  Cu10  1  0.000000  0.622051  0.144450  1
  Cu  Cu11  1  0.500000  0.377949  0.355550  1
  Sn  Sn12  1  0.500000  0.085564  0.396048  1
  Sn  Sn13  1  0.000000  0.554844  0.663768  1
  Sn  Sn14  1  0.000000  0.406990  0.000000  1
  Sn  Sn15  1  0.500000  0.445156  0.163768  1
  Sn  Sn16  1  0.500000  0.593010  0.500000  1
  Sn  Sn17  1  0.500000  0.445156  0.836232  1
  Sn  Sn18  1  0.000000  0.914436  0.896048  1
  Sn  Sn19  1  0.000000  0.554844  0.336232  1
  Sn  Sn20  1  0.500000  0.085564  0.603952  1
  Sn  Sn21  1  0.000000  0.914436  0.103952  1
