# generated using pymatgen
data_Zr8CrBi4Os
_symmetry_space_group_name_H-M   'P 1'
_cell_length_a   8.39046900
_cell_length_b   8.39046976
_cell_length_c   8.39046977
_cell_angle_alpha   95.91917305
_cell_angle_beta   95.91917726
_cell_angle_gamma   142.53726464
_symmetry_Int_Tables_number   1
_chemical_formula_structural   Zr8CrBi4Os
_chemical_formula_sum   'Zr8 Cr1 Bi4 Os1'
_cell_volume   340.25414141
_cell_formula_units_Z   1
loop_
 _symmetry_equiv_pos_site_id
 _symmetry_equiv_pos_as_xyz
  1  'x, y, z'
loop_
 _atom_site_type_symbol
 _atom_site_label
 _atom_site_symmetry_multiplicity
 _atom_site_fract_x
 _atom_site_fract_y
 _atom_site_fract_z
 _atom_site_occupancy
  Zr  Zr0  1  0.079287  0.195687  0.283149  1
  Zr  Zr1  1  0.912537  0.796137  0.716851  1
  Zr  Zr2  1  0.796137  0.079287  0.883599  1
  Zr  Zr3  1  0.420713  0.703863  0.116401  1
  Zr  Zr4  1  0.195687  0.912537  0.116401  1
  Zr  Zr5  1  0.587463  0.304313  0.883599  1
  Zr  Zr6  1  0.703863  0.587463  0.283149  1
  Zr  Zr7  1  0.304313  0.420713  0.716851  1
  Cr  Cr8  1  0.750000  0.750000  0.000000  1
  Bi  Bi9  1  0.139811  0.639811  0.779622  1
  Bi  Bi10  1  0.860189  0.360189  0.220378  1
  Bi  Bi11  1  0.360189  0.139811  0.500000  1
  Bi  Bi12  1  0.639811  0.860189  0.500000  1
  Os  Os13  1  0.250000  0.250000  0.000000  1
