# generated using pymatgen
data_TbErAl3Fe14C3
_symmetry_space_group_name_H-M   'P 1'
_cell_length_a   6.50555926
_cell_length_b   6.50556004
_cell_length_c   6.50555870
_cell_angle_alpha   83.56257297
_cell_angle_beta   83.56256518
_cell_angle_gamma   83.56257941
_symmetry_Int_Tables_number   1
_chemical_formula_structural   TbErAl3Fe14C3
_chemical_formula_sum   'Tb1 Er1 Al3 Fe14 C3'
_cell_volume   270.48410085
_cell_formula_units_Z   1
loop_
 _symmetry_equiv_pos_site_id
 _symmetry_equiv_pos_as_xyz
  1  'x, y, z'
loop_
 _atom_site_type_symbol
 _atom_site_label
 _atom_site_symmetry_multiplicity
 _atom_site_fract_x
 _atom_site_fract_y
 _atom_site_fract_z
 _atom_site_occupancy
  Tb  Tb0  1  0.656982  0.656982  0.656982  1
  Er  Er1  1  0.342090  0.342090  0.342090  1
  Al  Al2  1  0.999857  0.999857  0.500051  1
  Al  Al3  1  0.500051  0.999857  0.999857  1
  Al  Al4  1  0.999857  0.500051  0.999857  1
  Fe  Fe5  1  0.714119  0.285489  0.000612  1
  Fe  Fe6  1  0.000612  0.714119  0.285489  1
  Fe  Fe7  1  0.285489  0.000612  0.714119  1
  Fe  Fe8  1  0.000612  0.285489  0.714119  1
  Fe  Fe9  1  0.714119  0.000612  0.285489  1
  Fe  Fe10  1  0.285489  0.714119  0.000612  1
  Fe  Fe11  1  0.344789  0.851873  0.344789  1
  Fe  Fe12  1  0.344789  0.344789  0.851873  1
  Fe  Fe13  1  0.851873  0.344789  0.344789  1
  Fe  Fe14  1  0.654597  0.149530  0.654597  1
  Fe  Fe15  1  0.654597  0.654597  0.149530  1
  Fe  Fe16  1  0.149530  0.654597  0.654597  1
  Fe  Fe17  1  0.907334  0.907334  0.907334  1
  Fe  Fe18  1  0.093190  0.093190  0.093190  1
  C  C19  1  0.498814  0.498814  0.002396  1
  C  C20  1  0.002396  0.498814  0.498814  1
  C  C21  1  0.498814  0.002396  0.498814  1
