# generated using pymatgen
data_Zn20Cu2IrPt3
_symmetry_space_group_name_H-M   'P 1'
_cell_length_a   7.89742782
_cell_length_b   7.89742769
_cell_length_c   7.88614400
_cell_angle_alpha   70.63550504
_cell_angle_beta   70.63550538
_cell_angle_gamma   109.78553821
_symmetry_Int_Tables_number   1
_chemical_formula_structural   Zn20Cu2IrPt3
_chemical_formula_sum   'Zn20 Cu2 Ir1 Pt3'
_cell_volume   378.15205876
_cell_formula_units_Z   1
loop_
 _symmetry_equiv_pos_site_id
 _symmetry_equiv_pos_as_xyz
  1  'x, y, z'
loop_
 _atom_site_type_symbol
 _atom_site_label
 _atom_site_symmetry_multiplicity
 _atom_site_fract_x
 _atom_site_fract_y
 _atom_site_fract_z
 _atom_site_occupancy
  Zn  Zn0  1  0.004233  0.004233  0.789731  1
  Zn  Zn1  1  0.771091  0.771091  0.231654  1
  Zn  Zn2  1  0.218385  0.000110  0.997330  1
  Zn  Zn3  1  0.000110  0.218385  0.997330  1
  Zn  Zn4  1  0.259022  0.259022  0.393494  1
  Zn  Zn5  1  0.009339  0.744009  0.644639  1
  Zn  Zn6  1  0.744009  0.009339  0.644639  1
  Zn  Zn7  1  0.652132  0.652132  0.628669  1
  Zn  Zn8  1  0.362073  0.640344  0.349269  1
  Zn  Zn9  1  0.640344  0.362073  0.349269  1
  Zn  Zn10  1  0.357297  0.735475  0.978521  1
  Zn  Zn11  1  0.626784  0.267026  0.717921  1
  Zn  Zn12  1  0.353575  0.006055  0.272185  1
  Zn  Zn13  1  0.735475  0.357297  0.978521  1
  Zn  Zn14  1  0.006055  0.353575  0.272185  1
  Zn  Zn15  1  0.267026  0.626784  0.717921  1
  Zn  Zn16  1  0.637880  0.637880  0.010542  1
  Zn  Zn17  1  0.000993  0.641290  0.362388  1
  Zn  Zn18  1  0.641290  0.000993  0.362388  1
  Zn  Zn19  1  0.356720  0.356720  0.004159  1
  Cu  Cu20  1  0.997813  0.362032  0.647339  1
  Cu  Cu21  1  0.362032  0.997813  0.647339  1
  Ir  Ir22  1  0.000162  0.000162  0.339510  1
  Pt  Pt23  1  0.354699  0.354699  0.650893  1
  Pt  Pt24  1  0.648322  0.993137  0.006082  1
  Pt  Pt25  1  0.993137  0.648322  0.006082  1
