# generated using pymatgen
data_Tm5Lu11(Ga3Rh)2
_symmetry_space_group_name_H-M   'P 1'
_cell_length_a   9.88097303
_cell_length_b   9.88097273
_cell_length_c   6.85364603
_cell_angle_alpha   89.99133271
_cell_angle_beta   90.00866778
_cell_angle_gamma   120.00000453
_symmetry_Int_Tables_number   1
_chemical_formula_structural   Tm5Lu11(Ga3Rh)2
_chemical_formula_sum   'Tm5 Lu11 Ga6 Rh2'
_cell_volume   579.49766481
_cell_formula_units_Z   1
loop_
 _symmetry_equiv_pos_site_id
 _symmetry_equiv_pos_as_xyz
  1  'x, y, z'
loop_
 _atom_site_type_symbol
 _atom_site_label
 _atom_site_symmetry_multiplicity
 _atom_site_fract_x
 _atom_site_fract_y
 _atom_site_fract_z
 _atom_site_occupancy
  Tm  Tm0  1  0.466286  0.932485  0.295171  1
  Tm  Tm1  1  0.067515  0.533714  0.295171  1
  Tm  Tm2  1  0.533806  0.466194  0.795123  1
  Tm  Tm3  1  0.000011  0.999989  0.266521  1
  Tm  Tm4  1  0.000009  0.999991  0.766527  1
  Lu  Lu5  1  0.171401  0.828599  0.988962  1
  Lu  Lu6  1  0.342856  0.171514  0.489339  1
  Lu  Lu7  1  0.828486  0.657144  0.489339  1
  Lu  Lu8  1  0.171366  0.342891  0.989341  1
  Lu  Lu9  1  0.657109  0.828634  0.989341  1
  Lu  Lu10  1  0.828533  0.171467  0.489738  1
  Lu  Lu11  1  0.333361  0.666639  0.663987  1
  Lu  Lu12  1  0.666687  0.333313  0.163807  1
  Lu  Lu13  1  0.465982  0.534018  0.295150  1
  Lu  Lu14  1  0.931896  0.465908  0.795119  1
  Lu  Lu15  1  0.534092  0.068104  0.795119  1
  Ga  Ga16  1  0.163288  0.836712  0.541414  1
  Ga  Ga17  1  0.326717  0.163258  0.041140  1
  Ga  Ga18  1  0.836742  0.673283  0.041140  1
  Ga  Ga19  1  0.163468  0.326766  0.541058  1
  Ga  Ga20  1  0.673234  0.836532  0.541058  1
  Ga  Ga21  1  0.836538  0.163462  0.040828  1
  Rh  Rh22  1  0.333638  0.666362  0.054664  1
  Rh  Rh23  1  0.666979  0.333021  0.554947  1
