# generated using pymatgen
data_Mg4TaNb(SbPt)6
_symmetry_space_group_name_H-M   'P 1'
_cell_length_a   7.76097131
_cell_length_b   7.76343949
_cell_length_c   7.75870586
_cell_angle_alpha   99.66149620
_cell_angle_beta   99.60796392
_cell_angle_gamma   119.96855371
_symmetry_Int_Tables_number   1
_chemical_formula_structural   Mg4TaNb(SbPt)6
_chemical_formula_sum   'Mg4 Ta1 Nb1 Sb6 Pt6'
_cell_volume   381.63560858
_cell_formula_units_Z   1
loop_
 _symmetry_equiv_pos_site_id
 _symmetry_equiv_pos_as_xyz
  1  'x, y, z'
loop_
 _atom_site_type_symbol
 _atom_site_label
 _atom_site_symmetry_multiplicity
 _atom_site_fract_x
 _atom_site_fract_y
 _atom_site_fract_z
 _atom_site_occupancy
  Mg  Mg0  1  0.329642  0.162701  0.498943  1
  Mg  Mg1  1  0.000540  0.502841  0.499246  1
  Mg  Mg2  1  0.162267  0.329053  0.999013  1
  Mg  Mg3  1  0.503393  0.000674  0.999345  1
  Ta  Ta4  1  0.667986  0.833782  0.500195  1
  Nb  Nb5  1  0.834214  0.668465  0.000174  1
  Sb  Sb6  1  0.919448  0.095212  0.246749  1
  Sb  Sb7  1  0.255311  0.748569  0.248033  1
  Sb  Sb8  1  0.574685  0.405402  0.252829  1
  Sb  Sb9  1  0.095929  0.918939  0.747751  1
  Sb  Sb10  1  0.748686  0.257835  0.748854  1
  Sb  Sb11  1  0.405093  0.573701  0.754608  1
  Pt  Pt12  1  0.196712  0.028798  0.121847  1
  Pt  Pt13  1  0.873174  0.387436  0.122739  1
  Pt  Pt14  1  0.558647  0.711009  0.136118  1
  Pt  Pt15  1  0.024916  0.192615  0.620497  1
  Pt  Pt16  1  0.390174  0.872462  0.621551  1
  Pt  Pt17  1  0.709178  0.560506  0.631508  1
