# generated using pymatgen
data_Li2Ti2Sb2H
_symmetry_space_group_name_H-M   'P 1'
_cell_length_a   7.87145107
_cell_length_b   4.07921634
_cell_length_c   4.07921700
_cell_angle_alpha   90.00000000
_cell_angle_beta   105.01753292
_cell_angle_gamma   105.01752897
_symmetry_Int_Tables_number   1
_chemical_formula_structural   Li2Ti2Sb2H
_chemical_formula_sum   'Li2 Ti2 Sb2 H1'
_cell_volume   121.87002200
_cell_formula_units_Z   1
loop_
 _symmetry_equiv_pos_site_id
 _symmetry_equiv_pos_as_xyz
  1  'x, y, z'
loop_
 _atom_site_type_symbol
 _atom_site_label
 _atom_site_symmetry_multiplicity
 _atom_site_fract_x
 _atom_site_fract_y
 _atom_site_fract_z
 _atom_site_occupancy
  Li  Li0  1  0.664349  0.332175  0.332175  1
  Li  Li1  1  0.335651  0.667824  0.667824  1
  Ti  Ti2  1  0.000000  0.499999  0.000000  1
  Ti  Ti3  1  0.000000  0.000000  0.499999  1
  Sb  Sb4  1  0.272964  0.136481  0.136481  1
  Sb  Sb5  1  0.727035  0.863517  0.863517  1
  H  H6  1  0.000000  0.499999  0.499999  1
