# generated using pymatgen
data_Tb6InCoRu
_symmetry_space_group_name_H-M   'P 1'
_cell_length_a   8.46274269
_cell_length_b   8.46274332
_cell_length_c   8.46274269
_cell_angle_alpha   112.64776255
_cell_angle_beta   110.16499494
_cell_angle_gamma   105.67678975
_symmetry_Int_Tables_number   1
_chemical_formula_structural   Tb6InCoRu
_chemical_formula_sum   'Tb12 In2 Co2 Ru2'
_cell_volume   464.80824350
_cell_formula_units_Z   2
loop_
 _symmetry_equiv_pos_site_id
 _symmetry_equiv_pos_as_xyz
  1  'x, y, z'
loop_
 _atom_site_type_symbol
 _atom_site_label
 _atom_site_symmetry_multiplicity
 _atom_site_fract_x
 _atom_site_fract_y
 _atom_site_fract_z
 _atom_site_occupancy
  Tb  Tb0  1  0.442468  0.240415  0.202054  1
  Tb  Tb1  1  0.557532  0.759585  0.797946  1
  Tb  Tb2  1  0.038362  0.240415  0.797946  1
  Tb  Tb3  1  0.961638  0.759585  0.202054  1
  Tb  Tb4  1  0.184250  0.285596  0.469846  1
  Tb  Tb5  1  0.815750  0.714404  0.530154  1
  Tb  Tb6  1  0.184250  0.714404  0.898653  1
  Tb  Tb7  1  0.815750  0.285596  0.101347  1
  Tb  Tb8  1  0.321794  0.636469  0.314676  1
  Tb  Tb9  1  0.678206  0.363531  0.685324  1
  Tb  Tb10  1  0.321794  0.007117  0.685324  1
  Tb  Tb11  1  0.678206  0.992883  0.314676  1
  In  In12  1  0.500000  0.500000  0.000000  1
  In  In13  1  0.000000  0.000000  0.000000  1
  Co  Co14  1  0.110693  0.610693  0.500000  1
  Co  Co15  1  0.889307  0.389307  0.500000  1
  Ru  Ru16  1  0.331504  0.000000  0.331504  1
  Ru  Ru17  1  0.668496  0.000000  0.668496  1
