# generated using pymatgen
data_Nd3Al12OsRh3
_symmetry_space_group_name_H-M   'P 1'
_cell_length_a   8.92014800
_cell_length_b   8.92014646
_cell_length_c   9.65104000
_cell_angle_alpha   90.00000000
_cell_angle_beta   90.00000000
_cell_angle_gamma   120.00000570
_symmetry_Int_Tables_number   1
_chemical_formula_structural   Nd3Al12OsRh3
_chemical_formula_sum   'Nd6 Al24 Os2 Rh6'
_cell_volume   665.04153179
_cell_formula_units_Z   2
loop_
 _symmetry_equiv_pos_site_id
 _symmetry_equiv_pos_as_xyz
  1  'x, y, z'
loop_
 _atom_site_type_symbol
 _atom_site_label
 _atom_site_symmetry_multiplicity
 _atom_site_fract_x
 _atom_site_fract_y
 _atom_site_fract_z
 _atom_site_occupancy
  Nd  Nd0  1  0.190568  0.381137  0.250000  1
  Nd  Nd1  1  0.809432  0.618863  0.750000  1
  Nd  Nd2  1  0.618863  0.809432  0.250000  1
  Nd  Nd3  1  0.381137  0.190568  0.750000  1
  Nd  Nd4  1  0.190568  0.809432  0.250000  1
  Nd  Nd5  1  0.809432  0.190568  0.750000  1
  Al  Al6  1  0.333333  0.666667  0.021386  1
  Al  Al7  1  0.666667  0.333333  0.978614  1
  Al  Al8  1  0.666667  0.333333  0.521386  1
  Al  Al9  1  0.333333  0.666667  0.478614  1
  Al  Al10  1  0.163447  0.326895  0.573744  1
  Al  Al11  1  0.836553  0.673105  0.426256  1
  Al  Al12  1  0.673105  0.836553  0.573744  1
  Al  Al13  1  0.836553  0.673105  0.073744  1
  Al  Al14  1  0.326895  0.163447  0.426256  1
  Al  Al15  1  0.163447  0.326895  0.926256  1
  Al  Al16  1  0.163447  0.836553  0.573744  1
  Al  Al17  1  0.326895  0.163447  0.073744  1
  Al  Al18  1  0.836553  0.163447  0.426256  1
  Al  Al19  1  0.673105  0.836553  0.926256  1
  Al  Al20  1  0.836553  0.163447  0.073744  1
  Al  Al21  1  0.163447  0.836553  0.926256  1
  Al  Al22  1  0.563507  0.127014  0.250000  1
  Al  Al23  1  0.436493  0.872986  0.750000  1
  Al  Al24  1  0.872986  0.436493  0.250000  1
  Al  Al25  1  0.127014  0.563507  0.750000  1
  Al  Al26  1  0.563507  0.436493  0.250000  1
  Al  Al27  1  0.436493  0.563507  0.750000  1
  Al  Al28  1  0.000000  0.000000  0.250000  1
  Al  Al29  1  0.000000  0.000000  0.750000  1
  Os  Os30  1  0.000000  0.000000  0.000000  1
  Os  Os31  1  0.000000  0.000000  0.500000  1
  Rh  Rh32  1  0.500000  0.000000  0.000000  1
  Rh  Rh33  1  0.000000  0.500000  0.000000  1
  Rh  Rh34  1  0.500000  0.000000  0.500000  1
  Rh  Rh35  1  0.500000  0.500000  0.000000  1
  Rh  Rh36  1  0.000000  0.500000  0.500000  1
  Rh  Rh37  1  0.500000  0.500000  0.500000  1
