# generated using pymatgen
data_Pr2Y3S7
_symmetry_space_group_name_H-M   'P 1'
_cell_length_a   6.72617945
_cell_length_b   6.72618045
_cell_length_c   12.04511300
_cell_angle_alpha   75.76059430
_cell_angle_beta   75.76059214
_cell_angle_gamma   34.23570587
_symmetry_Int_Tables_number   1
_chemical_formula_structural   Pr2Y3S7
_chemical_formula_sum   'Pr2 Y3 S7'
_cell_volume   296.25364207
_cell_formula_units_Z   1
loop_
 _symmetry_equiv_pos_site_id
 _symmetry_equiv_pos_as_xyz
  1  'x, y, z'
loop_
 _atom_site_type_symbol
 _atom_site_label
 _atom_site_symmetry_multiplicity
 _atom_site_fract_x
 _atom_site_fract_y
 _atom_site_fract_z
 _atom_site_occupancy
  Pr  Pr0  1  0.301444  0.301444  0.808781  1
  Pr  Pr1  1  0.698556  0.698556  0.191219  1
  Y  Y2  1  0.111714  0.111714  0.576341  1
  Y  Y3  1  0.888286  0.888286  0.423659  1
  Y  Y4  1  0.000000  0.000000  0.000000  1
  S  S5  1  0.261374  0.261374  0.358425  1
  S  S6  1  0.738626  0.738626  0.641575  1
  S  S7  1  0.967777  0.967777  0.785220  1
  S  S8  1  0.032223  0.032223  0.214780  1
  S  S9  1  0.655234  0.655234  0.950280  1
  S  S10  1  0.500000  0.500000  0.500000  1
  S  S11  1  0.344766  0.344766  0.049720  1
