# generated using pymatgen
data_Ho4Sn3As3Ir7
_symmetry_space_group_name_H-M   'P 1'
_cell_length_a   7.39077090
_cell_length_b   7.39077115
_cell_length_c   7.45602900
_cell_angle_alpha   109.65017458
_cell_angle_beta   109.65017527
_cell_angle_gamma   109.29167787
_symmetry_Int_Tables_number   1
_chemical_formula_structural   Ho4Sn3As3Ir7
_chemical_formula_sum   'Ho4 Sn3 As3 Ir7'
_cell_volume   312.82485524
_cell_formula_units_Z   1
loop_
 _symmetry_equiv_pos_site_id
 _symmetry_equiv_pos_as_xyz
  1  'x, y, z'
loop_
 _atom_site_type_symbol
 _atom_site_label
 _atom_site_symmetry_multiplicity
 _atom_site_fract_x
 _atom_site_fract_y
 _atom_site_fract_z
 _atom_site_occupancy
  Ho  Ho0  1  0.000000  0.000000  0.452331  1
  Ho  Ho1  1  0.000000  0.522704  0.007231  1
  Ho  Ho2  1  0.522704  0.000000  0.007231  1
  Ho  Ho3  1  0.477296  0.477296  0.484527  1
  Sn  Sn4  1  0.291088  0.291088  0.984285  1
  Sn  Sn5  1  0.708912  0.000000  0.693199  1
  Sn  Sn6  1  0.000000  0.708912  0.693199  1
  As  As7  1  0.661449  0.661449  0.992057  1
  As  As8  1  0.338551  0.000000  0.330608  1
  As  As9  1  0.000000  0.338551  0.330608  1
  Ir  Ir10  1  0.752726  0.253546  0.498537  1
  Ir  Ir11  1  0.746454  0.499180  0.244991  1
  Ir  Ir12  1  0.500820  0.247274  0.745811  1
  Ir  Ir13  1  0.247274  0.500820  0.745811  1
  Ir  Ir14  1  0.253546  0.752726  0.498537  1
  Ir  Ir15  1  0.499180  0.746454  0.244991  1
  Ir  Ir16  1  0.000000  0.000000  0.046043  1
