# generated using pymatgen
data_Sr4Tb(EuAs2)3
_symmetry_space_group_name_H-M   'P 1'
_cell_length_a   8.07982053
_cell_length_b   8.12275055
_cell_length_c   7.97902904
_cell_angle_alpha   109.11988381
_cell_angle_beta   109.26557799
_cell_angle_gamma   109.95720411
_symmetry_Int_Tables_number   1
_chemical_formula_structural   Sr4Tb(EuAs2)3
_chemical_formula_sum   'Sr4 Tb1 Eu3 As6'
_cell_volume   403.45307164
_cell_formula_units_Z   1
loop_
 _symmetry_equiv_pos_site_id
 _symmetry_equiv_pos_as_xyz
  1  'x, y, z'
loop_
 _atom_site_type_symbol
 _atom_site_label
 _atom_site_symmetry_multiplicity
 _atom_site_fract_x
 _atom_site_fract_y
 _atom_site_fract_z
 _atom_site_occupancy
  Sr  Sr0  1  0.635020  0.636284  0.634759  1
  Sr  Sr1  1  0.002443  0.367119  0.499060  1
  Sr  Sr2  1  0.366188  0.497571  0.997693  1
  Sr  Sr3  1  0.000371  0.863757  0.499097  1
  Tb  Tb4  1  0.498965  0.000607  0.374266  1
  Eu  Eu5  1  0.866241  0.498776  0.998330  1
  Eu  Eu6  1  0.500359  0.000676  0.870317  1
  Eu  Eu7  1  0.130208  0.131094  0.129725  1
  As  As8  1  0.860539  0.125219  0.744298  1
  As  As9  1  0.382853  0.238586  0.614472  1
  As  As10  1  0.136884  0.762663  0.894730  1
  As  As11  1  0.746428  0.881077  0.126795  1
  As  As12  1  0.256459  0.638215  0.371256  1
  As  As13  1  0.617040  0.358360  0.245202  1
