# generated using pymatgen
data_Dy16CdHg3OsRh3
_symmetry_space_group_name_H-M   'P 1'
_cell_length_a   9.60142760
_cell_length_b   9.58605147
_cell_length_c   9.63755283
_cell_angle_alpha   60.07303978
_cell_angle_beta   60.12392031
_cell_angle_gamma   59.94692974
_symmetry_Int_Tables_number   1
_chemical_formula_structural   Dy16CdHg3OsRh3
_chemical_formula_sum   'Dy16 Cd1 Hg3 Os1 Rh3'
_cell_volume   627.90945476
_cell_formula_units_Z   1
loop_
 _symmetry_equiv_pos_site_id
 _symmetry_equiv_pos_as_xyz
  1  'x, y, z'
loop_
 _atom_site_type_symbol
 _atom_site_label
 _atom_site_symmetry_multiplicity
 _atom_site_fract_x
 _atom_site_fract_y
 _atom_site_fract_z
 _atom_site_occupancy
  Dy  Dy0  1  0.560161  0.561544  0.936194  1
  Dy  Dy1  1  0.150131  0.551551  0.148187  1
  Dy  Dy2  1  0.689658  0.311147  0.309538  1
  Dy  Dy3  1  0.937137  0.564434  0.561293  1
  Dy  Dy4  1  0.942100  0.561544  0.936194  1
  Dy  Dy5  1  0.689819  0.691320  0.309488  1
  Dy  Dy6  1  0.560557  0.943457  0.935428  1
  Dy  Dy7  1  0.151500  0.149938  0.150189  1
  Dy  Dy8  1  0.309374  0.691320  0.309488  1
  Dy  Dy9  1  0.548374  0.149938  0.150189  1
  Dy  Dy10  1  0.309404  0.312012  0.691108  1
  Dy  Dy11  1  0.310073  0.688637  0.691217  1
  Dy  Dy12  1  0.150245  0.147516  0.551994  1
  Dy  Dy13  1  0.687476  0.312012  0.691108  1
  Dy  Dy14  1  0.936653  0.937587  0.562078  1
  Dy  Dy15  1  0.563682  0.937587  0.562078  1
  Cd  Cd16  1  0.919201  0.242747  0.918850  1
  Hg  Hg17  1  0.914776  0.916636  0.913990  1
  Hg  Hg18  1  0.254598  0.916636  0.913990  1
  Hg  Hg19  1  0.914243  0.916277  0.255235  1
  Os  Os20  1  0.358973  0.356250  0.925803  1
  Rh  Rh21  1  0.358900  0.357323  0.359036  1
  Rh  Rh22  1  0.924741  0.357323  0.359036  1
  Rh  Rh23  1  0.358223  0.925265  0.358288  1
