# generated using pymatgen
data_Y20CdIn5Ir2
_symmetry_space_group_name_H-M   'P 1'
_cell_length_a   9.82324400
_cell_length_b   9.87354844
_cell_length_c   9.70285300
_cell_angle_alpha   90.00000000
_cell_angle_beta   90.00000000
_cell_angle_gamma   120.16954342
_symmetry_Int_Tables_number   1
_chemical_formula_structural   Y20CdIn5Ir2
_chemical_formula_sum   'Y20 Cd1 In5 Ir2'
_cell_volume   813.60531283
_cell_formula_units_Z   1
loop_
 _symmetry_equiv_pos_site_id
 _symmetry_equiv_pos_as_xyz
  1  'x, y, z'
loop_
 _atom_site_type_symbol
 _atom_site_label
 _atom_site_symmetry_multiplicity
 _atom_site_fract_x
 _atom_site_fract_y
 _atom_site_fract_z
 _atom_site_occupancy
  Y  Y0  1  0.996896  0.998447  0.501998  1
  Y  Y1  1  0.996896  0.998447  0.998002  1
  Y  Y2  1  0.209918  0.790756  0.440371  1
  Y  Y3  1  0.209918  0.419162  0.440371  1
  Y  Y4  1  0.580882  0.790442  0.438500  1
  Y  Y5  1  0.790535  0.210190  0.560049  1
  Y  Y6  1  0.790535  0.580345  0.560049  1
  Y  Y7  1  0.418075  0.209037  0.561104  1
  Y  Y8  1  0.790535  0.210190  0.939951  1
  Y  Y9  1  0.790535  0.580345  0.939951  1
  Y  Y10  1  0.418075  0.209037  0.938896  1
  Y  Y11  1  0.209918  0.790756  0.059629  1
  Y  Y12  1  0.209918  0.419162  0.059629  1
  Y  Y13  1  0.580882  0.790442  0.061500  1
  Y  Y14  1  0.541527  0.459136  0.250000  1
  Y  Y15  1  0.541527  0.082391  0.250000  1
  Y  Y16  1  0.919923  0.459962  0.250000  1
  Y  Y17  1  0.461885  0.543913  0.750000  1
  Y  Y18  1  0.461885  0.917972  0.750000  1
  Y  Y19  1  0.082673  0.541336  0.750000  1
  Cd  Cd20  1  0.765935  0.882967  0.750000  1
  In  In21  1  0.883940  0.117632  0.250000  1
  In  In22  1  0.883940  0.766309  0.250000  1
  In  In23  1  0.232541  0.116271  0.250000  1
  In  In24  1  0.116402  0.881591  0.750000  1
  In  In25  1  0.116402  0.234810  0.750000  1
  Ir  Ir26  1  0.330403  0.665202  0.250000  1
  Ir  Ir27  1  0.667500  0.333749  0.750000  1
