# generated using pymatgen
data_Ca6YbDyBi6
_symmetry_space_group_name_H-M   'P 1'
_cell_length_a   8.30852513
_cell_length_b   8.38636528
_cell_length_c   8.39126158
_cell_angle_alpha   109.63920740
_cell_angle_beta   109.28800667
_cell_angle_gamma   109.29118045
_symmetry_Int_Tables_number   1
_chemical_formula_structural   Ca6YbDyBi6
_chemical_formula_sum   'Ca6 Yb1 Dy1 Bi6'
_cell_volume   451.17104920
_cell_formula_units_Z   1
loop_
 _symmetry_equiv_pos_site_id
 _symmetry_equiv_pos_as_xyz
  1  'x, y, z'
loop_
 _atom_site_type_symbol
 _atom_site_label
 _atom_site_symmetry_multiplicity
 _atom_site_fract_x
 _atom_site_fract_y
 _atom_site_fract_z
 _atom_site_occupancy
  Ca  Ca0  1  0.648966  0.499974  0.999949  1
  Ca  Ca1  1  0.499956  0.001157  0.650917  1
  Ca  Ca2  1  0.355157  0.351886  0.355528  1
  Ca  Ca3  1  0.503409  0.003592  0.148183  1
  Ca  Ca4  1  0.998792  0.649785  0.498907  1
  Ca  Ca5  1  0.848992  0.849075  0.850248  1
  Yb  Yb6  1  0.999707  0.144508  0.496447  1
  Dy  Dy7  1  0.146719  0.499879  0.999967  1
  Bi  Bi8  1  0.370774  0.623888  0.755375  1
  Bi  Bi9  1  0.882034  0.254996  0.125866  1
  Bi  Bi10  1  0.615626  0.744776  0.368657  1
  Bi  Bi11  1  0.126822  0.870837  0.245081  1
  Bi  Bi12  1  0.246792  0.131467  0.875762  1
  Bi  Bi13  1  0.756253  0.374178  0.629114  1
