# generated using pymatgen
data_La17Sm3Sn9Sb7
_symmetry_space_group_name_H-M   'P 1'
_cell_length_a   8.52583295
_cell_length_b   8.59903363
_cell_length_c   16.30662200
_cell_angle_alpha   89.95582398
_cell_angle_beta   90.20192395
_cell_angle_gamma   90.05591174
_symmetry_Int_Tables_number   1
_chemical_formula_structural   La17Sm3Sn9Sb7
_chemical_formula_sum   'La17 Sm3 Sn9 Sb7'
_cell_volume   1195.49410380
_cell_formula_units_Z   1
loop_
 _symmetry_equiv_pos_site_id
 _symmetry_equiv_pos_as_xyz
  1  'x, y, z'
loop_
 _atom_site_type_symbol
 _atom_site_label
 _atom_site_symmetry_multiplicity
 _atom_site_fract_x
 _atom_site_fract_y
 _atom_site_fract_z
 _atom_site_occupancy
  La  La0  1  0.070208  0.167498  0.390736  1
  La  La1  1  0.406171  0.836591  0.114578  1
  La  La2  1  0.091495  0.335651  0.613734  1
  La  La3  1  0.437945  0.673254  0.892555  1
  La  La4  1  0.907252  0.665229  0.115362  1
  La  La5  1  0.090920  0.334153  0.886248  1
  La  La6  1  0.430524  0.668245  0.609438  1
  La  La7  1  0.588982  0.165447  0.612717  1
  La  La8  1  0.762262  0.502047  0.750428  1
  La  La9  1  0.909351  0.664533  0.385541  1
  La  La10  1  0.066185  0.167425  0.109210  1
  La  La11  1  0.931888  0.831048  0.890194  1
  La  La12  1  0.592346  0.164718  0.886057  1
  La  La13  1  0.567992  0.329376  0.110814  1
  La  La14  1  0.408307  0.835890  0.386810  1
  La  La15  1  0.929650  0.831478  0.609785  1
  La  La16  1  0.570817  0.332653  0.388905  1
  Sm  Sm17  1  0.238815  0.498429  0.249575  1
  Sm  Sm18  1  0.738328  0.000845  0.248089  1
  Sm  Sm19  1  0.261359  0.999100  0.750204  1
  Sn  Sn20  1  0.627255  0.869281  0.749215  1
  Sn  Sn21  1  0.872214  0.363286  0.250586  1
  Sn  Sn22  1  0.605858  0.630564  0.250687  1
  Sn  Sn23  1  0.390287  0.371094  0.750256  1
  Sn  Sn24  1  0.134190  0.636168  0.750370  1
  Sn  Sn25  1  0.893632  0.126800  0.748897  1
  Sn  Sn26  1  0.740838  0.989182  0.048375  1
  Sn  Sn27  1  0.370052  0.135030  0.250747  1
  Sn  Sn28  1  0.106543  0.871397  0.251092  1
  Sb  Sb29  1  0.756048  0.493261  0.548375  1
  Sb  Sb30  1  0.743830  0.993688  0.448548  1
  Sb  Sb31  1  0.244960  0.505471  0.448444  1
  Sb  Sb32  1  0.256773  0.008163  0.948953  1
  Sb  Sb33  1  0.758831  0.490150  0.952521  1
  Sb  Sb34  1  0.243430  0.507554  0.050243  1
  Sb  Sb35  1  0.254466  0.005303  0.551711  1
