# generated using pymatgen
data_AlV2Zn(Ni2Pt)4
_symmetry_space_group_name_H-M   'P 1'
_cell_length_a   3.71042400
_cell_length_b   3.68238600
_cell_length_c   14.84674100
_cell_angle_alpha   90.00000000
_cell_angle_beta   90.00000000
_cell_angle_gamma   90.00000000
_symmetry_Int_Tables_number   1
_chemical_formula_structural   AlV2Zn(Ni2Pt)4
_chemical_formula_sum   'Al1 V2 Zn1 Ni8 Pt4'
_cell_volume   202.85419045
_cell_formula_units_Z   1
loop_
 _symmetry_equiv_pos_site_id
 _symmetry_equiv_pos_as_xyz
  1  'x, y, z'
loop_
 _atom_site_type_symbol
 _atom_site_label
 _atom_site_symmetry_multiplicity
 _atom_site_fract_x
 _atom_site_fract_y
 _atom_site_fract_z
 _atom_site_occupancy
  Al  Al0  1  0.000000  0.000000  0.500000  1
  V  V1  1  0.000000  0.000000  0.248581  1
  V  V2  1  0.000000  0.000000  0.751419  1
  Zn  Zn3  1  0.000000  0.000000  0.000000  1
  Ni  Ni4  1  0.500000  0.500000  0.000000  1
  Ni  Ni5  1  0.500000  0.500000  0.251516  1
  Ni  Ni6  1  0.500000  0.500000  0.500000  1
  Ni  Ni7  1  0.500000  0.500000  0.748484  1
  Ni  Ni8  1  0.000000  0.500000  0.131905  1
  Ni  Ni9  1  0.000000  0.500000  0.370756  1
  Ni  Ni10  1  0.000000  0.500000  0.629244  1
  Ni  Ni11  1  0.000000  0.500000  0.868095  1
  Pt  Pt12  1  0.500000  0.000000  0.127767  1
  Pt  Pt13  1  0.500000  0.000000  0.375052  1
  Pt  Pt14  1  0.500000  0.000000  0.624948  1
  Pt  Pt15  1  0.500000  0.000000  0.872233  1
