# generated using pymatgen
data_HoSiOs2C
_symmetry_space_group_name_H-M   'P 1'
_cell_length_a   5.90255196
_cell_length_b   5.90255190
_cell_length_c   7.13330500
_cell_angle_alpha   90.00000000
_cell_angle_beta   90.00000000
_cell_angle_gamma   142.06977956
_symmetry_Int_Tables_number   1
_chemical_formula_structural   HoSiOs2C
_chemical_formula_sum   'Ho2 Si2 Os4 C2'
_cell_volume   152.76876544
_cell_formula_units_Z   2
loop_
 _symmetry_equiv_pos_site_id
 _symmetry_equiv_pos_as_xyz
  1  'x, y, z'
loop_
 _atom_site_type_symbol
 _atom_site_label
 _atom_site_symmetry_multiplicity
 _atom_site_fract_x
 _atom_site_fract_y
 _atom_site_fract_z
 _atom_site_occupancy
  Ho  Ho0  1  0.547646  0.452354  0.250000  1
  Ho  Ho1  1  0.452354  0.547646  0.750000  1
  Si  Si2  1  0.268424  0.731576  0.250000  1
  Si  Si3  1  0.731576  0.268424  0.750000  1
  Os  Os4  1  0.835133  0.164867  0.057962  1
  Os  Os5  1  0.164867  0.835133  0.942038  1
  Os  Os6  1  0.164867  0.835133  0.557962  1
  Os  Os7  1  0.835133  0.164867  0.442038  1
  C  C8  1  0.000000  0.000000  0.000000  1
  C  C9  1  0.000000  0.000000  0.500000  1
