# generated using pymatgen
data_La4Sn16Ir7Pt
_symmetry_space_group_name_H-M   'P 1'
_cell_length_a   4.57526700
_cell_length_b   7.29288800
_cell_length_c   18.77087801
_cell_angle_alpha   90.00358255
_cell_angle_beta   90.00000000
_cell_angle_gamma   90.00000000
_symmetry_Int_Tables_number   1
_chemical_formula_structural   La4Sn16Ir7Pt
_chemical_formula_sum   'La4 Sn16 Ir7 Pt1'
_cell_volume   626.32619250
_cell_formula_units_Z   1
loop_
 _symmetry_equiv_pos_site_id
 _symmetry_equiv_pos_as_xyz
  1  'x, y, z'
loop_
 _atom_site_type_symbol
 _atom_site_label
 _atom_site_symmetry_multiplicity
 _atom_site_fract_x
 _atom_site_fract_y
 _atom_site_fract_z
 _atom_site_occupancy
  La  La0  1  0.250000  0.996505  0.857141  1
  La  La1  1  0.250000  0.503021  0.358511  1
  La  La2  1  0.750000  0.004489  0.142160  1
  La  La3  1  0.750000  0.497287  0.641650  1
  Sn  Sn4  1  0.250000  0.302774  0.184289  1
  Sn  Sn5  1  0.250000  0.196935  0.681948  1
  Sn  Sn6  1  0.750000  0.697517  0.817498  1
  Sn  Sn7  1  0.750000  0.802909  0.317991  1
  Sn  Sn8  1  0.250000  0.722656  0.194704  1
  Sn  Sn9  1  0.250000  0.777460  0.693986  1
  Sn  Sn10  1  0.750000  0.277687  0.805056  1
  Sn  Sn11  1  0.750000  0.222451  0.306251  1
  Sn  Sn12  1  0.250000  0.859286  0.032209  1
  Sn  Sn13  1  0.250000  0.635876  0.531717  1
  Sn  Sn14  1  0.750000  0.132996  0.967167  1
  Sn  Sn15  1  0.750000  0.363853  0.468264  1
  Sn  Sn16  1  0.250000  0.523669  0.930718  1
  Sn  Sn17  1  0.250000  0.980369  0.432328  1
  Sn  Sn18  1  0.750000  0.484697  0.068617  1
  Sn  Sn19  1  0.750000  0.019538  0.567857  1
  Ir  Ir20  1  0.250000  0.249218  0.534535  1
  Ir  Ir21  1  0.750000  0.748396  0.965847  1
  Ir  Ir22  1  0.750000  0.750297  0.465293  1
  Ir  Ir23  1  0.250000  0.015959  0.286968  1
  Ir  Ir24  1  0.250000  0.482467  0.786671  1
  Ir  Ir25  1  0.750000  0.982417  0.713694  1
  Ir  Ir26  1  0.750000  0.518033  0.213095  1
  Pt  Pt27  1  0.250000  0.251239  0.033833  1
