# generated using pymatgen
data_Pr4As2Pd27Au
_symmetry_space_group_name_H-M   'P 1'
_cell_length_a   9.04753462
_cell_length_b   9.04753453
_cell_length_c   7.23152600
_cell_angle_alpha   90.03432984
_cell_angle_beta   90.03432984
_cell_angle_gamma   89.76220300
_symmetry_Int_Tables_number   1
_chemical_formula_structural   Pr4As2Pd27Au
_chemical_formula_sum   'Pr4 As2 Pd27 Au1'
_cell_volume   591.95209172
_cell_formula_units_Z   1
loop_
 _symmetry_equiv_pos_site_id
 _symmetry_equiv_pos_as_xyz
  1  'x, y, z'
loop_
 _atom_site_type_symbol
 _atom_site_label
 _atom_site_symmetry_multiplicity
 _atom_site_fract_x
 _atom_site_fract_y
 _atom_site_fract_z
 _atom_site_occupancy
  Pr  Pr0  1  0.502644  0.002644  0.934545  1
  Pr  Pr1  1  0.997356  0.497356  0.065455  1
  Pr  Pr2  1  0.999533  0.000467  0.500000  1
  Pr  Pr3  1  0.500467  0.499533  0.500000  1
  As  As4  1  0.500841  0.000841  0.450132  1
  As  As5  1  0.999159  0.499159  0.549868  1
  Pd  Pd6  1  0.332418  0.832418  0.618900  1
  Pd  Pd7  1  0.331254  0.169603  0.621657  1
  Pd  Pd8  1  0.669603  0.831254  0.621657  1
  Pd  Pd9  1  0.669029  0.169029  0.621496  1
  Pd  Pd10  1  0.167582  0.667582  0.381100  1
  Pd  Pd11  1  0.168746  0.330397  0.378343  1
  Pd  Pd12  1  0.830397  0.668746  0.378343  1
  Pd  Pd13  1  0.830971  0.330971  0.378504  1
  Pd  Pd14  1  0.502111  0.767328  0.254698  1
  Pd  Pd15  1  0.499920  0.232690  0.253211  1
  Pd  Pd16  1  0.267328  0.002111  0.254698  1
  Pd  Pd17  1  0.732690  0.999920  0.253211  1
  Pd  Pd18  1  0.997889  0.732672  0.745302  1
  Pd  Pd19  1  0.000080  0.267310  0.746789  1
  Pd  Pd20  1  0.232672  0.497889  0.745302  1
  Pd  Pd21  1  0.767310  0.500080  0.746789  1
  Pd  Pd22  1  0.499706  0.348099  0.858181  1
  Pd  Pd23  1  0.502006  0.650520  0.855642  1
  Pd  Pd24  1  0.848099  0.999706  0.858181  1
  Pd  Pd25  1  0.150520  0.002006  0.855642  1
  Pd  Pd26  1  0.000294  0.151901  0.141819  1
  Pd  Pd27  1  0.997994  0.849480  0.144358  1
  Pd  Pd28  1  0.651901  0.500294  0.141819  1
  Pd  Pd29  1  0.349480  0.497994  0.144358  1
  Pd  Pd30  1  0.250000  0.250000  0.000000  1
  Pd  Pd31  1  0.750000  0.750000  0.000000  1
  Pd  Pd32  1  0.750000  0.250000  0.000000  1
  Au  Au33  1  0.250000  0.750000  0.000000  1
