# generated using pymatgen
data_YbCeY4(BO3)6
_symmetry_space_group_name_H-M   'P 1'
_cell_length_a   6.61681884
_cell_length_b   6.61681786
_cell_length_c   8.92621821
_cell_angle_alpha   89.92947996
_cell_angle_beta   89.92946752
_cell_angle_gamma   120.43525263
_symmetry_Int_Tables_number   1
_chemical_formula_structural   YbCeY4(BO3)6
_chemical_formula_sum   'Yb1 Ce1 Y4 B6 O18'
_cell_volume   336.95638887
_cell_formula_units_Z   1
loop_
 _symmetry_equiv_pos_site_id
 _symmetry_equiv_pos_as_xyz
  1  'x, y, z'
loop_
 _atom_site_type_symbol
 _atom_site_label
 _atom_site_symmetry_multiplicity
 _atom_site_fract_x
 _atom_site_fract_y
 _atom_site_fract_z
 _atom_site_occupancy
  Yb  Yb0  1  0.329123  0.670877  0.500000  1
  Ce  Ce1  1  0.000711  0.999289  0.500000  1
  Y  Y2  1  0.329570  0.670430  0.000000  1
  Y  Y3  1  0.000051  0.999949  0.000000  1
  Y  Y4  1  0.672115  0.327885  0.500000  1
  Y  Y5  1  0.671077  0.328923  0.000000  1
  B  B6  1  0.335867  0.095600  0.750115  1
  B  B7  1  0.096145  0.337538  0.750728  1
  B  B8  1  0.573827  0.575831  0.752016  1
  B  B9  1  0.424169  0.426173  0.247984  1
  B  B10  1  0.662462  0.903855  0.249272  1
  B  B11  1  0.904400  0.664133  0.249885  1
  O  O12  1  0.447651  0.663980  0.249440  1
  O  O13  1  0.663253  0.446640  0.249426  1
  O  O14  1  0.880276  0.880561  0.247376  1
  O  O15  1  0.119439  0.119724  0.752624  1
  O  O16  1  0.553360  0.336747  0.750574  1
  O  O17  1  0.336020  0.552349  0.750560  1
  O  O18  1  0.015875  0.666095  0.109257  1
  O  O19  1  0.011234  0.668855  0.392318  1
  O  O20  1  0.665441  0.015173  0.107874  1
  O  O21  1  0.675098  0.021225  0.389317  1
  O  O22  1  0.315359  0.315895  0.105739  1
  O  O23  1  0.312725  0.308006  0.390282  1
  O  O24  1  0.691994  0.687275  0.609718  1
  O  O25  1  0.684105  0.684641  0.894261  1
  O  O26  1  0.978775  0.324902  0.610683  1
  O  O27  1  0.984827  0.334559  0.892126  1
  O  O28  1  0.331145  0.988766  0.607682  1
  O  O29  1  0.333905  0.984125  0.890743  1
