# generated using pymatgen
data_Pr3Nd3Er10(CdIr)4
_symmetry_space_group_name_H-M   'P 1'
_cell_length_a   9.70417190
_cell_length_b   9.70642674
_cell_length_c   9.70406809
_cell_angle_alpha   59.99265462
_cell_angle_beta   59.99943490
_cell_angle_gamma   59.99161675
_symmetry_Int_Tables_number   1
_chemical_formula_structural   Pr3Nd3Er10(CdIr)4
_chemical_formula_sum   'Pr3 Nd3 Er10 Cd4 Ir4'
_cell_volume   646.25395066
_cell_formula_units_Z   1
loop_
 _symmetry_equiv_pos_site_id
 _symmetry_equiv_pos_as_xyz
  1  'x, y, z'
loop_
 _atom_site_type_symbol
 _atom_site_label
 _atom_site_symmetry_multiplicity
 _atom_site_fract_x
 _atom_site_fract_y
 _atom_site_fract_z
 _atom_site_occupancy
  Pr  Pr0  1  0.941094  0.558890  0.559055  1
  Pr  Pr1  1  0.559055  0.940961  0.941094  1
  Pr  Pr2  1  0.558918  0.941082  0.558918  1
  Nd  Nd3  1  0.941429  0.558571  0.941429  1
  Nd  Nd4  1  0.558561  0.558419  0.941580  1
  Nd  Nd5  1  0.941580  0.941440  0.558561  1
  Er  Er6  1  0.347050  0.346798  0.346817  1
  Er  Er7  1  0.347048  0.346993  0.959140  1
  Er  Er8  1  0.346817  0.959334  0.347050  1
  Er  Er9  1  0.959140  0.346819  0.347048  1
  Er  Er10  1  0.812654  0.187709  0.186831  1
  Er  Er11  1  0.186831  0.812805  0.812654  1
  Er  Er12  1  0.187207  0.812793  0.187207  1
  Er  Er13  1  0.812833  0.187167  0.812833  1
  Er  Er14  1  0.186730  0.187572  0.812759  1
  Er  Er15  1  0.812759  0.812938  0.186730  1
  Cd  Cd16  1  0.579096  0.579127  0.579554  1
  Cd  Cd17  1  0.579572  0.579139  0.261707  1
  Cd  Cd18  1  0.579554  0.262223  0.579096  1
  Cd  Cd19  1  0.261707  0.579582  0.579572  1
  Ir  Ir20  1  0.140969  0.141066  0.141525  1
  Ir  Ir21  1  0.141266  0.140825  0.576602  1
  Ir  Ir22  1  0.141525  0.576439  0.140969  1
  Ir  Ir23  1  0.576602  0.141306  0.141266  1
