# generated using pymatgen
data_Fe6Co12Si5Ge
_symmetry_space_group_name_H-M   'P 1'
_cell_length_a   3.97869600
_cell_length_b   5.65985600
_cell_length_c   11.94096700
_cell_angle_alpha   90.00000000
_cell_angle_beta   90.00005756
_cell_angle_gamma   90.00000000
_symmetry_Int_Tables_number   1
_chemical_formula_structural   Fe6Co12Si5Ge
_chemical_formula_sum   'Fe6 Co12 Si5 Ge1'
_cell_volume   268.89680207
_cell_formula_units_Z   1
loop_
 _symmetry_equiv_pos_site_id
 _symmetry_equiv_pos_as_xyz
  1  'x, y, z'
loop_
 _atom_site_type_symbol
 _atom_site_label
 _atom_site_symmetry_multiplicity
 _atom_site_fract_x
 _atom_site_fract_y
 _atom_site_fract_z
 _atom_site_occupancy
  Fe  Fe0  1  0.000000  0.499999  0.001573  1
  Fe  Fe1  1  0.499972  0.000000  0.167892  1
  Fe  Fe2  1  0.999954  0.499999  0.333370  1
  Fe  Fe3  1  0.500000  0.000000  0.498774  1
  Fe  Fe4  1  0.000046  0.499999  0.665052  1
  Fe  Fe5  1  0.500030  0.000000  0.833310  1
  Co  Co6  1  0.499998  0.246741  0.002959  1
  Co  Co7  1  0.499998  0.753259  0.002959  1
  Co  Co8  1  0.999970  0.249750  0.167338  1
  Co  Co9  1  0.999970  0.750250  0.167338  1
  Co  Co10  1  0.499955  0.250439  0.333333  1
  Co  Co11  1  0.499955  0.749561  0.333333  1
  Co  Co12  1  0.000000  0.249760  0.499364  1
  Co  Co13  1  0.000000  0.750240  0.499364  1
  Co  Co14  1  0.500042  0.246803  0.663704  1
  Co  Co15  1  0.500042  0.753197  0.663704  1
  Co  Co16  1  0.000029  0.244057  0.833311  1
  Co  Co17  1  0.000029  0.755943  0.833311  1
  Si  Si18  1  0.999999  0.000000  0.000827  1
  Si  Si19  1  0.499976  0.499999  0.167269  1
  Si  Si20  1  0.999958  0.000000  0.333316  1
  Si  Si21  1  0.500000  0.499999  0.499449  1
  Si  Si22  1  0.000049  0.000000  0.665868  1
  Ge  Ge23  1  0.500031  0.499999  0.833280  1
