# generated using pymatgen
data_Ac8Ga3Si12Ag
_symmetry_space_group_name_H-M   'P 1'
_cell_length_a   11.79236885
_cell_length_b   10.16515441
_cell_length_c   8.53089842
_cell_angle_alpha   77.66673361
_cell_angle_beta   57.32611000
_cell_angle_gamma   44.97066433
_symmetry_Int_Tables_number   1
_chemical_formula_structural   Ac8Ga3Si12Ag
_chemical_formula_sum   'Ac8 Ga3 Si12 Ag1'
_cell_volume   583.49539619
_cell_formula_units_Z   1
loop_
 _symmetry_equiv_pos_site_id
 _symmetry_equiv_pos_as_xyz
  1  'x, y, z'
loop_
 _atom_site_type_symbol
 _atom_site_label
 _atom_site_symmetry_multiplicity
 _atom_site_fract_x
 _atom_site_fract_y
 _atom_site_fract_z
 _atom_site_occupancy
  Ac  Ac0  1  0.378002  0.374767  0.621946  1
  Ac  Ac1  1  0.621951  0.625285  0.377999  1
  Ac  Ac2  1  0.873396  0.873916  0.626149  1
  Ac  Ac3  1  0.626151  0.626541  0.873386  1
  Ac  Ac4  1  0.873612  0.877085  0.126998  1
  Ac  Ac5  1  0.127002  0.122308  0.873610  1
  Ac  Ac6  1  0.375750  0.374821  0.125075  1
  Ac  Ac7  1  0.125073  0.124363  0.375751  1
  Ga  Ga8  1  0.834550  0.165441  0.834562  1
  Ga  Ga9  1  0.167349  0.832664  0.167336  1
  Ga  Ga10  1  0.415362  0.084629  0.415381  1
  Si  Si11  1  0.665074  0.334904  0.665087  1
  Si  Si12  1  0.336917  0.663101  0.336911  1
  Si  Si13  1  0.586513  0.913488  0.586487  1
  Si  Si14  1  0.911752  0.588254  0.911735  1
  Si  Si15  1  0.332665  0.662082  0.831594  1
  Si  Si16  1  0.169347  0.831961  0.662422  1
  Si  Si17  1  0.831587  0.173656  0.332672  1
  Si  Si18  1  0.662423  0.336279  0.169351  1
  Si  Si19  1  0.915426  0.586127  0.421169  1
  Si  Si20  1  0.078977  0.419271  0.587207  1
  Si  Si21  1  0.421172  0.077265  0.915429  1
  Si  Si22  1  0.587213  0.914528  0.078973  1
  Ag  Ag23  1  0.082737  0.417262  0.082770  1
