# generated using pymatgen
data_Sm11Y(C2I11)2
_symmetry_space_group_name_H-M   'P 1'
_cell_length_a   9.68486097
_cell_length_b   10.84296962
_cell_length_c   15.15079700
_cell_angle_alpha   88.11267085
_cell_angle_beta   104.30877882
_cell_angle_gamma   110.07491022
_symmetry_Int_Tables_number   1
_chemical_formula_structural   Sm11Y(C2I11)2
_chemical_formula_sum   'Sm11 Y1 C4 I22'
_cell_volume   1445.64754064
_cell_formula_units_Z   1
loop_
 _symmetry_equiv_pos_site_id
 _symmetry_equiv_pos_as_xyz
  1  'x, y, z'
loop_
 _atom_site_type_symbol
 _atom_site_label
 _atom_site_symmetry_multiplicity
 _atom_site_fract_x
 _atom_site_fract_y
 _atom_site_fract_z
 _atom_site_occupancy
  Sm  Sm0  1  0.615298  0.522488  0.878056  1
  Sm  Sm1  1  0.421517  0.781530  0.266216  1
  Sm  Sm2  1  0.577972  0.217630  0.733267  1
  Sm  Sm3  1  0.625800  0.574267  0.367387  1
  Sm  Sm4  1  0.373329  0.425071  0.631885  1
  Sm  Sm5  1  0.834020  0.646435  0.200068  1
  Sm  Sm6  1  0.165360  0.353064  0.799986  1
  Sm  Sm7  1  0.628602  0.849744  0.096840  1
  Sm  Sm8  1  0.371216  0.150232  0.903415  1
  Sm  Sm9  1  0.860357  0.946866  0.345945  1
  Sm  Sm10  1  0.139019  0.052484  0.653629  1
  Y  Y11  1  0.388472  0.480805  0.123105  1
  C  C12  1  0.429957  0.342726  0.795351  1
  C  C13  1  0.569516  0.656560  0.203977  1
  C  C14  1  0.317261  0.232917  0.741423  1
  C  C15  1  0.681997  0.766284  0.258153  1
  I  I16  1  0.382777  0.305485  0.277383  1
  I  I17  1  0.614811  0.696031  0.718940  1
  I  I18  1  0.124354  0.556281  0.149539  1
  I  I19  1  0.878432  0.440782  0.849163  1
  I  I20  1  0.624577  0.374643  0.067508  1
  I  I21  1  0.371360  0.623742  0.936316  1
  I  I22  1  0.119803  0.212938  0.477404  1
  I  I23  1  0.879908  0.786408  0.522138  1
  I  I24  1  0.613934  0.034103  0.389114  1
  I  I25  1  0.385397  0.965383  0.610458  1
  I  I26  1  0.128885  0.867932  0.304644  1
  I  I27  1  0.870840  0.131013  0.695150  1
  I  I28  1  0.130060  0.537304  0.647960  1
  I  I29  1  0.870223  0.462702  0.352381  1
  I  I30  1  0.622873  0.373763  0.559388  1
  I  I31  1  0.376455  0.625584  0.439991  1
  I  I32  1  0.143873  0.223809  0.987438  1
  I  I33  1  0.862642  0.782507  0.016176  1
  I  I34  1  0.628273  0.045165  0.901673  1
  I  I35  1  0.371465  0.955170  0.098417  1
  I  I36  1  0.126191  0.885867  0.822596  1
  I  I37  1  0.873173  0.114284  0.177522  1
