# generated using pymatgen
data_Sc3Al2Ga3Ir
_symmetry_space_group_name_H-M   'P 1'
_cell_length_a   6.70292059
_cell_length_b   6.70292133
_cell_length_c   4.12352600
_cell_angle_alpha   90.00000000
_cell_angle_beta   90.00000000
_cell_angle_gamma   119.74728881
_symmetry_Int_Tables_number   1
_chemical_formula_structural   Sc3Al2Ga3Ir
_chemical_formula_sum   'Sc3 Al2 Ga3 Ir1'
_cell_volume   160.85251918
_cell_formula_units_Z   1
loop_
 _symmetry_equiv_pos_site_id
 _symmetry_equiv_pos_as_xyz
  1  'x, y, z'
loop_
 _atom_site_type_symbol
 _atom_site_label
 _atom_site_symmetry_multiplicity
 _atom_site_fract_x
 _atom_site_fract_y
 _atom_site_fract_z
 _atom_site_occupancy
  Sc  Sc0  1  0.583579  0.999330  0.000000  1
  Sc  Sc1  1  0.999330  0.583579  0.000000  1
  Sc  Sc2  1  0.418419  0.418419  0.000000  1
  Al  Al3  1  0.237707  0.002365  0.500000  1
  Al  Al4  1  0.002365  0.237707  0.500000  1
  Ga  Ga5  1  0.755074  0.755074  0.500000  1
  Ga  Ga6  1  0.330883  0.667138  0.500000  1
  Ga  Ga7  1  0.667138  0.330883  0.500000  1
  Ir  Ir8  1  0.005507  0.005507  0.000000  1
