# generated using pymatgen
data_Nd3Y(Si3Ni5)4
_symmetry_space_group_name_H-M   'P 1'
_cell_length_a   3.82801500
_cell_length_b   6.62686559
_cell_length_c   18.91108570
_cell_angle_alpha   89.95141095
_cell_angle_beta   90.00000000
_cell_angle_gamma   90.00000000
_symmetry_Int_Tables_number   1
_chemical_formula_structural   Nd3Y(Si3Ni5)4
_chemical_formula_sum   'Nd3 Y1 Si12 Ni20'
_cell_volume   479.73134974
_cell_formula_units_Z   1
loop_
 _symmetry_equiv_pos_site_id
 _symmetry_equiv_pos_as_xyz
  1  'x, y, z'
loop_
 _atom_site_type_symbol
 _atom_site_label
 _atom_site_symmetry_multiplicity
 _atom_site_fract_x
 _atom_site_fract_y
 _atom_site_fract_z
 _atom_site_occupancy
  Nd  Nd0  1  0.250000  0.623714  0.643205  1
  Nd  Nd1  1  0.750000  0.375586  0.356026  1
  Nd  Nd2  1  0.750000  0.125040  0.857583  1
  Y  Y3  1  0.250000  0.877284  0.143682  1
  Si  Si4  1  0.250000  0.840084  0.928541  1
  Si  Si5  1  0.750000  0.156003  0.073277  1
  Si  Si6  1  0.750000  0.339634  0.570792  1
  Si  Si7  1  0.250000  0.661071  0.427413  1
  Si  Si8  1  0.750000  0.616619  0.765174  1
  Si  Si9  1  0.250000  0.382289  0.234800  1
  Si  Si10  1  0.250000  0.429183  0.915519  1
  Si  Si11  1  0.750000  0.578014  0.087663  1
  Si  Si12  1  0.750000  0.931055  0.586797  1
  Si  Si13  1  0.250000  0.068234  0.411972  1
  Si  Si14  1  0.250000  0.117657  0.735895  1
  Si  Si15  1  0.750000  0.882013  0.261922  1
  Ni  Ni16  1  0.250000  0.135421  0.995786  1
  Ni  Ni17  1  0.750000  0.390496  0.986092  1
  Ni  Ni18  1  0.750000  0.108003  0.482357  1
  Ni  Ni19  1  0.250000  0.614771  0.018456  1
  Ni  Ni20  1  0.250000  0.352127  0.114797  1
  Ni  Ni21  1  0.750000  0.645276  0.885903  1
  Ni  Ni22  1  0.750000  0.853776  0.382705  1
  Ni  Ni23  1  0.250000  0.146848  0.615208  1
  Ni  Ni24  1  0.250000  0.071127  0.290294  1
  Ni  Ni25  1  0.750000  0.926894  0.708326  1
  Ni  Ni26  1  0.750000  0.573068  0.206905  1
  Ni  Ni27  1  0.250000  0.427046  0.793369  1
  Ni  Ni28  1  0.750000  0.638868  0.504717  1
  Ni  Ni29  1  0.250000  0.361710  0.493572  1
  Ni  Ni30  1  0.250000  0.809589  0.801802  1
  Ni  Ni31  1  0.750000  0.187743  0.197746  1
  Ni  Ni32  1  0.750000  0.309666  0.698660  1
  Ni  Ni33  1  0.250000  0.690275  0.299638  1
  Ni  Ni34  1  0.250000  0.890730  0.516449  1
  Ni  Ni35  1  0.750000  0.863087  0.006957  1
