# generated using pymatgen
data_Tb2Dy2AlGa17Ir6
_symmetry_space_group_name_H-M   'P 1'
_cell_length_a   7.59409066
_cell_length_b   7.59431460
_cell_length_c   9.50012517
_cell_angle_alpha   89.94938765
_cell_angle_beta   89.94913824
_cell_angle_gamma   119.87765708
_symmetry_Int_Tables_number   1
_chemical_formula_structural   Tb2Dy2AlGa17Ir6
_chemical_formula_sum   'Tb2 Dy2 Al1 Ga17 Ir6'
_cell_volume   475.07012991
_cell_formula_units_Z   1
loop_
 _symmetry_equiv_pos_site_id
 _symmetry_equiv_pos_as_xyz
  1  'x, y, z'
loop_
 _atom_site_type_symbol
 _atom_site_label
 _atom_site_symmetry_multiplicity
 _atom_site_fract_x
 _atom_site_fract_y
 _atom_site_fract_z
 _atom_site_occupancy
  Tb  Tb0  1  0.998216  0.669044  0.749690  1
  Tb  Tb1  1  0.001688  0.330365  0.249345  1
  Dy  Dy2  1  0.669046  0.998227  0.749690  1
  Dy  Dy3  1  0.330362  0.001676  0.249347  1
  Al  Al4  1  0.335402  0.335382  0.449665  1
  Ga  Ga5  1  0.126832  0.126848  0.749423  1
  Ga  Ga6  1  0.872789  0.872772  0.249335  1
  Ga  Ga7  1  0.998732  0.334301  0.579867  1
  Ga  Ga8  1  0.000164  0.665027  0.418795  1
  Ga  Ga9  1  0.999872  0.665000  0.080749  1
  Ga  Ga10  1  0.334636  0.999690  0.918441  1
  Ga  Ga11  1  0.999662  0.334574  0.918424  1
  Ga  Ga12  1  0.664938  0.999845  0.080731  1
  Ga  Ga13  1  0.664964  0.000137  0.418813  1
  Ga  Ga14  1  0.334364  0.998759  0.579849  1
  Ga  Ga15  1  0.331831  0.331805  0.063556  1
  Ga  Ga16  1  0.667730  0.667757  0.936219  1
  Ga  Ga17  1  0.670909  0.670936  0.563669  1
  Ga  Ga18  1  0.340708  0.547946  0.749786  1
  Ga  Ga19  1  0.656036  0.451142  0.250238  1
  Ga  Ga20  1  0.547923  0.340672  0.749786  1
  Ga  Ga21  1  0.451166  0.656071  0.250238  1
  Ir  Ir22  1  0.669089  0.328273  0.499064  1
  Ir  Ir23  1  0.328299  0.669116  0.499062  1
  Ir  Ir24  1  0.328456  0.671815  0.999700  1
  Ir  Ir25  1  0.671788  0.328429  0.999698  1
  Ir  Ir26  1  0.004545  0.004540  0.497485  1
  Ir  Ir27  1  0.999854  0.999855  0.999337  1
