# generated using pymatgen
data_Tb4Ho6Ru3Rh
_symmetry_space_group_name_H-M   'P 1'
_cell_length_a   6.35106247
_cell_length_b   7.28535949
_cell_length_c   8.48335624
_cell_angle_alpha   96.73552221
_cell_angle_beta   112.00763253
_cell_angle_gamma   90.09573593
_symmetry_Int_Tables_number   1
_chemical_formula_structural   Tb4Ho6Ru3Rh
_chemical_formula_sum   'Tb4 Ho6 Ru3 Rh1'
_cell_volume   360.96570411
_cell_formula_units_Z   1
loop_
 _symmetry_equiv_pos_site_id
 _symmetry_equiv_pos_as_xyz
  1  'x, y, z'
loop_
 _atom_site_type_symbol
 _atom_site_label
 _atom_site_symmetry_multiplicity
 _atom_site_fract_x
 _atom_site_fract_y
 _atom_site_fract_z
 _atom_site_occupancy
  Tb  Tb0  1  0.978751  0.917985  0.186269  1
  Tb  Tb1  1  0.790600  0.584771  0.810324  1
  Tb  Tb2  1  0.021710  0.084606  0.812928  1
  Tb  Tb3  1  0.210285  0.414080  0.186299  1
  Ho  Ho4  1  0.640047  0.816588  0.435801  1
  Ho  Ho5  1  0.209561  0.685648  0.568003  1
  Ho  Ho6  1  0.358011  0.185339  0.565668  1
  Ho  Ho7  1  0.793455  0.313022  0.435685  1
  Ho  Ho8  1  0.419603  0.750862  0.999625  1
  Ho  Ho9  1  0.578001  0.247779  0.998201  1
  Ru  Ru10  1  0.603068  0.923274  0.779435  1
  Ru  Ru11  1  0.176253  0.425231  0.778432  1
  Ru  Ru12  1  0.399007  0.075584  0.221194  1
  Rh  Rh13  1  0.821647  0.575229  0.222135  1
