# generated using pymatgen
data_K3Rb3Bi2F12
_symmetry_space_group_name_H-M   'P 1'
_cell_length_a   6.92385345
_cell_length_b   6.68469479
_cell_length_c   11.58529000
_cell_angle_alpha   55.35552652
_cell_angle_beta   90.02061335
_cell_angle_gamma   89.92956347
_symmetry_Int_Tables_number   1
_chemical_formula_structural   K3Rb3Bi2F12
_chemical_formula_sum   'K3 Rb3 Bi2 F12'
_cell_volume   441.13825084
_cell_formula_units_Z   1
loop_
 _symmetry_equiv_pos_site_id
 _symmetry_equiv_pos_as_xyz
  1  'x, y, z'
loop_
 _atom_site_type_symbol
 _atom_site_label
 _atom_site_symmetry_multiplicity
 _atom_site_fract_x
 _atom_site_fract_y
 _atom_site_fract_z
 _atom_site_occupancy
  K  K0  1  0.499569  0.498422  0.001791  1
  K  K1  1  0.999223  0.500553  0.498848  1
  K  K2  1  0.449739  0.732508  0.255068  1
  Rb  Rb3  1  0.050562  0.730751  0.753392  1
  Rb  Rb4  1  0.950486  0.265364  0.247121  1
  Rb  Rb5  1  0.548084  0.268020  0.747184  1
  Bi  Bi6  1  0.499310  0.002663  0.497206  1
  Bi  Bi7  1  0.999826  0.997685  0.002355  1
  F  F8  1  0.772294  0.765925  0.559809  1
  F  F9  1  0.229773  0.244060  0.435852  1
  F  F10  1  0.269174  0.239309  0.938559  1
  F  F11  1  0.724739  0.762766  0.067983  1
  F  F12  1  0.455434  0.871741  0.726722  1
  F  F13  1  0.545181  0.113446  0.271827  1
  F  F14  1  0.952908  0.126206  0.773330  1
  F  F15  1  0.060435  0.869073  0.229247  1
  F  F16  1  0.315130  0.680038  0.543310  1
  F  F17  1  0.676987  0.332833  0.447886  1
  F  F18  1  0.817682  0.321733  0.957854  1
  F  F19  1  0.183461  0.676902  0.044658  1
