# generated using pymatgen
data_Y12Co4HgPd
_symmetry_space_group_name_H-M   'P 1'
_cell_length_a   8.35617914
_cell_length_b   8.35617950
_cell_length_c   8.35617794
_cell_angle_alpha   107.54861158
_cell_angle_beta   110.21129989
_cell_angle_gamma   110.67103815
_symmetry_Int_Tables_number   1
_chemical_formula_structural   Y12Co4HgPd
_chemical_formula_sum   'Y12 Co4 Hg1 Pd1'
_cell_volume   448.77496724
_cell_formula_units_Z   1
loop_
 _symmetry_equiv_pos_site_id
 _symmetry_equiv_pos_as_xyz
  1  'x, y, z'
loop_
 _atom_site_type_symbol
 _atom_site_label
 _atom_site_symmetry_multiplicity
 _atom_site_fract_x
 _atom_site_fract_y
 _atom_site_fract_z
 _atom_site_occupancy
  Y  Y0  1  0.698856  0.282884  0.981738  1
  Y  Y1  1  0.301144  0.717116  0.018262  1
  Y  Y2  1  0.698856  0.717116  0.415972  1
  Y  Y3  1  0.301144  0.282884  0.584028  1
  Y  Y4  1  0.802813  0.119012  0.316200  1
  Y  Y5  1  0.802813  0.486613  0.683800  1
  Y  Y6  1  0.197187  0.880988  0.683800  1
  Y  Y7  1  0.197187  0.513387  0.316200  1
  Y  Y8  1  0.605845  0.792270  0.813575  1
  Y  Y9  1  0.978696  0.792270  0.186425  1
  Y  Y10  1  0.021304  0.207730  0.813575  1
  Y  Y11  1  0.394155  0.207730  0.186425  1
  Co  Co12  1  0.881313  0.500000  0.381313  1
  Co  Co13  1  0.118687  0.500000  0.618687  1
  Co  Co14  1  0.000000  0.111559  0.111559  1
  Co  Co15  1  0.000000  0.888441  0.888441  1
  Hg  Hg16  1  0.500000  0.000000  0.500000  1
  Pd  Pd17  1  0.500000  0.500000  0.000000  1
