# generated using pymatgen
data_YbCo5As3
_symmetry_space_group_name_H-M   'P 1'
_cell_length_a   3.75820900
_cell_length_b   12.17995000
_cell_length_c   10.64283000
_cell_angle_alpha   90.00000000
_cell_angle_beta   90.00000000
_cell_angle_gamma   90.00000000
_symmetry_Int_Tables_number   1
_chemical_formula_structural   YbCo5As3
_chemical_formula_sum   'Yb4 Co20 As12'
_cell_volume   487.17339031
_cell_formula_units_Z   4
loop_
 _symmetry_equiv_pos_site_id
 _symmetry_equiv_pos_as_xyz
  1  'x, y, z'
loop_
 _atom_site_type_symbol
 _atom_site_label
 _atom_site_symmetry_multiplicity
 _atom_site_fract_x
 _atom_site_fract_y
 _atom_site_fract_z
 _atom_site_occupancy
  Yb  Yb0  1  0.750000  0.702467  0.081065  1
  Yb  Yb1  1  0.250000  0.297533  0.918935  1
  Yb  Yb2  1  0.250000  0.797533  0.581065  1
  Yb  Yb3  1  0.750000  0.202467  0.418935  1
  Co  Co4  1  0.750000  0.696662  0.382169  1
  Co  Co5  1  0.250000  0.303338  0.617831  1
  Co  Co6  1  0.250000  0.803338  0.882169  1
  Co  Co7  1  0.750000  0.196662  0.117831  1
  Co  Co8  1  0.750000  0.988062  0.206880  1
  Co  Co9  1  0.250000  0.011938  0.793120  1
  Co  Co10  1  0.250000  0.511938  0.706880  1
  Co  Co11  1  0.750000  0.488062  0.293120  1
  Co  Co12  1  0.750000  0.676167  0.785656  1
  Co  Co13  1  0.250000  0.323833  0.214344  1
  Co  Co14  1  0.250000  0.823833  0.285656  1
  Co  Co15  1  0.750000  0.176167  0.714344  1
  Co  Co16  1  0.750000  0.933593  0.967399  1
  Co  Co17  1  0.250000  0.066407  0.032601  1
  Co  Co18  1  0.250000  0.566407  0.467399  1
  Co  Co19  1  0.750000  0.433593  0.532601  1
  Co  Co20  1  0.750000  0.988125  0.594186  1
  Co  Co21  1  0.250000  0.011875  0.405814  1
  Co  Co22  1  0.250000  0.511875  0.094186  1
  Co  Co23  1  0.750000  0.488124  0.905814  1
  As  As24  1  0.750000  0.615891  0.583986  1
  As  As25  1  0.250000  0.384109  0.416014  1
  As  As26  1  0.250000  0.884109  0.083986  1
  As  As27  1  0.750000  0.115891  0.916014  1
  As  As28  1  0.750000  0.891054  0.400688  1
  As  As29  1  0.250000  0.108946  0.599312  1
  As  As30  1  0.250000  0.608946  0.900688  1
  As  As31  1  0.750000  0.391054  0.099312  1
  As  As32  1  0.750000  0.868419  0.767195  1
  As  As33  1  0.250000  0.131581  0.232805  1
  As  As34  1  0.250000  0.631581  0.267195  1
  As  As35  1  0.750000  0.368419  0.732805  1
