# generated using pymatgen
data_Dy4Er2Al24Ru7Au
_symmetry_space_group_name_H-M   'P 1'
_cell_length_a   8.84237636
_cell_length_b   8.84237496
_cell_length_c   9.56015570
_cell_angle_alpha   89.86334719
_cell_angle_beta   90.13665827
_cell_angle_gamma   119.91781380
_symmetry_Int_Tables_number   1
_chemical_formula_structural   Dy4Er2Al24Ru7Au
_chemical_formula_sum   'Dy4 Er2 Al24 Ru7 Au1'
_cell_volume   647.87458391
_cell_formula_units_Z   1
loop_
 _symmetry_equiv_pos_site_id
 _symmetry_equiv_pos_as_xyz
  1  'x, y, z'
loop_
 _atom_site_type_symbol
 _atom_site_label
 _atom_site_symmetry_multiplicity
 _atom_site_fract_x
 _atom_site_fract_y
 _atom_site_fract_z
 _atom_site_occupancy
  Dy  Dy0  1  0.192553  0.386496  0.249756  1
  Dy  Dy1  1  0.807447  0.613504  0.750244  1
  Dy  Dy2  1  0.613504  0.807447  0.249756  1
  Dy  Dy3  1  0.386496  0.192553  0.750244  1
  Er  Er4  1  0.194838  0.805162  0.253504  1
  Er  Er5  1  0.805162  0.194838  0.746496  1
  Al  Al6  1  0.327936  0.672064  0.023521  1
  Al  Al7  1  0.672064  0.327936  0.976479  1
  Al  Al8  1  0.666705  0.333295  0.517272  1
  Al  Al9  1  0.333295  0.666705  0.482728  1
  Al  Al10  1  0.162139  0.324097  0.578234  1
  Al  Al11  1  0.837861  0.675903  0.421766  1
  Al  Al12  1  0.675903  0.837861  0.578234  1
  Al  Al13  1  0.849329  0.678339  0.080410  1
  Al  Al14  1  0.324097  0.162139  0.421766  1
  Al  Al15  1  0.150671  0.321661  0.919590  1
  Al  Al16  1  0.162632  0.837368  0.578707  1
  Al  Al17  1  0.321661  0.150671  0.080410  1
  Al  Al18  1  0.837368  0.162632  0.421293  1
  Al  Al19  1  0.678339  0.849329  0.919590  1
  Al  Al20  1  0.837383  0.162617  0.077737  1
  Al  Al21  1  0.162617  0.837383  0.922263  1
  Al  Al22  1  0.560381  0.121028  0.248370  1
  Al  Al23  1  0.439619  0.878972  0.751630  1
  Al  Al24  1  0.878972  0.439619  0.248370  1
  Al  Al25  1  0.121028  0.560381  0.751630  1
  Al  Al26  1  0.563833  0.436167  0.255656  1
  Al  Al27  1  0.436167  0.563833  0.744344  1
  Al  Al28  1  0.999792  0.000208  0.250177  1
  Al  Al29  1  0.000208  0.999792  0.749823  1
  Ru  Ru30  1  0.500000  0.000000  0.000000  1
  Ru  Ru31  1  0.000000  0.500000  0.000000  1
  Ru  Ru32  1  0.500000  0.000000  0.500000  1
  Ru  Ru33  1  0.000000  0.500000  0.500000  1
  Ru  Ru34  1  0.500000  0.500000  0.500000  1
  Ru  Ru35  1  0.000000  0.000000  0.000000  1
  Ru  Ru36  1  0.000000  0.000000  0.500000  1
  Au  Au37  1  0.500000  0.500000  0.000000  1
