# generated using pymatgen
data_Sr4Ti(TcO4)3
_symmetry_space_group_name_H-M   'P 1'
_cell_length_a   5.62512600
_cell_length_b   5.65787300
_cell_length_c   7.93127800
_cell_angle_alpha   90.00249819
_cell_angle_beta   89.99913152
_cell_angle_gamma   90.00117813
_symmetry_Int_Tables_number   1
_chemical_formula_structural   Sr4Ti(TcO4)3
_chemical_formula_sum   'Sr4 Ti1 Tc3 O12'
_cell_volume   252.42282452
_cell_formula_units_Z   1
loop_
 _symmetry_equiv_pos_site_id
 _symmetry_equiv_pos_as_xyz
  1  'x, y, z'
loop_
 _atom_site_type_symbol
 _atom_site_label
 _atom_site_symmetry_multiplicity
 _atom_site_fract_x
 _atom_site_fract_y
 _atom_site_fract_z
 _atom_site_occupancy
  Sr  Sr0  1  0.494465  0.002182  0.747282  1
  Sr  Sr1  1  0.994266  0.497403  0.747349  1
  Sr  Sr2  1  0.505535  0.997818  0.252718  1
  Sr  Sr3  1  0.005734  0.502597  0.252651  1
  Ti  Ti4  1  0.500000  0.500000  0.500000  1
  Tc  Tc5  1  0.000000  0.000000  0.000000  1
  Tc  Tc6  1  0.500000  0.500000  0.000000  1
  Tc  Tc7  1  0.000000  0.000000  0.500000  1
  O  O8  1  0.001963  0.952954  0.749750  1
  O  O9  1  0.502188  0.548028  0.745632  1
  O  O10  1  0.998037  0.047046  0.250250  1
  O  O11  1  0.497812  0.451972  0.254368  1
  O  O12  1  0.737264  0.243435  0.524681  1
  O  O13  1  0.239964  0.260309  0.975267  1
  O  O14  1  0.260288  0.759857  0.024839  1
  O  O15  1  0.757276  0.736945  0.475277  1
  O  O16  1  0.262736  0.756565  0.475319  1
  O  O17  1  0.760036  0.739691  0.024733  1
  O  O18  1  0.739712  0.240143  0.975161  1
  O  O19  1  0.242724  0.263055  0.524723  1
