# generated using pymatgen
data_TbCe(SiRh2)2
_symmetry_space_group_name_H-M   'P 1'
_cell_length_a   9.20778039
_cell_length_b   9.20778062
_cell_length_c   4.09650200
_cell_angle_alpha   90.00000000
_cell_angle_beta   90.00000000
_cell_angle_gamma   155.12139731
_symmetry_Int_Tables_number   1
_chemical_formula_structural   TbCe(SiRh2)2
_chemical_formula_sum   'Tb1 Ce1 Si2 Rh4'
_cell_volume   146.11424184
_cell_formula_units_Z   1
loop_
 _symmetry_equiv_pos_site_id
 _symmetry_equiv_pos_as_xyz
  1  'x, y, z'
loop_
 _atom_site_type_symbol
 _atom_site_label
 _atom_site_symmetry_multiplicity
 _atom_site_fract_x
 _atom_site_fract_y
 _atom_site_fract_z
 _atom_site_occupancy
  Tb  Tb0  1  0.101133  0.898867  0.750000  1
  Ce  Ce1  1  0.903674  0.096326  0.250000  1
  Si  Si2  1  0.320904  0.679096  0.750000  1
  Si  Si3  1  0.676950  0.323050  0.250000  1
  Rh  Rh4  1  0.546994  0.453006  0.250000  1
  Rh  Rh5  1  0.452294  0.547706  0.750000  1
  Rh  Rh6  1  0.249487  0.750513  0.250000  1
  Rh  Rh7  1  0.748565  0.251435  0.750000  1
