# generated using pymatgen
data_Dy4Er12Cd4Ru3Pt
_symmetry_space_group_name_H-M   'P 1'
_cell_length_a   9.58570089
_cell_length_b   9.61159126
_cell_length_c   9.61159097
_cell_angle_alpha   59.65252888
_cell_angle_beta   59.48812681
_cell_angle_gamma   59.48812466
_symmetry_Int_Tables_number   1
_chemical_formula_structural   Dy4Er12Cd4Ru3Pt
_chemical_formula_sum   'Dy4 Er12 Cd4 Ru3 Pt1'
_cell_volume   619.66942759
_cell_formula_units_Z   1
loop_
 _symmetry_equiv_pos_site_id
 _symmetry_equiv_pos_as_xyz
  1  'x, y, z'
loop_
 _atom_site_type_symbol
 _atom_site_label
 _atom_site_symmetry_multiplicity
 _atom_site_fract_x
 _atom_site_fract_y
 _atom_site_fract_z
 _atom_site_occupancy
  Dy  Dy0  1  0.557539  0.938695  0.565527  1
  Dy  Dy1  1  0.937281  0.561414  0.939078  1
  Dy  Dy2  1  0.557539  0.565527  0.938695  1
  Dy  Dy3  1  0.937281  0.939078  0.561414  1
  Er  Er4  1  0.345252  0.350568  0.350568  1
  Er  Er5  1  0.346186  0.350583  0.954836  1
  Er  Er6  1  0.346186  0.954836  0.350583  1
  Er  Er7  1  0.963717  0.345649  0.345649  1
  Er  Er8  1  0.814706  0.188800  0.188800  1
  Er  Er9  1  0.185745  0.811622  0.811622  1
  Er  Er10  1  0.187643  0.811036  0.188515  1
  Er  Er11  1  0.814524  0.189200  0.805581  1
  Er  Er12  1  0.187643  0.188515  0.811036  1
  Er  Er13  1  0.814524  0.805581  0.189200  1
  Er  Er14  1  0.937344  0.561247  0.561247  1
  Er  Er15  1  0.557149  0.938805  0.938805  1
  Cd  Cd16  1  0.580720  0.579893  0.579893  1
  Cd  Cd17  1  0.580462  0.580308  0.258749  1
  Cd  Cd18  1  0.580462  0.258749  0.580308  1
  Cd  Cd19  1  0.256198  0.580937  0.580937  1
  Ru  Ru20  1  0.145236  0.138082  0.138082  1
  Ru  Ru21  1  0.145549  0.140600  0.577871  1
  Ru  Ru22  1  0.145549  0.577871  0.140600  1
  Pt  Pt23  1  0.575572  0.142400  0.142400  1
