# generated using pymatgen
data_TbRuF7
_symmetry_space_group_name_H-M   'P 1'
_cell_length_a   5.58788600
_cell_length_b   8.94857487
_cell_length_c   11.99821388
_cell_angle_alpha   63.42912063
_cell_angle_beta   90.00000000
_cell_angle_gamma   90.00000000
_symmetry_Int_Tables_number   1
_chemical_formula_structural   TbRuF7
_chemical_formula_sum   'Tb4 Ru4 F28'
_cell_volume   536.58794947
_cell_formula_units_Z   4
loop_
 _symmetry_equiv_pos_site_id
 _symmetry_equiv_pos_as_xyz
  1  'x, y, z'
loop_
 _atom_site_type_symbol
 _atom_site_label
 _atom_site_symmetry_multiplicity
 _atom_site_fract_x
 _atom_site_fract_y
 _atom_site_fract_z
 _atom_site_occupancy
  Tb  Tb0  1  0.258473  0.810133  0.268940  1
  Tb  Tb1  1  0.741527  0.189867  0.731060  1
  Tb  Tb2  1  0.758473  0.189867  0.231060  1
  Tb  Tb3  1  0.241527  0.810133  0.768940  1
  Ru  Ru4  1  0.754682  0.727309  0.044346  1
  Ru  Ru5  1  0.245318  0.272691  0.955654  1
  Ru  Ru6  1  0.254682  0.272691  0.455654  1
  Ru  Ru7  1  0.745318  0.727309  0.544346  1
  F  F8  1  0.948824  0.705149  0.418928  1
  F  F9  1  0.051176  0.294851  0.581072  1
  F  F10  1  0.448824  0.294851  0.081072  1
  F  F11  1  0.551176  0.705149  0.918928  1
  F  F12  1  0.469754  0.730829  0.139821  1
  F  F13  1  0.530246  0.269171  0.860179  1
  F  F14  1  0.969754  0.269171  0.360179  1
  F  F15  1  0.030246  0.730829  0.639821  1
  F  F16  1  0.955395  0.749465  0.171764  1
  F  F17  1  0.044605  0.250535  0.828236  1
  F  F18  1  0.455395  0.250535  0.328236  1
  F  F19  1  0.544605  0.749465  0.671764  1
  F  F20  1  0.766694  0.489056  0.139768  1
  F  F21  1  0.233306  0.510944  0.860232  1
  F  F22  1  0.266694  0.510944  0.360232  1
  F  F23  1  0.733306  0.489056  0.639768  1
  F  F24  1  0.953887  0.282422  0.046002  1
  F  F25  1  0.046113  0.717578  0.953998  1
  F  F26  1  0.453887  0.717578  0.453998  1
  F  F27  1  0.546113  0.282422  0.546002  1
  F  F28  1  0.745165  0.964344  0.451981  1
  F  F29  1  0.254835  0.035656  0.548019  1
  F  F30  1  0.245165  0.035656  0.048019  1
  F  F31  1  0.754835  0.964344  0.951981  1
  F  F32  1  0.577164  0.972624  0.232903  1
  F  F33  1  0.422836  0.027376  0.767097  1
  F  F34  1  0.077164  0.027376  0.267097  1
  F  F35  1  0.922836  0.972624  0.732903  1
