# generated using pymatgen
data_Na4DyMn3(P3Ir4)4
_symmetry_space_group_name_H-M   'P 1'
_cell_length_a   12.59422200
_cell_length_b   12.59422270
_cell_length_c   3.96401100
_cell_angle_alpha   90.00000000
_cell_angle_beta   90.00000000
_cell_angle_gamma   119.99999816
_symmetry_Int_Tables_number   1
_chemical_formula_structural   Na4DyMn3(P3Ir4)4
_chemical_formula_sum   'Na4 Dy1 Mn3 P12 Ir16'
_cell_volume   544.51293831
_cell_formula_units_Z   1
loop_
 _symmetry_equiv_pos_site_id
 _symmetry_equiv_pos_as_xyz
  1  'x, y, z'
loop_
 _atom_site_type_symbol
 _atom_site_label
 _atom_site_symmetry_multiplicity
 _atom_site_fract_x
 _atom_site_fract_y
 _atom_site_fract_z
 _atom_site_occupancy
  Na  Na0  1  0.333333  0.666667  0.500000  1
  Na  Na1  1  0.999625  0.818075  0.000000  1
  Na  Na2  1  0.181925  0.181550  0.000000  1
  Na  Na3  1  0.818450  0.000375  0.000000  1
  Dy  Dy4  1  0.666667  0.333333  0.500000  1
  Mn  Mn5  1  0.998283  0.457367  0.500000  1
  Mn  Mn6  1  0.542633  0.540915  0.500000  1
  Mn  Mn7  1  0.459085  0.001717  0.500000  1
  P  P8  1  0.002729  0.636537  0.500000  1
  P  P9  1  0.363463  0.366192  0.500000  1
  P  P10  1  0.633808  0.997271  0.500000  1
  P  P11  1  0.515464  0.686841  0.000000  1
  P  P12  1  0.313159  0.828623  0.000000  1
  P  P13  1  0.171377  0.484536  0.000000  1
  P  P14  1  0.479280  0.170136  0.000000  1
  P  P15  1  0.690856  0.520720  0.000000  1
  P  P16  1  0.829864  0.309144  0.000000  1
  P  P17  1  0.001363  0.180187  0.500000  1
  P  P18  1  0.819813  0.821176  0.500000  1
  P  P19  1  0.178824  0.998637  0.500000  1
  Ir  Ir20  1  0.511509  0.873155  0.000000  1
  Ir  Ir21  1  0.126845  0.638356  0.000000  1
  Ir  Ir22  1  0.361644  0.488491  0.000000  1
  Ir  Ir23  1  0.495920  0.364372  0.000000  1
  Ir  Ir24  1  0.868454  0.504080  0.000000  1
  Ir  Ir25  1  0.635628  0.131546  0.000000  1
  Ir  Ir26  1  0.000413  0.283690  0.000000  1
  Ir  Ir27  1  0.716310  0.716723  0.000000  1
  Ir  Ir28  1  0.283277  0.999587  0.000000  1
  Ir  Ir29  1  0.620131  0.800083  0.500000  1
  Ir  Ir30  1  0.199917  0.820048  0.500000  1
  Ir  Ir31  1  0.179952  0.379869  0.500000  1
  Ir  Ir32  1  0.377148  0.182153  0.500000  1
  Ir  Ir33  1  0.805005  0.622852  0.500000  1
  Ir  Ir34  1  0.817847  0.194995  0.500000  1
  Ir  Ir35  1  0.000000  0.000000  0.500000  1
