# generated using pymatgen
data_Ca5Nd(Si3Ru)8
_symmetry_space_group_name_H-M   'P 1'
_cell_length_a   10.21418703
_cell_length_b   10.21418593
_cell_length_c   8.20332899
_cell_angle_alpha   90.01280891
_cell_angle_beta   90.01281222
_cell_angle_gamma   132.63958692
_symmetry_Int_Tables_number   1
_chemical_formula_structural   Ca5Nd(Si3Ru)8
_chemical_formula_sum   'Ca5 Nd1 Si24 Ru8'
_cell_volume   629.58824619
_cell_formula_units_Z   1
loop_
 _symmetry_equiv_pos_site_id
 _symmetry_equiv_pos_as_xyz
  1  'x, y, z'
loop_
 _atom_site_type_symbol
 _atom_site_label
 _atom_site_symmetry_multiplicity
 _atom_site_fract_x
 _atom_site_fract_y
 _atom_site_fract_z
 _atom_site_occupancy
  Ca  Ca0  1  0.500000  0.500000  0.500000  1
  Ca  Ca1  1  0.501841  0.001740  0.749824  1
  Ca  Ca2  1  0.998260  0.498159  0.250176  1
  Ca  Ca3  1  0.498159  0.998260  0.250176  1
  Ca  Ca4  1  0.001740  0.501841  0.749824  1
  Nd  Nd5  1  0.000000  0.000000  0.000000  1
  Si  Si6  1  0.793760  0.206240  0.500000  1
  Si  Si7  1  0.293640  0.706360  0.000000  1
  Si  Si8  1  0.206240  0.793760  0.500000  1
  Si  Si9  1  0.706360  0.293640  0.000000  1
  Si  Si10  1  0.336109  0.336109  0.831090  1
  Si  Si11  1  0.663891  0.663891  0.168910  1
  Si  Si12  1  0.167910  0.167910  0.335169  1
  Si  Si13  1  0.832090  0.832090  0.664831  1
  Si  Si14  1  0.124538  0.890106  0.727276  1
  Si  Si15  1  0.109894  0.875462  0.272724  1
  Si  Si16  1  0.608511  0.375706  0.229849  1
  Si  Si17  1  0.624294  0.391489  0.770151  1
  Si  Si18  1  0.875462  0.109894  0.272724  1
  Si  Si19  1  0.890106  0.124538  0.727276  1
  Si  Si20  1  0.391489  0.624294  0.770151  1
  Si  Si21  1  0.375706  0.608511  0.229849  1
  Si  Si22  1  0.346345  0.113468  0.507335  1
  Si  Si23  1  0.886532  0.653655  0.492665  1
  Si  Si24  1  0.390967  0.155884  0.006527  1
  Si  Si25  1  0.844116  0.609033  0.993473  1
  Si  Si26  1  0.653655  0.886532  0.492665  1
  Si  Si27  1  0.113468  0.346345  0.507335  1
  Si  Si28  1  0.609033  0.844116  0.993473  1
  Si  Si29  1  0.155884  0.390967  0.006527  1
  Ru  Ru30  1  0.668744  0.331256  0.500000  1
  Ru  Ru31  1  0.168675  0.831325  0.000000  1
  Ru  Ru32  1  0.331256  0.668744  0.500000  1
  Ru  Ru33  1  0.831325  0.168675  0.000000  1
  Ru  Ru34  1  0.125890  0.125890  0.625911  1
  Ru  Ru35  1  0.874110  0.874110  0.374089  1
  Ru  Ru36  1  0.372947  0.372947  0.124435  1
  Ru  Ru37  1  0.627053  0.627053  0.875565  1
