# generated using pymatgen
data_DyFe4(ReTc3)2
_symmetry_space_group_name_H-M   'P 1'
_cell_length_a   4.80054214
_cell_length_b   6.71832499
_cell_length_c   6.71832572
_cell_angle_alpha   96.94630502
_cell_angle_beta   110.93277548
_cell_angle_gamma   69.06722817
_symmetry_Int_Tables_number   1
_chemical_formula_structural   DyFe4(ReTc3)2
_chemical_formula_sum   'Dy1 Fe4 Re2 Tc6'
_cell_volume   189.01380398
_cell_formula_units_Z   1
loop_
 _symmetry_equiv_pos_site_id
 _symmetry_equiv_pos_as_xyz
  1  'x, y, z'
loop_
 _atom_site_type_symbol
 _atom_site_label
 _atom_site_symmetry_multiplicity
 _atom_site_fract_x
 _atom_site_fract_y
 _atom_site_fract_z
 _atom_site_occupancy
  Dy  Dy0  1  0.000000  0.000000  0.000000  1
  Fe  Fe1  1  0.500000  0.000000  0.500000  1
  Fe  Fe2  1  0.000000  0.000000  0.500000  1
  Fe  Fe3  1  0.500000  0.500000  0.000000  1
  Fe  Fe4  1  0.000000  0.500000  0.000000  1
  Re  Re5  1  0.000000  0.357949  0.357949  1
  Re  Re6  1  0.000000  0.642051  0.642051  1
  Tc  Tc7  1  0.714416  0.785584  0.214416  1
  Tc  Tc8  1  0.285584  0.214416  0.785584  1
  Tc  Tc9  1  0.500000  0.784738  0.784738  1
  Tc  Tc10  1  0.500000  0.215262  0.215262  1
  Tc  Tc11  1  0.642410  0.357590  0.642410  1
  Tc  Tc12  1  0.357590  0.642410  0.357590  1
