# generated using pymatgen
data_Cs3Rb(USe3)2
_symmetry_space_group_name_H-M   'P 1'
_cell_length_a   7.72751322
_cell_length_b   7.72751415
_cell_length_c   8.81077819
_cell_angle_alpha   81.49814192
_cell_angle_beta   81.49813944
_cell_angle_gamma   120.08345531
_symmetry_Int_Tables_number   1
_chemical_formula_structural   Cs3Rb(USe3)2
_chemical_formula_sum   'Cs3 Rb1 U2 Se6'
_cell_volume   434.85001860
_cell_formula_units_Z   1
loop_
 _symmetry_equiv_pos_site_id
 _symmetry_equiv_pos_as_xyz
  1  'x, y, z'
loop_
 _atom_site_type_symbol
 _atom_site_label
 _atom_site_symmetry_multiplicity
 _atom_site_fract_x
 _atom_site_fract_y
 _atom_site_fract_z
 _atom_site_occupancy
  Cs  Cs0  1  0.652632  0.347368  0.500000  1
  Cs  Cs1  1  0.347368  0.652632  0.500000  1
  Cs  Cs2  1  0.000000  0.000000  0.500000  1
  Rb  Rb3  1  0.500000  0.500000  0.000000  1
  U  U4  1  0.832369  0.167631  0.000000  1
  U  U5  1  0.167631  0.832369  0.000000  1
  Se  Se6  1  0.821009  0.821009  0.187404  1
  Se  Se7  1  0.178991  0.178991  0.812596  1
  Se  Se8  1  0.434021  0.047546  0.192773  1
  Se  Se9  1  0.565979  0.952454  0.807227  1
  Se  Se10  1  0.952454  0.565979  0.807227  1
  Se  Se11  1  0.047546  0.434021  0.192773  1
