# generated using pymatgen
data_Ce3Sm7(Zn2Ru3)2
_symmetry_space_group_name_H-M   'P 1'
_cell_length_a   8.51787473
_cell_length_b   8.51787437
_cell_length_c   8.51787451
_cell_angle_alpha   110.30946921
_cell_angle_beta   110.30946809
_cell_angle_gamma   110.30947145
_symmetry_Int_Tables_number   1
_chemical_formula_structural   Ce3Sm7(Zn2Ru3)2
_chemical_formula_sum   'Ce3 Sm7 Zn4 Ru6'
_cell_volume   460.38646795
_cell_formula_units_Z   1
loop_
 _symmetry_equiv_pos_site_id
 _symmetry_equiv_pos_as_xyz
  1  'x, y, z'
loop_
 _atom_site_type_symbol
 _atom_site_label
 _atom_site_symmetry_multiplicity
 _atom_site_fract_x
 _atom_site_fract_y
 _atom_site_fract_z
 _atom_site_occupancy
  Ce  Ce0  1  0.251300  0.200095  0.943655  1
  Ce  Ce1  1  0.943655  0.251300  0.200095  1
  Ce  Ce2  1  0.200095  0.943655  0.251300  1
  Sm  Sm3  1  0.777878  0.777878  0.777878  1
  Sm  Sm4  1  0.313279  0.565878  0.753370  1
  Sm  Sm5  1  0.753370  0.313279  0.565878  1
  Sm  Sm6  1  0.565878  0.753370  0.313279  1
  Sm  Sm7  1  0.725801  0.504548  0.993626  1
  Sm  Sm8  1  0.993626  0.725801  0.504548  1
  Sm  Sm9  1  0.504548  0.993626  0.725801  1
  Zn  Zn10  1  0.416175  0.416175  0.416175  1
  Zn  Zn11  1  0.089384  0.496512  0.006421  1
  Zn  Zn12  1  0.006421  0.089384  0.496512  1
  Zn  Zn13  1  0.496512  0.006421  0.089384  1
  Ru  Ru14  1  0.907705  0.115858  0.755756  1
  Ru  Ru15  1  0.755756  0.907705  0.115858  1
  Ru  Ru16  1  0.115858  0.755756  0.907705  1
  Ru  Ru17  1  0.218359  0.591308  0.373091  1
  Ru  Ru18  1  0.373091  0.218359  0.591308  1
  Ru  Ru19  1  0.591308  0.373091  0.218359  1
