# generated using pymatgen
data_Dy3Cd5Ir
_symmetry_space_group_name_H-M   'P 1'
_cell_length_a   8.08577100
_cell_length_b   8.08577067
_cell_length_c   3.79283500
_cell_angle_alpha   90.00000000
_cell_angle_beta   90.00000000
_cell_angle_gamma   119.99999727
_symmetry_Int_Tables_number   1
_chemical_formula_structural   Dy3Cd5Ir
_chemical_formula_sum   'Dy3 Cd5 Ir1'
_cell_volume   214.75211539
_cell_formula_units_Z   1
loop_
 _symmetry_equiv_pos_site_id
 _symmetry_equiv_pos_as_xyz
  1  'x, y, z'
loop_
 _atom_site_type_symbol
 _atom_site_label
 _atom_site_symmetry_multiplicity
 _atom_site_fract_x
 _atom_site_fract_y
 _atom_site_fract_z
 _atom_site_occupancy
  Dy  Dy0  1  0.571570  0.956011  0.000000  1
  Dy  Dy1  1  0.043989  0.615558  0.000000  1
  Dy  Dy2  1  0.384442  0.428430  0.000000  1
  Cd  Cd3  1  0.277096  0.005419  0.500000  1
  Cd  Cd4  1  0.994581  0.271677  0.500000  1
  Cd  Cd5  1  0.728323  0.722904  0.500000  1
  Cd  Cd6  1  0.666667  0.333333  0.500000  1
  Cd  Cd7  1  0.000000  0.000000  0.000000  1
  Ir  Ir8  1  0.333333  0.666667  0.500000  1
