# generated using pymatgen
data_Zr4Sc4V12Si15Ge
_symmetry_space_group_name_H-M   'P 1'
_cell_length_a   6.63412443
_cell_length_b   6.64303402
_cell_length_c   12.28952444
_cell_angle_alpha   90.00448103
_cell_angle_beta   90.01094598
_cell_angle_gamma   90.01653529
_symmetry_Int_Tables_number   1
_chemical_formula_structural   Zr4Sc4V12Si15Ge
_chemical_formula_sum   'Zr4 Sc4 V12 Si15 Ge1'
_cell_volume   541.60808619
_cell_formula_units_Z   1
loop_
 _symmetry_equiv_pos_site_id
 _symmetry_equiv_pos_as_xyz
  1  'x, y, z'
loop_
 _atom_site_type_symbol
 _atom_site_label
 _atom_site_symmetry_multiplicity
 _atom_site_fract_x
 _atom_site_fract_y
 _atom_site_fract_z
 _atom_site_occupancy
  Zr  Zr0  1  0.001991  0.659340  0.029881  1
  Zr  Zr1  1  0.838818  0.503495  0.280840  1
  Zr  Zr2  1  0.160559  0.496979  0.779904  1
  Zr  Zr3  1  0.502375  0.838984  0.718813  1
  Sc  Sc4  1  0.500631  0.164181  0.222170  1
  Sc  Sc5  1  0.998171  0.338039  0.528978  1
  Sc  Sc6  1  0.664010  0.000710  0.970058  1
  Sc  Sc7  1  0.337902  0.998315  0.470415  1
  V  V8  1  0.331880  0.337808  0.999182  1
  V  V9  1  0.164616  0.830060  0.251531  1
  V  V10  1  0.833180  0.166871  0.750027  1
  V  V11  1  0.667170  0.667315  0.500120  1
  V  V12  1  0.001563  0.160792  0.126990  1
  V  V13  1  0.342024  0.506580  0.375968  1
  V  V14  1  0.658725  0.494749  0.875635  1
  V  V15  1  0.505740  0.342555  0.624544  1
  V  V16  1  0.496458  0.654638  0.123567  1
  V  V17  1  0.993864  0.841468  0.627207  1
  V  V18  1  0.156730  0.005129  0.871404  1
  V  V19  1  0.842118  0.993424  0.373218  1
  Si  Si20  1  0.537065  0.795026  0.314868  1
  Si  Si21  1  0.461187  0.207327  0.815462  1
  Si  Si22  1  0.792799  0.538736  0.683814  1
  Si  Si23  1  0.210427  0.458384  0.185941  1
  Si  Si24  1  0.708866  0.040607  0.563065  1
  Si  Si25  1  0.957749  0.288625  0.935761  1
  Si  Si26  1  0.040004  0.708313  0.437063  1
  Si  Si27  1  0.701745  0.368733  0.070535  1
  Si  Si28  1  0.130088  0.202462  0.320436  1
  Si  Si29  1  0.870648  0.795209  0.820783  1
  Si  Si30  1  0.204079  0.128646  0.678190  1
  Si  Si31  1  0.793774  0.873331  0.179498  1
  Si  Si32  1  0.295616  0.627909  0.569796  1
  Si  Si33  1  0.374298  0.703990  0.927644  1
  Si  Si34  1  0.627311  0.295927  0.430284  1
  Ge  Ge35  1  0.295821  0.965342  0.066408  1
