# generated using pymatgen
data_Er3In3NiIrRh
_symmetry_space_group_name_H-M   'P 1'
_cell_length_a   7.59149400
_cell_length_b   7.59149480
_cell_length_c   3.71678800
_cell_angle_alpha   90.00000000
_cell_angle_beta   90.00000000
_cell_angle_gamma   120.00000524
_symmetry_Int_Tables_number   1
_chemical_formula_structural   Er3In3NiIrRh
_chemical_formula_sum   'Er3 In3 Ni1 Ir1 Rh1'
_cell_volume   185.50385999
_cell_formula_units_Z   1
loop_
 _symmetry_equiv_pos_site_id
 _symmetry_equiv_pos_as_xyz
  1  'x, y, z'
loop_
 _atom_site_type_symbol
 _atom_site_label
 _atom_site_symmetry_multiplicity
 _atom_site_fract_x
 _atom_site_fract_y
 _atom_site_fract_z
 _atom_site_occupancy
  Er  Er0  1  0.997354  0.589533  0.500000  1
  Er  Er1  1  0.410467  0.407822  0.500000  1
  Er  Er2  1  0.592178  0.002646  0.500000  1
  In  In3  1  0.251287  0.998988  0.000000  1
  In  In4  1  0.747701  0.748713  0.000000  1
  In  In5  1  0.001012  0.252299  0.000000  1
  Ni  Ni6  1  0.000000  0.000000  0.500000  1
  Ir  Ir7  1  0.666667  0.333333  0.000000  1
  Rh  Rh8  1  0.333333  0.666667  0.000000  1
