# generated using pymatgen
data_Sr4ErNp3O12
_symmetry_space_group_name_H-M   'P 1'
_cell_length_a   5.98097818
_cell_length_b   6.12242951
_cell_length_c   8.53609964
_cell_angle_alpha   90.00038894
_cell_angle_beta   90.17158134
_cell_angle_gamma   90.03235383
_symmetry_Int_Tables_number   1
_chemical_formula_structural   Sr4ErNp3O12
_chemical_formula_sum   'Sr4 Er1 Np3 O12'
_cell_volume   312.57444650
_cell_formula_units_Z   1
loop_
 _symmetry_equiv_pos_site_id
 _symmetry_equiv_pos_as_xyz
  1  'x, y, z'
loop_
 _atom_site_type_symbol
 _atom_site_label
 _atom_site_symmetry_multiplicity
 _atom_site_fract_x
 _atom_site_fract_y
 _atom_site_fract_z
 _atom_site_occupancy
  Sr  Sr0  1  0.989107  0.041293  0.255198  1
  Sr  Sr1  1  0.485960  0.454777  0.744859  1
  Sr  Sr2  1  0.514040  0.545223  0.255141  1
  Sr  Sr3  1  0.010893  0.958707  0.744802  1
  Er  Er4  1  0.500000  0.000000  0.500000  1
  Np  Np5  1  0.500000  0.000000  0.000000  1
  Np  Np6  1  0.000000  0.500000  0.000000  1
  Np  Np7  1  0.000000  0.500000  0.500000  1
  O  O8  1  0.202100  0.212990  0.552335  1
  O  O9  1  0.713359  0.297062  0.449199  1
  O  O10  1  0.289971  0.704166  0.943470  1
  O  O11  1  0.792578  0.794880  0.055290  1
  O  O12  1  0.797900  0.787010  0.447665  1
  O  O13  1  0.286641  0.702938  0.550801  1
  O  O14  1  0.710029  0.295834  0.056530  1
  O  O15  1  0.207422  0.205120  0.944710  1
  O  O16  1  0.102196  0.463803  0.245560  1
  O  O17  1  0.597705  0.035786  0.755920  1
  O  O18  1  0.402295  0.964214  0.244080  1
  O  O19  1  0.897804  0.536197  0.754440  1
