# generated using pymatgen
data_SrCoTcAs2
_symmetry_space_group_name_H-M   'P 1'
_cell_length_a   6.61982173
_cell_length_b   6.61982139
_cell_length_c   6.61982111
_cell_angle_alpha   144.24893132
_cell_angle_beta   144.24892876
_cell_angle_gamma   51.45522155
_symmetry_Int_Tables_number   1
_chemical_formula_structural   SrCoTcAs2
_chemical_formula_sum   'Sr1 Co1 Tc1 As2'
_cell_volume   98.49086749
_cell_formula_units_Z   1
loop_
 _symmetry_equiv_pos_site_id
 _symmetry_equiv_pos_as_xyz
  1  'x, y, z'
loop_
 _atom_site_type_symbol
 _atom_site_label
 _atom_site_symmetry_multiplicity
 _atom_site_fract_x
 _atom_site_fract_y
 _atom_site_fract_z
 _atom_site_occupancy
  Sr  Sr0  1  0.000000  0.000000  0.000000  1
  Co  Co1  1  0.250000  0.750000  0.500000  1
  Tc  Tc2  1  0.750000  0.250000  0.500000  1
  As  As3  1  0.357544  0.357544  0.000000  1
  As  As4  1  0.642456  0.642456  0.000000  1
