# generated using pymatgen
data_LuScP7(Ru5Rh)2
_symmetry_space_group_name_H-M   'P 1'
_cell_length_a   9.36835420
_cell_length_b   9.44001021
_cell_length_c   3.91224500
_cell_angle_alpha   90.00000000
_cell_angle_beta   90.00000000
_cell_angle_gamma   120.17277130
_symmetry_Int_Tables_number   1
_chemical_formula_structural   LuScP7(Ru5Rh)2
_chemical_formula_sum   'Lu1 Sc1 P7 Ru10 Rh2'
_cell_volume   299.11191803
_cell_formula_units_Z   1
loop_
 _symmetry_equiv_pos_site_id
 _symmetry_equiv_pos_as_xyz
  1  'x, y, z'
loop_
 _atom_site_type_symbol
 _atom_site_label
 _atom_site_symmetry_multiplicity
 _atom_site_fract_x
 _atom_site_fract_y
 _atom_site_fract_z
 _atom_site_occupancy
  Lu  Lu0  1  0.328601  0.664816  0.000000  1
  Sc  Sc1  1  0.669100  0.333421  0.500000  1
  P  P2  1  0.600034  0.716357  0.500000  1
  P  P3  1  0.000276  0.002258  0.000000  1
  P  P4  1  0.278672  0.879436  0.500000  1
  P  P5  1  0.115811  0.403155  0.500000  1
  P  P6  1  0.882246  0.574688  0.000000  1
  P  P7  1  0.426706  0.302118  0.000000  1
  P  P8  1  0.698014  0.121103  0.000000  1
  Ru  Ru9  1  0.913836  0.126309  0.500000  1
  Ru  Ru10  1  0.214781  0.088051  0.500000  1
  Ru  Ru11  1  0.875272  0.790696  0.500000  1
  Ru  Ru12  1  0.723944  0.889506  0.000000  1
  Ru  Ru13  1  0.109196  0.838173  0.000000  1
  Ru  Ru14  1  0.167003  0.275137  0.000000  1
  Ru  Ru15  1  0.432841  0.066856  0.000000  1
  Ru  Ru16  1  0.933396  0.362355  0.000000  1
  Ru  Ru17  1  0.637384  0.568047  0.000000  1
  Ru  Ru18  1  0.050886  0.608409  0.500000  1
  Rh  Rh19  1  0.549965  0.941578  0.500000  1
  Rh  Rh20  1  0.392040  0.447530  0.500000  1
