# generated using pymatgen
data_Ba3(H6Rh)2
_symmetry_space_group_name_H-M   'P 1'
_cell_length_a   5.51683300
_cell_length_b   5.51683366
_cell_length_c   8.90011200
_cell_angle_alpha   90.00000000
_cell_angle_beta   90.00000000
_cell_angle_gamma   120.00000204
_symmetry_Int_Tables_number   1
_chemical_formula_structural   Ba3(H6Rh)2
_chemical_formula_sum   'Ba3 H12 Rh2'
_cell_volume   234.58801579
_cell_formula_units_Z   1
loop_
 _symmetry_equiv_pos_site_id
 _symmetry_equiv_pos_as_xyz
  1  'x, y, z'
loop_
 _atom_site_type_symbol
 _atom_site_label
 _atom_site_symmetry_multiplicity
 _atom_site_fract_x
 _atom_site_fract_y
 _atom_site_fract_z
 _atom_site_occupancy
  Ba  Ba0  1  0.000000  0.000000  0.000000  1
  Ba  Ba1  1  0.666667  0.333333  0.358938  1
  Ba  Ba2  1  0.333333  0.666667  0.641062  1
  H  H3  1  0.187258  0.812742  0.347519  1
  H  H4  1  0.625483  0.812742  0.347519  1
  H  H5  1  0.187258  0.374517  0.347519  1
  H  H6  1  0.812742  0.187258  0.652481  1
  H  H7  1  0.374517  0.187258  0.652481  1
  H  H8  1  0.812742  0.625483  0.652481  1
  H  H9  1  0.528289  0.056578  0.872476  1
  H  H10  1  0.528289  0.471711  0.872476  1
  H  H11  1  0.943422  0.471711  0.872476  1
  H  H12  1  0.471711  0.943422  0.127524  1
  H  H13  1  0.471711  0.528289  0.127524  1
  H  H14  1  0.056578  0.528289  0.127524  1
  Rh  Rh15  1  0.666667  0.333333  0.759804  1
  Rh  Rh16  1  0.333333  0.666667  0.240196  1
