# generated using pymatgen
data_Dy9Th(Sn3P)2
_symmetry_space_group_name_H-M   'P 1'
_cell_length_a   9.13727397
_cell_length_b   9.13727424
_cell_length_c   6.71708900
_cell_angle_alpha   90.00000000
_cell_angle_beta   90.00000000
_cell_angle_gamma   120.24549182
_symmetry_Int_Tables_number   1
_chemical_formula_structural   Dy9Th(Sn3P)2
_chemical_formula_sum   'Dy9 Th1 Sn6 P2'
_cell_volume   484.46832287
_cell_formula_units_Z   1
loop_
 _symmetry_equiv_pos_site_id
 _symmetry_equiv_pos_as_xyz
  1  'x, y, z'
loop_
 _atom_site_type_symbol
 _atom_site_label
 _atom_site_symmetry_multiplicity
 _atom_site_fract_x
 _atom_site_fract_y
 _atom_site_fract_z
 _atom_site_occupancy
  Dy  Dy0  1  0.666964  0.332674  0.000588  1
  Dy  Dy1  1  0.332674  0.666964  0.000588  1
  Dy  Dy2  1  0.332674  0.666964  0.499412  1
  Dy  Dy3  1  0.666964  0.332674  0.499412  1
  Dy  Dy4  1  0.241352  0.000466  0.750000  1
  Dy  Dy5  1  0.000466  0.241352  0.750000  1
  Dy  Dy6  1  0.240981  0.240981  0.250000  1
  Dy  Dy7  1  0.759380  0.000553  0.250000  1
  Dy  Dy8  1  0.000553  0.759380  0.250000  1
  Th  Th9  1  0.757713  0.757713  0.750000  1
  Sn  Sn10  1  0.396515  0.396515  0.750000  1
  Sn  Sn11  1  0.599275  0.001881  0.750000  1
  Sn  Sn12  1  0.001881  0.599275  0.750000  1
  Sn  Sn13  1  0.600535  0.600535  0.250000  1
  Sn  Sn14  1  0.398654  0.999809  0.250000  1
  Sn  Sn15  1  0.999809  0.398654  0.250000  1
  P  P16  1  0.001805  0.001805  0.001759  1
  P  P17  1  0.001805  0.001805  0.498241  1
