# generated using pymatgen
data_LuPu(CI)2
_symmetry_space_group_name_H-M   'P 1'
_cell_length_a   4.07231898
_cell_length_b   4.07231850
_cell_length_c   11.04325089
_cell_angle_alpha   86.80599182
_cell_angle_beta   86.80599365
_cell_angle_gamma   56.45260981
_symmetry_Int_Tables_number   1
_chemical_formula_structural   LuPu(CI)2
_chemical_formula_sum   'Lu1 Pu1 C2 I2'
_cell_volume   152.32773850
_cell_formula_units_Z   1
loop_
 _symmetry_equiv_pos_site_id
 _symmetry_equiv_pos_as_xyz
  1  'x, y, z'
loop_
 _atom_site_type_symbol
 _atom_site_label
 _atom_site_symmetry_multiplicity
 _atom_site_fract_x
 _atom_site_fract_y
 _atom_site_fract_z
 _atom_site_occupancy
  Lu  Lu0  1  0.855932  0.855932  0.124773  1
  Pu  Pu1  1  0.141418  0.141418  0.871472  1
  C  C2  1  0.420941  0.420941  0.975903  1
  C  C3  1  0.573858  0.573858  0.039008  1
  I  I4  1  0.828606  0.828606  0.676380  1
  I  I5  1  0.179245  0.179245  0.312464  1
