# generated using pymatgen
data_Ho4IrPd3O14
_symmetry_space_group_name_H-M   'P 1'
_cell_length_a   7.25157132
_cell_length_b   7.25157105
_cell_length_c   7.25157154
_cell_angle_alpha   59.69323442
_cell_angle_beta   59.69323424
_cell_angle_gamma   59.69322767
_symmetry_Int_Tables_number   1
_chemical_formula_structural   Ho4IrPd3O14
_chemical_formula_sum   'Ho4 Ir1 Pd3 O14'
_cell_volume   267.75919673
_cell_formula_units_Z   1
loop_
 _symmetry_equiv_pos_site_id
 _symmetry_equiv_pos_as_xyz
  1  'x, y, z'
loop_
 _atom_site_type_symbol
 _atom_site_label
 _atom_site_symmetry_multiplicity
 _atom_site_fract_x
 _atom_site_fract_y
 _atom_site_fract_z
 _atom_site_occupancy
  Ho  Ho0  1  0.625000  0.625000  0.125000  1
  Ho  Ho1  1  0.625000  0.125000  0.625000  1
  Ho  Ho2  1  0.125000  0.625000  0.625000  1
  Ho  Ho3  1  0.625000  0.625000  0.625000  1
  Ir  Ir4  1  0.125000  0.125000  0.125000  1
  Pd  Pd5  1  0.125000  0.125000  0.625000  1
  Pd  Pd6  1  0.125000  0.625000  0.125000  1
  Pd  Pd7  1  0.625000  0.125000  0.125000  1
  O  O8  1  0.467586  0.034984  0.467586  1
  O  O9  1  0.215016  0.782414  0.782414  1
  O  O10  1  0.789569  0.213626  0.213626  1
  O  O11  1  0.213626  0.789569  0.213626  1
  O  O12  1  0.782414  0.782414  0.215016  1
  O  O13  1  0.213626  0.213626  0.789569  1
  O  O14  1  0.467586  0.467586  0.034984  1
  O  O15  1  0.034984  0.467586  0.467586  1
  O  O16  1  0.460431  0.036374  0.036374  1
  O  O17  1  0.036374  0.036374  0.460431  1
  O  O18  1  0.782414  0.215016  0.782414  1
  O  O19  1  0.036374  0.460431  0.036374  1
  O  O20  1  0.499709  0.499709  0.499709  1
  O  O21  1  0.750291  0.750291  0.750291  1
