# generated using pymatgen
data_LaSm(Y2Rh9)2
_symmetry_space_group_name_H-M   'P 1'
_cell_length_a   5.30296104
_cell_length_b   5.30290684
_cell_length_c   17.53823000
_cell_angle_alpha   90.00000000
_cell_angle_beta   90.00000000
_cell_angle_gamma   119.98682946
_symmetry_Int_Tables_number   1
_chemical_formula_structural   LaSm(Y2Rh9)2
_chemical_formula_sum   'La1 Sm1 Y4 Rh18'
_cell_volume   427.17561061
_cell_formula_units_Z   1
loop_
 _symmetry_equiv_pos_site_id
 _symmetry_equiv_pos_as_xyz
  1  'x, y, z'
loop_
 _atom_site_type_symbol
 _atom_site_label
 _atom_site_symmetry_multiplicity
 _atom_site_fract_x
 _atom_site_fract_y
 _atom_site_fract_z
 _atom_site_occupancy
  La  La0  1  0.333366  0.666638  0.750000  1
  Sm  Sm1  1  0.666639  0.333371  0.250000  1
  Y  Y2  1  0.333352  0.666649  0.958668  1
  Y  Y3  1  0.666648  0.333351  0.041981  1
  Y  Y4  1  0.666648  0.333351  0.458019  1
  Y  Y5  1  0.333352  0.666649  0.541332  1
  Rh  Rh6  1  0.167339  0.832658  0.374469  1
  Rh  Rh7  1  0.167358  0.334835  0.374481  1
  Rh  Rh8  1  0.665146  0.832631  0.374488  1
  Rh  Rh9  1  0.832733  0.167269  0.624672  1
  Rh  Rh10  1  0.832709  0.665313  0.624644  1
  Rh  Rh11  1  0.334695  0.167294  0.624643  1
  Rh  Rh12  1  0.832733  0.167269  0.875328  1
  Rh  Rh13  1  0.832709  0.665313  0.875356  1
  Rh  Rh14  1  0.334695  0.167294  0.875357  1
  Rh  Rh15  1  0.167339  0.832658  0.125531  1
  Rh  Rh16  1  0.167358  0.334835  0.125519  1
  Rh  Rh17  1  0.665146  0.832631  0.125512  1
  Rh  Rh18  1  0.333210  0.666772  0.250000  1
  Rh  Rh19  1  0.666769  0.333247  0.750000  1
  Rh  Rh20  1  0.000199  0.999853  0.250000  1
  Rh  Rh21  1  0.999845  0.000120  0.750000  1
  Rh  Rh22  1  0.000007  0.000001  0.499796  1
  Rh  Rh23  1  0.000007  0.000001  0.000204  1
