# generated using pymatgen
data_Ce2Zn3InRu2
_symmetry_space_group_name_H-M   'P 1'
_cell_length_a   4.07451300
_cell_length_b   5.06367103
_cell_length_c   8.43001480
_cell_angle_alpha   90.48334297
_cell_angle_beta   90.00000000
_cell_angle_gamma   113.72381071
_symmetry_Int_Tables_number   1
_chemical_formula_structural   Ce2Zn3InRu2
_chemical_formula_sum   'Ce2 Zn3 In1 Ru2'
_cell_volume   159.22354631
_cell_formula_units_Z   1
loop_
 _symmetry_equiv_pos_site_id
 _symmetry_equiv_pos_as_xyz
  1  'x, y, z'
loop_
 _atom_site_type_symbol
 _atom_site_label
 _atom_site_symmetry_multiplicity
 _atom_site_fract_x
 _atom_site_fract_y
 _atom_site_fract_z
 _atom_site_occupancy
  Ce  Ce0  1  0.442693  0.885387  0.233995  1
  Ce  Ce1  1  0.555302  0.110603  0.763562  1
  Zn  Zn2  1  0.151794  0.303588  0.033544  1
  Zn  Zn3  1  0.848034  0.696069  0.963229  1
  Zn  Zn4  1  0.851102  0.702205  0.543377  1
  In  In5  1  0.149158  0.298316  0.464511  1
  Ru  Ru6  1  0.695739  0.391478  0.240521  1
  Ru  Ru7  1  0.306178  0.612354  0.757262  1
