# generated using pymatgen
data_Tb5YAl14(Si5Os4)2
_symmetry_space_group_name_H-M   'P 1'
_cell_length_a   8.71277108
_cell_length_b   8.71277057
_cell_length_c   9.31537800
_cell_angle_alpha   90.00002766
_cell_angle_beta   89.99996372
_cell_angle_gamma   120.04358199
_symmetry_Int_Tables_number   1
_chemical_formula_structural   Tb5YAl14(Si5Os4)2
_chemical_formula_sum   'Tb5 Y1 Al14 Si10 Os8'
_cell_volume   612.14288049
_cell_formula_units_Z   1
loop_
 _symmetry_equiv_pos_site_id
 _symmetry_equiv_pos_as_xyz
  1  'x, y, z'
loop_
 _atom_site_type_symbol
 _atom_site_label
 _atom_site_symmetry_multiplicity
 _atom_site_fract_x
 _atom_site_fract_y
 _atom_site_fract_z
 _atom_site_occupancy
  Tb  Tb0  1  0.190681  0.383948  0.250000  1
  Tb  Tb1  1  0.808760  0.614823  0.749997  1
  Tb  Tb2  1  0.616052  0.809319  0.250000  1
  Tb  Tb3  1  0.385177  0.191240  0.749997  1
  Tb  Tb4  1  0.192741  0.807259  0.250001  1
  Y  Y5  1  0.806393  0.193607  0.749998  1
  Al  Al6  1  0.165154  0.328168  0.578827  1
  Al  Al7  1  0.834660  0.668474  0.420702  1
  Al  Al8  1  0.671832  0.834846  0.578827  1
  Al  Al9  1  0.834660  0.668471  0.079294  1
  Al  Al10  1  0.331526  0.165340  0.420702  1
  Al  Al11  1  0.165155  0.328170  0.921173  1
  Al  Al12  1  0.164153  0.835847  0.578838  1
  Al  Al13  1  0.331529  0.165340  0.079294  1
  Al  Al14  1  0.833770  0.166230  0.421921  1
  Al  Al15  1  0.671830  0.834845  0.921173  1
  Al  Al16  1  0.833770  0.166230  0.078077  1
  Al  Al17  1  0.164156  0.835844  0.921162  1
  Al  Al18  1  0.434772  0.565228  0.750001  1
  Al  Al19  1  0.999609  0.000391  0.750001  1
  Si  Si20  1  0.334540  0.665460  0.039905  1
  Si  Si21  1  0.665948  0.334052  0.959031  1
  Si  Si22  1  0.665946  0.334054  0.540956  1
  Si  Si23  1  0.334538  0.665462  0.460098  1
  Si  Si24  1  0.561423  0.124535  0.250000  1
  Si  Si25  1  0.436101  0.875078  0.750004  1
  Si  Si26  1  0.875465  0.438577  0.250000  1
  Si  Si27  1  0.124922  0.563899  0.750004  1
  Si  Si28  1  0.563016  0.436984  0.249996  1
  Si  Si29  1  0.000985  0.999015  0.249997  1
  Os  Os30  1  0.500134  0.000662  0.000452  1
  Os  Os31  1  0.999338  0.499866  0.000452  1
  Os  Os32  1  0.500135  0.000670  0.499556  1
  Os  Os33  1  0.500908  0.499092  0.006415  1
  Os  Os34  1  0.999330  0.499865  0.499556  1
  Os  Os35  1  0.500908  0.499092  0.493584  1
  Os  Os36  1  0.999993  0.000007  0.007567  1
  Os  Os37  1  0.999991  0.000009  0.492447  1
