# generated using pymatgen
data_PrEr15(ScBi3)4
_symmetry_space_group_name_H-M   'P 1'
_cell_length_a   8.17122104
_cell_length_b   9.45481400
_cell_length_c   12.03669200
_cell_angle_alpha   90.00000000
_cell_angle_beta   89.99411000
_cell_angle_gamma   90.00000000
_symmetry_Int_Tables_number   1
_chemical_formula_structural   PrEr15(ScBi3)4
_chemical_formula_sum   'Pr1 Er15 Sc4 Bi12'
_cell_volume   929.92322409
_cell_formula_units_Z   1
loop_
 _symmetry_equiv_pos_site_id
 _symmetry_equiv_pos_as_xyz
  1  'x, y, z'
loop_
 _atom_site_type_symbol
 _atom_site_label
 _atom_site_symmetry_multiplicity
 _atom_site_fract_x
 _atom_site_fract_y
 _atom_site_fract_z
 _atom_site_occupancy
  Pr  Pr0  1  0.182126  0.750000  0.720130  1
  Er  Er1  1  0.684188  0.750000  0.780456  1
  Er  Er2  1  0.815658  0.250000  0.282074  1
  Er  Er3  1  0.314314  0.250000  0.218942  1
  Er  Er4  1  0.303251  0.434225  0.940694  1
  Er  Er5  1  0.806380  0.066563  0.559883  1
  Er  Er6  1  0.697045  0.934876  0.060836  1
  Er  Er7  1  0.194702  0.566158  0.439147  1
  Er  Er8  1  0.697045  0.565124  0.060836  1
  Er  Er9  1  0.194702  0.933842  0.439147  1
  Er  Er10  1  0.303251  0.065775  0.940694  1
  Er  Er11  1  0.806380  0.433437  0.559883  1
  Er  Er12  1  0.358204  0.750000  0.217496  1
  Er  Er13  1  0.856670  0.750000  0.281859  1
  Er  Er14  1  0.642700  0.250000  0.784137  1
  Er  Er15  1  0.143166  0.250000  0.716696  1
  Sc  Sc16  1  0.024464  0.750000  0.987835  1
  Sc  Sc17  1  0.523360  0.750000  0.510940  1
  Sc  Sc18  1  0.974503  0.250000  0.014360  1
  Sc  Sc19  1  0.477826  0.250000  0.485896  1
  Bi  Bi20  1  0.437430  0.007397  0.666842  1
  Bi  Bi21  1  0.928798  0.493087  0.833682  1
  Bi  Bi22  1  0.566919  0.503490  0.330388  1
  Bi  Bi23  1  0.067692  0.995928  0.168612  1
  Bi  Bi24  1  0.566919  0.996510  0.330388  1
  Bi  Bi25  1  0.067692  0.504072  0.168612  1
  Bi  Bi26  1  0.437430  0.492603  0.666842  1
  Bi  Bi27  1  0.928798  0.006913  0.833682  1
  Bi  Bi28  1  0.406083  0.750000  0.960237  1
  Bi  Bi29  1  0.895861  0.750000  0.538042  1
  Bi  Bi30  1  0.596546  0.250000  0.042945  1
  Bi  Bi31  1  0.099898  0.250000  0.457788  1
