# generated using pymatgen
data_Y6Er4(SnSb)3
_symmetry_space_group_name_H-M   'P 1'
_cell_length_a   6.39129300
_cell_length_b   8.96579485
_cell_length_c   8.96574100
_cell_angle_alpha   120.00019943
_cell_angle_beta   90.00009346
_cell_angle_gamma   89.99981495
_symmetry_Int_Tables_number   1
_chemical_formula_structural   Y6Er4(SnSb)3
_chemical_formula_sum   'Y6 Er4 Sn3 Sb3'
_cell_volume   444.93182689
_cell_formula_units_Z   1
loop_
 _symmetry_equiv_pos_site_id
 _symmetry_equiv_pos_as_xyz
  1  'x, y, z'
loop_
 _atom_site_type_symbol
 _atom_site_label
 _atom_site_symmetry_multiplicity
 _atom_site_fract_x
 _atom_site_fract_y
 _atom_site_fract_z
 _atom_site_occupancy
  Y  Y0  1  0.750007  0.241867  0.000000  1
  Y  Y1  1  0.750004  0.758156  0.758155  1
  Y  Y2  1  0.750004  0.000001  0.241845  1
  Y  Y3  1  0.249989  0.757293  0.000000  1
  Y  Y4  1  0.249997  0.242688  0.242693  1
  Y  Y5  1  0.249997  0.999995  0.757307  1
  Er  Er6  1  0.501055  0.333330  0.666665  1
  Er  Er7  1  0.501055  0.666665  0.333335  1
  Er  Er8  1  0.998948  0.666666  0.333336  1
  Er  Er9  1  0.998948  0.333330  0.666664  1
  Sn  Sn10  1  0.750000  0.606933  0.000000  1
  Sn  Sn11  1  0.750001  0.393091  0.393084  1
  Sn  Sn12  1  0.750001  0.000006  0.606916  1
  Sb  Sb13  1  0.249994  0.391543  0.000000  1
  Sb  Sb14  1  0.250001  0.608443  0.608450  1
  Sb  Sb15  1  0.250001  0.999993  0.391550  1
