# generated using pymatgen
data_YbCe(PrB12)2
_symmetry_space_group_name_H-M   'P 1'
_cell_length_a   4.13874000
_cell_length_b   5.85970400
_cell_length_c   11.68938100
_cell_angle_alpha   90.00000000
_cell_angle_beta   90.00000000
_cell_angle_gamma   90.00000000
_symmetry_Int_Tables_number   1
_chemical_formula_structural   YbCe(PrB12)2
_chemical_formula_sum   'Yb1 Ce1 Pr2 B24'
_cell_volume   283.48842882
_cell_formula_units_Z   1
loop_
 _symmetry_equiv_pos_site_id
 _symmetry_equiv_pos_as_xyz
  1  'x, y, z'
loop_
 _atom_site_type_symbol
 _atom_site_label
 _atom_site_symmetry_multiplicity
 _atom_site_fract_x
 _atom_site_fract_y
 _atom_site_fract_z
 _atom_site_occupancy
  Yb  Yb0  1  0.000000  0.000000  0.000000  1
  Ce  Ce1  1  0.000000  0.000000  0.500000  1
  Pr  Pr2  1  0.000000  0.500000  0.253218  1
  Pr  Pr3  1  0.000000  0.500000  0.746782  1
  B  B4  1  0.199086  0.500000  0.500000  1
  B  B5  1  0.199781  0.000000  0.750584  1
  B  B6  1  0.200392  0.500000  0.000000  1
  B  B7  1  0.199781  0.000000  0.249416  1
  B  B8  1  0.500000  0.651205  0.575103  1
  B  B9  1  0.500000  0.149048  0.825884  1
  B  B10  1  0.500000  0.650311  0.074447  1
  B  B11  1  0.500000  0.149915  0.324824  1
  B  B12  1  0.500000  0.348795  0.575103  1
  B  B13  1  0.500000  0.850952  0.825884  1
  B  B14  1  0.500000  0.349689  0.074447  1
  B  B15  1  0.500000  0.850085  0.324824  1
  B  B16  1  0.500000  0.348795  0.424897  1
  B  B17  1  0.500000  0.850085  0.675176  1
  B  B18  1  0.500000  0.349689  0.925553  1
  B  B19  1  0.500000  0.850952  0.174116  1
  B  B20  1  0.500000  0.651205  0.424897  1
  B  B21  1  0.500000  0.149915  0.675176  1
  B  B22  1  0.500000  0.650311  0.925553  1
  B  B23  1  0.500000  0.149048  0.174116  1
  B  B24  1  0.800914  0.500000  0.500000  1
  B  B25  1  0.800219  0.000000  0.750584  1
  B  B26  1  0.799608  0.500000  0.000000  1
  B  B27  1  0.800219  0.000000  0.249416  1
