# generated using pymatgen
data_Dy4Si3Rh4
_symmetry_space_group_name_H-M   'P 1'
_cell_length_a   10.69263558
_cell_length_b   10.69263541
_cell_length_c   7.72427112
_cell_angle_alpha   71.24007778
_cell_angle_beta   71.24007824
_cell_angle_gamma   29.95969277
_symmetry_Int_Tables_number   1
_chemical_formula_structural   Dy4Si3Rh4
_chemical_formula_sum   'Dy8 Si6 Rh8'
_cell_volume   415.87126248
_cell_formula_units_Z   2
loop_
 _symmetry_equiv_pos_site_id
 _symmetry_equiv_pos_as_xyz
  1  'x, y, z'
loop_
 _atom_site_type_symbol
 _atom_site_label
 _atom_site_symmetry_multiplicity
 _atom_site_fract_x
 _atom_site_fract_y
 _atom_site_fract_z
 _atom_site_occupancy
  Dy  Dy0  1  0.790051  0.549912  0.599524  1
  Dy  Dy1  1  0.450088  0.209949  0.900476  1
  Dy  Dy2  1  0.209949  0.450088  0.400476  1
  Dy  Dy3  1  0.549912  0.790051  0.099524  1
  Dy  Dy4  1  0.791449  0.073427  0.168604  1
  Dy  Dy5  1  0.926573  0.208551  0.331396  1
  Dy  Dy6  1  0.208551  0.926573  0.831396  1
  Dy  Dy7  1  0.073427  0.791449  0.668604  1
  Si  Si8  1  0.952416  0.703014  0.056417  1
  Si  Si9  1  0.296986  0.047584  0.443583  1
  Si  Si10  1  0.047584  0.296986  0.943583  1
  Si  Si11  1  0.703014  0.952416  0.556417  1
  Si  Si12  1  0.633385  0.366615  0.750000  1
  Si  Si13  1  0.366615  0.633385  0.250000  1
  Rh  Rh14  1  0.576965  0.297825  0.520506  1
  Rh  Rh15  1  0.702175  0.423035  0.979494  1
  Rh  Rh16  1  0.423035  0.702175  0.479494  1
  Rh  Rh17  1  0.297825  0.576965  0.020506  1
  Rh  Rh18  1  0.629758  0.928656  0.309274  1
  Rh  Rh19  1  0.071344  0.370242  0.190726  1
  Rh  Rh20  1  0.370242  0.071344  0.690726  1
  Rh  Rh21  1  0.928656  0.629758  0.809274  1
