# generated using pymatgen
data_HoEr3Si4(RuRh)2
_symmetry_space_group_name_H-M   'P 1'
_cell_length_a   4.30644300
_cell_length_b   6.90872939
_cell_length_c   7.18067401
_cell_angle_alpha   89.96731987
_cell_angle_beta   90.00000000
_cell_angle_gamma   90.00000000
_symmetry_Int_Tables_number   1
_chemical_formula_structural   HoEr3Si4(RuRh)2
_chemical_formula_sum   'Ho1 Er3 Si4 Ru2 Rh2'
_cell_volume   213.63973279
_cell_formula_units_Z   1
loop_
 _symmetry_equiv_pos_site_id
 _symmetry_equiv_pos_as_xyz
  1  'x, y, z'
loop_
 _atom_site_type_symbol
 _atom_site_label
 _atom_site_symmetry_multiplicity
 _atom_site_fract_x
 _atom_site_fract_y
 _atom_site_fract_z
 _atom_site_occupancy
  Ho  Ho0  1  0.250000  0.987259  0.811972  1
  Er  Er1  1  0.750000  0.012794  0.188217  1
  Er  Er2  1  0.250000  0.492839  0.686522  1
  Er  Er3  1  0.750000  0.507158  0.313449  1
  Si  Si4  1  0.250000  0.301561  0.101001  1
  Si  Si5  1  0.750000  0.698397  0.899083  1
  Si  Si6  1  0.250000  0.798907  0.385703  1
  Si  Si7  1  0.750000  0.201194  0.614194  1
  Ru  Ru8  1  0.750000  0.345189  0.932964  1
  Ru  Ru9  1  0.250000  0.654717  0.067167  1
  Rh  Rh10  1  0.750000  0.845515  0.565561  1
  Rh  Rh11  1  0.250000  0.154470  0.434167  1
