# generated using pymatgen
data_Ca4La3Co4Sn13
_symmetry_space_group_name_H-M   'P 1'
_cell_length_a   11.27025300
_cell_length_b   11.27025300
_cell_length_c   4.65688100
_cell_angle_alpha   90.00000000
_cell_angle_beta   90.00000000
_cell_angle_gamma   90.00000000
_symmetry_Int_Tables_number   1
_chemical_formula_structural   Ca4La3Co4Sn13
_chemical_formula_sum   'Ca4 La3 Co4 Sn13'
_cell_volume   591.51051749
_cell_formula_units_Z   1
loop_
 _symmetry_equiv_pos_site_id
 _symmetry_equiv_pos_as_xyz
  1  'x, y, z'
loop_
 _atom_site_type_symbol
 _atom_site_label
 _atom_site_symmetry_multiplicity
 _atom_site_fract_x
 _atom_site_fract_y
 _atom_site_fract_z
 _atom_site_occupancy
  Ca  Ca0  1  0.838565  0.170776  0.000000  1
  Ca  Ca1  1  0.829224  0.838565  0.000000  1
  Ca  Ca2  1  0.161435  0.829224  0.000000  1
  Ca  Ca3  1  0.170776  0.161435  0.000000  1
  La  La4  1  0.500000  0.500000  0.500000  1
  La  La5  1  0.000000  0.500000  0.000000  1
  La  La6  1  0.500000  0.000000  0.000000  1
  Co  Co7  1  0.775184  0.617529  0.500000  1
  Co  Co8  1  0.382471  0.775184  0.500000  1
  Co  Co9  1  0.617529  0.224816  0.500000  1
  Co  Co10  1  0.224816  0.382471  0.500000  1
  Sn  Sn11  1  0.022044  0.284646  0.500000  1
  Sn  Sn12  1  0.977956  0.715354  0.500000  1
  Sn  Sn13  1  0.216374  0.613239  0.500000  1
  Sn  Sn14  1  0.576447  0.301329  0.000000  1
  Sn  Sn15  1  0.698671  0.576447  0.000000  1
  Sn  Sn16  1  0.783626  0.386761  0.500000  1
  Sn  Sn17  1  0.715354  0.022044  0.500000  1
  Sn  Sn18  1  0.000000  0.000000  0.500000  1
  Sn  Sn19  1  0.284646  0.977956  0.500000  1
  Sn  Sn20  1  0.423553  0.698671  0.000000  1
  Sn  Sn21  1  0.613239  0.783626  0.500000  1
  Sn  Sn22  1  0.301329  0.423553  0.000000  1
  Sn  Sn23  1  0.386761  0.216374  0.500000  1
