# generated using pymatgen
data_Tb3Yb5(Si4W3)4
_symmetry_space_group_name_H-M   'P 1'
_cell_length_a   6.73427986
_cell_length_b   6.93727997
_cell_length_c   13.01529005
_cell_angle_alpha   90.05092110
_cell_angle_beta   89.96367855
_cell_angle_gamma   90.05122297
_symmetry_Int_Tables_number   1
_chemical_formula_structural   Tb3Yb5(Si4W3)4
_chemical_formula_sum   'Tb3 Yb5 Si16 W12'
_cell_volume   608.04231165
_cell_formula_units_Z   1
loop_
 _symmetry_equiv_pos_site_id
 _symmetry_equiv_pos_as_xyz
  1  'x, y, z'
loop_
 _atom_site_type_symbol
 _atom_site_label
 _atom_site_symmetry_multiplicity
 _atom_site_fract_x
 _atom_site_fract_y
 _atom_site_fract_z
 _atom_site_occupancy
  Tb  Tb0  1  0.000412  0.169927  0.093184  1
  Tb  Tb1  1  0.499050  0.667861  0.907713  1
  Tb  Tb2  1  0.998777  0.831082  0.592073  1
  Yb  Yb3  1  0.498061  0.665470  0.590129  1
  Yb  Yb4  1  0.997981  0.832586  0.908458  1
  Yb  Yb5  1  0.501464  0.331997  0.091411  1
  Yb  Yb6  1  0.001744  0.168672  0.408222  1
  Yb  Yb7  1  0.501370  0.333134  0.410256  1
  Si  Si8  1  0.661292  0.958067  0.454710  1
  Si  Si9  1  0.162171  0.544282  0.044702  1
  Si  Si10  1  0.337771  0.043663  0.954895  1
  Si  Si11  1  0.838349  0.455155  0.544887  1
  Si  Si12  1  0.339345  0.042599  0.545119  1
  Si  Si13  1  0.839105  0.457896  0.954796  1
  Si  Si14  1  0.661375  0.957858  0.044624  1
  Si  Si15  1  0.161588  0.542095  0.454670  1
  Si  Si16  1  0.465277  0.373268  0.748894  1
  Si  Si17  1  0.965552  0.124800  0.750604  1
  Si  Si18  1  0.534083  0.622701  0.249838  1
  Si  Si19  1  0.035333  0.876936  0.249931  1
  Si  Si20  1  0.698430  0.865421  0.750068  1
  Si  Si21  1  0.199357  0.633367  0.749796  1
  Si  Si22  1  0.303224  0.135577  0.251578  1
  Si  Si23  1  0.797796  0.367069  0.251372  1
  W  W24  1  0.666921  0.163385  0.627215  1
  W  W25  1  0.166264  0.335212  0.873343  1
  W  W26  1  0.334214  0.834698  0.126371  1
  W  W27  1  0.835553  0.667523  0.372666  1
  W  W28  1  0.334522  0.833511  0.372939  1
  W  W29  1  0.833833  0.665863  0.126026  1
  W  W30  1  0.666619  0.164989  0.874177  1
  W  W31  1  0.165387  0.334832  0.626262  1
  W  W32  1  0.838226  0.492157  0.749604  1
  W  W33  1  0.337674  0.005972  0.750756  1
  W  W34  1  0.160611  0.509405  0.249085  1
  W  W35  1  0.661272  0.990970  0.249626  1
