# generated using pymatgen
data_LaNd3TmIr3
_symmetry_space_group_name_H-M   'P 1'
_cell_length_a   11.21899300
_cell_length_b   11.24055800
_cell_length_c   6.52041200
_cell_angle_alpha   90.00000000
_cell_angle_beta   90.00000000
_cell_angle_gamma   90.00000000
_symmetry_Int_Tables_number   1
_chemical_formula_structural   LaNd3TmIr3
_chemical_formula_sum   'La4 Nd12 Tm4 Ir12'
_cell_volume   822.27443109
_cell_formula_units_Z   4
loop_
 _symmetry_equiv_pos_site_id
 _symmetry_equiv_pos_as_xyz
  1  'x, y, z'
loop_
 _atom_site_type_symbol
 _atom_site_label
 _atom_site_symmetry_multiplicity
 _atom_site_fract_x
 _atom_site_fract_y
 _atom_site_fract_z
 _atom_site_occupancy
  La  La0  1  0.288573  0.089080  0.383022  1
  La  La1  1  0.288573  0.910920  0.883022  1
  La  La2  1  0.711427  0.089080  0.883022  1
  La  La3  1  0.711427  0.910920  0.383022  1
  Nd  Nd4  1  0.587508  0.786363  0.881278  1
  Nd  Nd5  1  0.587508  0.213637  0.381278  1
  Nd  Nd6  1  0.412492  0.786363  0.381278  1
  Nd  Nd7  1  0.412492  0.213637  0.881278  1
  Nd  Nd8  1  0.211474  0.413985  0.618298  1
  Nd  Nd9  1  0.211474  0.586015  0.118298  1
  Nd  Nd10  1  0.788526  0.413985  0.118298  1
  Nd  Nd11  1  0.788526  0.586015  0.618298  1
  Nd  Nd12  1  0.913388  0.710859  0.116560  1
  Nd  Nd13  1  0.913388  0.289141  0.616560  1
  Nd  Nd14  1  0.086612  0.710859  0.616560  1
  Nd  Nd15  1  0.086612  0.289141  0.116560  1
  Tm  Tm16  1  0.000000  0.000000  0.500140  1
  Tm  Tm17  1  0.000000  0.000000  0.000140  1
  Tm  Tm18  1  0.500000  0.500000  0.001498  1
  Tm  Tm19  1  0.500000  0.500000  0.501498  1
  Ir  Ir20  1  0.852273  0.147681  0.248826  1
  Ir  Ir21  1  0.852273  0.852319  0.748826  1
  Ir  Ir22  1  0.147727  0.147681  0.748826  1
  Ir  Ir23  1  0.147727  0.852319  0.248826  1
  Ir  Ir24  1  0.647107  0.353049  0.750433  1
  Ir  Ir25  1  0.647107  0.646951  0.250433  1
  Ir  Ir26  1  0.352893  0.353049  0.250433  1
  Ir  Ir27  1  0.352893  0.646951  0.750433  1
  Ir  Ir28  1  0.500000  0.000000  0.119374  1
  Ir  Ir29  1  0.500000  0.000000  0.619374  1
  Ir  Ir30  1  0.000000  0.500000  0.882152  1
  Ir  Ir31  1  0.000000  0.500000  0.382152  1
