# generated using pymatgen
data_Sm6Sc8Al8Ir7
_symmetry_space_group_name_H-M   'P 1'
_cell_length_a   9.26192136
_cell_length_b   9.26192131
_cell_length_c   9.26192100
_cell_angle_alpha   59.99999752
_cell_angle_beta   59.99999771
_cell_angle_gamma   60.00000034
_symmetry_Int_Tables_number   1
_chemical_formula_structural   Sm6Sc8Al8Ir7
_chemical_formula_sum   'Sm6 Sc8 Al8 Ir7'
_cell_volume   561.80840964
_cell_formula_units_Z   1
loop_
 _symmetry_equiv_pos_site_id
 _symmetry_equiv_pos_as_xyz
  1  'x, y, z'
loop_
 _atom_site_type_symbol
 _atom_site_label
 _atom_site_symmetry_multiplicity
 _atom_site_fract_x
 _atom_site_fract_y
 _atom_site_fract_z
 _atom_site_occupancy
  Sm  Sm0  1  0.690475  0.690475  0.309525  1
  Sm  Sm1  1  0.309525  0.690475  0.309525  1
  Sm  Sm2  1  0.690475  0.309525  0.309525  1
  Sm  Sm3  1  0.309525  0.309525  0.690475  1
  Sm  Sm4  1  0.690475  0.309525  0.690475  1
  Sm  Sm5  1  0.309525  0.690475  0.690475  1
  Sc  Sc6  1  0.877998  0.877998  0.366007  1
  Sc  Sc7  1  0.877998  0.366007  0.877998  1
  Sc  Sc8  1  0.366007  0.877998  0.877998  1
  Sc  Sc9  1  0.877998  0.877998  0.877998  1
  Sc  Sc10  1  0.122002  0.122002  0.633993  1
  Sc  Sc11  1  0.122002  0.633993  0.122002  1
  Sc  Sc12  1  0.633993  0.122002  0.122002  1
  Sc  Sc13  1  0.122002  0.122002  0.122002  1
  Al  Al14  1  0.668663  0.668663  0.994010  1
  Al  Al15  1  0.668663  0.994010  0.668663  1
  Al  Al16  1  0.994010  0.668663  0.668663  1
  Al  Al17  1  0.668663  0.668663  0.668663  1
  Al  Al18  1  0.331337  0.331337  0.005990  1
  Al  Al19  1  0.331337  0.005990  0.331337  1
  Al  Al20  1  0.005990  0.331337  0.331337  1
  Al  Al21  1  0.331337  0.331337  0.331337  1
  Ir  Ir22  1  0.000000  0.000000  0.000000  1
  Ir  Ir23  1  0.000000  0.000000  0.500000  1
  Ir  Ir24  1  0.500000  0.000000  0.500000  1
  Ir  Ir25  1  0.000000  0.500000  0.500000  1
  Ir  Ir26  1  0.500000  0.500000  0.000000  1
  Ir  Ir27  1  0.000000  0.500000  0.000000  1
  Ir  Ir28  1  0.500000  0.000000  0.000000  1
