# generated using pymatgen
data_NaV(TcO4)4
_symmetry_space_group_name_H-M   'P 1'
_cell_length_a   5.63756738
_cell_length_b   9.77182083
_cell_length_c   6.49087520
_cell_angle_alpha   90.01694929
_cell_angle_beta   89.96084668
_cell_angle_gamma   89.98363049
_symmetry_Int_Tables_number   1
_chemical_formula_structural   NaV(TcO4)4
_chemical_formula_sum   'Na1 V1 Tc4 O16'
_cell_volume   357.57764681
_cell_formula_units_Z   1
loop_
 _symmetry_equiv_pos_site_id
 _symmetry_equiv_pos_as_xyz
  1  'x, y, z'
loop_
 _atom_site_type_symbol
 _atom_site_label
 _atom_site_symmetry_multiplicity
 _atom_site_fract_x
 _atom_site_fract_y
 _atom_site_fract_z
 _atom_site_occupancy
  Na  Na0  1  0.999949  0.000034  0.000005  1
  V  V1  1  0.500009  0.500009  0.999929  1
  Tc  Tc2  1  0.994647  0.349960  0.293313  1
  Tc  Tc3  1  0.501291  0.823008  0.304289  1
  Tc  Tc4  1  0.498687  0.176970  0.695765  1
  Tc  Tc5  1  0.005383  0.650038  0.706623  1
  O  O6  1  0.503990  0.218838  0.438164  1
  O  O7  1  0.997513  0.646186  0.441692  1
  O  O8  1  0.002492  0.354024  0.558223  1
  O  O9  1  0.495935  0.781243  0.561981  1
  O  O10  1  0.726694  0.065230  0.749374  1
  O  O11  1  0.253639  0.560032  0.798911  1
  O  O12  1  0.978547  0.183809  0.212397  1
  O  O13  1  0.472365  0.674582  0.145852  1
  O  O14  1  0.251154  0.423923  0.187394  1
  O  O15  1  0.764247  0.904454  0.248978  1
  O  O16  1  0.746389  0.439898  0.200890  1
  O  O17  1  0.273281  0.934733  0.250564  1
  O  O18  1  0.527705  0.325337  0.854306  1
  O  O19  1  0.021522  0.816106  0.787851  1
  O  O20  1  0.235749  0.095544  0.751095  1
  O  O21  1  0.748810  0.576044  0.812400  1
