# generated using pymatgen
data_Ta12Al8CrCo3C4
_symmetry_space_group_name_H-M   'P 1'
_cell_length_a   8.23441831
_cell_length_b   8.23495256
_cell_length_c   8.23492021
_cell_angle_alpha   59.80496478
_cell_angle_beta   59.80339318
_cell_angle_gamma   59.80307576
_symmetry_Int_Tables_number   1
_chemical_formula_structural   Ta12Al8CrCo3C4
_chemical_formula_sum   'Ta12 Al8 Cr1 Co3 C4'
_cell_volume   393.09720267
_cell_formula_units_Z   1
loop_
 _symmetry_equiv_pos_site_id
 _symmetry_equiv_pos_as_xyz
  1  'x, y, z'
loop_
 _atom_site_type_symbol
 _atom_site_label
 _atom_site_symmetry_multiplicity
 _atom_site_fract_x
 _atom_site_fract_y
 _atom_site_fract_z
 _atom_site_occupancy
  Ta  Ta0  1  0.560262  0.940131  0.560306  1
  Ta  Ta1  1  0.309891  0.689741  0.689681  1
  Ta  Ta2  1  0.702152  0.305064  0.305086  1
  Ta  Ta3  1  0.305088  0.702159  0.305066  1
  Ta  Ta4  1  0.689680  0.689700  0.309904  1
  Ta  Ta5  1  0.305078  0.305034  0.702146  1
  Ta  Ta6  1  0.560320  0.560300  0.940096  1
  Ta  Ta7  1  0.940109  0.560259  0.560319  1
  Ta  Ta8  1  0.547848  0.944936  0.944914  1
  Ta  Ta9  1  0.944922  0.944966  0.547854  1
  Ta  Ta10  1  0.689738  0.309869  0.689694  1
  Ta  Ta11  1  0.944912  0.547841  0.944934  1
  Al  Al12  1  0.916115  0.916029  0.916097  1
  Al  Al13  1  0.005222  0.334802  0.334748  1
  Al  Al14  1  0.334751  0.005215  0.334776  1
  Al  Al15  1  0.334731  0.334810  0.005223  1
  Al  Al16  1  0.915249  0.244785  0.915224  1
  Al  Al17  1  0.915269  0.915190  0.244777  1
  Al  Al18  1  0.244778  0.915198  0.915252  1
  Al  Al19  1  0.333885  0.333971  0.333903  1
  Cr  Cr20  1  0.125000  0.125000  0.125000  1
  Co  Co21  1  0.625000  0.125000  0.125000  1
  Co  Co22  1  0.125000  0.625000  0.125000  1
  Co  Co23  1  0.125000  0.125000  0.625000  1
  C  C24  1  0.625000  0.625000  0.625000  1
  C  C25  1  0.125000  0.625000  0.625000  1
  C  C26  1  0.625000  0.125000  0.625000  1
  C  C27  1  0.625000  0.625000  0.125000  1
