# generated using pymatgen
data_Ce4Pr4Si12RuRh3
_symmetry_space_group_name_H-M   'P 1'
_cell_length_a   8.26015656
_cell_length_b   8.28386739
_cell_length_c   8.30022619
_cell_angle_alpha   90.00000071
_cell_angle_beta   89.97675544
_cell_angle_gamma   120.09499468
_symmetry_Int_Tables_number   1
_chemical_formula_structural   Ce4Pr4Si12RuRh3
_chemical_formula_sum   'Ce4 Pr4 Si12 Ru1 Rh3'
_cell_volume   491.38897940
_cell_formula_units_Z   1
loop_
 _symmetry_equiv_pos_site_id
 _symmetry_equiv_pos_as_xyz
  1  'x, y, z'
loop_
 _atom_site_type_symbol
 _atom_site_label
 _atom_site_symmetry_multiplicity
 _atom_site_fract_x
 _atom_site_fract_y
 _atom_site_fract_z
 _atom_site_occupancy
  Ce  Ce0  1  0.003074  0.501537  0.252436  1
  Ce  Ce1  1  0.498151  0.501626  0.747451  1
  Ce  Ce2  1  0.498151  0.996523  0.747451  1
  Ce  Ce3  1  0.003034  0.501517  0.747270  1
  Pr  Pr4  1  0.999973  0.999987  0.249686  1
  Pr  Pr5  1  0.999591  0.999796  0.750298  1
  Pr  Pr6  1  0.499336  0.500724  0.251150  1
  Pr  Pr7  1  0.499336  0.998612  0.251150  1
  Si  Si8  1  0.166286  0.833409  0.499258  1
  Si  Si9  1  0.166286  0.332879  0.499258  1
  Si  Si10  1  0.664843  0.832422  0.500849  1
  Si  Si11  1  0.834013  0.166040  0.502648  1
  Si  Si12  1  0.834013  0.667974  0.502648  1
  Si  Si13  1  0.333842  0.166921  0.505079  1
  Si  Si14  1  0.833720  0.167154  0.999232  1
  Si  Si15  1  0.833720  0.666565  0.999232  1
  Si  Si16  1  0.334664  0.167332  0.995732  1
  Si  Si17  1  0.165841  0.833764  0.999252  1
  Si  Si18  1  0.165841  0.332079  0.999252  1
  Si  Si19  1  0.666620  0.833311  0.996644  1
  Ru  Ru20  1  0.330029  0.665015  0.524599  1
  Rh  Rh21  1  0.669725  0.334862  0.507682  1
  Rh  Rh22  1  0.669148  0.334574  0.983211  1
  Rh  Rh23  1  0.330761  0.665381  0.988531  1
