# generated using pymatgen
data_La5Lu2ThBi10
_symmetry_space_group_name_H-M   'P 1'
_cell_length_a   9.86419957
_cell_length_b   9.87759318
_cell_length_c   6.70414500
_cell_angle_alpha   90.00000000
_cell_angle_beta   90.00000000
_cell_angle_gamma   120.04492054
_symmetry_Int_Tables_number   1
_chemical_formula_structural   La5Lu2ThBi10
_chemical_formula_sum   'La5 Lu2 Th1 Bi10'
_cell_volume   565.44485303
_cell_formula_units_Z   1
loop_
 _symmetry_equiv_pos_site_id
 _symmetry_equiv_pos_as_xyz
  1  'x, y, z'
loop_
 _atom_site_type_symbol
 _atom_site_label
 _atom_site_symmetry_multiplicity
 _atom_site_fract_x
 _atom_site_fract_y
 _atom_site_fract_z
 _atom_site_occupancy
  La  La0  1  0.379844  0.380286  0.250000  1
  La  La1  1  0.383377  0.001294  0.750000  1
  La  La2  1  0.616623  0.617916  0.750000  1
  La  La3  1  0.620156  0.000442  0.250000  1
  La  La4  1  0.000000  0.379933  0.750000  1
  Lu  Lu5  1  0.000000  0.000438  0.999244  1
  Lu  Lu6  1  0.000000  0.000438  0.500756  1
  Th  Th7  1  0.000000  0.618021  0.250000  1
  Bi  Bi8  1  0.000000  0.268182  0.250000  1
  Bi  Bi9  1  0.330451  0.666976  0.497650  1
  Bi  Bi10  1  0.669549  0.336524  0.002350  1
  Bi  Bi11  1  0.330451  0.666976  0.002350  1
  Bi  Bi12  1  0.266977  0.266206  0.750000  1
  Bi  Bi13  1  0.733023  0.999230  0.750000  1
  Bi  Bi14  1  0.000000  0.731393  0.750000  1
  Bi  Bi15  1  0.735228  0.732225  0.250000  1
  Bi  Bi16  1  0.264772  0.996996  0.250000  1
  Bi  Bi17  1  0.669549  0.336524  0.497650  1
