# generated using pymatgen
data_Sr5Np4PaO18
_symmetry_space_group_name_H-M   'P 1'
_cell_length_a   7.01239704
_cell_length_b   7.76277614
_cell_length_c   8.73586575
_cell_angle_alpha   100.76335500
_cell_angle_beta   97.64258356
_cell_angle_gamma   107.29769391
_symmetry_Int_Tables_number   1
_chemical_formula_structural   Sr5Np4PaO18
_chemical_formula_sum   'Sr5 Np4 Pa1 O18'
_cell_volume   436.94517339
_cell_formula_units_Z   1
loop_
 _symmetry_equiv_pos_site_id
 _symmetry_equiv_pos_as_xyz
  1  'x, y, z'
loop_
 _atom_site_type_symbol
 _atom_site_label
 _atom_site_symmetry_multiplicity
 _atom_site_fract_x
 _atom_site_fract_y
 _atom_site_fract_z
 _atom_site_occupancy
  Sr  Sr0  1  0.802592  0.103504  0.583636  1
  Sr  Sr1  1  0.598877  0.696669  0.195095  1
  Sr  Sr2  1  0.405804  0.306081  0.805390  1
  Sr  Sr3  1  0.194773  0.896167  0.417327  1
  Sr  Sr4  1  0.997639  0.498114  0.997503  1
  Np  Np5  1  0.000351  0.000188  0.000394  1
  Np  Np6  1  0.617198  0.196213  0.194178  1
  Np  Np7  1  0.380622  0.802786  0.805663  1
  Np  Np8  1  0.209654  0.422605  0.414606  1
  Pa  Pa9  1  0.787839  0.575170  0.582101  1
  O  O10  1  0.827364  0.789009  0.463724  1
  O  O11  1  0.020628  0.224768  0.177069  1
  O  O12  1  0.665204  0.394085  0.073076  1
  O  O13  1  0.451562  0.995432  0.684156  1
  O  O14  1  0.860923  0.349763  0.411266  1
  O  O15  1  0.499730  0.391315  0.351540  1
  O  O16  1  0.245633  0.606157  0.282186  1
  O  O17  1  0.977948  0.827175  0.145339  1
  O  O18  1  0.669377  0.945941  0.989523  1
  O  O19  1  0.331466  0.053795  0.009790  1
  O  O20  1  0.023979  0.171900  0.854339  1
  O  O21  1  0.751293  0.387768  0.723908  1
  O  O22  1  0.503483  0.610797  0.652323  1
  O  O23  1  0.139565  0.649230  0.586986  1
  O  O24  1  0.544202  0.003015  0.314991  1
  O  O25  1  0.333958  0.606219  0.928203  1
  O  O26  1  0.982115  0.774329  0.823544  1
  O  O27  1  0.176221  0.221807  0.532146  1
