# generated using pymatgen
data_NdHg3(Rh2O7)2
_symmetry_space_group_name_H-M   'P 1'
_cell_length_a   7.37069525
_cell_length_b   7.37069485
_cell_length_c   7.37069549
_cell_angle_alpha   58.93447235
_cell_angle_beta   58.93447806
_cell_angle_gamma   58.93447162
_symmetry_Int_Tables_number   1
_chemical_formula_structural   NdHg3(Rh2O7)2
_chemical_formula_sum   'Nd1 Hg3 Rh4 O14'
_cell_volume   276.26142147
_cell_formula_units_Z   1
loop_
 _symmetry_equiv_pos_site_id
 _symmetry_equiv_pos_as_xyz
  1  'x, y, z'
loop_
 _atom_site_type_symbol
 _atom_site_label
 _atom_site_symmetry_multiplicity
 _atom_site_fract_x
 _atom_site_fract_y
 _atom_site_fract_z
 _atom_site_occupancy
  Nd  Nd0  1  0.125000  0.125000  0.125000  1
  Hg  Hg1  1  0.125000  0.625000  0.125000  1
  Hg  Hg2  1  0.625000  0.125000  0.125000  1
  Hg  Hg3  1  0.125000  0.125000  0.625000  1
  Rh  Rh4  1  0.625000  0.625000  0.625000  1
  Rh  Rh5  1  0.625000  0.625000  0.125000  1
  Rh  Rh6  1  0.125000  0.625000  0.625000  1
  Rh  Rh7  1  0.625000  0.125000  0.625000  1
  O  O8  1  0.256709  0.256709  0.256709  1
  O  O9  1  0.297548  0.708369  0.297548  1
  O  O10  1  0.952452  0.952452  0.541631  1
  O  O11  1  0.553010  0.948980  0.553010  1
  O  O12  1  0.696990  0.696990  0.301020  1
  O  O13  1  0.948980  0.553010  0.553010  1
  O  O14  1  0.696990  0.301020  0.696990  1
  O  O15  1  0.297548  0.297548  0.708369  1
  O  O16  1  0.708369  0.297548  0.297548  1
  O  O17  1  0.301020  0.696990  0.696990  1
  O  O18  1  0.952452  0.541631  0.952452  1
  O  O19  1  0.553010  0.553010  0.948980  1
  O  O20  1  0.993291  0.993291  0.993291  1
  O  O21  1  0.541631  0.952452  0.952452  1
