# generated using pymatgen
data_Nb6Co4Os2CN
_symmetry_space_group_name_H-M   'P 1'
_cell_length_a   8.13469876
_cell_length_b   8.12192843
_cell_length_c   8.12192863
_cell_angle_alpha   59.90456150
_cell_angle_beta   59.94797466
_cell_angle_gamma   59.94797153
_symmetry_Int_Tables_number   1
_chemical_formula_structural   Nb6Co4Os2CN
_chemical_formula_sum   'Nb12 Co8 Os4 C2 N2'
_cell_volume   378.86902519
_cell_formula_units_Z   2
loop_
 _symmetry_equiv_pos_site_id
 _symmetry_equiv_pos_as_xyz
  1  'x, y, z'
loop_
 _atom_site_type_symbol
 _atom_site_label
 _atom_site_symmetry_multiplicity
 _atom_site_fract_x
 _atom_site_fract_y
 _atom_site_fract_z
 _atom_site_occupancy
  Nb  Nb0  1  0.806401  0.805688  0.194649  1
  Nb  Nb1  1  0.193262  0.194649  0.805688  1
  Nb  Nb2  1  0.806401  0.194649  0.805688  1
  Nb  Nb3  1  0.193262  0.805688  0.194649  1
  Nb  Nb4  1  0.193325  0.806675  0.806675  1
  Nb  Nb5  1  0.805291  0.194709  0.194709  1
  Nb  Nb6  1  0.443599  0.444312  0.055351  1
  Nb  Nb7  1  0.056738  0.055351  0.444312  1
  Nb  Nb8  1  0.443599  0.055351  0.444312  1
  Nb  Nb9  1  0.056738  0.444312  0.055351  1
  Nb  Nb10  1  0.056675  0.443325  0.443325  1
  Nb  Nb11  1  0.444709  0.055291  0.055291  1
  Co  Co12  1  0.732159  0.422657  0.422657  1
  Co  Co13  1  0.422481  0.732384  0.422656  1
  Co  Co14  1  0.422481  0.422656  0.732384  1
  Co  Co15  1  0.422530  0.422657  0.422657  1
  Co  Co16  1  0.517841  0.827343  0.827343  1
  Co  Co17  1  0.827519  0.517616  0.827344  1
  Co  Co18  1  0.827519  0.827344  0.517616  1
  Co  Co19  1  0.827470  0.827343  0.827343  1
  Os  Os20  1  0.125000  0.625000  0.625000  1
  Os  Os21  1  0.625000  0.125000  0.625000  1
  Os  Os22  1  0.625000  0.625000  0.125000  1
  Os  Os23  1  0.625000  0.625000  0.625000  1
  C  C24  1  0.625000  0.125000  0.125000  1
  C  C25  1  0.125000  0.125000  0.125000  1
  N  N26  1  0.125000  0.625000  0.125000  1
  N  N27  1  0.125000  0.125000  0.625000  1
