# generated using pymatgen
data_RbRe2Mo4Se7
_symmetry_space_group_name_H-M   'P 1'
_cell_length_a   9.94180606
_cell_length_b   9.93509322
_cell_length_c   9.94375970
_cell_angle_alpha   60.64965878
_cell_angle_beta   60.63034681
_cell_angle_gamma   60.76085983
_symmetry_Int_Tables_number   1
_chemical_formula_structural   RbRe2Mo4Se7
_chemical_formula_sum   'Rb2 Re4 Mo8 Se14'
_cell_volume   705.16379818
_cell_formula_units_Z   2
loop_
 _symmetry_equiv_pos_site_id
 _symmetry_equiv_pos_as_xyz
  1  'x, y, z'
loop_
 _atom_site_type_symbol
 _atom_site_label
 _atom_site_symmetry_multiplicity
 _atom_site_fract_x
 _atom_site_fract_y
 _atom_site_fract_z
 _atom_site_occupancy
  Rb  Rb0  1  0.125604  0.128244  0.129476  1
  Rb  Rb1  1  0.873399  0.875706  0.874065  1
  Re  Re2  1  0.612420  0.306749  0.439969  1
  Re  Re3  1  0.307664  0.439584  0.611628  1
  Re  Re4  1  0.440547  0.611371  0.307647  1
  Re  Re5  1  0.388120  0.693714  0.560059  1
  Mo  Mo6  1  0.696232  0.560477  0.385984  1
  Mo  Mo7  1  0.560183  0.385712  0.695937  1
  Mo  Mo8  1  0.377097  0.202466  0.503589  1
  Mo  Mo9  1  0.203824  0.503866  0.376504  1
  Mo  Mo10  1  0.505000  0.376148  0.202778  1
  Mo  Mo11  1  0.624060  0.796399  0.496080  1
  Mo  Mo12  1  0.797542  0.496006  0.622998  1
  Mo  Mo13  1  0.496760  0.622353  0.796788  1
  Se  Se14  1  0.670538  0.313703  0.917221  1
  Se  Se15  1  0.085892  0.328170  0.687959  1
  Se  Se16  1  0.277065  0.277886  0.276665  1
  Se  Se17  1  0.722978  0.723620  0.723082  1
  Se  Se18  1  0.856745  0.255276  0.518125  1
  Se  Se19  1  0.253663  0.523751  0.853387  1
  Se  Se20  1  0.512282  0.858385  0.260167  1
  Se  Se21  1  0.145373  0.738628  0.482030  1
  Se  Se22  1  0.736997  0.480203  0.143219  1
  Se  Se23  1  0.478610  0.143082  0.736908  1
  Se  Se24  1  0.331585  0.687389  0.084835  1
  Se  Se25  1  0.688620  0.084517  0.329374  1
  Se  Se26  1  0.917979  0.671783  0.313291  1
  Se  Se27  1  0.313221  0.914811  0.670235  1
