# generated using pymatgen
data_LaPr3(NdTe2)4
_symmetry_space_group_name_H-M   'P 1'
_cell_length_a   9.06079674
_cell_length_b   9.02176229
_cell_length_c   9.02176200
_cell_angle_alpha   60.00000105
_cell_angle_beta   60.14240849
_cell_angle_gamma   60.14240995
_symmetry_Int_Tables_number   1
_chemical_formula_structural   LaPr3(NdTe2)4
_chemical_formula_sum   'La1 Pr3 Nd4 Te8'
_cell_volume   522.59544326
_cell_formula_units_Z   1
loop_
 _symmetry_equiv_pos_site_id
 _symmetry_equiv_pos_as_xyz
  1  'x, y, z'
loop_
 _atom_site_type_symbol
 _atom_site_label
 _atom_site_symmetry_multiplicity
 _atom_site_fract_x
 _atom_site_fract_y
 _atom_site_fract_z
 _atom_site_occupancy
  La  La0  1  0.125000  0.625000  0.625000  1
  Pr  Pr1  1  0.625000  0.125000  0.625000  1
  Pr  Pr2  1  0.625000  0.625000  0.625000  1
  Pr  Pr3  1  0.625000  0.625000  0.125000  1
  Nd  Nd4  1  0.125000  0.625000  0.125000  1
  Nd  Nd5  1  0.125000  0.125000  0.625000  1
  Nd  Nd6  1  0.625000  0.125000  0.125000  1
  Nd  Nd7  1  0.125000  0.125000  0.125000  1
  Te  Te8  1  0.374822  0.878429  0.373374  1
  Te  Te9  1  0.875178  0.371571  0.876626  1
  Te  Te10  1  0.875178  0.876626  0.371571  1
  Te  Te11  1  0.875178  0.876626  0.876626  1
  Te  Te12  1  0.877735  0.374088  0.374088  1
  Te  Te13  1  0.374822  0.373374  0.878429  1
  Te  Te14  1  0.374822  0.373374  0.373374  1
  Te  Te15  1  0.372265  0.875912  0.875912  1
