# generated using pymatgen
data_MgZr3CuPt11
_symmetry_space_group_name_H-M   'P 1'
_cell_length_a   5.70079200
_cell_length_b   5.69615483
_cell_length_c   9.26674600
_cell_angle_alpha   90.00000000
_cell_angle_beta   90.00000000
_cell_angle_gamma   120.02692186
_symmetry_Int_Tables_number   1
_chemical_formula_structural   MgZr3CuPt11
_chemical_formula_sum   'Mg1 Zr3 Cu1 Pt11'
_cell_volume   260.52955129
_cell_formula_units_Z   1
loop_
 _symmetry_equiv_pos_site_id
 _symmetry_equiv_pos_as_xyz
  1  'x, y, z'
loop_
 _atom_site_type_symbol
 _atom_site_label
 _atom_site_symmetry_multiplicity
 _atom_site_fract_x
 _atom_site_fract_y
 _atom_site_fract_z
 _atom_site_occupancy
  Mg  Mg0  1  0.332161  0.664323  0.250000  1
  Zr  Zr1  1  0.001451  0.002901  0.499781  1
  Zr  Zr2  1  0.001451  0.002901  0.000219  1
  Zr  Zr3  1  0.667640  0.335280  0.750000  1
  Cu  Cu4  1  0.823277  0.646552  0.250000  1
  Pt  Pt5  1  0.504128  0.504189  0.495384  1
  Pt  Pt6  1  0.500383  0.000766  0.498365  1
  Pt  Pt7  1  0.000061  0.504189  0.495384  1
  Pt  Pt8  1  0.504128  0.504189  0.004616  1
  Pt  Pt9  1  0.500383  0.000766  0.001635  1
  Pt  Pt10  1  0.000061  0.504189  0.004616  1
  Pt  Pt11  1  0.341291  0.168603  0.250000  1
  Pt  Pt12  1  0.827313  0.168603  0.250000  1
  Pt  Pt13  1  0.168274  0.336548  0.750000  1
  Pt  Pt14  1  0.657087  0.828000  0.750000  1
  Pt  Pt15  1  0.170913  0.828000  0.750000  1
