# generated using pymatgen
data_Nd8Y2IrPt5
_symmetry_space_group_name_H-M   'P 1'
_cell_length_a   11.34836000
_cell_length_b   11.34836000
_cell_length_c   6.58205900
_cell_angle_alpha   90.00000000
_cell_angle_beta   90.00000000
_cell_angle_gamma   90.00000000
_symmetry_Int_Tables_number   1
_chemical_formula_structural   Nd8Y2IrPt5
_chemical_formula_sum   'Nd16 Y4 Ir2 Pt10'
_cell_volume   847.67227634
_cell_formula_units_Z   2
loop_
 _symmetry_equiv_pos_site_id
 _symmetry_equiv_pos_as_xyz
  1  'x, y, z'
loop_
 _atom_site_type_symbol
 _atom_site_label
 _atom_site_symmetry_multiplicity
 _atom_site_fract_x
 _atom_site_fract_y
 _atom_site_fract_z
 _atom_site_occupancy
  Nd  Nd0  1  0.290424  0.088151  0.379564  1
  Nd  Nd1  1  0.290424  0.911849  0.879564  1
  Nd  Nd2  1  0.709576  0.088151  0.879564  1
  Nd  Nd3  1  0.709576  0.911849  0.379564  1
  Nd  Nd4  1  0.588151  0.790424  0.879564  1
  Nd  Nd5  1  0.588151  0.209576  0.379564  1
  Nd  Nd6  1  0.411849  0.790424  0.379564  1
  Nd  Nd7  1  0.411849  0.209576  0.879564  1
  Nd  Nd8  1  0.207227  0.412630  0.620571  1
  Nd  Nd9  1  0.207227  0.587370  0.120571  1
  Nd  Nd10  1  0.792773  0.412630  0.120571  1
  Nd  Nd11  1  0.792773  0.587370  0.620571  1
  Nd  Nd12  1  0.912630  0.707227  0.120571  1
  Nd  Nd13  1  0.912630  0.292773  0.620571  1
  Nd  Nd14  1  0.087370  0.707227  0.620571  1
  Nd  Nd15  1  0.087370  0.292773  0.120571  1
  Y  Y16  1  0.000000  0.000000  0.500129  1
  Y  Y17  1  0.000000  0.000000  0.000129  1
  Y  Y18  1  0.500000  0.500000  0.000129  1
  Y  Y19  1  0.500000  0.500000  0.500129  1
  Ir  Ir20  1  0.000000  0.500000  0.880350  1
  Ir  Ir21  1  0.000000  0.500000  0.380350  1
  Pt  Pt22  1  0.849763  0.149152  0.249964  1
  Pt  Pt23  1  0.849763  0.850848  0.749964  1
  Pt  Pt24  1  0.150237  0.149152  0.749964  1
  Pt  Pt25  1  0.150237  0.850848  0.249964  1
  Pt  Pt26  1  0.649152  0.349763  0.749964  1
  Pt  Pt27  1  0.649152  0.650237  0.249964  1
  Pt  Pt28  1  0.350848  0.349763  0.249964  1
  Pt  Pt29  1  0.350848  0.650237  0.749964  1
  Pt  Pt30  1  0.500000  0.000000  0.118994  1
  Pt  Pt31  1  0.500000  0.000000  0.618994  1
