# generated using pymatgen
data_YbTlMoH9
_symmetry_space_group_name_H-M   'P 1'
_cell_length_a   8.74208600
_cell_length_b   8.74208515
_cell_length_c   5.39916300
_cell_angle_alpha   90.00000000
_cell_angle_beta   90.00000000
_cell_angle_gamma   120.00001078
_symmetry_Int_Tables_number   1
_chemical_formula_structural   YbTlMoH9
_chemical_formula_sum   'Yb3 Tl3 Mo3 H27'
_cell_volume   357.34452322
_cell_formula_units_Z   3
loop_
 _symmetry_equiv_pos_site_id
 _symmetry_equiv_pos_as_xyz
  1  'x, y, z'
loop_
 _atom_site_type_symbol
 _atom_site_label
 _atom_site_symmetry_multiplicity
 _atom_site_fract_x
 _atom_site_fract_y
 _atom_site_fract_z
 _atom_site_occupancy
  Yb  Yb0  1  0.000000  0.273368  0.500000  1
  Yb  Yb1  1  0.726632  0.726632  0.500000  1
  Yb  Yb2  1  0.273368  0.000000  0.500000  1
  Tl  Tl3  1  0.000000  0.585026  0.000000  1
  Tl  Tl4  1  0.414974  0.414974  0.000000  1
  Tl  Tl5  1  0.585026  0.000000  0.000000  1
  Mo  Mo6  1  0.666667  0.333333  0.500000  1
  Mo  Mo7  1  0.333333  0.666667  0.500000  1
  Mo  Mo8  1  0.000000  0.000000  0.000000  1
  H  H9  1  0.792100  0.302763  0.731273  1
  H  H10  1  0.697237  0.489336  0.731273  1
  H  H11  1  0.510664  0.207900  0.731273  1
  H  H12  1  0.207900  0.510664  0.268727  1
  H  H13  1  0.510664  0.207900  0.268727  1
  H  H14  1  0.792100  0.302763  0.268727  1
  H  H15  1  0.697237  0.489336  0.268727  1
  H  H16  1  0.302763  0.792100  0.731273  1
  H  H17  1  0.489336  0.697237  0.731273  1
  H  H18  1  0.198602  0.000000  0.000000  1
  H  H19  1  0.801398  0.801398  0.000000  1
  H  H20  1  0.000000  0.198602  0.000000  1
  H  H21  1  0.860962  0.000000  0.241297  1
  H  H22  1  0.139038  0.139038  0.758703  1
  H  H23  1  0.000000  0.860962  0.758703  1
  H  H24  1  0.000000  0.860962  0.241297  1
  H  H25  1  0.139038  0.139038  0.241297  1
  H  H26  1  0.860962  0.000000  0.758703  1
  H  H27  1  0.119258  0.627438  0.500000  1
  H  H28  1  0.508179  0.880742  0.500000  1
  H  H29  1  0.372562  0.491821  0.500000  1
  H  H30  1  0.491821  0.372562  0.500000  1
  H  H31  1  0.880742  0.508179  0.500000  1
  H  H32  1  0.627438  0.119258  0.500000  1
  H  H33  1  0.207900  0.510664  0.731273  1
  H  H34  1  0.302763  0.792100  0.268727  1
  H  H35  1  0.489336  0.697237  0.268727  1
