# generated using pymatgen
data_Hf3Al2ZnCu3
_symmetry_space_group_name_H-M   'P 1'
_cell_length_a   6.53405980
_cell_length_b   6.53405947
_cell_length_c   3.94252400
_cell_angle_alpha   90.00000000
_cell_angle_beta   90.00000000
_cell_angle_gamma   119.80522280
_symmetry_Int_Tables_number   1
_chemical_formula_structural   Hf3Al2ZnCu3
_chemical_formula_sum   'Hf3 Al2 Zn1 Cu3'
_cell_volume   146.05627320
_cell_formula_units_Z   1
loop_
 _symmetry_equiv_pos_site_id
 _symmetry_equiv_pos_as_xyz
  1  'x, y, z'
loop_
 _atom_site_type_symbol
 _atom_site_label
 _atom_site_symmetry_multiplicity
 _atom_site_fract_x
 _atom_site_fract_y
 _atom_site_fract_z
 _atom_site_occupancy
  Hf  Hf0  1  0.424279  0.424279  0.500000  1
  Hf  Hf1  1  0.580243  0.997374  0.500000  1
  Hf  Hf2  1  0.997374  0.580243  0.500000  1
  Al  Al3  1  0.244895  0.000340  0.000000  1
  Al  Al4  1  0.000340  0.244895  0.000000  1
  Zn  Zn5  1  0.752526  0.752526  0.000000  1
  Cu  Cu6  1  0.004317  0.004317  0.500000  1
  Cu  Cu7  1  0.666651  0.329373  0.000000  1
  Cu  Cu8  1  0.329373  0.666651  0.000000  1
