# generated using pymatgen
data_Dy3Ho7Ga3NiBi2
_symmetry_space_group_name_H-M   'P 1'
_cell_length_a   8.55486042
_cell_length_b   8.55486151
_cell_length_c   8.73872292
_cell_angle_alpha   124.35276048
_cell_angle_beta   124.36072574
_cell_angle_gamma   81.20205883
_symmetry_Int_Tables_number   1
_chemical_formula_structural   Dy3Ho7Ga3NiBi2
_chemical_formula_sum   'Dy3 Ho7 Ga3 Ni1 Bi2'
_cell_volume   422.81043484
_cell_formula_units_Z   1
loop_
 _symmetry_equiv_pos_site_id
 _symmetry_equiv_pos_as_xyz
  1  'x, y, z'
loop_
 _atom_site_type_symbol
 _atom_site_label
 _atom_site_symmetry_multiplicity
 _atom_site_fract_x
 _atom_site_fract_y
 _atom_site_fract_z
 _atom_site_occupancy
  Dy  Dy0  1  0.499362  0.015606  0.795487  1
  Dy  Dy1  1  0.704566  0.515752  0.499997  1
  Dy  Dy2  1  0.984108  0.795440  0.499928  1
  Ho  Ho3  1  0.995510  0.997568  0.992988  1
  Ho  Ho4  1  0.502496  0.504785  0.007199  1
  Ho  Ho5  1  0.779510  0.295872  0.795206  1
  Ho  Ho6  1  0.204097  0.720463  0.204593  1
  Ho  Ho7  1  0.484246  0.000607  0.204907  1
  Ho  Ho8  1  0.303108  0.459414  0.499975  1
  Ho  Ho9  1  0.040372  0.196908  0.499919  1
  Ga  Ga10  1  0.146480  0.644482  0.790954  1
  Ga  Ga11  1  0.855682  0.353654  0.209243  1
  Ga  Ga12  1  0.634184  0.865756  0.499768  1
  Ni  Ni13  1  0.377250  0.122804  0.499806  1
  Bi  Bi14  1  0.244422  0.255516  0.000000  1
  Bi  Bi15  1  0.744607  0.755373  0.000031  1
