# generated using pymatgen
data_DyEr3(WO6)2
_symmetry_space_group_name_H-M   'P 1'
_cell_length_a   5.37209100
_cell_length_b   7.67571811
_cell_length_c   11.42245200
_cell_angle_alpha   75.33540411
_cell_angle_beta   90.00000000
_cell_angle_gamma   90.00000000
_symmetry_Int_Tables_number   1
_chemical_formula_structural   DyEr3(WO6)2
_chemical_formula_sum   'Dy2 Er6 W4 O24'
_cell_volume   455.65773047
_cell_formula_units_Z   2
loop_
 _symmetry_equiv_pos_site_id
 _symmetry_equiv_pos_as_xyz
  1  'x, y, z'
loop_
 _atom_site_type_symbol
 _atom_site_label
 _atom_site_symmetry_multiplicity
 _atom_site_fract_x
 _atom_site_fract_y
 _atom_site_fract_z
 _atom_site_occupancy
  Dy  Dy0  1  0.684561  0.500000  0.250000  1
  Dy  Dy1  1  0.315439  0.500000  0.750000  1
  Er  Er2  1  0.183531  0.205537  0.421815  1
  Er  Er3  1  0.183531  0.794463  0.078185  1
  Er  Er4  1  0.816469  0.794463  0.578185  1
  Er  Er5  1  0.816469  0.205537  0.921815  1
  Er  Er6  1  0.740185  0.000000  0.250000  1
  Er  Er7  1  0.259815  0.000000  0.750000  1
  W  W8  1  0.256040  0.276266  0.114839  1
  W  W9  1  0.256040  0.723734  0.385161  1
  W  W10  1  0.743960  0.723734  0.885161  1
  W  W11  1  0.743960  0.276266  0.614839  1
  O  O12  1  0.458492  0.207728  0.273759  1
  O  O13  1  0.458492  0.792272  0.226241  1
  O  O14  1  0.541508  0.792272  0.726241  1
  O  O15  1  0.541508  0.207728  0.773759  1
  O  O16  1  0.043543  0.059520  0.104569  1
  O  O17  1  0.043543  0.940480  0.395431  1
  O  O18  1  0.956457  0.940480  0.895431  1
  O  O19  1  0.956457  0.059520  0.604569  1
  O  O20  1  0.980763  0.288633  0.228858  1
  O  O21  1  0.980763  0.711367  0.271142  1
  O  O22  1  0.019237  0.711367  0.771142  1
  O  O23  1  0.019237  0.288633  0.728858  1
  O  O24  1  0.849468  0.365554  0.451399  1
  O  O25  1  0.849468  0.634446  0.048601  1
  O  O26  1  0.150532  0.634446  0.548601  1
  O  O27  1  0.150532  0.365554  0.951399  1
  O  O28  1  0.639762  0.511101  0.614252  1
  O  O29  1  0.639762  0.488899  0.885748  1
  O  O30  1  0.360238  0.488899  0.385748  1
  O  O31  1  0.360238  0.511101  0.114252  1
  O  O32  1  0.463758  0.152990  0.569428  1
  O  O33  1  0.463758  0.847010  0.930572  1
  O  O34  1  0.536242  0.847010  0.430572  1
  O  O35  1  0.536242  0.152990  0.069428  1
