# generated using pymatgen
data_YEr15In4IrPd3
_symmetry_space_group_name_H-M   'P 1'
_cell_length_a   9.62972170
_cell_length_b   9.64565859
_cell_length_c   9.63202800
_cell_angle_alpha   60.04673504
_cell_angle_beta   59.99207714
_cell_angle_gamma   60.08889492
_symmetry_Int_Tables_number   1
_chemical_formula_structural   YEr15In4IrPd3
_chemical_formula_sum   'Y1 Er15 In4 Ir1 Pd3'
_cell_volume   633.23743478
_cell_formula_units_Z   1
loop_
 _symmetry_equiv_pos_site_id
 _symmetry_equiv_pos_as_xyz
  1  'x, y, z'
loop_
 _atom_site_type_symbol
 _atom_site_label
 _atom_site_symmetry_multiplicity
 _atom_site_fract_x
 _atom_site_fract_y
 _atom_site_fract_z
 _atom_site_occupancy
  Y  Y0  1  0.063537  0.062817  0.436823  1
  Er  Er1  1  0.646348  0.059257  0.647197  1
  Er  Er2  1  0.190233  0.808827  0.190481  1
  Er  Er3  1  0.437725  0.062902  0.436720  1
  Er  Er4  1  0.185510  0.193791  0.810350  1
  Er  Er5  1  0.651410  0.644928  0.650924  1
  Er  Er6  1  0.054237  0.643760  0.651002  1
  Er  Er7  1  0.437725  0.062902  0.062652  1
  Er  Er8  1  0.651410  0.644928  0.052739  1
  Er  Er9  1  0.190233  0.808827  0.810460  1
  Er  Er10  1  0.809705  0.193608  0.811220  1
  Er  Er11  1  0.809705  0.193608  0.185468  1
  Er  Er12  1  0.810051  0.809833  0.190059  1
  Er  Er13  1  0.062331  0.436135  0.440442  1
  Er  Er14  1  0.439404  0.434546  0.063025  1
  Er  Er15  1  0.062331  0.436135  0.061091  1
  In  In16  1  0.749564  0.416969  0.416734  1
  In  In17  1  0.416409  0.416582  0.750449  1
  In  In18  1  0.416916  0.749488  0.416798  1
  In  In19  1  0.416409  0.416582  0.416561  1
  Ir  Ir20  1  0.857316  0.429109  0.856788  1
  Pd  Pd21  1  0.855874  0.857904  0.855799  1
  Pd  Pd22  1  0.429744  0.858663  0.855797  1
  Pd  Pd23  1  0.855874  0.857904  0.430424  1
