# generated using pymatgen
data_La6OsO12
_symmetry_space_group_name_H-M   'P 1'
_cell_length_a   6.83460829
_cell_length_b   6.83460887
_cell_length_c   6.83460823
_cell_angle_alpha   98.40563362
_cell_angle_beta   98.40563376
_cell_angle_gamma   98.40563474
_symmetry_Int_Tables_number   1
_chemical_formula_structural   La6OsO12
_chemical_formula_sum   'La6 Os1 O12'
_cell_volume   307.82214567
_cell_formula_units_Z   1
loop_
 _symmetry_equiv_pos_site_id
 _symmetry_equiv_pos_as_xyz
  1  'x, y, z'
loop_
 _atom_site_type_symbol
 _atom_site_label
 _atom_site_symmetry_multiplicity
 _atom_site_fract_x
 _atom_site_fract_y
 _atom_site_fract_z
 _atom_site_occupancy
  La  La0  1  0.142988  0.304695  0.606727  1
  La  La1  1  0.393273  0.857012  0.695305  1
  La  La2  1  0.695305  0.393273  0.857012  1
  La  La3  1  0.304695  0.606727  0.142988  1
  La  La4  1  0.606727  0.142988  0.304695  1
  La  La5  1  0.857012  0.695305  0.393273  1
  Os  Os6  1  0.000000  0.000000  0.000000  1
  O  O7  1  0.067469  0.283276  0.968794  1
  O  O8  1  0.031206  0.932531  0.716724  1
  O  O9  1  0.406012  0.559630  0.822967  1
  O  O10  1  0.177033  0.593988  0.440370  1
  O  O11  1  0.716724  0.031206  0.932531  1
  O  O12  1  0.440370  0.177033  0.593988  1
  O  O13  1  0.559630  0.822967  0.406012  1
  O  O14  1  0.283276  0.968794  0.067469  1
  O  O15  1  0.822967  0.406012  0.559630  1
  O  O16  1  0.593988  0.440370  0.177033  1
  O  O17  1  0.968794  0.067469  0.283276  1
  O  O18  1  0.932531  0.716724  0.031206  1
