# generated using pymatgen
data_Sr(HfS2)8
_symmetry_space_group_name_H-M   'P 1'
_cell_length_a   7.15334300
_cell_length_b   7.15334159
_cell_length_c   13.84715700
_cell_angle_alpha   90.00000000
_cell_angle_beta   90.00000000
_cell_angle_gamma   119.99999264
_symmetry_Int_Tables_number   1
_chemical_formula_structural   Sr(HfS2)8
_chemical_formula_sum   'Sr1 Hf8 S16'
_cell_volume   613.63382969
_cell_formula_units_Z   1
loop_
 _symmetry_equiv_pos_site_id
 _symmetry_equiv_pos_as_xyz
  1  'x, y, z'
loop_
 _atom_site_type_symbol
 _atom_site_label
 _atom_site_symmetry_multiplicity
 _atom_site_fract_x
 _atom_site_fract_y
 _atom_site_fract_z
 _atom_site_occupancy
  Sr  Sr0  1  0.000000  0.000000  0.000000  1
  Hf  Hf1  1  0.501838  0.498162  0.734439  1
  Hf  Hf2  1  0.498162  0.501838  0.265561  1
  Hf  Hf3  1  0.501838  0.003673  0.734439  1
  Hf  Hf4  1  0.498162  0.996327  0.265561  1
  Hf  Hf5  1  0.996327  0.498162  0.734439  1
  Hf  Hf6  1  0.003673  0.501838  0.265561  1
  Hf  Hf7  1  0.000000  0.000000  0.729412  1
  Hf  Hf8  1  0.000000  0.000000  0.270588  1
  S  S9  1  0.833622  0.667245  0.156108  1
  S  S10  1  0.832670  0.665341  0.627096  1
  S  S11  1  0.833622  0.166378  0.156108  1
  S  S12  1  0.832670  0.167330  0.627096  1
  S  S13  1  0.333333  0.666667  0.155467  1
  S  S14  1  0.333333  0.666667  0.630994  1
  S  S15  1  0.332755  0.166378  0.156108  1
  S  S16  1  0.334659  0.167330  0.627096  1
  S  S17  1  0.667245  0.833622  0.843892  1
  S  S18  1  0.665341  0.832670  0.372904  1
  S  S19  1  0.666667  0.333333  0.844533  1
  S  S20  1  0.666667  0.333333  0.369006  1
  S  S21  1  0.166378  0.833622  0.843892  1
  S  S22  1  0.167330  0.832670  0.372904  1
  S  S23  1  0.166378  0.332755  0.843892  1
  S  S24  1  0.167330  0.334659  0.372904  1
