# generated using pymatgen
data_Y8Sc11Si16Os
_symmetry_space_group_name_H-M   'P 1'
_cell_length_a   7.01334211
_cell_length_b   7.35947356
_cell_length_c   13.88209100
_cell_angle_alpha   90.00000000
_cell_angle_beta   90.00000000
_cell_angle_gamma   90.09124129
_symmetry_Int_Tables_number   1
_chemical_formula_structural   Y8Sc11Si16Os
_chemical_formula_sum   'Y8 Sc11 Si16 Os1'
_cell_volume   716.51635879
_cell_formula_units_Z   1
loop_
 _symmetry_equiv_pos_site_id
 _symmetry_equiv_pos_as_xyz
  1  'x, y, z'
loop_
 _atom_site_type_symbol
 _atom_site_label
 _atom_site_symmetry_multiplicity
 _atom_site_fract_x
 _atom_site_fract_y
 _atom_site_fract_z
 _atom_site_occupancy
  Y  Y0  1  0.011653  0.177743  0.092499  1
  Y  Y1  1  0.993959  0.819760  0.900815  1
  Y  Y2  1  0.490107  0.672376  0.902551  1
  Y  Y3  1  0.993959  0.819760  0.599185  1
  Y  Y4  1  0.511273  0.323815  0.094418  1
  Y  Y5  1  0.011653  0.177743  0.407501  1
  Y  Y6  1  0.511273  0.323815  0.405582  1
  Y  Y7  1  0.490107  0.672376  0.597449  1
  Sc  Sc8  1  0.842045  0.496970  0.250000  1
  Sc  Sc9  1  0.342198  0.002452  0.250000  1
  Sc  Sc10  1  0.656990  0.996137  0.750000  1
  Sc  Sc11  1  0.325753  0.176250  0.627611  1
  Sc  Sc12  1  0.672239  0.824650  0.374349  1
  Sc  Sc13  1  0.172168  0.674049  0.376904  1
  Sc  Sc14  1  0.672239  0.824650  0.125651  1
  Sc  Sc15  1  0.824975  0.331670  0.628666  1
  Sc  Sc16  1  0.325753  0.176250  0.872389  1
  Sc  Sc17  1  0.824975  0.331670  0.871334  1
  Sc  Sc18  1  0.172168  0.674049  0.123096  1
  Si  Si19  1  0.028448  0.120566  0.750000  1
  Si  Si20  1  0.972437  0.885339  0.250000  1
  Si  Si21  1  0.468521  0.615877  0.250000  1
  Si  Si22  1  0.513761  0.394191  0.750000  1
  Si  Si23  1  0.286634  0.860904  0.750000  1
  Si  Si24  1  0.717143  0.128750  0.250000  1
  Si  Si25  1  0.214967  0.372070  0.250000  1
  Si  Si26  1  0.796276  0.629780  0.750000  1
  Si  Si27  1  0.155862  0.465406  0.549719  1
  Si  Si28  1  0.843069  0.536744  0.463985  1
  Si  Si29  1  0.345902  0.964251  0.463100  1
  Si  Si30  1  0.843069  0.536744  0.036015  1
  Si  Si31  1  0.658642  0.034524  0.540072  1
  Si  Si32  1  0.155862  0.465406  0.950281  1
  Si  Si33  1  0.658642  0.034524  0.959928  1
  Si  Si34  1  0.345902  0.964251  0.036900  1
  Os  Os35  1  0.149376  0.494486  0.750000  1
