# generated using pymatgen
data_Nd2Sm2Zn10SiGe
_symmetry_space_group_name_H-M   'P 1'
_cell_length_a   8.36955567
_cell_length_b   8.36955505
_cell_length_c   8.85825200
_cell_angle_alpha   90.00000000
_cell_angle_beta   90.00000000
_cell_angle_gamma   149.40639130
_symmetry_Int_Tables_number   1
_chemical_formula_structural   Nd2Sm2Zn10SiGe
_chemical_formula_sum   'Nd2 Sm2 Zn10 Si1 Ge1'
_cell_volume   315.80863089
_cell_formula_units_Z   1
loop_
 _symmetry_equiv_pos_site_id
 _symmetry_equiv_pos_as_xyz
  1  'x, y, z'
loop_
 _atom_site_type_symbol
 _atom_site_label
 _atom_site_symmetry_multiplicity
 _atom_site_fract_x
 _atom_site_fract_y
 _atom_site_fract_z
 _atom_site_occupancy
  Nd  Nd0  1  0.000062  0.999938  0.497489  1
  Nd  Nd1  1  0.000062  0.999938  0.002511  1
  Sm  Sm2  1  0.202447  0.797553  0.250000  1
  Sm  Sm3  1  0.797014  0.202986  0.750000  1
  Zn  Zn4  1  0.813035  0.186965  0.392913  1
  Zn  Zn5  1  0.186653  0.813347  0.607009  1
  Zn  Zn6  1  0.813035  0.186965  0.107087  1
  Zn  Zn7  1  0.186653  0.813347  0.892991  1
  Zn  Zn8  1  0.650125  0.349875  0.475319  1
  Zn  Zn9  1  0.348451  0.651549  0.521953  1
  Zn  Zn10  1  0.650125  0.349875  0.024681  1
  Zn  Zn11  1  0.348451  0.651549  0.978047  1
  Zn  Zn12  1  0.404843  0.595157  0.250000  1
  Zn  Zn13  1  0.597987  0.402013  0.750000  1
  Si  Si14  1  0.557820  0.442180  0.250000  1
  Ge  Ge15  1  0.443231  0.556769  0.750000  1
