# generated using pymatgen
data_Sm8Tm2Si5Hg
_symmetry_space_group_name_H-M   'P 1'
_cell_length_a   7.44866300
_cell_length_b   7.44866138
_cell_length_c   9.01518800
_cell_angle_alpha   114.40081077
_cell_angle_beta   114.40081354
_cell_angle_gamma   90.00000451
_symmetry_Int_Tables_number   1
_chemical_formula_structural   Sm8Tm2Si5Hg
_chemical_formula_sum   'Sm8 Tm2 Si5 Hg1'
_cell_volume   405.94263027
_cell_formula_units_Z   1
loop_
 _symmetry_equiv_pos_site_id
 _symmetry_equiv_pos_as_xyz
  1  'x, y, z'
loop_
 _atom_site_type_symbol
 _atom_site_label
 _atom_site_symmetry_multiplicity
 _atom_site_fract_x
 _atom_site_fract_y
 _atom_site_fract_z
 _atom_site_occupancy
  Sm  Sm0  1  0.974411  0.826607  0.282748  1
  Sm  Sm1  1  0.308336  0.456140  0.282748  1
  Sm  Sm2  1  0.826607  0.308336  0.282748  1
  Sm  Sm3  1  0.456140  0.974411  0.282748  1
  Sm  Sm4  1  0.043860  0.191664  0.717252  1
  Sm  Sm5  1  0.673393  0.525589  0.717252  1
  Sm  Sm6  1  0.191664  0.673393  0.717252  1
  Sm  Sm7  1  0.525589  0.043860  0.717252  1
  Tm  Tm8  1  0.512507  0.512507  0.025013  1
  Tm  Tm9  1  0.987493  0.987493  0.974987  1
  Si  Si10  1  0.250000  0.250000  0.500000  1
  Si  Si11  1  0.619880  0.880120  0.000000  1
  Si  Si12  1  0.380120  0.119880  0.000000  1
  Si  Si13  1  0.880120  0.380120  0.000000  1
  Si  Si14  1  0.119880  0.619880  0.000000  1
  Hg  Hg15  1  0.750000  0.750000  0.500000  1
