# generated using pymatgen
data_Li3Pt(NO3)8
_symmetry_space_group_name_H-M   'P 1'
_cell_length_a   7.77173478
_cell_length_b   7.77173400
_cell_length_c   7.77173500
_cell_angle_alpha   91.21654043
_cell_angle_beta   91.21654030
_cell_angle_gamma   91.21654666
_symmetry_Int_Tables_number   1
_chemical_formula_structural   Li3Pt(NO3)8
_chemical_formula_sum   'Li3 Pt1 N8 O24'
_cell_volume   469.08968040
_cell_formula_units_Z   1
loop_
 _symmetry_equiv_pos_site_id
 _symmetry_equiv_pos_as_xyz
  1  'x, y, z'
loop_
 _atom_site_type_symbol
 _atom_site_label
 _atom_site_symmetry_multiplicity
 _atom_site_fract_x
 _atom_site_fract_y
 _atom_site_fract_z
 _atom_site_occupancy
  Li  Li0  1  0.500000  0.500000  0.000000  1
  Li  Li1  1  0.000000  0.500000  0.500000  1
  Li  Li2  1  0.500000  0.000000  0.500000  1
  Pt  Pt3  1  0.000000  0.000000  0.000000  1
  N  N4  1  0.311540  0.164447  0.827684  1
  N  N5  1  0.827684  0.311540  0.164447  1
  N  N6  1  0.164447  0.827684  0.311540  1
  N  N7  1  0.668376  0.668376  0.668376  1
  N  N8  1  0.688460  0.835553  0.172316  1
  N  N9  1  0.172316  0.688460  0.835553  1
  N  N10  1  0.835553  0.172316  0.688460  1
  N  N11  1  0.331624  0.331624  0.331624  1
  O  O12  1  0.418180  0.285407  0.831197  1
  O  O13  1  0.831197  0.418180  0.285407  1
  O  O14  1  0.285407  0.831197  0.418180  1
  O  O15  1  0.197933  0.173141  0.955085  1
  O  O16  1  0.304872  0.045098  0.720328  1
  O  O17  1  0.720328  0.304872  0.045098  1
  O  O18  1  0.662214  0.558484  0.784482  1
  O  O19  1  0.173141  0.955085  0.197933  1
  O  O20  1  0.784482  0.662214  0.558484  1
  O  O21  1  0.955085  0.197933  0.173141  1
  O  O22  1  0.558484  0.784482  0.662214  1
  O  O23  1  0.045098  0.720328  0.304872  1
  O  O24  1  0.581820  0.714593  0.168803  1
  O  O25  1  0.168803  0.581820  0.714593  1
  O  O26  1  0.714593  0.168803  0.581820  1
  O  O27  1  0.802067  0.826859  0.044915  1
  O  O28  1  0.695128  0.954902  0.279672  1
  O  O29  1  0.279672  0.695128  0.954902  1
  O  O30  1  0.337786  0.441516  0.215518  1
  O  O31  1  0.826859  0.044915  0.802067  1
  O  O32  1  0.215518  0.337786  0.441516  1
  O  O33  1  0.044915  0.802067  0.826859  1
  O  O34  1  0.441516  0.215518  0.337786  1
  O  O35  1  0.954902  0.279672  0.695128  1
