# generated using pymatgen
data_LaYb2Pr5(Mo2C3)4
_symmetry_space_group_name_H-M   'P 1'
_cell_length_a   6.68572124
_cell_length_b   5.99670090
_cell_length_c   12.06357184
_cell_angle_alpha   67.53666649
_cell_angle_beta   89.94666339
_cell_angle_gamma   90.13195651
_symmetry_Int_Tables_number   1
_chemical_formula_structural   LaYb2Pr5(Mo2C3)4
_chemical_formula_sum   'La1 Yb2 Pr5 Mo8 C12'
_cell_volume   446.95617803
_cell_formula_units_Z   1
loop_
 _symmetry_equiv_pos_site_id
 _symmetry_equiv_pos_as_xyz
  1  'x, y, z'
loop_
 _atom_site_type_symbol
 _atom_site_label
 _atom_site_symmetry_multiplicity
 _atom_site_fract_x
 _atom_site_fract_y
 _atom_site_fract_z
 _atom_site_occupancy
  La  La0  1  0.787222  0.678474  0.910283  1
  Yb  Yb1  1  0.293835  0.306634  0.590785  1
  Yb  Yb2  1  0.206220  0.306249  0.091499  1
  Pr  Pr3  1  0.711656  0.683063  0.409250  1
  Pr  Pr4  1  0.002973  0.726918  0.635588  1
  Pr  Pr5  1  0.492769  0.273677  0.862273  1
  Pr  Pr6  1  0.008224  0.273432  0.363147  1
  Pr  Pr7  1  0.496725  0.727615  0.135028  1
  Mo  Mo8  1  0.992386  0.821496  0.121832  1
  Mo  Mo9  1  0.495039  0.179958  0.379352  1
  Mo  Mo10  1  0.006285  0.178395  0.879533  1
  Mo  Mo11  1  0.507015  0.821751  0.620684  1
  Mo  Mo12  1  0.759205  0.179911  0.657789  1
  Mo  Mo13  1  0.242373  0.820412  0.342470  1
  Mo  Mo14  1  0.741300  0.178198  0.159736  1
  Mo  Mo15  1  0.257389  0.820849  0.841380  1
  C  C16  1  0.632718  0.506321  0.643078  1
  C  C17  1  0.130040  0.493303  0.858120  1
  C  C18  1  0.371342  0.494383  0.358389  1
  C  C19  1  0.866220  0.505453  0.145418  1
  C  C20  1  0.211951  0.931511  0.988359  1
  C  C21  1  0.716758  0.070850  0.510969  1
  C  C22  1  0.783761  0.073469  0.011586  1
  C  C23  1  0.286805  0.933572  0.488470  1
  C  C24  1  0.477921  0.036831  0.244507  1
  C  C25  1  0.021494  0.037973  0.743516  1
  C  C26  1  0.983449  0.969316  0.254039  1
  C  C27  1  0.516921  0.969985  0.752919  1
