# generated using pymatgen
data_Tm5Fe7Co9(P4Ru)3
_symmetry_space_group_name_H-M   'P 1'
_cell_length_a   11.98390752
_cell_length_b   11.95473674
_cell_length_c   3.68251800
_cell_angle_alpha   90.00000000
_cell_angle_beta   90.00000000
_cell_angle_gamma   119.94186830
_symmetry_Int_Tables_number   1
_chemical_formula_structural   Tm5Fe7Co9(P4Ru)3
_chemical_formula_sum   'Tm5 Fe7 Co9 P12 Ru3'
_cell_volume   457.15984435
_cell_formula_units_Z   1
loop_
 _symmetry_equiv_pos_site_id
 _symmetry_equiv_pos_as_xyz
  1  'x, y, z'
loop_
 _atom_site_type_symbol
 _atom_site_label
 _atom_site_symmetry_multiplicity
 _atom_site_fract_x
 _atom_site_fract_y
 _atom_site_fract_z
 _atom_site_occupancy
  Tm  Tm0  1  0.666199  0.332180  0.000000  1
  Tm  Tm1  1  0.333914  0.667553  0.000000  1
  Tm  Tm2  1  0.185686  0.185376  0.500000  1
  Tm  Tm3  1  0.814740  0.000515  0.500000  1
  Tm  Tm4  1  0.999312  0.814832  0.500000  1
  Fe  Fe5  1  0.823214  0.198584  0.000000  1
  Fe  Fe6  1  0.801766  0.622504  0.000000  1
  Fe  Fe7  1  0.376772  0.178839  0.000000  1
  Fe  Fe8  1  0.196128  0.819908  0.000000  1
  Fe  Fe9  1  0.623215  0.803475  0.000000  1
  Fe  Fe10  1  0.180536  0.377806  0.000000  1
  Fe  Fe11  1  0.641332  0.124434  0.500000  1
  Co  Co12  1  0.874304  0.514831  0.500000  1
  Co  Co13  1  0.484900  0.358779  0.500000  1
  Co  Co14  1  0.125926  0.640807  0.500000  1
  Co  Co15  1  0.514325  0.874225  0.500000  1
  Co  Co16  1  0.359811  0.485712  0.500000  1
  Co  Co17  1  0.716740  0.716743  0.500000  1
  Co  Co18  1  0.282040  0.999799  0.500000  1
  Co  Co19  1  0.001711  0.284090  0.500000  1
  Co  Co20  1  0.999496  0.999865  0.000000  1
  P  P21  1  0.361072  0.360426  0.000000  1
  P  P22  1  0.639581  0.003178  0.000000  1
  P  P23  1  0.999230  0.638977  0.000000  1
  P  P24  1  0.831090  0.309011  0.500000  1
  P  P25  1  0.688995  0.520560  0.500000  1
  P  P26  1  0.479466  0.166558  0.500000  1
  P  P27  1  0.310112  0.832003  0.500000  1
  P  P28  1  0.521676  0.690025  0.500000  1
  P  P29  1  0.168827  0.479473  0.500000  1
  P  P30  1  0.818516  0.819056  0.000000  1
  P  P31  1  0.180353  0.999966  0.000000  1
  P  P32  1  0.001106  0.181596  0.000000  1
  Ru  Ru33  1  0.552112  0.552444  0.000000  1
  Ru  Ru34  1  0.445004  0.997677  0.000000  1
  Ru  Ru35  1  0.000792  0.448190  0.000000  1
