# generated using pymatgen
data_UTaP3Rh4
_symmetry_space_group_name_H-M   'P 1'
_cell_length_a   3.94229900
_cell_length_b   7.31202461
_cell_length_c   9.68544938
_cell_angle_alpha   79.40523620
_cell_angle_beta   90.00000000
_cell_angle_gamma   90.00000000
_symmetry_Int_Tables_number   1
_chemical_formula_structural   UTaP3Rh4
_chemical_formula_sum   'U2 Ta2 P6 Rh8'
_cell_volume   274.43491232
_cell_formula_units_Z   2
loop_
 _symmetry_equiv_pos_site_id
 _symmetry_equiv_pos_as_xyz
  1  'x, y, z'
loop_
 _atom_site_type_symbol
 _atom_site_label
 _atom_site_symmetry_multiplicity
 _atom_site_fract_x
 _atom_site_fract_y
 _atom_site_fract_z
 _atom_site_occupancy
  U  U0  1  0.250000  0.806056  0.783960  1
  U  U1  1  0.750000  0.194040  0.215980  1
  Ta  Ta2  1  0.250000  0.311617  0.723912  1
  Ta  Ta3  1  0.750000  0.688478  0.276050  1
  P  P4  1  0.250000  0.255036  0.982035  1
  P  P5  1  0.750000  0.744740  0.018100  1
  P  P6  1  0.250000  0.426247  0.334783  1
  P  P7  1  0.750000  0.573749  0.665273  1
  P  P8  1  0.250000  0.906683  0.337085  1
  P  P9  1  0.750000  0.093512  0.662679  1
  Rh  Rh10  1  0.250000  0.533222  0.096548  1
  Rh  Rh11  1  0.750000  0.466899  0.903463  1
  Rh  Rh12  1  0.250000  0.923416  0.095858  1
  Rh  Rh13  1  0.750000  0.076227  0.903914  1
  Rh  Rh14  1  0.250000  0.625560  0.499052  1
  Rh  Rh15  1  0.750000  0.374531  0.501134  1
  Rh  Rh16  1  0.250000  0.130522  0.476308  1
  Rh  Rh17  1  0.750000  0.869466  0.523866  1
