# generated using pymatgen
data_CsTbBi2S5
_symmetry_space_group_name_H-M   'P 1'
_cell_length_a   4.07455100
_cell_length_b   12.41240500
_cell_length_c   21.73882000
_cell_angle_alpha   90.00000000
_cell_angle_beta   90.00000000
_cell_angle_gamma   90.00000000
_symmetry_Int_Tables_number   1
_chemical_formula_structural   CsTbBi2S5
_chemical_formula_sum   'Cs4 Tb4 Bi8 S20'
_cell_volume   1099.44032597
_cell_formula_units_Z   4
loop_
 _symmetry_equiv_pos_site_id
 _symmetry_equiv_pos_as_xyz
  1  'x, y, z'
loop_
 _atom_site_type_symbol
 _atom_site_label
 _atom_site_symmetry_multiplicity
 _atom_site_fract_x
 _atom_site_fract_y
 _atom_site_fract_z
 _atom_site_occupancy
  Cs  Cs0  1  0.250000  0.847767  0.093428  1
  Cs  Cs1  1  0.750000  0.152233  0.906572  1
  Cs  Cs2  1  0.750000  0.347767  0.406572  1
  Cs  Cs3  1  0.250000  0.652233  0.593428  1
  Tb  Tb4  1  0.750000  0.391686  0.053037  1
  Tb  Tb5  1  0.250000  0.608314  0.946963  1
  Tb  Tb6  1  0.250000  0.891686  0.446963  1
  Tb  Tb7  1  0.750000  0.108314  0.553037  1
  Bi  Bi8  1  0.750000  0.797085  0.831890  1
  Bi  Bi9  1  0.250000  0.202915  0.168110  1
  Bi  Bi10  1  0.250000  0.297085  0.668110  1
  Bi  Bi11  1  0.750000  0.702915  0.331890  1
  Bi  Bi12  1  0.250000  0.956017  0.698022  1
  Bi  Bi13  1  0.750000  0.043983  0.301978  1
  Bi  Bi14  1  0.750000  0.456017  0.801978  1
  Bi  Bi15  1  0.250000  0.543983  0.198022  1
  S  S16  1  0.250000  0.956167  0.567587  1
  S  S17  1  0.750000  0.043833  0.432413  1
  S  S18  1  0.750000  0.456167  0.932413  1
  S  S19  1  0.250000  0.543833  0.067587  1
  S  S20  1  0.750000  0.758752  0.958310  1
  S  S21  1  0.250000  0.241248  0.041690  1
  S  S22  1  0.250000  0.258752  0.541690  1
  S  S23  1  0.750000  0.741248  0.458310  1
  S  S24  1  0.250000  0.950090  0.828933  1
  S  S25  1  0.750000  0.049910  0.171067  1
  S  S26  1  0.750000  0.450090  0.671067  1
  S  S27  1  0.250000  0.549910  0.328933  1
  S  S28  1  0.750000  0.130220  0.679249  1
  S  S29  1  0.250000  0.869780  0.320751  1
  S  S30  1  0.250000  0.630220  0.820751  1
  S  S31  1  0.750000  0.369780  0.179249  1
  S  S32  1  0.750000  0.690489  0.197938  1
  S  S33  1  0.250000  0.309511  0.802062  1
  S  S34  1  0.250000  0.190489  0.302062  1
  S  S35  1  0.750000  0.809511  0.697938  1
