# generated using pymatgen
data_LiHfReH6
_symmetry_space_group_name_H-M   'P 1'
_cell_length_a   4.67105368
_cell_length_b   4.67106308
_cell_length_c   4.67096200
_cell_angle_alpha   59.99994966
_cell_angle_beta   60.00042558
_cell_angle_gamma   59.99982098
_symmetry_Int_Tables_number   1
_chemical_formula_structural   LiHfReH6
_chemical_formula_sum   'Li1 Hf1 Re1 H6'
_cell_volume   72.06469800
_cell_formula_units_Z   1
loop_
 _symmetry_equiv_pos_site_id
 _symmetry_equiv_pos_as_xyz
  1  'x, y, z'
loop_
 _atom_site_type_symbol
 _atom_site_label
 _atom_site_symmetry_multiplicity
 _atom_site_fract_x
 _atom_site_fract_y
 _atom_site_fract_z
 _atom_site_occupancy
  Li  Li0  1  0.750003  0.749996  0.749998  1
  Hf  Hf1  1  0.250000  0.250002  0.249997  1
  Re  Re2  1  0.000009  0.999991  0.999996  1
  H  H3  1  0.735550  0.735554  0.264450  1
  H  H4  1  0.735546  0.264454  0.264453  1
  H  H5  1  0.264446  0.735553  0.264452  1
  H  H6  1  0.264443  0.735555  0.735554  1
  H  H7  1  0.735551  0.264449  0.735552  1
  H  H8  1  0.264446  0.264448  0.735554  1
