# generated using pymatgen
data_Tm2Ti2ReSi4
_symmetry_space_group_name_H-M   'P 1'
_cell_length_a   6.89304200
_cell_length_b   6.89304200
_cell_length_c   12.69764000
_cell_angle_alpha   90.00000000
_cell_angle_beta   90.00000000
_cell_angle_gamma   90.00000000
_symmetry_Int_Tables_number   1
_chemical_formula_structural   Tm2Ti2ReSi4
_chemical_formula_sum   'Tm8 Ti8 Re4 Si16'
_cell_volume   603.31602267
_cell_formula_units_Z   4
loop_
 _symmetry_equiv_pos_site_id
 _symmetry_equiv_pos_as_xyz
  1  'x, y, z'
loop_
 _atom_site_type_symbol
 _atom_site_label
 _atom_site_symmetry_multiplicity
 _atom_site_fract_x
 _atom_site_fract_y
 _atom_site_fract_z
 _atom_site_occupancy
  Tm  Tm0  1  0.340584  0.000718  0.469183  1
  Tm  Tm1  1  0.499283  0.840584  0.719183  1
  Tm  Tm2  1  0.500717  0.159416  0.219183  1
  Tm  Tm3  1  0.840584  0.499283  0.280817  1
  Tm  Tm4  1  0.159416  0.500717  0.780817  1
  Tm  Tm5  1  0.659416  0.999283  0.969183  1
  Tm  Tm6  1  0.000718  0.340584  0.530817  1
  Tm  Tm7  1  0.999283  0.659416  0.030817  1
  Ti  Ti8  1  0.152000  0.004916  0.876125  1
  Ti  Ti9  1  0.495084  0.652000  0.126125  1
  Ti  Ti10  1  0.504916  0.348000  0.626125  1
  Ti  Ti11  1  0.652000  0.495084  0.873875  1
  Ti  Ti12  1  0.348000  0.504916  0.373875  1
  Ti  Ti13  1  0.848000  0.995084  0.376125  1
  Ti  Ti14  1  0.004916  0.152000  0.123875  1
  Ti  Ti15  1  0.995084  0.848000  0.623875  1
  Re  Re16  1  0.328303  0.328303  0.000000  1
  Re  Re17  1  0.171697  0.828303  0.250000  1
  Re  Re18  1  0.828303  0.171697  0.750000  1
  Re  Re19  1  0.671697  0.671697  0.500000  1
  Si  Si20  1  0.200940  0.130716  0.682637  1
  Si  Si21  1  0.369284  0.700940  0.932637  1
  Si  Si22  1  0.630716  0.299060  0.432637  1
  Si  Si23  1  0.700940  0.369284  0.067363  1
  Si  Si24  1  0.299060  0.630716  0.567363  1
  Si  Si25  1  0.799060  0.869284  0.182637  1
  Si  Si26  1  0.130716  0.200940  0.317363  1
  Si  Si27  1  0.869284  0.799060  0.817363  1
  Si  Si28  1  0.292310  0.952928  0.066509  1
  Si  Si29  1  0.547072  0.792310  0.316509  1
  Si  Si30  1  0.452928  0.207690  0.816509  1
  Si  Si31  1  0.792310  0.547072  0.683491  1
  Si  Si32  1  0.207690  0.452928  0.183491  1
  Si  Si33  1  0.707690  0.047072  0.566509  1
  Si  Si34  1  0.952928  0.292310  0.933491  1
  Si  Si35  1  0.047072  0.707690  0.433491  1
