# generated using pymatgen
data_Ca2PuN3
_symmetry_space_group_name_H-M   'P 1'
_cell_length_a   6.02441044
_cell_length_b   6.02440792
_cell_length_c   6.03047552
_cell_angle_alpha   99.63392003
_cell_angle_beta   99.63390253
_cell_angle_gamma   119.95493076
_symmetry_Int_Tables_number   1
_chemical_formula_structural   Ca2PuN3
_chemical_formula_sum   'Ca4 Pu2 N6'
_cell_volume   178.70853247
_cell_formula_units_Z   2
loop_
 _symmetry_equiv_pos_site_id
 _symmetry_equiv_pos_as_xyz
  1  'x, y, z'
loop_
 _atom_site_type_symbol
 _atom_site_label
 _atom_site_symmetry_multiplicity
 _atom_site_fract_x
 _atom_site_fract_y
 _atom_site_fract_z
 _atom_site_occupancy
  Ca  Ca0  1  0.835714  0.164286  0.500000  1
  Ca  Ca1  1  0.164286  0.835714  0.500000  1
  Ca  Ca2  1  0.500000  0.500000  0.500000  1
  Ca  Ca3  1  0.000000  0.000000  0.000000  1
  Pu  Pu4  1  0.333257  0.666743  0.000000  1
  Pu  Pu5  1  0.666743  0.333257  0.000000  1
  N  N6  1  0.436329  0.071953  0.215457  1
  N  N7  1  0.928047  0.563671  0.784543  1
  N  N8  1  0.563671  0.928047  0.784543  1
  N  N9  1  0.071953  0.436329  0.215457  1
  N  N10  1  0.710715  0.710715  0.220143  1
  N  N11  1  0.289285  0.289285  0.779857  1
