# generated using pymatgen
data_Tm2Th(AlPt)4
_symmetry_space_group_name_H-M   'P 1'
_cell_length_a   8.19988954
_cell_length_b   8.19989004
_cell_length_c   8.19988900
_cell_angle_alpha   150.83586876
_cell_angle_beta   128.25361250
_cell_angle_gamma   60.50347497
_symmetry_Int_Tables_number   1
_chemical_formula_structural   Tm2Th(AlPt)4
_chemical_formula_sum   'Tm2 Th1 Al4 Pt4'
_cell_volume   209.30081164
_cell_formula_units_Z   1
loop_
 _symmetry_equiv_pos_site_id
 _symmetry_equiv_pos_as_xyz
  1  'x, y, z'
loop_
 _atom_site_type_symbol
 _atom_site_label
 _atom_site_symmetry_multiplicity
 _atom_site_fract_x
 _atom_site_fract_y
 _atom_site_fract_z
 _atom_site_occupancy
  Tm  Tm0  1  0.879499  0.879499  0.000000  1
  Tm  Tm1  1  0.120501  0.120501  0.000000  1
  Th  Th2  1  0.500000  0.000000  0.500000  1
  Al  Al3  1  0.480203  0.678520  0.801684  1
  Al  Al4  1  0.876835  0.678520  0.198316  1
  Al  Al5  1  0.123165  0.321480  0.801684  1
  Al  Al6  1  0.519797  0.321480  0.198316  1
  Pt  Pt7  1  0.280787  0.780787  0.500000  1
  Pt  Pt8  1  0.719213  0.219213  0.500000  1
  Pt  Pt9  1  0.794068  0.500000  0.294068  1
  Pt  Pt10  1  0.205932  0.500000  0.705932  1
