# generated using pymatgen
data_YbLu3(ReN3)4
_symmetry_space_group_name_H-M   'P 1'
_cell_length_a   7.30061886
_cell_length_b   7.30061967
_cell_length_c   6.20659010
_cell_angle_alpha   72.97481948
_cell_angle_beta   72.97480994
_cell_angle_gamma   81.88226883
_symmetry_Int_Tables_number   1
_chemical_formula_structural   YbLu3(ReN3)4
_chemical_formula_sum   'Yb1 Lu3 Re4 N12'
_cell_volume   301.88892558
_cell_formula_units_Z   1
loop_
 _symmetry_equiv_pos_site_id
 _symmetry_equiv_pos_as_xyz
  1  'x, y, z'
loop_
 _atom_site_type_symbol
 _atom_site_label
 _atom_site_symmetry_multiplicity
 _atom_site_fract_x
 _atom_site_fract_y
 _atom_site_fract_z
 _atom_site_occupancy
  Yb  Yb0  1  0.709242  0.290758  0.250000  1
  Lu  Lu1  1  0.911243  0.088757  0.750000  1
  Lu  Lu2  1  0.286447  0.713553  0.750000  1
  Lu  Lu3  1  0.090620  0.909380  0.250000  1
  Re  Re4  1  0.620684  0.796273  0.275984  1
  Re  Re5  1  0.203727  0.379316  0.224016  1
  Re  Re6  1  0.379945  0.201295  0.725594  1
  Re  Re7  1  0.798705  0.620055  0.774406  1
  N  N8  1  0.336959  0.370662  0.918038  1
  N  N9  1  0.011805  0.212886  0.346108  1
  N  N10  1  0.787114  0.988195  0.153892  1
  N  N11  1  0.217460  0.000995  0.842460  1
  N  N12  1  0.659826  0.640365  0.072575  1
  N  N13  1  0.880208  0.373247  0.825216  1
  N  N14  1  0.122654  0.631370  0.160783  1
  N  N15  1  0.999005  0.782540  0.657540  1
  N  N16  1  0.368630  0.877346  0.339217  1
  N  N17  1  0.629338  0.663041  0.581962  1
  N  N18  1  0.626753  0.119792  0.674784  1
  N  N19  1  0.359635  0.340174  0.427425  1
