# generated using pymatgen
data_Y2HoV(Co4P3)2
_symmetry_space_group_name_H-M   'P 1'
_cell_length_a   3.69305100
_cell_length_b   10.55256700
_cell_length_c   12.22339100
_cell_angle_alpha   90.00000000
_cell_angle_beta   90.00000000
_cell_angle_gamma   90.00000000
_symmetry_Int_Tables_number   1
_chemical_formula_structural   Y2HoV(Co4P3)2
_chemical_formula_sum   'Y4 Ho2 V2 Co16 P12'
_cell_volume   476.35982556
_cell_formula_units_Z   2
loop_
 _symmetry_equiv_pos_site_id
 _symmetry_equiv_pos_as_xyz
  1  'x, y, z'
loop_
 _atom_site_type_symbol
 _atom_site_label
 _atom_site_symmetry_multiplicity
 _atom_site_fract_x
 _atom_site_fract_y
 _atom_site_fract_z
 _atom_site_occupancy
  Y  Y0  1  0.000000  0.500000  0.523427  1
  Y  Y1  1  0.500000  0.000000  0.476629  1
  Y  Y2  1  0.000000  0.681541  0.795422  1
  Y  Y3  1  0.000000  0.318459  0.795422  1
  Ho  Ho4  1  0.500000  0.818424  0.204490  1
  Ho  Ho5  1  0.500000  0.181576  0.204490  1
  V  V6  1  0.500000  0.500000  0.153905  1
  V  V7  1  0.000000  0.000000  0.846140  1
  Co  Co8  1  0.500000  0.500000  0.701907  1
  Co  Co9  1  0.000000  0.000000  0.297719  1
  Co  Co10  1  0.000000  0.500000  0.986844  1
  Co  Co11  1  0.500000  0.000000  0.013411  1
  Co  Co12  1  0.500000  0.332455  0.993017  1
  Co  Co13  1  0.500000  0.667545  0.993017  1
  Co  Co14  1  0.000000  0.167442  0.007307  1
  Co  Co15  1  0.000000  0.832558  0.007307  1
  Co  Co16  1  0.500000  0.295906  0.431022  1
  Co  Co17  1  0.500000  0.704094  0.431022  1
  Co  Co18  1  0.000000  0.204027  0.568837  1
  Co  Co19  1  0.000000  0.795973  0.568837  1
  Co  Co20  1  0.500000  0.879042  0.707848  1
  Co  Co21  1  0.500000  0.120958  0.707848  1
  Co  Co22  1  0.000000  0.621219  0.292010  1
  Co  Co23  1  0.000000  0.378781  0.292010  1
  P  P24  1  0.500000  0.500000  0.882012  1
  P  P25  1  0.000000  0.000000  0.118292  1
  P  P26  1  0.500000  0.500000  0.346602  1
  P  P27  1  0.000000  0.000000  0.653376  1
  P  P28  1  0.500000  0.310832  0.615888  1
  P  P29  1  0.500000  0.689168  0.615888  1
  P  P30  1  0.000000  0.189156  0.383791  1
  P  P31  1  0.000000  0.810844  0.383791  1
  P  P32  1  0.500000  0.846302  0.892382  1
  P  P33  1  0.500000  0.153698  0.892382  1
  P  P34  1  0.000000  0.654064  0.107855  1
  P  P35  1  0.000000  0.345936  0.107855  1
