# generated using pymatgen
data_Ho2Er2FeSi4Ir
_symmetry_space_group_name_H-M   'P 1'
_cell_length_a   5.64237975
_cell_length_b   5.64238055
_cell_length_c   9.99008850
_cell_angle_alpha   63.13948893
_cell_angle_beta   63.13948361
_cell_angle_gamma   43.37834335
_symmetry_Int_Tables_number   1
_chemical_formula_structural   Ho2Er2FeSi4Ir
_chemical_formula_sum   'Ho2 Er2 Fe1 Si4 Ir1'
_cell_volume   190.87790729
_cell_formula_units_Z   1
loop_
 _symmetry_equiv_pos_site_id
 _symmetry_equiv_pos_as_xyz
  1  'x, y, z'
loop_
 _atom_site_type_symbol
 _atom_site_label
 _atom_site_symmetry_multiplicity
 _atom_site_fract_x
 _atom_site_fract_y
 _atom_site_fract_z
 _atom_site_occupancy
  Ho  Ho0  1  0.813493  0.813493  0.107063  1
  Ho  Ho1  1  0.185712  0.185712  0.890243  1
  Er  Er2  1  0.004683  0.004683  0.323451  1
  Er  Er3  1  0.997687  0.997687  0.673561  1
  Fe  Fe4  1  0.271995  0.271995  0.379731  1
  Si  Si5  1  0.651575  0.651575  0.430928  1
  Si  Si6  1  0.359917  0.359917  0.558114  1
  Si  Si7  1  0.499267  0.499267  0.129829  1
  Si  Si8  1  0.487723  0.487723  0.879045  1
  Ir  Ir9  1  0.727947  0.727947  0.628035  1
