# generated using pymatgen
data_Cs6NbVTe8
_symmetry_space_group_name_H-M   'P 1'
_cell_length_a   11.14164400
_cell_length_b   11.18653800
_cell_length_c   13.08959300
_cell_angle_alpha   90.00000000
_cell_angle_beta   90.00000000
_cell_angle_gamma   90.00000000
_symmetry_Int_Tables_number   1
_chemical_formula_structural   Cs6NbVTe8
_chemical_formula_sum   'Cs12 Nb2 V2 Te16'
_cell_volume   1631.44006298
_cell_formula_units_Z   2
loop_
 _symmetry_equiv_pos_site_id
 _symmetry_equiv_pos_as_xyz
  1  'x, y, z'
loop_
 _atom_site_type_symbol
 _atom_site_label
 _atom_site_symmetry_multiplicity
 _atom_site_fract_x
 _atom_site_fract_y
 _atom_site_fract_z
 _atom_site_occupancy
  Cs  Cs0  1  0.546942  0.208684  0.046476  1
  Cs  Cs1  1  0.046942  0.291316  0.453524  1
  Cs  Cs2  1  0.453007  0.792647  0.540229  1
  Cs  Cs3  1  0.953007  0.707353  0.959771  1
  Cs  Cs4  1  0.453007  0.792647  0.959771  1
  Cs  Cs5  1  0.953007  0.707353  0.540229  1
  Cs  Cs6  1  0.546942  0.208684  0.453524  1
  Cs  Cs7  1  0.046942  0.291316  0.046476  1
  Cs  Cs8  1  0.645022  0.410401  0.750000  1
  Cs  Cs9  1  0.145022  0.089599  0.750000  1
  Cs  Cs10  1  0.354914  0.584790  0.250000  1
  Cs  Cs11  1  0.854914  0.915210  0.250000  1
  Nb  Nb12  1  0.722430  0.983194  0.750000  1
  Nb  Nb13  1  0.222430  0.516806  0.750000  1
  V  V14  1  0.278027  0.016565  0.250000  1
  V  V15  1  0.778027  0.483435  0.250000  1
  Te  Te16  1  0.835999  0.050617  0.583368  1
  Te  Te17  1  0.335999  0.449383  0.916632  1
  Te  Te18  1  0.168686  0.950713  0.092066  1
  Te  Te19  1  0.668686  0.549287  0.407934  1
  Te  Te20  1  0.168686  0.950713  0.407934  1
  Te  Te21  1  0.668686  0.549287  0.092066  1
  Te  Te22  1  0.835999  0.050617  0.916632  1
  Te  Te23  1  0.335999  0.449383  0.583368  1
  Te  Te24  1  0.503721  0.073921  0.750000  1
  Te  Te25  1  0.003721  0.426079  0.750000  1
  Te  Te26  1  0.487837  0.929530  0.250000  1
  Te  Te27  1  0.987837  0.570470  0.250000  1
  Te  Te28  1  0.707308  0.748323  0.750000  1
  Te  Te29  1  0.207308  0.751677  0.750000  1
  Te  Te30  1  0.291474  0.241763  0.250000  1
  Te  Te31  1  0.791474  0.258237  0.250000  1
