# generated using pymatgen
data_Dy4ScPa2Fe7(Co5P6)2
_symmetry_space_group_name_H-M   'P 1'
_cell_length_a   3.71870600
_cell_length_b   10.58327600
_cell_length_c   12.19185800
_cell_angle_alpha   90.00000000
_cell_angle_beta   90.00000000
_cell_angle_gamma   90.00000000
_symmetry_Int_Tables_number   1
_chemical_formula_structural   Dy4ScPa2Fe7(Co5P6)2
_chemical_formula_sum   'Dy4 Sc1 Pa2 Fe7 Co10 P12'
_cell_volume   479.82388462
_cell_formula_units_Z   1
loop_
 _symmetry_equiv_pos_site_id
 _symmetry_equiv_pos_as_xyz
  1  'x, y, z'
loop_
 _atom_site_type_symbol
 _atom_site_label
 _atom_site_symmetry_multiplicity
 _atom_site_fract_x
 _atom_site_fract_y
 _atom_site_fract_z
 _atom_site_occupancy
  Dy  Dy0  1  0.500000  0.820208  0.204385  1
  Dy  Dy1  1  0.500000  0.179792  0.204385  1
  Dy  Dy2  1  0.000000  0.684382  0.795287  1
  Dy  Dy3  1  0.000000  0.315618  0.795287  1
  Sc  Sc4  1  0.500000  0.500000  0.152307  1
  Pa  Pa5  1  0.000000  0.500000  0.534657  1
  Pa  Pa6  1  0.500000  0.000000  0.472115  1
  Fe  Fe7  1  0.000000  0.000000  0.842536  1
  Fe  Fe8  1  0.000000  0.500000  0.982271  1
  Fe  Fe9  1  0.500000  0.000000  0.009131  1
  Fe  Fe10  1  0.000000  0.163652  0.000643  1
  Fe  Fe11  1  0.000000  0.836348  0.000643  1
  Fe  Fe12  1  0.000000  0.197032  0.570739  1
  Fe  Fe13  1  0.000000  0.802968  0.570739  1
  Co  Co14  1  0.500000  0.500000  0.695846  1
  Co  Co15  1  0.000000  0.000000  0.303136  1
  Co  Co16  1  0.500000  0.328154  0.990326  1
  Co  Co17  1  0.500000  0.671846  0.990326  1
  Co  Co18  1  0.500000  0.297573  0.434750  1
  Co  Co19  1  0.500000  0.702427  0.434750  1
  Co  Co20  1  0.500000  0.882530  0.710745  1
  Co  Co21  1  0.500000  0.117470  0.710745  1
  Co  Co22  1  0.000000  0.621590  0.296406  1
  Co  Co23  1  0.000000  0.378410  0.296406  1
  P  P24  1  0.500000  0.500000  0.882985  1
  P  P25  1  0.000000  0.000000  0.114637  1
  P  P26  1  0.500000  0.500000  0.357613  1
  P  P27  1  0.000000  0.000000  0.656996  1
  P  P28  1  0.500000  0.302762  0.617497  1
  P  P29  1  0.500000  0.697238  0.617497  1
  P  P30  1  0.000000  0.193190  0.385889  1
  P  P31  1  0.000000  0.806810  0.385889  1
  P  P32  1  0.500000  0.849165  0.892254  1
  P  P33  1  0.500000  0.150835  0.892254  1
  P  P34  1  0.000000  0.662103  0.098965  1
  P  P35  1  0.000000  0.337897  0.098965  1
