# generated using pymatgen
data_La2MnCd(BO2)10
_symmetry_space_group_name_H-M   'P 1'
_cell_length_a   8.87972180
_cell_length_b   7.89438900
_cell_length_c   9.66445594
_cell_angle_alpha   90.00000000
_cell_angle_beta   91.29828517
_cell_angle_gamma   90.00000000
_symmetry_Int_Tables_number   1
_chemical_formula_structural   La2MnCd(BO2)10
_chemical_formula_sum   'La4 Mn2 Cd2 B20 O40'
_cell_volume   677.30423269
_cell_formula_units_Z   2
loop_
 _symmetry_equiv_pos_site_id
 _symmetry_equiv_pos_as_xyz
  1  'x, y, z'
loop_
 _atom_site_type_symbol
 _atom_site_label
 _atom_site_symmetry_multiplicity
 _atom_site_fract_x
 _atom_site_fract_y
 _atom_site_fract_z
 _atom_site_occupancy
  La  La0  1  0.191254  0.179692  0.234799  1
  La  La1  1  0.308746  0.679692  0.265200  1
  La  La2  1  0.690074  0.319183  0.736240  1
  La  La3  1  0.809926  0.819184  0.763760  1
  Mn  Mn4  1  0.611713  0.407841  0.127588  1
  Mn  Mn5  1  0.888287  0.907840  0.372412  1
  Cd  Cd6  1  0.105883  0.088521  0.620659  1
  Cd  Cd7  1  0.394117  0.588520  0.879342  1
  B  B8  1  0.147216  0.398383  0.000635  1
  B  B9  1  0.781905  0.031092  0.056542  1
  B  B10  1  0.571214  0.821175  0.094056  1
  B  B11  1  0.013638  0.827281  0.102803  1
  B  B12  1  0.586494  0.080312  0.241877  1
  B  B13  1  0.913506  0.580311  0.258124  1
  B  B14  1  0.486362  0.327281  0.397197  1
  B  B15  1  0.928788  0.321175  0.405945  1
  B  B16  1  0.718094  0.531092  0.443458  1
  B  B17  1  0.352784  0.898383  0.499366  1
  B  B18  1  0.651713  0.102575  0.499327  1
  B  B19  1  0.282567  0.470420  0.555886  1
  B  B20  1  0.066150  0.675990  0.586784  1
  B  B21  1  0.515803  0.673366  0.601825  1
  B  B22  1  0.083929  0.422134  0.742015  1
  B  B23  1  0.416071  0.922134  0.757986  1
  B  B24  1  0.984196  0.173366  0.898174  1
  B  B25  1  0.433850  0.175989  0.913216  1
  B  B26  1  0.217433  0.970420  0.944115  1
  B  B27  1  0.848286  0.602575  0.000675  1
  O  O28  1  0.686748  0.878621  0.013780  1
  O  O29  1  0.041495  0.270569  0.018250  1
  O  O30  1  0.507461  0.661575  0.083253  1
  O  O31  1  0.169202  0.891473  0.078440  1
  O  O32  1  0.233204  0.449662  0.111323  1
  O  O33  1  0.825055  0.535210  0.129857  1
  O  O34  1  0.913152  0.969515  0.142275  1
  O  O35  1  0.690018  0.146368  0.138026  1
  O  O36  1  0.510192  0.923591  0.194672  1
  O  O37  1  0.026148  0.715570  0.229204  1
  O  O38  1  0.473852  0.215570  0.270797  1
  O  O39  1  0.989808  0.423593  0.305329  1
  O  O40  1  0.809982  0.646369  0.361973  1
  O  O41  1  0.586848  0.469516  0.357725  1
  O  O42  1  0.674944  0.035210  0.370143  1
  O  O43  1  0.266796  0.949661  0.388677  1
  O  O44  1  0.330798  0.391473  0.421560  1
  O  O45  1  0.992539  0.161576  0.416746  1
  O  O46  1  0.458505  0.770568  0.481750  1
  O  O47  1  0.813253  0.378622  0.486220  1
  O  O48  1  0.187115  0.621835  0.511718  1
  O  O49  1  0.544244  0.229039  0.516485  1
  O  O50  1  0.994536  0.829804  0.566748  1
  O  O51  1  0.670400  0.608113  0.578258  1
  O  O52  1  0.735526  0.051455  0.611478  1
  O  O53  1  0.331814  0.965681  0.628561  1
  O  O54  1  0.415559  0.530290  0.639469  1
  O  O55  1  0.189640  0.358439  0.638833  1
  O  O56  1  0.008349  0.578330  0.692330  1
  O  O57  1  0.528966  0.786894  0.727918  1
  O  O58  1  0.971033  0.286893  0.772083  1
  O  O59  1  0.491651  0.078329  0.807671  1
  O  O60  1  0.310360  0.858438  0.861167  1
  O  O61  1  0.084441  0.030290  0.860530  1
  O  O62  1  0.168186  0.465682  0.871439  1
  O  O63  1  0.764474  0.551456  0.888522  1
  O  O64  1  0.829600  0.108113  0.921742  1
  O  O65  1  0.505464  0.329804  0.933253  1
  O  O66  1  0.955756  0.729039  0.983515  1
  O  O67  1  0.312886  0.121834  0.988281  1
