# generated using pymatgen
data_Hf3NbFe2(B2Ru5)2
_symmetry_space_group_name_H-M   'P 1'
_cell_length_a   9.31896561
_cell_length_b   9.31896623
_cell_length_c   3.04691600
_cell_angle_alpha   90.00000000
_cell_angle_beta   90.00000000
_cell_angle_gamma   90.00807272
_symmetry_Int_Tables_number   1
_chemical_formula_structural   Hf3NbFe2(B2Ru5)2
_chemical_formula_sum   'Hf3 Nb1 Fe2 B4 Ru10'
_cell_volume   264.60370695
_cell_formula_units_Z   1
loop_
 _symmetry_equiv_pos_site_id
 _symmetry_equiv_pos_as_xyz
  1  'x, y, z'
loop_
 _atom_site_type_symbol
 _atom_site_label
 _atom_site_symmetry_multiplicity
 _atom_site_fract_x
 _atom_site_fract_y
 _atom_site_fract_z
 _atom_site_occupancy
  Hf  Hf0  1  0.823922  0.677247  0.000000  1
  Hf  Hf1  1  0.177247  0.323922  0.000000  1
  Hf  Hf2  1  0.323170  0.823170  0.000000  1
  Nb  Nb3  1  0.677539  0.177539  0.000000  1
  Fe  Fe4  1  0.499621  0.500546  0.000000  1
  Fe  Fe5  1  0.000546  0.999621  0.000000  1
  B  B6  1  0.623981  0.875952  0.000000  1
  B  B7  1  0.375952  0.123981  0.000000  1
  B  B8  1  0.123514  0.623514  0.000000  1
  B  B9  1  0.875617  0.375617  0.000000  1
  Ru  Ru10  1  0.571128  0.713689  0.500000  1
  Ru  Ru11  1  0.432709  0.285651  0.500000  1
  Ru  Ru12  1  0.070121  0.786277  0.500000  1
  Ru  Ru13  1  0.925481  0.211879  0.500000  1
  Ru  Ru14  1  0.286277  0.570121  0.500000  1
  Ru  Ru15  1  0.711879  0.425481  0.500000  1
  Ru  Ru16  1  0.213689  0.071128  0.500000  1
  Ru  Ru17  1  0.785651  0.932709  0.500000  1
  Ru  Ru18  1  0.502687  0.002687  0.500000  1
  Ru  Ru19  1  0.999266  0.499266  0.500000  1
