# generated using pymatgen
data_Tb2Er2GaSe3
_symmetry_space_group_name_H-M   'P 1'
_cell_length_a   7.09516720
_cell_length_b   7.09516864
_cell_length_c   7.09516700
_cell_angle_alpha   131.90384507
_cell_angle_beta   131.90385555
_cell_angle_gamma   70.38092757
_symmetry_Int_Tables_number   1
_chemical_formula_structural   Tb2Er2GaSe3
_chemical_formula_sum   'Tb2 Er2 Ga1 Se3'
_cell_volume   193.89191271
_cell_formula_units_Z   1
loop_
 _symmetry_equiv_pos_site_id
 _symmetry_equiv_pos_as_xyz
  1  'x, y, z'
loop_
 _atom_site_type_symbol
 _atom_site_label
 _atom_site_symmetry_multiplicity
 _atom_site_fract_x
 _atom_site_fract_y
 _atom_site_fract_z
 _atom_site_occupancy
  Tb  Tb0  1  0.247300  0.247300  0.000000  1
  Tb  Tb1  1  0.752700  0.752700  0.000000  1
  Er  Er2  1  0.500001  0.000000  0.500001  1
  Er  Er3  1  0.000000  0.500001  0.500001  1
  Ga  Ga4  1  0.000000  0.000000  0.000000  1
  Se  Se5  1  0.500000  0.500000  0.000000  1
  Se  Se6  1  0.750001  0.250000  0.500001  1
  Se  Se7  1  0.250000  0.750001  0.500001  1
