# generated using pymatgen
data_ZnFeAg2F7
_symmetry_space_group_name_H-M   'P 1'
_cell_length_a   7.60427798
_cell_length_b   7.60427852
_cell_length_c   7.60427790
_cell_angle_alpha   120.39154771
_cell_angle_beta   118.91103622
_cell_angle_gamma   90.60977805
_symmetry_Int_Tables_number   1
_chemical_formula_structural   ZnFeAg2F7
_chemical_formula_sum   'Zn2 Fe2 Ag4 F14'
_cell_volume   312.48267162
_cell_formula_units_Z   2
loop_
 _symmetry_equiv_pos_site_id
 _symmetry_equiv_pos_as_xyz
  1  'x, y, z'
loop_
 _atom_site_type_symbol
 _atom_site_label
 _atom_site_symmetry_multiplicity
 _atom_site_fract_x
 _atom_site_fract_y
 _atom_site_fract_z
 _atom_site_occupancy
  Zn  Zn0  1  0.500000  0.000000  0.500000  1
  Zn  Zn1  1  0.000000  0.500000  0.500000  1
  Fe  Fe2  1  0.000000  0.000000  0.500000  1
  Fe  Fe3  1  0.000000  0.500000  0.000000  1
  Ag  Ag4  1  0.000000  0.000000  0.000000  1
  Ag  Ag5  1  0.500000  0.500000  0.000000  1
  Ag  Ag6  1  0.500000  0.000000  0.000000  1
  Ag  Ag7  1  0.500000  0.500000  0.500000  1
  F  F8  1  0.367689  0.096016  0.271672  1
  F  F9  1  0.675655  0.403984  0.271672  1
  F  F10  1  0.700821  0.320992  0.777687  1
  F  F11  1  0.956695  0.179008  0.379829  1
  F  F12  1  0.956695  0.576867  0.777687  1
  F  F13  1  0.700821  0.923133  0.379829  1
  F  F14  1  0.299179  0.076867  0.620171  1
  F  F15  1  0.043305  0.423133  0.222313  1
  F  F16  1  0.043305  0.820992  0.620171  1
  F  F17  1  0.299179  0.679008  0.222313  1
  F  F18  1  0.918549  0.750000  0.168549  1
  F  F19  1  0.632311  0.903984  0.728328  1
  F  F20  1  0.324345  0.596016  0.728328  1
  F  F21  1  0.081451  0.250000  0.831451  1
