# generated using pymatgen
data_Dy4Al4IrPt3
_symmetry_space_group_name_H-M   'P 1'
_cell_length_a   4.42368800
_cell_length_b   6.84559072
_cell_length_c   7.78623686
_cell_angle_alpha   90.05322787
_cell_angle_beta   90.00000000
_cell_angle_gamma   90.00000000
_symmetry_Int_Tables_number   1
_chemical_formula_structural   Dy4Al4IrPt3
_chemical_formula_sum   'Dy4 Al4 Ir1 Pt3'
_cell_volume   235.78862112
_cell_formula_units_Z   1
loop_
 _symmetry_equiv_pos_site_id
 _symmetry_equiv_pos_as_xyz
  1  'x, y, z'
loop_
 _atom_site_type_symbol
 _atom_site_label
 _atom_site_symmetry_multiplicity
 _atom_site_fract_x
 _atom_site_fract_y
 _atom_site_fract_z
 _atom_site_occupancy
  Dy  Dy0  1  0.250000  0.470059  0.180677  1
  Dy  Dy1  1  0.750000  0.531984  0.817108  1
  Dy  Dy2  1  0.750000  0.024687  0.680392  1
  Dy  Dy3  1  0.250000  0.966825  0.321032  1
  Al  Al4  1  0.250000  0.852888  0.935733  1
  Al  Al5  1  0.750000  0.146026  0.061725  1
  Al  Al6  1  0.750000  0.645604  0.438685  1
  Al  Al7  1  0.250000  0.359338  0.563562  1
  Ir  Ir8  1  0.250000  0.731161  0.617686  1
  Pt  Pt9  1  0.750000  0.271761  0.382053  1
  Pt  Pt10  1  0.750000  0.772872  0.118381  1
  Pt  Pt11  1  0.250000  0.226795  0.882965  1
