# generated using pymatgen
data_Ho4Al16Si2IrRh5
_symmetry_space_group_name_H-M   'P 1'
_cell_length_a   7.51918099
_cell_length_b   7.51918189
_cell_length_c   9.34215202
_cell_angle_alpha   89.99606225
_cell_angle_beta   89.99606042
_cell_angle_gamma   119.50617094
_symmetry_Int_Tables_number   1
_chemical_formula_structural   Ho4Al16Si2IrRh5
_chemical_formula_sum   'Ho4 Al16 Si2 Ir1 Rh5'
_cell_volume   459.68291631
_cell_formula_units_Z   1
loop_
 _symmetry_equiv_pos_site_id
 _symmetry_equiv_pos_as_xyz
  1  'x, y, z'
loop_
 _atom_site_type_symbol
 _atom_site_label
 _atom_site_symmetry_multiplicity
 _atom_site_fract_x
 _atom_site_fract_y
 _atom_site_fract_z
 _atom_site_occupancy
  Ho  Ho0  1  0.994817  0.675233  0.250086  1
  Ho  Ho1  1  0.004798  0.324297  0.749836  1
  Ho  Ho2  1  0.675703  0.995202  0.250164  1
  Ho  Ho3  1  0.324767  0.005183  0.749914  1
  Al  Al4  1  0.001473  0.336305  0.076768  1
  Al  Al5  1  0.999034  0.663856  0.923191  1
  Al  Al6  1  0.999183  0.663921  0.576880  1
  Al  Al7  1  0.336079  0.000817  0.423120  1
  Al  Al8  1  0.002050  0.336510  0.423090  1
  Al  Al9  1  0.663490  0.997950  0.576910  1
  Al  Al10  1  0.663695  0.998527  0.923232  1
  Al  Al11  1  0.336144  0.000966  0.076809  1
  Al  Al12  1  0.335253  0.335631  0.557009  1
  Al  Al13  1  0.664369  0.664747  0.442991  1
  Al  Al14  1  0.664393  0.664534  0.057104  1
  Al  Al15  1  0.335466  0.335607  0.942896  1
  Al  Al16  1  0.334784  0.549658  0.249894  1
  Al  Al17  1  0.665003  0.451424  0.750829  1
  Al  Al18  1  0.548576  0.334997  0.249171  1
  Al  Al19  1  0.450342  0.665216  0.750106  1
  Si  Si20  1  0.128043  0.127945  0.250012  1
  Si  Si21  1  0.872055  0.871957  0.749988  1
  Ir  Ir22  1  0.672015  0.327985  0.500000  1
  Rh  Rh23  1  0.671983  0.328017  0.000000  1
  Rh  Rh24  1  0.328148  0.671852  0.000000  1
  Rh  Rh25  1  0.328176  0.671824  0.500000  1
  Rh  Rh26  1  0.000091  0.999909  0.000000  1
  Rh  Rh27  1  0.000070  0.999930  0.500000  1
