# generated using pymatgen
data_K2AgAuO2
_symmetry_space_group_name_H-M   'P 1'
_cell_length_a   7.58403276
_cell_length_b   7.58403293
_cell_length_c   7.58403311
_cell_angle_alpha   97.56324438
_cell_angle_beta   98.02118988
_cell_angle_gamma   136.78925968
_symmetry_Int_Tables_number   1
_chemical_formula_structural   K2AgAuO2
_chemical_formula_sum   'K4 Ag2 Au2 O4'
_cell_volume   277.68249520
_cell_formula_units_Z   2
loop_
 _symmetry_equiv_pos_site_id
 _symmetry_equiv_pos_as_xyz
  1  'x, y, z'
loop_
 _atom_site_type_symbol
 _atom_site_label
 _atom_site_symmetry_multiplicity
 _atom_site_fract_x
 _atom_site_fract_y
 _atom_site_fract_z
 _atom_site_occupancy
  K  K0  1  0.500819  0.181703  0.682522  1
  K  K1  1  0.500819  0.818297  0.319116  1
  K  K2  1  0.818205  0.500000  0.318205  1
  K  K3  1  0.182143  0.500000  0.682143  1
  Ag  Ag4  1  0.849495  0.851129  0.700624  1
  Ag  Ag5  1  0.849495  0.148871  0.998366  1
  Au  Au6  1  0.150364  0.152411  0.302775  1
  Au  Au7  1  0.150364  0.847589  0.997953  1
  O  O8  1  0.291038  0.000000  0.291038  1
  O  O9  1  0.002398  0.705193  0.707591  1
  O  O10  1  0.002398  0.294807  0.297205  1
  O  O11  1  0.702462  0.000000  0.702462  1
