# generated using pymatgen
data_Sc3TiCo2
_symmetry_space_group_name_H-M   'P 1'
_cell_length_a   8.34255203
_cell_length_b   8.34255257
_cell_length_c   8.34255300
_cell_angle_alpha   60.00000227
_cell_angle_beta   60.00000012
_cell_angle_gamma   60.00000452
_symmetry_Int_Tables_number   1
_chemical_formula_structural   Sc3TiCo2
_chemical_formula_sum   'Sc12 Ti4 Co8'
_cell_volume   410.56495432
_cell_formula_units_Z   4
loop_
 _symmetry_equiv_pos_site_id
 _symmetry_equiv_pos_as_xyz
  1  'x, y, z'
loop_
 _atom_site_type_symbol
 _atom_site_label
 _atom_site_symmetry_multiplicity
 _atom_site_fract_x
 _atom_site_fract_y
 _atom_site_fract_z
 _atom_site_occupancy
  Sc  Sc0  1  0.810004  0.810004  0.189996  1
  Sc  Sc1  1  0.189996  0.189996  0.810004  1
  Sc  Sc2  1  0.810004  0.189996  0.810004  1
  Sc  Sc3  1  0.189996  0.810004  0.189996  1
  Sc  Sc4  1  0.189996  0.810004  0.810004  1
  Sc  Sc5  1  0.810004  0.189996  0.189996  1
  Sc  Sc6  1  0.439996  0.439996  0.060004  1
  Sc  Sc7  1  0.060004  0.060004  0.439996  1
  Sc  Sc8  1  0.439996  0.060004  0.439996  1
  Sc  Sc9  1  0.060004  0.439996  0.060004  1
  Sc  Sc10  1  0.060004  0.439996  0.439996  1
  Sc  Sc11  1  0.439996  0.060004  0.060004  1
  Ti  Ti12  1  0.125000  0.625000  0.625000  1
  Ti  Ti13  1  0.625000  0.125000  0.625000  1
  Ti  Ti14  1  0.625000  0.625000  0.125000  1
  Ti  Ti15  1  0.625000  0.625000  0.625000  1
  Co  Co16  1  0.741728  0.419424  0.419424  1
  Co  Co17  1  0.419424  0.741728  0.419424  1
  Co  Co18  1  0.419424  0.419424  0.741728  1
  Co  Co19  1  0.419424  0.419424  0.419424  1
  Co  Co20  1  0.508272  0.830576  0.830576  1
  Co  Co21  1  0.830576  0.508272  0.830576  1
  Co  Co22  1  0.830576  0.830576  0.508272  1
  Co  Co23  1  0.830576  0.830576  0.830576  1
