# generated using pymatgen
data_Ce2Th(InIr)3
_symmetry_space_group_name_H-M   'P 1'
_cell_length_a   7.70735100
_cell_length_b   7.60590781
_cell_length_c   4.01460500
_cell_angle_alpha   90.00000000
_cell_angle_beta   90.00000000
_cell_angle_gamma   120.44218347
_symmetry_Int_Tables_number   1
_chemical_formula_structural   Ce2Th(InIr)3
_chemical_formula_sum   'Ce2 Th1 In3 Ir3'
_cell_volume   202.89775926
_cell_formula_units_Z   1
loop_
 _symmetry_equiv_pos_site_id
 _symmetry_equiv_pos_as_xyz
  1  'x, y, z'
loop_
 _atom_site_type_symbol
 _atom_site_label
 _atom_site_symmetry_multiplicity
 _atom_site_fract_x
 _atom_site_fract_y
 _atom_site_fract_z
 _atom_site_occupancy
  Ce  Ce0  1  0.001161  0.411224  0.500000  1
  Ce  Ce1  1  0.589936  0.588776  0.500000  1
  Th  Th2  1  0.413333  0.000000  0.500000  1
  In  In3  1  0.754491  0.000000  0.000000  1
  In  In4  1  0.994127  0.743024  0.000000  1
  In  In5  1  0.251104  0.256976  0.000000  1
  Ir  Ir6  1  0.332591  0.673636  0.000000  1
  Ir  Ir7  1  0.658956  0.326364  0.000000  1
  Ir  Ir8  1  0.004301  0.000000  0.500000  1
