# generated using pymatgen
data_Tb3Er3Al24PdRu7
_symmetry_space_group_name_H-M   'P 1'
_cell_length_a   8.81036229
_cell_length_b   8.81036034
_cell_length_c   9.55612020
_cell_angle_alpha   89.82122695
_cell_angle_beta   90.17877425
_cell_angle_gamma   119.69881128
_symmetry_Int_Tables_number   1
_chemical_formula_structural   Tb3Er3Al24PdRu7
_chemical_formula_sum   'Tb3 Er3 Al24 Pd1 Ru7'
_cell_volume   644.32789913
_cell_formula_units_Z   1
loop_
 _symmetry_equiv_pos_site_id
 _symmetry_equiv_pos_as_xyz
  1  'x, y, z'
loop_
 _atom_site_type_symbol
 _atom_site_label
 _atom_site_symmetry_multiplicity
 _atom_site_fract_x
 _atom_site_fract_y
 _atom_site_fract_z
 _atom_site_occupancy
  Tb  Tb0  1  0.613785  0.808802  0.750532  1
  Tb  Tb1  1  0.193828  0.806172  0.752452  1
  Tb  Tb2  1  0.191198  0.386215  0.750532  1
  Er  Er3  1  0.387562  0.191845  0.249293  1
  Er  Er4  1  0.805487  0.194513  0.247363  1
  Er  Er5  1  0.808155  0.612438  0.249293  1
  Al  Al6  1  0.439884  0.878824  0.251144  1
  Al  Al7  1  0.121176  0.560116  0.251144  1
  Al  Al8  1  0.438708  0.561292  0.247948  1
  Al  Al9  1  0.560956  0.122974  0.748643  1
  Al  Al10  1  0.877026  0.439044  0.748643  1
  Al  Al11  1  0.562101  0.437899  0.752619  1
  Al  Al12  1  0.162524  0.837476  0.421563  1
  Al  Al13  1  0.155862  0.322393  0.419716  1
  Al  Al14  1  0.677607  0.844138  0.419716  1
  Al  Al15  1  0.837038  0.162962  0.576049  1
  Al  Al16  1  0.843609  0.676932  0.578094  1
  Al  Al17  1  0.323068  0.156391  0.578094  1
  Al  Al18  1  0.837195  0.162805  0.922424  1
  Al  Al19  1  0.836957  0.675563  0.922813  1
  Al  Al20  1  0.324437  0.163043  0.922813  1
  Al  Al21  1  0.162448  0.837552  0.079828  1
  Al  Al22  1  0.162957  0.323673  0.079522  1
  Al  Al23  1  0.676327  0.837043  0.079522  1
  Al  Al24  1  0.330195  0.669805  0.519106  1
  Al  Al25  1  0.669690  0.330310  0.478065  1
  Al  Al26  1  0.666709  0.333291  0.017170  1
  Al  Al27  1  0.333408  0.666592  0.985277  1
  Al  Al28  1  0.000689  0.999311  0.249969  1
  Al  Al29  1  0.999305  0.000695  0.750145  1
  Pd  Pd30  1  0.500279  0.499721  0.499471  1
  Ru  Ru31  1  0.999997  0.000003  0.499831  1
  Ru  Ru32  1  0.000003  0.999997  0.000249  1
  Ru  Ru33  1  0.500333  0.000752  0.499091  1
  Ru  Ru34  1  0.999248  0.499667  0.499091  1
  Ru  Ru35  1  0.500489  0.000645  0.000878  1
  Ru  Ru36  1  0.999355  0.499511  0.000878  1
  Ru  Ru37  1  0.500402  0.499598  0.001018  1
