# generated using pymatgen
data_GaBiCl6
_symmetry_space_group_name_H-M   'P 1'
_cell_length_a   12.24167700
_cell_length_b   7.98764501
_cell_length_c   11.00088473
_cell_angle_alpha   82.02484009
_cell_angle_beta   90.00000000
_cell_angle_gamma   90.00000000
_symmetry_Int_Tables_number   1
_chemical_formula_structural   GaBiCl6
_chemical_formula_sum   'Ga4 Bi4 Cl24'
_cell_volume   1065.28664248
_cell_formula_units_Z   4
loop_
 _symmetry_equiv_pos_site_id
 _symmetry_equiv_pos_as_xyz
  1  'x, y, z'
loop_
 _atom_site_type_symbol
 _atom_site_label
 _atom_site_symmetry_multiplicity
 _atom_site_fract_x
 _atom_site_fract_y
 _atom_site_fract_z
 _atom_site_occupancy
  Ga  Ga0  1  0.773252  0.495444  0.718745  1
  Ga  Ga1  1  0.726748  0.495444  0.218745  1
  Ga  Ga2  1  0.273252  0.504556  0.781255  1
  Ga  Ga3  1  0.226748  0.504556  0.281255  1
  Bi  Bi4  1  0.963222  0.192463  0.351169  1
  Bi  Bi5  1  0.536778  0.192463  0.851169  1
  Bi  Bi6  1  0.036778  0.807537  0.648831  1
  Bi  Bi7  1  0.463222  0.807537  0.148831  1
  Cl  Cl8  1  0.434515  0.999710  0.300876  1
  Cl  Cl9  1  0.902758  0.522654  0.180100  1
  Cl  Cl10  1  0.656016  0.700851  0.310409  1
  Cl  Cl11  1  0.127172  0.496464  0.447983  1
  Cl  Cl12  1  0.872828  0.503536  0.552017  1
  Cl  Cl13  1  0.065485  0.999710  0.800876  1
  Cl  Cl14  1  0.372828  0.496464  0.947983  1
  Cl  Cl15  1  0.097242  0.477346  0.819900  1
  Cl  Cl16  1  0.156016  0.299149  0.189591  1
  Cl  Cl17  1  0.402758  0.477346  0.319900  1
  Cl  Cl18  1  0.597242  0.522654  0.680100  1
  Cl  Cl19  1  0.627172  0.503536  0.052017  1
  Cl  Cl20  1  0.633488  0.987919  0.039984  1
  Cl  Cl21  1  0.719566  0.249512  0.339150  1
  Cl  Cl22  1  0.219566  0.750488  0.160850  1
  Cl  Cl23  1  0.366512  0.012081  0.960016  1
  Cl  Cl24  1  0.280434  0.750488  0.660850  1
  Cl  Cl25  1  0.934515  0.000290  0.199124  1
  Cl  Cl26  1  0.343984  0.299149  0.689591  1
  Cl  Cl27  1  0.780434  0.249512  0.839150  1
  Cl  Cl28  1  0.133488  0.012081  0.460016  1
  Cl  Cl29  1  0.843984  0.700851  0.810409  1
  Cl  Cl30  1  0.565485  0.000290  0.699124  1
  Cl  Cl31  1  0.866512  0.987919  0.539984  1
