# generated using pymatgen
data_Ti4TcGe3N
_symmetry_space_group_name_H-M   'P 1'
_cell_length_a   7.50087700
_cell_length_b   7.50087809
_cell_length_c   5.20507100
_cell_angle_alpha   90.00000000
_cell_angle_beta   90.00000000
_cell_angle_gamma   119.99999961
_symmetry_Int_Tables_number   1
_chemical_formula_structural   Ti4TcGe3N
_chemical_formula_sum   'Ti8 Tc2 Ge6 N2'
_cell_volume   253.61879928
_cell_formula_units_Z   2
loop_
 _symmetry_equiv_pos_site_id
 _symmetry_equiv_pos_as_xyz
  1  'x, y, z'
loop_
 _atom_site_type_symbol
 _atom_site_label
 _atom_site_symmetry_multiplicity
 _atom_site_fract_x
 _atom_site_fract_y
 _atom_site_fract_z
 _atom_site_occupancy
  Ti  Ti0  1  0.224625  0.000000  0.752079  1
  Ti  Ti1  1  0.775375  0.000000  0.247921  1
  Ti  Ti2  1  0.000000  0.224625  0.752079  1
  Ti  Ti3  1  0.000000  0.775375  0.247921  1
  Ti  Ti4  1  0.775375  0.775375  0.752079  1
  Ti  Ti5  1  0.224625  0.224625  0.247921  1
  Ti  Ti6  1  0.666667  0.333333  0.000000  1
  Ti  Ti7  1  0.333333  0.666667  0.000000  1
  Tc  Tc8  1  0.333333  0.666667  0.500000  1
  Tc  Tc9  1  0.666667  0.333333  0.500000  1
  Ge  Ge10  1  0.593268  0.000000  0.744641  1
  Ge  Ge11  1  0.406732  0.000000  0.255359  1
  Ge  Ge12  1  0.000000  0.593268  0.744641  1
  Ge  Ge13  1  0.000000  0.406732  0.255359  1
  Ge  Ge14  1  0.406732  0.406732  0.744641  1
  Ge  Ge15  1  0.593268  0.593268  0.255359  1
  N  N16  1  0.000000  0.000000  0.500000  1
  N  N17  1  0.000000  0.000000  0.000000  1
