# generated using pymatgen
data_La2Zn8PdPt3
_symmetry_space_group_name_H-M   'P 1'
_cell_length_a   7.71671000
_cell_length_b   7.71671097
_cell_length_c   4.22512900
_cell_angle_alpha   90.00000000
_cell_angle_beta   90.00000000
_cell_angle_gamma   89.47014442
_symmetry_Int_Tables_number   1
_chemical_formula_structural   La2Zn8PdPt3
_chemical_formula_sum   'La2 Zn8 Pd1 Pt3'
_cell_volume   251.58562077
_cell_formula_units_Z   1
loop_
 _symmetry_equiv_pos_site_id
 _symmetry_equiv_pos_as_xyz
  1  'x, y, z'
loop_
 _atom_site_type_symbol
 _atom_site_label
 _atom_site_symmetry_multiplicity
 _atom_site_fract_x
 _atom_site_fract_y
 _atom_site_fract_z
 _atom_site_occupancy
  La  La0  1  0.499319  0.500681  0.500000  1
  La  La1  1  0.001988  0.998012  0.000000  1
  Zn  Zn2  1  0.351748  0.091643  0.500000  1
  Zn  Zn3  1  0.651056  0.908804  0.500000  1
  Zn  Zn4  1  0.850241  0.407284  0.000000  1
  Zn  Zn5  1  0.149251  0.592621  0.000000  1
  Zn  Zn6  1  0.091196  0.348944  0.500000  1
  Zn  Zn7  1  0.908357  0.648252  0.500000  1
  Zn  Zn8  1  0.407379  0.850749  0.000000  1
  Zn  Zn9  1  0.592716  0.149759  0.000000  1
  Pd  Pd10  1  0.779822  0.220178  0.500000  1
  Pt  Pt11  1  0.217562  0.782438  0.500000  1
  Pt  Pt12  1  0.280751  0.281388  0.000000  1
  Pt  Pt13  1  0.718612  0.719249  0.000000  1
