# generated using pymatgen
data_Pr2CdIn7Ni2
_symmetry_space_group_name_H-M   'P 1'
_cell_length_a   8.78355925
_cell_length_b   8.78355859
_cell_length_c   7.17748852
_cell_angle_alpha   91.22564076
_cell_angle_beta   88.77435841
_cell_angle_gamma   150.05183637
_symmetry_Int_Tables_number   1
_chemical_formula_structural   Pr2CdIn7Ni2
_chemical_formula_sum   'Pr2 Cd1 In7 Ni2'
_cell_volume   276.37312423
_cell_formula_units_Z   1
loop_
 _symmetry_equiv_pos_site_id
 _symmetry_equiv_pos_as_xyz
  1  'x, y, z'
loop_
 _atom_site_type_symbol
 _atom_site_label
 _atom_site_symmetry_multiplicity
 _atom_site_fract_x
 _atom_site_fract_y
 _atom_site_fract_z
 _atom_site_occupancy
  Pr  Pr0  1  0.880862  0.119138  0.744375  1
  Pr  Pr1  1  0.119138  0.880862  0.255625  1
  Cd  Cd2  1  0.500000  0.500000  0.000000  1
  In  In3  1  0.500000  0.500000  0.500000  1
  In  In4  1  0.073713  0.926287  0.753981  1
  In  In5  1  0.926287  0.073713  0.246019  1
  In  In6  1  0.686670  0.313330  0.956753  1
  In  In7  1  0.313330  0.686670  0.043247  1
  In  In8  1  0.688398  0.311602  0.549219  1
  In  In9  1  0.311602  0.688398  0.450781  1
  Ni  Ni10  1  0.224443  0.775557  0.751786  1
  Ni  Ni11  1  0.775557  0.224443  0.248214  1
