# generated using pymatgen
data_TbTm7(SiI6)2
_symmetry_space_group_name_H-M   'P 1'
_cell_length_a   4.18053000
_cell_length_b   13.86449870
_cell_length_c   14.60122884
_cell_angle_alpha   89.81640510
_cell_angle_beta   90.00000000
_cell_angle_gamma   90.00000000
_symmetry_Int_Tables_number   1
_chemical_formula_structural   TbTm7(SiI6)2
_chemical_formula_sum   'Tb1 Tm7 Si2 I12'
_cell_volume   846.29679010
_cell_formula_units_Z   1
loop_
 _symmetry_equiv_pos_site_id
 _symmetry_equiv_pos_as_xyz
  1  'x, y, z'
loop_
 _atom_site_type_symbol
 _atom_site_label
 _atom_site_symmetry_multiplicity
 _atom_site_fract_x
 _atom_site_fract_y
 _atom_site_fract_z
 _atom_site_occupancy
  Tb  Tb0  1  0.000000  0.110332  0.575500  1
  Tm  Tm1  1  0.500000  0.113831  0.348129  1
  Tm  Tm2  1  0.500000  0.885237  0.651340  1
  Tm  Tm3  1  0.500000  0.614074  0.151198  1
  Tm  Tm4  1  0.500000  0.386342  0.849114  1
  Tm  Tm5  1  0.000000  0.890327  0.425017  1
  Tm  Tm6  1  0.000000  0.608427  0.926060  1
  Tm  Tm7  1  0.000000  0.391614  0.074236  1
  Si  Si8  1  0.500000  0.998674  0.499144  1
  Si  Si9  1  0.500000  0.500129  0.000314  1
  I  I10  1  0.500000  0.250448  0.164045  1
  I  I11  1  0.500000  0.748641  0.835363  1
  I  I12  1  0.500000  0.748978  0.334277  1
  I  I13  1  0.500000  0.254881  0.667066  1
  I  I14  1  0.000000  0.258820  0.412620  1
  I  I15  1  0.000000  0.741207  0.584073  1
  I  I16  1  0.000000  0.758062  0.083589  1
  I  I17  1  0.000000  0.242122  0.916801  1
  I  I18  1  0.000000  0.001822  0.239279  1
  I  I19  1  0.000000  0.994685  0.762204  1
  I  I20  1  0.000000  0.501650  0.259737  1
  I  I21  1  0.000000  0.499697  0.740893  1
