# generated using pymatgen
data_Yb2U2Ga20Pt11
_symmetry_space_group_name_H-M   'P 1'
_cell_length_a   4.16756743
_cell_length_b   10.91553460
_cell_length_c   13.92381657
_cell_angle_alpha   83.01342974
_cell_angle_beta   81.39693066
_cell_angle_gamma   78.99397366
_symmetry_Int_Tables_number   1
_chemical_formula_structural   Yb2U2Ga20Pt11
_chemical_formula_sum   'Yb2 U2 Ga20 Pt11'
_cell_volume   611.93183329
_cell_formula_units_Z   1
loop_
 _symmetry_equiv_pos_site_id
 _symmetry_equiv_pos_as_xyz
  1  'x, y, z'
loop_
 _atom_site_type_symbol
 _atom_site_label
 _atom_site_symmetry_multiplicity
 _atom_site_fract_x
 _atom_site_fract_y
 _atom_site_fract_z
 _atom_site_occupancy
  Yb  Yb0  1  0.123862  0.084369  0.667952  1
  Yb  Yb1  1  0.876138  0.915631  0.332048  1
  U  U2  1  0.774433  0.631407  0.819786  1
  U  U3  1  0.225567  0.368593  0.180214  1
  Ga  Ga4  1  0.010226  0.068740  0.910866  1
  Ga  Ga5  1  0.989774  0.931260  0.089134  1
  Ga  Ga6  1  0.063234  0.675513  0.198048  1
  Ga  Ga7  1  0.936766  0.324487  0.801952  1
  Ga  Ga8  1  0.101095  0.341951  0.455899  1
  Ga  Ga9  1  0.898905  0.658049  0.544101  1
  Ga  Ga10  1  0.200517  0.604997  0.994036  1
  Ga  Ga11  1  0.799483  0.395003  0.005964  1
  Ga  Ga12  1  0.256704  0.783623  0.702981  1
  Ga  Ga13  1  0.743296  0.216377  0.297019  1
  Ga  Ga14  1  0.300645  0.902395  0.496205  1
  Ga  Ga15  1  0.699355  0.097605  0.503795  1
  Ga  Ga16  1  0.387951  0.524118  0.700040  1
  Ga  Ga17  1  0.612049  0.475882  0.299960  1
  Ga  Ga18  1  0.397351  0.206482  0.998791  1
  Ga  Ga19  1  0.602649  0.793518  0.001209  1
  Ga  Ga20  1  0.545581  0.280685  0.628237  1
  Ga  Ga21  1  0.454419  0.719315  0.371763  1
  Ga  Ga22  1  0.635432  0.933876  0.795357  1
  Ga  Ga23  1  0.364568  0.066124  0.204643  1
  Pt  Pt24  1  0.500000  0.500000  0.500000  1
  Pt  Pt25  1  0.028845  0.572287  0.369988  1
  Pt  Pt26  1  0.971155  0.427713  0.630012  1
  Pt  Pt27  1  0.138365  0.830500  0.892801  1
  Pt  Pt28  1  0.861635  0.169500  0.107199  1
  Pt  Pt29  1  0.241527  0.127908  0.389073  1
  Pt  Pt30  1  0.758473  0.872092  0.610927  1
  Pt  Pt31  1  0.344725  0.420247  0.890284  1
  Pt  Pt32  1  0.655275  0.579753  0.109716  1
  Pt  Pt33  1  0.505640  0.169922  0.818807  1
  Pt  Pt34  1  0.494360  0.830078  0.181193  1
