# generated using pymatgen
data_Sc3B2Ir2RuRh2
_symmetry_space_group_name_H-M   'P 1'
_cell_length_a   9.58761700
_cell_length_b   9.58761700
_cell_length_c   3.06797400
_cell_angle_alpha   90.00000000
_cell_angle_beta   90.00000000
_cell_angle_gamma   90.00000000
_symmetry_Int_Tables_number   1
_chemical_formula_structural   Sc3B2Ir2RuRh2
_chemical_formula_sum   'Sc6 B4 Ir4 Ru2 Rh4'
_cell_volume   282.01553242
_cell_formula_units_Z   2
loop_
 _symmetry_equiv_pos_site_id
 _symmetry_equiv_pos_as_xyz
  1  'x, y, z'
loop_
 _atom_site_type_symbol
 _atom_site_label
 _atom_site_symmetry_multiplicity
 _atom_site_fract_x
 _atom_site_fract_y
 _atom_site_fract_z
 _atom_site_occupancy
  Sc  Sc0  1  0.827141  0.325413  0.000000  1
  Sc  Sc1  1  0.325413  0.172859  0.000000  1
  Sc  Sc2  1  0.674587  0.827141  0.000000  1
  Sc  Sc3  1  0.172859  0.674587  0.000000  1
  Sc  Sc4  1  0.000000  0.000000  0.000000  1
  Sc  Sc5  1  0.500000  0.500000  0.000000  1
  B  B6  1  0.620993  0.119993  0.000000  1
  B  B7  1  0.119993  0.379007  0.000000  1
  B  B8  1  0.880007  0.620993  0.000000  1
  B  B9  1  0.379007  0.880007  0.000000  1
  Ir  Ir10  1  0.073291  0.221873  0.500000  1
  Ir  Ir11  1  0.221873  0.926709  0.500000  1
  Ir  Ir12  1  0.778127  0.073291  0.500000  1
  Ir  Ir13  1  0.926709  0.778127  0.500000  1
  Ru  Ru14  1  0.500000  0.000000  0.500000  1
  Ru  Ru15  1  0.000000  0.500000  0.500000  1
  Rh  Rh16  1  0.427578  0.720845  0.500000  1
  Rh  Rh17  1  0.572422  0.279155  0.500000  1
  Rh  Rh18  1  0.720845  0.572422  0.500000  1
  Rh  Rh19  1  0.279155  0.427578  0.500000  1
