# generated using pymatgen
data_DyLu7(AgRh)2
_symmetry_space_group_name_H-M   'P 1'
_cell_length_a   9.35149846
_cell_length_b   9.36863931
_cell_length_c   9.33861793
_cell_angle_alpha   60.01373389
_cell_angle_beta   59.95436555
_cell_angle_gamma   60.06050408
_symmetry_Int_Tables_number   1
_chemical_formula_structural   DyLu7(AgRh)2
_chemical_formula_sum   'Dy2 Lu14 Ag4 Rh4'
_cell_volume   578.65332498
_cell_formula_units_Z   2
loop_
 _symmetry_equiv_pos_site_id
 _symmetry_equiv_pos_as_xyz
  1  'x, y, z'
loop_
 _atom_site_type_symbol
 _atom_site_label
 _atom_site_symmetry_multiplicity
 _atom_site_fract_x
 _atom_site_fract_y
 _atom_site_fract_z
 _atom_site_occupancy
  Dy  Dy0  1  0.935735  0.934485  0.565617  1
  Dy  Dy1  1  0.564164  0.934485  0.565617  1
  Lu  Lu2  1  0.564898  0.564088  0.936466  1
  Lu  Lu3  1  0.145989  0.562389  0.145634  1
  Lu  Lu4  1  0.686794  0.314706  0.311706  1
  Lu  Lu5  1  0.935871  0.563011  0.565248  1
  Lu  Lu6  1  0.934547  0.564088  0.936466  1
  Lu  Lu7  1  0.688067  0.687164  0.311637  1
  Lu  Lu8  1  0.563874  0.934429  0.937822  1
  Lu  Lu9  1  0.146461  0.146782  0.145477  1
  Lu  Lu10  1  0.313133  0.687164  0.311637  1
  Lu  Lu11  1  0.561281  0.146782  0.145477  1
  Lu  Lu12  1  0.312014  0.313616  0.687401  1
  Lu  Lu13  1  0.313474  0.685903  0.687150  1
  Lu  Lu14  1  0.146763  0.147420  0.559054  1
  Lu  Lu15  1  0.686970  0.313616  0.687401  1
  Ag  Ag16  1  0.917290  0.916887  0.919892  1
  Ag  Ag17  1  0.245930  0.916887  0.919892  1
  Ag  Ag18  1  0.918945  0.916183  0.245927  1
  Ag  Ag19  1  0.917627  0.246951  0.917793  1
  Rh  Rh20  1  0.355300  0.356631  0.932770  1
  Rh  Rh21  1  0.356233  0.357278  0.354627  1
  Rh  Rh22  1  0.931859  0.357278  0.354627  1
  Rh  Rh23  1  0.356779  0.931778  0.354664  1
