# generated using pymatgen
data_Li3Tl2Ag3F12
_symmetry_space_group_name_H-M   'P 1'
_cell_length_a   11.68284205
_cell_length_b   11.68284141
_cell_length_c   11.68284200
_cell_angle_alpha   109.47122339
_cell_angle_beta   109.47122229
_cell_angle_gamma   109.47121763
_symmetry_Int_Tables_number   1
_chemical_formula_structural   Li3Tl2Ag3F12
_chemical_formula_sum   'Li12 Tl8 Ag12 F48'
_cell_volume   1227.50590901
_cell_formula_units_Z   4
loop_
 _symmetry_equiv_pos_site_id
 _symmetry_equiv_pos_as_xyz
  1  'x, y, z'
loop_
 _atom_site_type_symbol
 _atom_site_label
 _atom_site_symmetry_multiplicity
 _atom_site_fract_x
 _atom_site_fract_y
 _atom_site_fract_z
 _atom_site_occupancy
  Li  Li0  1  0.875000  0.250000  0.125000  1
  Li  Li1  1  0.750000  0.875000  0.125000  1
  Li  Li2  1  0.625000  0.375000  0.250000  1
  Li  Li3  1  0.125000  0.875000  0.250000  1
  Li  Li4  1  0.250000  0.625000  0.375000  1
  Li  Li5  1  0.625000  0.750000  0.375000  1
  Li  Li6  1  0.375000  0.250000  0.625000  1
  Li  Li7  1  0.750000  0.375000  0.625000  1
  Li  Li8  1  0.875000  0.125000  0.750000  1
  Li  Li9  1  0.375000  0.625000  0.750000  1
  Li  Li10  1  0.250000  0.125000  0.875000  1
  Li  Li11  1  0.125000  0.750000  0.875000  1
  Tl  Tl12  1  0.000000  0.000000  0.000000  1
  Tl  Tl13  1  0.500000  0.000000  0.000000  1
  Tl  Tl14  1  0.000000  0.500000  0.000000  1
  Tl  Tl15  1  0.500000  0.500000  0.000000  1
  Tl  Tl16  1  0.000000  0.000000  0.500000  1
  Tl  Tl17  1  0.500000  0.000000  0.500000  1
  Tl  Tl18  1  0.000000  0.500000  0.500000  1
  Tl  Tl19  1  0.500000  0.500000  0.500000  1
  Ag  Ag20  1  0.250000  0.375000  0.125000  1
  Ag  Ag21  1  0.374999  0.750000  0.125000  1
  Ag  Ag22  1  0.375000  0.125000  0.250000  1
  Ag  Ag23  1  0.875000  0.625000  0.250000  1
  Ag  Ag24  1  0.750000  0.125000  0.374999  1
  Ag  Ag25  1  0.125000  0.250000  0.375000  1
  Ag  Ag26  1  0.875000  0.750000  0.625000  1
  Ag  Ag27  1  0.250000  0.875000  0.625000  1
  Ag  Ag28  1  0.125000  0.374999  0.750000  1
  Ag  Ag29  1  0.625000  0.875000  0.750000  1
  Ag  Ag30  1  0.625000  0.250000  0.875000  1
  Ag  Ag31  1  0.750000  0.625000  0.875000  1
  F  F32  1  0.315077  0.893647  0.016459  1
  F  F33  1  0.201382  0.122811  0.016459  1
  F  F34  1  0.701382  0.684922  0.078571  1
  F  F35  1  0.877188  0.393647  0.078571  1
  F  F36  1  0.622811  0.421429  0.106353  1
  F  F37  1  0.983541  0.684922  0.106353  1
  F  F38  1  0.606353  0.921429  0.122811  1
  F  F39  1  0.016459  0.201382  0.122811  1
  F  F40  1  0.201382  0.578570  0.184922  1
  F  F41  1  0.483541  0.606353  0.184922  1
  F  F42  1  0.578570  0.184922  0.201382  1
  F  F43  1  0.122811  0.016459  0.201382  1
  F  F44  1  0.483541  0.377188  0.298618  1
  F  F45  1  0.315077  0.921429  0.298618  1
  F  F46  1  0.893647  0.016459  0.315077  1
  F  F47  1  0.921429  0.298618  0.315077  1
  F  F48  1  0.298618  0.483541  0.377188  1
  F  F49  1  0.578570  0.893647  0.377188  1
  F  F50  1  0.815077  0.516458  0.393647  1
  F  F51  1  0.078571  0.877188  0.393647  1
  F  F52  1  0.106353  0.622811  0.421429  1
  F  F53  1  0.815077  0.798618  0.421429  1
  F  F54  1  0.606353  0.184922  0.483541  1
  F  F55  1  0.377188  0.298618  0.483541  1
  F  F56  1  0.622811  0.701382  0.516458  1
  F  F57  1  0.393647  0.815077  0.516458  1
  F  F58  1  0.184922  0.201382  0.578570  1
  F  F59  1  0.893647  0.377188  0.578570  1
  F  F60  1  0.921429  0.122811  0.606353  1
  F  F61  1  0.184922  0.483541  0.606353  1
  F  F62  1  0.421429  0.106353  0.622811  1
  F  F63  1  0.701382  0.516458  0.622811  1
  F  F64  1  0.078571  0.701382  0.684922  1
  F  F65  1  0.106353  0.983541  0.684922  1
  F  F66  1  0.684922  0.078571  0.701382  1
  F  F67  1  0.516458  0.622811  0.701382  1
  F  F68  1  0.421429  0.815077  0.798618  1
  F  F69  1  0.877188  0.983541  0.798618  1
  F  F70  1  0.516458  0.393647  0.815077  1
  F  F71  1  0.798618  0.421429  0.815077  1
  F  F72  1  0.393647  0.078571  0.877188  1
  F  F73  1  0.983541  0.798618  0.877188  1
  F  F74  1  0.016459  0.315077  0.893647  1
  F  F75  1  0.377188  0.578570  0.893647  1
  F  F76  1  0.122811  0.606353  0.921429  1
  F  F77  1  0.298618  0.315077  0.921429  1
  F  F78  1  0.684922  0.106353  0.983541  1
  F  F79  1  0.798618  0.877188  0.983541  1
