# generated using pymatgen
data_Dy4Y2Ga7Co16
_symmetry_space_group_name_H-M   'P 1'
_cell_length_a   8.47257753
_cell_length_b   8.47849805
_cell_length_c   8.47797900
_cell_angle_alpha   59.96083597
_cell_angle_beta   60.02586486
_cell_angle_gamma   60.02446940
_symmetry_Int_Tables_number   1
_chemical_formula_structural   Dy4Y2Ga7Co16
_chemical_formula_sum   'Dy4 Y2 Ga7 Co16'
_cell_volume   430.67346043
_cell_formula_units_Z   1
loop_
 _symmetry_equiv_pos_site_id
 _symmetry_equiv_pos_as_xyz
  1  'x, y, z'
loop_
 _atom_site_type_symbol
 _atom_site_label
 _atom_site_symmetry_multiplicity
 _atom_site_fract_x
 _atom_site_fract_y
 _atom_site_fract_z
 _atom_site_occupancy
  Dy  Dy0  1  0.720059  0.279741  0.280037  1
  Dy  Dy1  1  0.280206  0.279922  0.719986  1
  Dy  Dy2  1  0.719889  0.279903  0.720067  1
  Dy  Dy3  1  0.279895  0.719991  0.720231  1
  Y  Y4  1  0.718742  0.718699  0.281338  1
  Y  Y5  1  0.281283  0.718670  0.281280  1
  Ga  Ga6  1  0.999979  0.999928  0.000069  1
  Ga  Ga7  1  0.999928  0.000139  0.500157  1
  Ga  Ga8  1  0.499775  0.000172  0.500110  1
  Ga  Ga9  1  0.000026  0.499552  0.500378  1
  Ga  Ga10  1  0.500274  0.499847  0.999878  1
  Ga  Ga11  1  0.999974  0.499873  0.999889  1
  Ga  Ga12  1  0.500072  0.000139  0.999772  1
  Co  Co13  1  0.873136  0.874466  0.379204  1
  Co  Co14  1  0.873765  0.378497  0.873971  1
  Co  Co15  1  0.378833  0.874033  0.872941  1
  Co  Co16  1  0.874204  0.874022  0.873011  1
  Co  Co17  1  0.126273  0.126047  0.621435  1
  Co  Co18  1  0.126905  0.620535  0.125618  1
  Co  Co19  1  0.621047  0.127059  0.126047  1
  Co  Co20  1  0.125863  0.127076  0.126006  1
  Co  Co21  1  0.678998  0.679361  0.962607  1
  Co  Co22  1  0.678794  0.963509  0.678918  1
  Co  Co23  1  0.962784  0.679193  0.678917  1
  Co  Co24  1  0.679075  0.679158  0.678926  1
  Co  Co25  1  0.321189  0.320984  0.036685  1
  Co  Co26  1  0.320934  0.037448  0.320683  1
  Co  Co27  1  0.037176  0.321009  0.320924  1
  Co  Co28  1  0.320919  0.321023  0.320916  1
