# generated using pymatgen
data_Ba4Cd(BiO4)3
_symmetry_space_group_name_H-M   'P 1'
_cell_length_a   7.55746690
_cell_length_b   7.55746709
_cell_length_c   7.55746700
_cell_angle_alpha   109.47122308
_cell_angle_beta   109.47122357
_cell_angle_gamma   109.47121721
_symmetry_Int_Tables_number   1
_chemical_formula_structural   Ba4Cd(BiO4)3
_chemical_formula_sum   'Ba4 Cd1 Bi3 O12'
_cell_volume   332.28204663
_cell_formula_units_Z   1
loop_
 _symmetry_equiv_pos_site_id
 _symmetry_equiv_pos_as_xyz
  1  'x, y, z'
loop_
 _atom_site_type_symbol
 _atom_site_label
 _atom_site_symmetry_multiplicity
 _atom_site_fract_x
 _atom_site_fract_y
 _atom_site_fract_z
 _atom_site_occupancy
  Ba  Ba0  1  0.000000  0.500000  0.000000  1
  Ba  Ba1  1  0.500000  0.000000  0.000000  1
  Ba  Ba2  1  0.500000  0.500000  0.500000  1
  Ba  Ba3  1  0.000000  0.000000  0.500000  1
  Cd  Cd4  1  0.000000  0.000000  0.000000  1
  Bi  Bi5  1  0.500000  0.000000  0.500000  1
  Bi  Bi6  1  0.500000  0.500000  0.000000  1
  Bi  Bi7  1  0.000000  0.500000  0.500000  1
  O  O8  1  0.741632  0.741632  0.000000  1
  O  O9  1  0.250000  0.500000  0.750000  1
  O  O10  1  0.258368  0.000000  0.258368  1
  O  O11  1  0.500000  0.750000  0.250000  1
  O  O12  1  0.750000  0.250000  0.500000  1
  O  O13  1  0.750000  0.500000  0.250000  1
  O  O14  1  0.000000  0.741632  0.741632  1
  O  O15  1  0.000000  0.258368  0.258368  1
  O  O16  1  0.258368  0.258368  0.000000  1
  O  O17  1  0.250000  0.750000  0.500000  1
  O  O18  1  0.500000  0.250000  0.750000  1
  O  O19  1  0.741632  0.000000  0.741632  1
