# generated using pymatgen
data_La5Dy(BiO7)2
_symmetry_space_group_name_H-M   'P 1'
_cell_length_a   6.79500248
_cell_length_b   6.83066543
_cell_length_c   8.01970881
_cell_angle_alpha   106.92964760
_cell_angle_beta   89.89253568
_cell_angle_gamma   98.59571652
_symmetry_Int_Tables_number   1
_chemical_formula_structural   La5Dy(BiO7)2
_chemical_formula_sum   'La5 Dy1 Bi2 O14'
_cell_volume   351.75727391
_cell_formula_units_Z   1
loop_
 _symmetry_equiv_pos_site_id
 _symmetry_equiv_pos_as_xyz
  1  'x, y, z'
loop_
 _atom_site_type_symbol
 _atom_site_label
 _atom_site_symmetry_multiplicity
 _atom_site_fract_x
 _atom_site_fract_y
 _atom_site_fract_z
 _atom_site_occupancy
  La  La0  1  0.533221  0.996825  0.746350  1
  La  La1  1  0.266014  0.535910  0.884546  1
  La  La2  1  0.731873  0.468713  0.120584  1
  La  La3  1  0.741312  0.483512  0.616145  1
  La  La4  1  0.259082  0.513536  0.378798  1
  Dy  Dy5  1  0.462625  0.004089  0.253414  1
  Bi  Bi6  1  0.999726  0.000176  0.497124  1
  Bi  Bi7  1  0.998964  0.999910  0.003316  1
  O  O8  1  0.444205  0.656901  0.170596  1
  O  O9  1  0.559495  0.357708  0.834437  1
  O  O10  1  0.298212  0.932597  0.964066  1
  O  O11  1  0.703121  0.065383  0.054759  1
  O  O12  1  0.294505  0.929755  0.502555  1
  O  O13  1  0.706509  0.068149  0.477373  1
  O  O14  1  0.539580  0.351868  0.341224  1
  O  O15  1  0.452586  0.636944  0.653436  1
  O  O16  1  0.923313  0.673498  0.951423  1
  O  O17  1  0.076058  0.325882  0.048181  1
  O  O18  1  0.072245  0.333910  0.613853  1
  O  O19  1  0.923183  0.664510  0.387911  1
  O  O20  1  0.894687  0.921038  0.729495  1
  O  O21  1  0.119486  0.079183  0.270416  1
