# generated using pymatgen
data_Gd7Dy(C2Cl3)2
_symmetry_space_group_name_H-M   'P 1'
_cell_length_a   3.67502400
_cell_length_b   10.56618500
_cell_length_c   19.78919500
_cell_angle_alpha   90.00000000
_cell_angle_beta   90.00000000
_cell_angle_gamma   90.00000000
_symmetry_Int_Tables_number   1
_chemical_formula_structural   Gd7Dy(C2Cl3)2
_chemical_formula_sum   'Gd14 Dy2 C8 Cl12'
_cell_volume   768.43390380
_cell_formula_units_Z   2
loop_
 _symmetry_equiv_pos_site_id
 _symmetry_equiv_pos_as_xyz
  1  'x, y, z'
loop_
 _atom_site_type_symbol
 _atom_site_label
 _atom_site_symmetry_multiplicity
 _atom_site_fract_x
 _atom_site_fract_y
 _atom_site_fract_z
 _atom_site_occupancy
  Gd  Gd0  1  0.250000  0.139357  0.572209  1
  Gd  Gd1  1  0.250000  0.639357  0.927791  1
  Gd  Gd2  1  0.750000  0.861416  0.427869  1
  Gd  Gd3  1  0.750000  0.361416  0.072131  1
  Gd  Gd4  1  0.250000  0.637889  0.755282  1
  Gd  Gd5  1  0.250000  0.137889  0.744718  1
  Gd  Gd6  1  0.750000  0.362130  0.244400  1
  Gd  Gd7  1  0.750000  0.862130  0.255600  1
  Gd  Gd8  1  0.250000  0.100931  0.332963  1
  Gd  Gd9  1  0.250000  0.600931  0.167037  1
  Gd  Gd10  1  0.750000  0.898793  0.667108  1
  Gd  Gd11  1  0.750000  0.398793  0.832892  1
  Gd  Gd12  1  0.250000  0.123596  0.163804  1
  Gd  Gd13  1  0.250000  0.623596  0.336196  1
  Dy  Dy14  1  0.750000  0.875763  0.835759  1
  Dy  Dy15  1  0.750000  0.375763  0.664241  1
  C  C16  1  0.250000  0.863595  0.348357  1
  C  C17  1  0.250000  0.363595  0.151643  1
  C  C18  1  0.750000  0.137353  0.651821  1
  C  C19  1  0.750000  0.637353  0.848179  1
  C  C20  1  0.250000  0.387866  0.749569  1
  C  C21  1  0.250000  0.887866  0.750431  1
  C  C22  1  0.750000  0.611828  0.249795  1
  C  C23  1  0.750000  0.111828  0.250205  1
  Cl  Cl24  1  0.250000  0.377170  0.952389  1
  Cl  Cl25  1  0.250000  0.877170  0.547611  1
  Cl  Cl26  1  0.750000  0.623378  0.047304  1
  Cl  Cl27  1  0.750000  0.123378  0.452696  1
  Cl  Cl28  1  0.250000  0.889348  0.944057  1
  Cl  Cl29  1  0.250000  0.389348  0.555943  1
  Cl  Cl30  1  0.750000  0.111385  0.053987  1
  Cl  Cl31  1  0.750000  0.611385  0.446013  1
  Cl  Cl32  1  0.250000  0.360849  0.355228  1
  Cl  Cl33  1  0.250000  0.860849  0.144772  1
  Cl  Cl34  1  0.750000  0.637351  0.644736  1
  Cl  Cl35  1  0.750000  0.137351  0.855264  1
