# generated using pymatgen
data_Y7(HoRh3)2
_symmetry_space_group_name_H-M   'P 1'
_cell_length_a   7.42265246
_cell_length_b   7.42265340
_cell_length_c   7.42265500
_cell_angle_alpha   71.35215609
_cell_angle_beta   71.35215364
_cell_angle_gamma   71.35215028
_symmetry_Int_Tables_number   1
_chemical_formula_structural   Y7(HoRh3)2
_chemical_formula_sum   'Y7 Ho2 Rh6'
_cell_volume   356.20630042
_cell_formula_units_Z   1
loop_
 _symmetry_equiv_pos_site_id
 _symmetry_equiv_pos_as_xyz
  1  'x, y, z'
loop_
 _atom_site_type_symbol
 _atom_site_label
 _atom_site_symmetry_multiplicity
 _atom_site_fract_x
 _atom_site_fract_y
 _atom_site_fract_z
 _atom_site_occupancy
  Y  Y0  1  0.203278  0.203278  0.203278  1
  Y  Y1  1  0.158921  0.394458  0.666215  1
  Y  Y2  1  0.666215  0.158921  0.394458  1
  Y  Y3  1  0.394458  0.666215  0.158921  1
  Y  Y4  1  0.840148  0.605570  0.334169  1
  Y  Y5  1  0.334169  0.840148  0.605570  1
  Y  Y6  1  0.605570  0.334169  0.840148  1
  Ho  Ho7  1  0.000315  0.000315  0.000315  1
  Ho  Ho8  1  0.797507  0.797507  0.797507  1
  Rh  Rh9  1  0.955737  0.162503  0.593043  1
  Rh  Rh10  1  0.593043  0.955737  0.162503  1
  Rh  Rh11  1  0.162503  0.593043  0.955737  1
  Rh  Rh12  1  0.043765  0.834124  0.410245  1
  Rh  Rh13  1  0.410245  0.043765  0.834124  1
  Rh  Rh14  1  0.834124  0.410245  0.043765  1
