# generated using pymatgen
data_Fe2Sb12PdAu
_symmetry_space_group_name_H-M   'P 1'
_cell_length_a   8.09800235
_cell_length_b   8.08944794
_cell_length_c   9.40224402
_cell_angle_alpha   55.04912852
_cell_angle_beta   55.02365998
_cell_angle_gamma   70.51151990
_symmetry_Int_Tables_number   1
_chemical_formula_structural   Fe2Sb12PdAu
_chemical_formula_sum   'Fe2 Sb12 Pd1 Au1'
_cell_volume   413.64733550
_cell_formula_units_Z   1
loop_
 _symmetry_equiv_pos_site_id
 _symmetry_equiv_pos_as_xyz
  1  'x, y, z'
loop_
 _atom_site_type_symbol
 _atom_site_label
 _atom_site_symmetry_multiplicity
 _atom_site_fract_x
 _atom_site_fract_y
 _atom_site_fract_z
 _atom_site_occupancy
  Fe  Fe0  1  0.500000  0.000000  0.500000  1
  Fe  Fe1  1  0.000000  0.500000  0.500000  1
  Sb  Sb2  1  0.674147  0.674745  0.485791  1
  Sb  Sb3  1  0.325853  0.325255  0.514209  1
  Sb  Sb4  1  0.641401  0.652361  0.202952  1
  Sb  Sb5  1  0.358599  0.347639  0.797048  1
  Sb  Sb6  1  0.171303  0.860541  0.642249  1
  Sb  Sb7  1  0.828697  0.139459  0.357751  1
  Sb  Sb8  1  0.852551  0.168639  0.651185  1
  Sb  Sb9  1  0.147449  0.831361  0.348815  1
  Sb  Sb10  1  0.813146  0.494588  0.829654  1
  Sb  Sb11  1  0.186854  0.505412  0.170346  1
  Sb  Sb12  1  0.506894  0.179881  0.167562  1
  Sb  Sb13  1  0.493106  0.820119  0.832438  1
  Pd  Pd14  1  0.500000  0.000000  0.000000  1
  Au  Au15  1  0.000000  0.500000  0.000000  1
