# generated using pymatgen
data_Tm3Al3ZnNi2
_symmetry_space_group_name_H-M   'P 1'
_cell_length_a   7.05535900
_cell_length_b   7.05535864
_cell_length_c   3.81059800
_cell_angle_alpha   90.00000000
_cell_angle_beta   90.00000000
_cell_angle_gamma   119.99999700
_symmetry_Int_Tables_number   1
_chemical_formula_structural   Tm3Al3ZnNi2
_chemical_formula_sum   'Tm3 Al3 Zn1 Ni2'
_cell_volume   164.27141264
_cell_formula_units_Z   1
loop_
 _symmetry_equiv_pos_site_id
 _symmetry_equiv_pos_as_xyz
  1  'x, y, z'
loop_
 _atom_site_type_symbol
 _atom_site_label
 _atom_site_symmetry_multiplicity
 _atom_site_fract_x
 _atom_site_fract_y
 _atom_site_fract_z
 _atom_site_occupancy
  Tm  Tm0  1  0.984899  0.405162  0.500000  1
  Tm  Tm1  1  0.594838  0.579737  0.500000  1
  Tm  Tm2  1  0.420263  0.015101  0.500000  1
  Al  Al3  1  0.995417  0.762419  0.000000  1
  Al  Al4  1  0.237581  0.232998  0.000000  1
  Al  Al5  1  0.767002  0.004583  0.000000  1
  Zn  Zn6  1  0.333333  0.666667  0.000000  1
  Ni  Ni7  1  0.666667  0.333333  0.000000  1
  Ni  Ni8  1  0.000000  0.000000  0.500000  1
