# generated using pymatgen
data_Dy5Th7Ni12
_symmetry_space_group_name_H-M   'P 1'
_cell_length_a   4.31751100
_cell_length_b   5.53816729
_cell_length_c   20.80292350
_cell_angle_alpha   83.91377563
_cell_angle_beta   90.00000000
_cell_angle_gamma   90.00000000
_symmetry_Int_Tables_number   1
_chemical_formula_structural   Dy5Th7Ni12
_chemical_formula_sum   'Dy5 Th7 Ni12'
_cell_volume   494.61701700
_cell_formula_units_Z   1
loop_
 _symmetry_equiv_pos_site_id
 _symmetry_equiv_pos_as_xyz
  1  'x, y, z'
loop_
 _atom_site_type_symbol
 _atom_site_label
 _atom_site_symmetry_multiplicity
 _atom_site_fract_x
 _atom_site_fract_y
 _atom_site_fract_z
 _atom_site_occupancy
  Dy  Dy0  1  0.250000  0.667917  0.438583  1
  Dy  Dy1  1  0.750000  0.022680  0.728428  1
  Dy  Dy2  1  0.250000  0.975416  0.272120  1
  Dy  Dy3  1  0.750000  0.175935  0.893555  1
  Dy  Dy4  1  0.250000  0.823758  0.106687  1
  Th  Th5  1  0.750000  0.322171  0.061491  1
  Th  Th6  1  0.250000  0.677888  0.938818  1
  Th  Th7  1  0.750000  0.496718  0.227625  1
  Th  Th8  1  0.250000  0.500606  0.773122  1
  Th  Th9  1  0.750000  0.183279  0.393564  1
  Th  Th10  1  0.250000  0.817945  0.607037  1
  Th  Th11  1  0.750000  0.338864  0.559790  1
  Ni  Ni12  1  0.750000  0.847105  0.014214  1
  Ni  Ni13  1  0.250000  0.152684  0.986119  1
  Ni  Ni14  1  0.750000  0.020752  0.180307  1
  Ni  Ni15  1  0.250000  0.978269  0.819999  1
  Ni  Ni16  1  0.750000  0.705670  0.345516  1
  Ni  Ni17  1  0.250000  0.289242  0.653125  1
  Ni  Ni18  1  0.750000  0.859808  0.513459  1
  Ni  Ni19  1  0.250000  0.145535  0.485772  1
  Ni  Ni20  1  0.750000  0.544275  0.681264  1
  Ni  Ni21  1  0.250000  0.454886  0.319344  1
  Ni  Ni22  1  0.750000  0.692158  0.846899  1
  Ni  Ni23  1  0.250000  0.306439  0.153162  1
