# generated using pymatgen
data_LaTb6MnI12
_symmetry_space_group_name_H-M   'P 1'
_cell_length_a   9.93792083
_cell_length_b   9.73847137
_cell_length_c   9.92675860
_cell_angle_alpha   106.53216113
_cell_angle_beta   106.98447578
_cell_angle_gamma   107.43776805
_symmetry_Int_Tables_number   1
_chemical_formula_structural   LaTb6MnI12
_chemical_formula_sum   'La1 Tb6 Mn1 I12'
_cell_volume   800.38399036
_cell_formula_units_Z   1
loop_
 _symmetry_equiv_pos_site_id
 _symmetry_equiv_pos_as_xyz
  1  'x, y, z'
loop_
 _atom_site_type_symbol
 _atom_site_label
 _atom_site_symmetry_multiplicity
 _atom_site_fract_x
 _atom_site_fract_y
 _atom_site_fract_z
 _atom_site_occupancy
  La  La0  1  0.912626  0.728435  0.978557  1
  Tb  Tb1  1  0.976879  0.905673  0.704352  1
  Tb  Tb2  1  0.703457  0.975831  0.904236  1
  Tb  Tb3  1  0.089659  0.276247  0.022297  1
  Tb  Tb4  1  0.023138  0.095952  0.296398  1
  Tb  Tb5  1  0.297325  0.022004  0.095235  1
  Tb  Tb6  1  0.500625  0.501124  0.500244  1
  Mn  Mn7  1  0.992692  0.977742  0.999216  1
  I  I8  1  0.781074  0.317460  0.928405  1
  I  I9  1  0.929259  0.782296  0.330815  1
  I  I10  1  0.318658  0.928759  0.777004  1
  I  I11  1  0.237394  0.685559  0.077635  1
  I  I12  1  0.075362  0.229820  0.688589  1
  I  I13  1  0.682427  0.074228  0.223128  1
  I  I14  1  0.525500  0.612438  0.830037  1
  I  I15  1  0.834040  0.534572  0.602688  1
  I  I16  1  0.616133  0.842933  0.539050  1
  I  I17  1  0.457839  0.386725  0.160777  1
  I  I18  1  0.162443  0.462859  0.380516  1
  I  I19  1  0.383469  0.159343  0.460822  1
