# generated using pymatgen
data_Th3Al2HgRh3
_symmetry_space_group_name_H-M   'P 1'
_cell_length_a   7.39012639
_cell_length_b   7.56919422
_cell_length_c   4.02679800
_cell_angle_alpha   90.00000000
_cell_angle_beta   90.00000000
_cell_angle_gamma   120.80517288
_symmetry_Int_Tables_number   1
_chemical_formula_structural   Th3Al2HgRh3
_chemical_formula_sum   'Th3 Al2 Hg1 Rh3'
_cell_volume   193.46877035
_cell_formula_units_Z   1
loop_
 _symmetry_equiv_pos_site_id
 _symmetry_equiv_pos_as_xyz
  1  'x, y, z'
loop_
 _atom_site_type_symbol
 _atom_site_label
 _atom_site_symmetry_multiplicity
 _atom_site_fract_x
 _atom_site_fract_y
 _atom_site_fract_z
 _atom_site_occupancy
  Th  Th0  1  0.999999  0.411561  0.500000  1
  Th  Th1  1  0.583028  0.583221  0.500000  1
  Th  Th2  1  0.416974  0.000193  0.500000  1
  Al  Al3  1  0.237730  0.238991  0.000000  1
  Al  Al4  1  0.762270  0.001261  0.000000  1
  Hg  Hg5  1  0.999999  0.757874  0.000000  1
  Rh  Rh6  1  0.351255  0.659564  0.000000  1
  Rh  Rh7  1  0.648745  0.308309  0.000000  1
  Rh  Rh8  1  0.000000  0.039026  0.500000  1
