# generated using pymatgen
data_Yb3LuAl16(SiIr3)2
_symmetry_space_group_name_H-M   'P 1'
_cell_length_a   7.53537121
_cell_length_b   7.53826557
_cell_length_c   9.40626200
_cell_angle_alpha   90.00000000
_cell_angle_beta   90.00000000
_cell_angle_gamma   119.61654769
_symmetry_Int_Tables_number   1
_chemical_formula_structural   Yb3LuAl16(SiIr3)2
_chemical_formula_sum   'Yb3 Lu1 Al16 Si2 Ir6'
_cell_volume   464.50343762
_cell_formula_units_Z   1
loop_
 _symmetry_equiv_pos_site_id
 _symmetry_equiv_pos_as_xyz
  1  'x, y, z'
loop_
 _atom_site_type_symbol
 _atom_site_label
 _atom_site_symmetry_multiplicity
 _atom_site_fract_x
 _atom_site_fract_y
 _atom_site_fract_z
 _atom_site_occupancy
  Yb  Yb0  1  0.993644  0.677352  0.250000  1
  Yb  Yb1  1  0.004169  0.323644  0.750000  1
  Yb  Yb2  1  0.678324  0.994208  0.250000  1
  Lu  Lu3  1  0.321818  0.001735  0.750000  1
  Al  Al4  1  0.001271  0.336405  0.071741  1
  Al  Al5  1  0.999617  0.662851  0.924681  1
  Al  Al6  1  0.999617  0.662851  0.575319  1
  Al  Al7  1  0.336535  0.001386  0.427371  1
  Al  Al8  1  0.001271  0.336405  0.428259  1
  Al  Al9  1  0.663955  0.000552  0.575227  1
  Al  Al10  1  0.663955  0.000552  0.924773  1
  Al  Al11  1  0.336535  0.001386  0.072629  1
  Al  Al12  1  0.334265  0.334386  0.556687  1
  Al  Al13  1  0.664130  0.664297  0.452126  1
  Al  Al14  1  0.664130  0.664297  0.047874  1
  Al  Al15  1  0.334265  0.334386  0.943313  1
  Al  Al16  1  0.332998  0.545901  0.250000  1
  Al  Al17  1  0.662822  0.450963  0.750000  1
  Al  Al18  1  0.546068  0.333469  0.250000  1
  Al  Al19  1  0.453947  0.667959  0.750000  1
  Si  Si20  1  0.133251  0.134530  0.250000  1
  Si  Si21  1  0.871241  0.868956  0.750000  1
  Ir  Ir22  1  0.670204  0.328451  0.999030  1
  Ir  Ir23  1  0.329561  0.672102  0.998965  1
  Ir  Ir24  1  0.329561  0.672102  0.501035  1
  Ir  Ir25  1  0.670204  0.328451  0.500970  1
  Ir  Ir26  1  0.001322  0.000213  0.998040  1
  Ir  Ir27  1  0.001322  0.000213  0.501960  1
