# generated using pymatgen
data_Dy20Fe3NiBi8
_symmetry_space_group_name_H-M   'P 1'
_cell_length_a   7.99204195
_cell_length_b   8.94082400
_cell_length_c   12.40505692
_cell_angle_alpha   90.00000000
_cell_angle_beta   89.92653552
_cell_angle_gamma   90.00000000
_symmetry_Int_Tables_number   1
_chemical_formula_structural   Dy20Fe3NiBi8
_chemical_formula_sum   'Dy20 Fe3 Ni1 Bi8'
_cell_volume   886.40807750
_cell_formula_units_Z   1
loop_
 _symmetry_equiv_pos_site_id
 _symmetry_equiv_pos_as_xyz
  1  'x, y, z'
loop_
 _atom_site_type_symbol
 _atom_site_label
 _atom_site_symmetry_multiplicity
 _atom_site_fract_x
 _atom_site_fract_y
 _atom_site_fract_z
 _atom_site_occupancy
  Dy  Dy0  1  0.344341  0.750000  0.704657  1
  Dy  Dy1  1  0.652541  0.250000  0.299955  1
  Dy  Dy2  1  0.848250  0.250000  0.798537  1
  Dy  Dy3  1  0.150886  0.750000  0.198865  1
  Dy  Dy4  1  0.882967  0.750000  0.808954  1
  Dy  Dy5  1  0.113851  0.250000  0.189212  1
  Dy  Dy6  1  0.384450  0.250000  0.688395  1
  Dy  Dy7  1  0.619182  0.750000  0.308652  1
  Dy  Dy8  1  0.675923  0.532604  0.563777  1
  Dy  Dy9  1  0.323337  0.457032  0.436827  1
  Dy  Dy10  1  0.173501  0.466457  0.938678  1
  Dy  Dy11  1  0.323337  0.042968  0.436827  1
  Dy  Dy12  1  0.824405  0.539129  0.062224  1
  Dy  Dy13  1  0.675923  0.967396  0.563777  1
  Dy  Dy14  1  0.824405  0.960871  0.062224  1
  Dy  Dy15  1  0.173501  0.033543  0.938678  1
  Dy  Dy16  1  0.049426  0.750000  0.496251  1
  Dy  Dy17  1  0.948335  0.250000  0.503288  1
  Dy  Dy18  1  0.557668  0.250000  0.004852  1
  Dy  Dy19  1  0.447429  0.750000  0.996798  1
  Fe  Fe20  1  0.073994  0.750000  0.987591  1
  Fe  Fe21  1  0.929914  0.250000  0.008663  1
  Fe  Fe22  1  0.569726  0.250000  0.509308  1
  Ni  Ni23  1  0.432208  0.750000  0.491367  1
  Bi  Bi24  1  0.571859  0.507439  0.827422  1
  Bi  Bi25  1  0.427206  0.491493  0.173737  1
  Bi  Bi26  1  0.073257  0.491921  0.672865  1
  Bi  Bi27  1  0.427206  0.008507  0.173737  1
  Bi  Bi28  1  0.927927  0.508294  0.326795  1
  Bi  Bi29  1  0.571859  0.992561  0.827422  1
  Bi  Bi30  1  0.927927  0.991706  0.326795  1
  Bi  Bi31  1  0.073257  0.008079  0.672865  1
