# generated using pymatgen
data_U5P2O19
_symmetry_space_group_name_H-M   'P 1'
_cell_length_a   5.67562200
_cell_length_b   7.07008755
_cell_length_c   22.12293400
_cell_angle_alpha   83.90447674
_cell_angle_beta   90.00000000
_cell_angle_gamma   90.00000000
_symmetry_Int_Tables_number   1
_chemical_formula_structural   U5P2O19
_chemical_formula_sum   'U10 P4 O38'
_cell_volume   882.71115829
_cell_formula_units_Z   2
loop_
 _symmetry_equiv_pos_site_id
 _symmetry_equiv_pos_as_xyz
  1  'x, y, z'
loop_
 _atom_site_type_symbol
 _atom_site_label
 _atom_site_symmetry_multiplicity
 _atom_site_fract_x
 _atom_site_fract_y
 _atom_site_fract_z
 _atom_site_occupancy
  U  U0  1  0.258556  0.851972  0.958447  1
  U  U1  1  0.758556  0.148028  0.041553  1
  U  U2  1  0.245638  0.096558  0.691375  1
  U  U3  1  0.745638  0.903442  0.308625  1
  U  U4  1  0.247094  0.818978  0.537521  1
  U  U5  1  0.747094  0.181022  0.462479  1
  U  U6  1  0.246511  0.536380  0.382354  1
  U  U7  1  0.746511  0.463620  0.617646  1
  U  U8  1  0.261027  0.468555  0.112406  1
  U  U9  1  0.761027  0.531445  0.887594  1
  P  P10  1  0.272487  0.256685  0.840502  1
  P  P11  1  0.772487  0.743315  0.159498  1
  P  P12  1  0.234880  0.211946  0.262648  1
  P  P13  1  0.734880  0.788054  0.737352  1
  O  O14  1  0.050467  0.030197  0.008119  1
  O  O15  1  0.550467  0.969803  0.991881  1
  O  O16  1  0.254226  0.966733  0.611889  1
  O  O17  1  0.754226  0.033267  0.388111  1
  O  O18  1  0.223064  0.237707  0.772681  1
  O  O19  1  0.723064  0.762293  0.227319  1
  O  O20  1  0.255842  0.059807  0.877020  1
  O  O21  1  0.755842  0.940193  0.122980  1
  O  O22  1  0.043636  0.041745  0.492351  1
  O  O23  1  0.543636  0.958255  0.507649  1
  O  O24  1  0.043823  0.747293  0.336843  1
  O  O25  1  0.543823  0.252707  0.663157  1
  O  O26  1  0.536523  0.678565  0.353821  1
  O  O27  1  0.036523  0.321435  0.646179  1
  O  O28  1  0.752835  0.360931  0.966962  1
  O  O29  1  0.252835  0.639069  0.033038  1
  O  O30  1  0.785108  0.716231  0.804546  1
  O  O31  1  0.285108  0.283769  0.195454  1
  O  O32  1  0.747988  0.619835  0.699083  1
  O  O33  1  0.247988  0.380165  0.300917  1
  O  O34  1  0.742781  0.321393  0.536420  1
  O  O35  1  0.242781  0.678607  0.463580  1
  O  O36  1  0.461624  0.675569  0.911581  1
  O  O37  1  0.961624  0.324431  0.088419  1
  O  O38  1  0.964757  0.737379  0.928495  1
  O  O39  1  0.464757  0.262621  0.071505  1
  O  O40  1  0.523299  0.338186  0.845662  1
  O  O41  1  0.023299  0.661814  0.154338  1
  O  O42  1  0.085770  0.390795  0.863041  1
  O  O43  1  0.585770  0.609205  0.136959  1
  O  O44  1  0.924292  0.937756  0.716619  1
  O  O45  1  0.424292  0.062244  0.283381  1
  O  O46  1  0.486113  0.877774  0.733537  1
  O  O47  1  0.986113  0.122226  0.266463  1
  O  O48  1  0.457581  0.600343  0.587558  1
  O  O49  1  0.957581  0.399657  0.412442  1
  O  O50  1  0.948477  0.675825  0.571489  1
  O  O51  1  0.448477  0.324175  0.428511  1
