# generated using pymatgen
data_Tb3HoGa12Co
_symmetry_space_group_name_H-M   'P 1'
_cell_length_a   7.43829813
_cell_length_b   7.46019566
_cell_length_c   7.43829727
_cell_angle_alpha   109.53087090
_cell_angle_beta   109.41151142
_cell_angle_gamma   109.53086475
_symmetry_Int_Tables_number   1
_chemical_formula_structural   Tb3HoGa12Co
_chemical_formula_sum   'Tb3 Ho1 Ga12 Co1'
_cell_volume   317.50838120
_cell_formula_units_Z   1
loop_
 _symmetry_equiv_pos_site_id
 _symmetry_equiv_pos_as_xyz
  1  'x, y, z'
loop_
 _atom_site_type_symbol
 _atom_site_label
 _atom_site_symmetry_multiplicity
 _atom_site_fract_x
 _atom_site_fract_y
 _atom_site_fract_z
 _atom_site_occupancy
  Tb  Tb0  1  0.000000  0.000000  0.500000  1
  Tb  Tb1  1  0.500000  0.000000  0.000000  1
  Tb  Tb2  1  0.500000  0.500000  0.500000  1
  Ho  Ho3  1  0.000000  0.500000  0.000000  1
  Ga  Ga4  1  0.750303  0.250303  0.500607  1
  Ga  Ga5  1  0.750303  0.500000  0.249697  1
  Ga  Ga6  1  0.500607  0.250303  0.750303  1
  Ga  Ga7  1  0.249697  0.500000  0.750303  1
  Ga  Ga8  1  0.249697  0.749697  0.499393  1
  Ga  Ga9  1  0.499393  0.749697  0.249697  1
  Ga  Ga10  1  0.718022  0.717551  0.000000  1
  Ga  Ga11  1  0.281978  0.999529  0.281978  1
  Ga  Ga12  1  0.000000  0.282449  0.281978  1
  Ga  Ga13  1  0.281978  0.282449  0.000000  1
  Ga  Ga14  1  0.718022  0.000471  0.718022  1
  Ga  Ga15  1  0.000000  0.717551  0.718022  1
  Co  Co16  1  0.000000  0.000000  0.000000  1
