# generated using pymatgen
data_Er2AlCoRu
_symmetry_space_group_name_H-M   'P 1'
_cell_length_a   5.47146231
_cell_length_b   5.47146239
_cell_length_c   5.47146306
_cell_angle_alpha   136.97218336
_cell_angle_beta   118.57894341
_cell_angle_gamma   77.91330303
_symmetry_Int_Tables_number   1
_chemical_formula_structural   Er2AlCoRu
_chemical_formula_sum   'Er2 Al1 Co1 Ru1'
_cell_volume   95.42196565
_cell_formula_units_Z   1
loop_
 _symmetry_equiv_pos_site_id
 _symmetry_equiv_pos_as_xyz
  1  'x, y, z'
loop_
 _atom_site_type_symbol
 _atom_site_label
 _atom_site_symmetry_multiplicity
 _atom_site_fract_x
 _atom_site_fract_y
 _atom_site_fract_z
 _atom_site_occupancy
  Er  Er0  1  0.714177  0.207830  0.506347  1
  Er  Er1  1  0.298519  0.792171  0.506348  1
  Al  Al2  1  0.006237  0.000000  0.006237  1
  Co  Co3  1  0.271558  0.500000  0.771558  1
  Ru  Ru4  1  0.709509  0.500000  0.209509  1
