# generated using pymatgen
data_Nd6SnIrI6
_symmetry_space_group_name_H-M   'P 1'
_cell_length_a   10.99921990
_cell_length_b   10.99921970
_cell_length_c   10.92369100
_cell_angle_alpha   109.47446075
_cell_angle_beta   109.47445484
_cell_angle_gamma   109.74321913
_symmetry_Int_Tables_number   1
_chemical_formula_structural   Nd6SnIrI6
_chemical_formula_sum   'Nd12 Sn2 Ir2 I12'
_cell_volume   1013.83507230
_cell_formula_units_Z   2
loop_
 _symmetry_equiv_pos_site_id
 _symmetry_equiv_pos_as_xyz
  1  'x, y, z'
loop_
 _atom_site_type_symbol
 _atom_site_label
 _atom_site_symmetry_multiplicity
 _atom_site_fract_x
 _atom_site_fract_y
 _atom_site_fract_z
 _atom_site_occupancy
  Nd  Nd0  1  0.779161  0.248560  0.289562  1
  Nd  Nd1  1  0.472797  0.731715  0.998214  1
  Nd  Nd2  1  0.025416  0.266500  0.998214  1
  Nd  Nd3  1  0.258593  0.008591  0.017187  1
  Nd  Nd4  1  0.228110  0.271650  0.749760  1
  Nd  Nd5  1  0.251336  0.721130  0.210726  1
  Nd  Nd6  1  0.233291  0.474374  0.501756  1
  Nd  Nd7  1  0.459386  0.489593  0.210726  1
  Nd  Nd8  1  0.768463  0.027386  0.501754  1
  Nd  Nd9  1  0.491386  0.241381  0.482772  1
  Nd  Nd10  1  0.010394  0.041000  0.289555  1
  Nd  Nd11  1  0.021656  0.478112  0.749766  1
  Sn  Sn12  1  0.501481  0.998434  0.249968  1
  Sn  Sn13  1  0.248486  0.251534  0.249971  1
  Ir  Ir14  1  0.004734  0.254737  0.509475  1
  Ir  Ir15  1  0.245246  0.495246  0.990488  1
  I  I16  1  0.756250  0.743733  0.250014  1
  I  I17  1  0.508653  0.247576  0.997450  1
  I  I18  1  0.252425  0.991372  0.502558  1
  I  I19  1  0.523174  0.508651  0.757899  1
  I  I20  1  0.501808  0.751807  0.503614  1
  I  I21  1  0.750126  0.511188  0.502561  1
  I  I22  1  0.734732  0.249255  0.757907  1
  I  I23  1  0.250746  0.765266  0.742107  1
  I  I24  1  0.988801  0.749869  0.997447  1
  I  I25  1  0.993767  0.506283  0.250016  1
  I  I26  1  0.991364  0.976842  0.742105  1
  I  I27  1  0.748215  0.998216  0.996431  1
