# generated using pymatgen
data_Tb3DyAl4(NiRh)2
_symmetry_space_group_name_H-M   'P 1'
_cell_length_a   4.22730100
_cell_length_b   6.75675341
_cell_length_c   7.84403900
_cell_angle_alpha   90.27952856
_cell_angle_beta   90.00000000
_cell_angle_gamma   90.00000000
_symmetry_Int_Tables_number   1
_chemical_formula_structural   Tb3DyAl4(NiRh)2
_chemical_formula_sum   'Tb3 Dy1 Al4 Ni2 Rh2'
_cell_volume   224.04528965
_cell_formula_units_Z   1
loop_
 _symmetry_equiv_pos_site_id
 _symmetry_equiv_pos_as_xyz
  1  'x, y, z'
loop_
 _atom_site_type_symbol
 _atom_site_label
 _atom_site_symmetry_multiplicity
 _atom_site_fract_x
 _atom_site_fract_y
 _atom_site_fract_z
 _atom_site_occupancy
  Tb  Tb0  1  0.250000  0.966400  0.319443  1
  Tb  Tb1  1  0.750000  0.537887  0.826727  1
  Tb  Tb2  1  0.250000  0.465662  0.180673  1
  Dy  Dy3  1  0.750000  0.038068  0.673097  1
  Al  Al4  1  0.750000  0.632351  0.437315  1
  Al  Al5  1  0.750000  0.131417  0.062596  1
  Al  Al6  1  0.250000  0.361467  0.555122  1
  Al  Al7  1  0.250000  0.861294  0.945091  1
  Ni  Ni8  1  0.750000  0.768776  0.127941  1
  Ni  Ni9  1  0.750000  0.268834  0.373013  1
  Rh  Rh10  1  0.250000  0.232291  0.877310  1
  Rh  Rh11  1  0.250000  0.735553  0.621671  1
