# generated using pymatgen
data_K8Nb6O19
_symmetry_space_group_name_H-M   'P 1'
_cell_length_a   9.48257489
_cell_length_b   9.48257448
_cell_length_c   9.48257400
_cell_angle_alpha   118.42776536
_cell_angle_beta   118.42776379
_cell_angle_gamma   92.74547047
_symmetry_Int_Tables_number   1
_chemical_formula_structural   K8Nb6O19
_chemical_formula_sum   'K8 Nb6 O19'
_cell_volume   616.48818130
_cell_formula_units_Z   1
loop_
 _symmetry_equiv_pos_site_id
 _symmetry_equiv_pos_as_xyz
  1  'x, y, z'
loop_
 _atom_site_type_symbol
 _atom_site_label
 _atom_site_symmetry_multiplicity
 _atom_site_fract_x
 _atom_site_fract_y
 _atom_site_fract_z
 _atom_site_occupancy
  K  K0  1  0.623731  0.449349  0.356774  1
  K  K1  1  0.376269  0.550651  0.643226  1
  K  K2  1  0.092576  0.266956  0.643226  1
  K  K3  1  0.449349  0.092576  0.825618  1
  K  K4  1  0.907424  0.733044  0.356774  1
  K  K5  1  0.550651  0.907424  0.174382  1
  K  K6  1  0.266956  0.623731  0.174382  1
  K  K7  1  0.733044  0.376269  0.825618  1
  Nb  Nb8  1  0.178244  0.178244  0.000000  1
  Nb  Nb9  1  0.821756  0.821756  0.000000  1
  Nb  Nb10  1  0.226468  0.104680  0.331148  1
  Nb  Nb11  1  0.773532  0.895320  0.668852  1
  Nb  Nb12  1  0.104680  0.773532  0.878212  1
  Nb  Nb13  1  0.895320  0.226468  0.121788  1
  O  O14  1  0.092275  0.272524  0.364799  1
  O  O15  1  0.907725  0.727476  0.635201  1
  O  O16  1  0.272524  0.907725  0.180249  1
  O  O17  1  0.727476  0.092275  0.819751  1
  O  O18  1  0.336015  0.245344  0.277873  1
  O  O19  1  0.663985  0.754656  0.722127  1
  O  O20  1  0.967470  0.058142  0.722127  1
  O  O21  1  0.245344  0.967470  0.909329  1
  O  O22  1  0.032530  0.941858  0.277873  1
  O  O23  1  0.754656  0.032530  0.090671  1
  O  O24  1  0.058142  0.336015  0.090671  1
  O  O25  1  0.941858  0.663985  0.909329  1
  O  O26  1  0.386150  0.205140  0.591291  1
  O  O27  1  0.613850  0.794860  0.408709  1
  O  O28  1  0.205140  0.613850  0.818989  1
  O  O29  1  0.794860  0.386150  0.181011  1
  O  O30  1  0.318504  0.318504  0.000000  1
  O  O31  1  0.681496  0.681496  0.000000  1
  O  O32  1  0.000000  0.000000  0.000000  1
