# generated using pymatgen
data_Y6Th2MgZnCo2
_symmetry_space_group_name_H-M   'P 1'
_cell_length_a   9.56833319
_cell_length_b   9.56833197
_cell_length_c   9.57491900
_cell_angle_alpha   59.97722808
_cell_angle_beta   59.97723233
_cell_angle_gamma   60.21396740
_symmetry_Int_Tables_number   1
_chemical_formula_structural   Y6Th2MgZnCo2
_chemical_formula_sum   'Y12 Th4 Mg2 Zn2 Co4'
_cell_volume   620.64027716
_cell_formula_units_Z   2
loop_
 _symmetry_equiv_pos_site_id
 _symmetry_equiv_pos_as_xyz
  1  'x, y, z'
loop_
 _atom_site_type_symbol
 _atom_site_label
 _atom_site_symmetry_multiplicity
 _atom_site_fract_x
 _atom_site_fract_y
 _atom_site_fract_z
 _atom_site_occupancy
  Y  Y0  1  0.811824  0.187455  0.188261  1
  Y  Y1  1  0.187455  0.811824  0.812460  1
  Y  Y2  1  0.187455  0.811824  0.188261  1
  Y  Y3  1  0.811824  0.187455  0.812460  1
  Y  Y4  1  0.187936  0.187936  0.812064  1
  Y  Y5  1  0.810236  0.810236  0.189764  1
  Y  Y6  1  0.932428  0.562663  0.564872  1
  Y  Y7  1  0.562663  0.932428  0.940038  1
  Y  Y8  1  0.562663  0.932428  0.564872  1
  Y  Y9  1  0.932428  0.562663  0.940038  1
  Y  Y10  1  0.563294  0.563294  0.936706  1
  Y  Y11  1  0.935881  0.935881  0.564119  1
  Th  Th12  1  0.345366  0.345366  0.344825  1
  Th  Th13  1  0.345366  0.345366  0.964443  1
  Th  Th14  1  0.348032  0.960266  0.345852  1
  Th  Th15  1  0.960266  0.348032  0.345852  1
  Mg  Mg16  1  0.580464  0.271974  0.573780  1
  Mg  Mg17  1  0.271974  0.580464  0.573780  1
  Zn  Zn18  1  0.582771  0.582771  0.582289  1
  Zn  Zn19  1  0.582771  0.582771  0.252167  1
  Co  Co20  1  0.145143  0.145143  0.146318  1
  Co  Co21  1  0.145143  0.145143  0.563394  1
  Co  Co22  1  0.144250  0.562364  0.146693  1
  Co  Co23  1  0.562364  0.144250  0.146693  1
