# generated using pymatgen
data_CaYb3Sc4(B6Ir)4
_symmetry_space_group_name_H-M   'P 1'
_cell_length_a   3.54253700
_cell_length_b   8.98258705
_cell_length_c   11.36534806
_cell_angle_alpha   89.98836515
_cell_angle_beta   90.00000000
_cell_angle_gamma   90.00000000
_symmetry_Int_Tables_number   1
_chemical_formula_structural   CaYb3Sc4(B6Ir)4
_chemical_formula_sum   'Ca1 Yb3 Sc4 B24 Ir4'
_cell_volume   361.65840345
_cell_formula_units_Z   1
loop_
 _symmetry_equiv_pos_site_id
 _symmetry_equiv_pos_as_xyz
  1  'x, y, z'
loop_
 _atom_site_type_symbol
 _atom_site_label
 _atom_site_symmetry_multiplicity
 _atom_site_fract_x
 _atom_site_fract_y
 _atom_site_fract_z
 _atom_site_occupancy
  Ca  Ca0  1  0.500000  0.320941  0.414325  1
  Yb  Yb1  1  0.500000  0.678496  0.585913  1
  Yb  Yb2  1  0.500000  0.178431  0.914111  1
  Yb  Yb3  1  0.500000  0.821596  0.085896  1
  Sc  Sc4  1  0.500000  0.446012  0.124264  1
  Sc  Sc5  1  0.500000  0.554019  0.875608  1
  Sc  Sc6  1  0.500000  0.053852  0.624575  1
  Sc  Sc7  1  0.500000  0.945828  0.375519  1
  B  B8  1  0.000000  0.099766  0.473245  1
  B  B9  1  0.000000  0.899836  0.526884  1
  B  B10  1  0.000000  0.399817  0.973121  1
  B  B11  1  0.000000  0.600214  0.026854  1
  B  B12  1  0.000000  0.129720  0.318096  1
  B  B13  1  0.000000  0.869854  0.681671  1
  B  B14  1  0.000000  0.369834  0.818420  1
  B  B15  1  0.000000  0.630257  0.181547  1
  B  B16  1  0.000000  0.055263  0.066987  1
  B  B17  1  0.000000  0.944673  0.932919  1
  B  B18  1  0.000000  0.445093  0.567433  1
  B  B19  1  0.000000  0.555864  0.433050  1
  B  B20  1  0.000000  0.483095  0.285304  1
  B  B21  1  0.000000  0.517359  0.714428  1
  B  B22  1  0.000000  0.017241  0.785658  1
  B  B23  1  0.000000  0.982628  0.214344  1
  B  B24  1  0.000000  0.253025  0.080442  1
  B  B25  1  0.000000  0.747045  0.919442  1
  B  B26  1  0.000000  0.246880  0.580965  1
  B  B27  1  0.000000  0.753053  0.419466  1
  B  B28  1  0.000000  0.293672  0.234651  1
  B  B29  1  0.000000  0.706336  0.764917  1
  B  B30  1  0.000000  0.206255  0.735203  1
  B  B31  1  0.000000  0.793763  0.264801  1
  Ir  Ir32  1  0.500000  0.140137  0.181141  1
  Ir  Ir33  1  0.500000  0.859544  0.818452  1
  Ir  Ir34  1  0.500000  0.359617  0.682024  1
  Ir  Ir35  1  0.500000  0.640984  0.318322  1
