# generated using pymatgen
data_SmYHo2(Mo2O7)2
_symmetry_space_group_name_H-M   'P 1'
_cell_length_a   7.36135855
_cell_length_b   7.36135698
_cell_length_c   7.46772651
_cell_angle_alpha   59.95431043
_cell_angle_beta   59.95431749
_cell_angle_gamma   59.45599273
_symmetry_Int_Tables_number   1
_chemical_formula_structural   SmYHo2(Mo2O7)2
_chemical_formula_sum   'Sm1 Y1 Ho2 Mo4 O14'
_cell_volume   284.75677153
_cell_formula_units_Z   1
loop_
 _symmetry_equiv_pos_site_id
 _symmetry_equiv_pos_as_xyz
  1  'x, y, z'
loop_
 _atom_site_type_symbol
 _atom_site_label
 _atom_site_symmetry_multiplicity
 _atom_site_fract_x
 _atom_site_fract_y
 _atom_site_fract_z
 _atom_site_occupancy
  Sm  Sm0  1  0.125000  0.125000  0.625000  1
  Y  Y1  1  0.125000  0.125000  0.125000  1
  Ho  Ho2  1  0.625000  0.125000  0.125000  1
  Ho  Ho3  1  0.125000  0.625000  0.125000  1
  Mo  Mo4  1  0.625000  0.625000  0.625000  1
  Mo  Mo5  1  0.125000  0.625000  0.625000  1
  Mo  Mo6  1  0.625000  0.125000  0.625000  1
  Mo  Mo7  1  0.625000  0.625000  0.125000  1
  O  O8  1  0.287269  0.287269  0.716308  1
  O  O9  1  0.286023  0.709047  0.285950  1
  O  O10  1  0.963977  0.540953  0.964050  1
  O  O11  1  0.709047  0.286023  0.285950  1
  O  O12  1  0.000162  0.000162  0.003421  1
  O  O13  1  0.532475  0.532475  0.966149  1
  O  O14  1  0.286138  0.706657  0.719347  1
  O  O15  1  0.543343  0.963862  0.530653  1
  O  O16  1  0.540953  0.963977  0.964050  1
  O  O17  1  0.717525  0.717525  0.283851  1
  O  O18  1  0.249838  0.249838  0.246579  1
  O  O19  1  0.962731  0.962731  0.533692  1
  O  O20  1  0.963862  0.543343  0.530653  1
  O  O21  1  0.706657  0.286138  0.719347  1
