# generated using pymatgen
data_Ta5Ti7(BOs)12
_symmetry_space_group_name_H-M   'P 1'
_cell_length_a   3.09383900
_cell_length_b   8.98709547
_cell_length_c   15.52174126
_cell_angle_alpha   89.97777251
_cell_angle_beta   90.00000000
_cell_angle_gamma   90.00000000
_symmetry_Int_Tables_number   1
_chemical_formula_structural   Ta5Ti7(BOs)12
_chemical_formula_sum   'Ta5 Ti7 B12 Os12'
_cell_volume   431.57618547
_cell_formula_units_Z   1
loop_
 _symmetry_equiv_pos_site_id
 _symmetry_equiv_pos_as_xyz
  1  'x, y, z'
loop_
 _atom_site_type_symbol
 _atom_site_label
 _atom_site_symmetry_multiplicity
 _atom_site_fract_x
 _atom_site_fract_y
 _atom_site_fract_z
 _atom_site_occupancy
  Ta  Ta0  1  0.000000  0.983244  0.092614  1
  Ta  Ta1  1  0.000000  0.684735  0.205787  1
  Ta  Ta2  1  0.000000  0.315666  0.794626  1
  Ta  Ta3  1  0.000000  0.185820  0.296876  1
  Ta  Ta4  1  0.000000  0.815597  0.704170  1
  Ti  Ti5  1  0.000000  0.799301  0.495996  1
  Ti  Ti6  1  0.000000  0.200523  0.505302  1
  Ti  Ti7  1  0.000000  0.300553  0.004445  1
  Ti  Ti8  1  0.000000  0.698257  0.993808  1
  Ti  Ti9  1  0.000000  0.514884  0.594165  1
  Ti  Ti10  1  0.000000  0.484914  0.406743  1
  Ti  Ti11  1  0.000000  0.015347  0.904742  1
  B  B12  1  0.500000  0.603317  0.496051  1
  B  B13  1  0.500000  0.396603  0.504541  1
  B  B14  1  0.500000  0.105278  0.001687  1
  B  B15  1  0.500000  0.893855  0.993422  1
  B  B16  1  0.000000  0.610151  0.833707  1
  B  B17  1  0.000000  0.393506  0.166379  1
  B  B18  1  0.000000  0.110682  0.665102  1
  B  B19  1  0.000000  0.888630  0.337701  1
  B  B20  1  0.500000  0.711751  0.598746  1
  B  B21  1  0.500000  0.288376  0.402218  1
  B  B22  1  0.500000  0.212012  0.900773  1
  B  B23  1  0.500000  0.783142  0.097413  1
  Os  Os24  1  0.500000  0.716516  0.360047  1
  Os  Os25  1  0.500000  0.283455  0.640457  1
  Os  Os26  1  0.500000  0.219193  0.141429  1
  Os  Os27  1  0.500000  0.782978  0.858705  1
  Os  Os28  1  0.500000  0.520604  0.093579  1
  Os  Os29  1  0.500000  0.479332  0.906010  1
  Os  Os30  1  0.500000  0.020685  0.407345  1
  Os  Os31  1  0.500000  0.979675  0.593437  1
  Os  Os32  1  0.500000  0.566135  0.731031  1
  Os  Os33  1  0.500000  0.434712  0.269130  1
  Os  Os34  1  0.500000  0.066456  0.768135  1
  Os  Os35  1  0.500000  0.934118  0.233685  1
