# generated using pymatgen
data_Sm2ThCo2Sn7
_symmetry_space_group_name_H-M   'P 1'
_cell_length_a   13.74965132
_cell_length_b   13.74965224
_cell_length_c   4.54334700
_cell_angle_alpha   90.00000000
_cell_angle_beta   90.00000000
_cell_angle_gamma   160.28965095
_symmetry_Int_Tables_number   1
_chemical_formula_structural   Sm2ThCo2Sn7
_chemical_formula_sum   'Sm2 Th1 Co2 Sn7'
_cell_volume   289.68831327
_cell_formula_units_Z   1
loop_
 _symmetry_equiv_pos_site_id
 _symmetry_equiv_pos_as_xyz
  1  'x, y, z'
loop_
 _atom_site_type_symbol
 _atom_site_label
 _atom_site_symmetry_multiplicity
 _atom_site_fract_x
 _atom_site_fract_y
 _atom_site_fract_z
 _atom_site_occupancy
  Sm  Sm0  1  0.185595  0.814405  0.000000  1
  Sm  Sm1  1  0.814405  0.185595  0.000000  1
  Th  Th2  1  0.500000  0.500000  0.500000  1
  Co  Co3  1  0.372745  0.627255  0.500000  1
  Co  Co4  1  0.627255  0.372745  0.500000  1
  Sn  Sn5  1  0.090764  0.909236  0.500000  1
  Sn  Sn6  1  0.909236  0.090764  0.500000  1
  Sn  Sn7  1  0.281291  0.718709  0.500000  1
  Sn  Sn8  1  0.718709  0.281291  0.500000  1
  Sn  Sn9  1  0.000000  0.000000  0.000000  1
  Sn  Sn10  1  0.589223  0.410777  0.000000  1
  Sn  Sn11  1  0.410777  0.589223  0.000000  1
