# generated using pymatgen
data_Ho8In2IrPd
_symmetry_space_group_name_H-M   'P 1'
_cell_length_a   9.61978818
_cell_length_b   9.65697593
_cell_length_c   9.65697638
_cell_angle_alpha   60.32847277
_cell_angle_beta   60.12730821
_cell_angle_gamma   60.12730694
_symmetry_Int_Tables_number   1
_chemical_formula_structural   Ho8In2IrPd
_chemical_formula_sum   'Ho16 In4 Ir2 Pd2'
_cell_volume   637.14242439
_cell_formula_units_Z   2
loop_
 _symmetry_equiv_pos_site_id
 _symmetry_equiv_pos_as_xyz
  1  'x, y, z'
loop_
 _atom_site_type_symbol
 _atom_site_label
 _atom_site_symmetry_multiplicity
 _atom_site_fract_x
 _atom_site_fract_y
 _atom_site_fract_z
 _atom_site_occupancy
  Ho  Ho0  1  0.442882  0.434117  0.060806  1
  Ho  Ho1  1  0.649241  0.643448  0.058071  1
  Ho  Ho2  1  0.185733  0.807742  0.195083  1
  Ho  Ho3  1  0.062195  0.434117  0.060806  1
  Ho  Ho4  1  0.191487  0.808513  0.808513  1
  Ho  Ho5  1  0.064162  0.435838  0.435838  1
  Ho  Ho6  1  0.810239  0.189761  0.189761  1
  Ho  Ho7  1  0.656304  0.648786  0.648786  1
  Ho  Ho8  1  0.811442  0.195083  0.807742  1
  Ho  Ho9  1  0.185733  0.195083  0.807742  1
  Ho  Ho10  1  0.046126  0.648786  0.648786  1
  Ho  Ho11  1  0.437741  0.062259  0.062259  1
  Ho  Ho12  1  0.062195  0.060806  0.434117  1
  Ho  Ho13  1  0.649241  0.058071  0.643448  1
  Ho  Ho14  1  0.811442  0.807742  0.195083  1
  Ho  Ho15  1  0.442882  0.060806  0.434117  1
  In  In16  1  0.415648  0.417236  0.417236  1
  In  In17  1  0.416440  0.418561  0.748561  1
  In  In18  1  0.416440  0.748561  0.418561  1
  In  In19  1  0.749882  0.417236  0.417236  1
  Ir  Ir20  1  0.855142  0.427049  0.862666  1
  Ir  Ir21  1  0.855142  0.862666  0.427049  1
  Pd  Pd22  1  0.428858  0.858868  0.858868  1
  Pd  Pd23  1  0.853404  0.858868  0.858868  1
