# generated using pymatgen
data_Y2ErLu3FeSb2
_symmetry_space_group_name_H-M   'P 1'
_cell_length_a   8.09561466
_cell_length_b   8.07762176
_cell_length_c   4.14046900
_cell_angle_alpha   90.00000000
_cell_angle_beta   90.00000000
_cell_angle_gamma   119.92651759
_symmetry_Int_Tables_number   1
_chemical_formula_structural   Y2ErLu3FeSb2
_chemical_formula_sum   'Y2 Er1 Lu3 Fe1 Sb2'
_cell_volume   234.65759272
_cell_formula_units_Z   1
loop_
 _symmetry_equiv_pos_site_id
 _symmetry_equiv_pos_as_xyz
  1  'x, y, z'
loop_
 _atom_site_type_symbol
 _atom_site_label
 _atom_site_symmetry_multiplicity
 _atom_site_fract_x
 _atom_site_fract_y
 _atom_site_fract_z
 _atom_site_occupancy
  Y  Y0  1  0.395690  0.395702  0.500000  1
  Y  Y1  1  0.604310  0.000012  0.500000  1
  Er  Er2  1  0.000000  0.606588  0.500000  1
  Lu  Lu3  1  0.231806  0.999222  0.000000  1
  Lu  Lu4  1  0.768194  0.767416  0.000000  1
  Lu  Lu5  1  0.000000  0.232073  0.000000  1
  Fe  Fe6  1  0.000000  0.997995  0.500000  1
  Sb  Sb7  1  0.332192  0.666592  0.000000  1
  Sb  Sb8  1  0.667808  0.334400  0.000000  1
