# generated using pymatgen
data_K4MnCr2FeF14
_symmetry_space_group_name_H-M   'P 1'
_cell_length_a   7.78172397
_cell_length_b   7.78172397
_cell_length_c   7.81623674
_cell_angle_alpha   120.49653793
_cell_angle_beta   116.95542820
_cell_angle_gamma   92.00319116
_symmetry_Int_Tables_number   1
_chemical_formula_structural   K4MnCr2FeF14
_chemical_formula_sum   'K4 Mn1 Cr2 Fe1 F14'
_cell_volume   341.20493362
_cell_formula_units_Z   1
loop_
 _symmetry_equiv_pos_site_id
 _symmetry_equiv_pos_as_xyz
  1  'x, y, z'
loop_
 _atom_site_type_symbol
 _atom_site_label
 _atom_site_symmetry_multiplicity
 _atom_site_fract_x
 _atom_site_fract_y
 _atom_site_fract_z
 _atom_site_occupancy
  K  K0  1  0.500000  0.500000  0.000000  1
  K  K1  1  0.000000  0.000000  0.000000  1
  K  K2  1  0.000000  0.500000  0.000000  1
  K  K3  1  0.000000  0.000000  0.500000  1
  Mn  Mn4  1  0.500000  0.000000  0.000000  1
  Cr  Cr5  1  0.000000  0.500000  0.500000  1
  Cr  Cr6  1  0.500000  0.000000  0.500000  1
  Fe  Fe7  1  0.500000  0.500000  0.500000  1
  F  F8  1  0.876439  0.585272  0.290908  1
  F  F9  1  0.205636  0.914469  0.290908  1
  F  F10  1  0.182118  0.796532  0.753922  1
  F  F11  1  0.457191  0.701940  0.390033  1
  F  F12  1  0.457389  0.071803  0.753922  1
  F  F13  1  0.188092  0.432842  0.390033  1
  F  F14  1  0.811908  0.567158  0.609967  1
  F  F15  1  0.542611  0.928197  0.246078  1
  F  F16  1  0.542809  0.298060  0.609967  1
  F  F17  1  0.817882  0.203468  0.246078  1
  F  F18  1  0.391067  0.251537  0.142603  1
  F  F19  1  0.123561  0.414728  0.709092  1
  F  F20  1  0.794364  0.085531  0.709092  1
  F  F21  1  0.608933  0.748463  0.857397  1
