# generated using pymatgen
data_Tm10Al5PC8
_symmetry_space_group_name_H-M   'P 1'
_cell_length_a   10.62212000
_cell_length_b   10.62212000
_cell_length_c   3.47751800
_cell_angle_alpha   90.00000000
_cell_angle_beta   90.00000000
_cell_angle_gamma   90.00000000
_symmetry_Int_Tables_number   1
_chemical_formula_structural   Tm10Al5PC8
_chemical_formula_sum   'Tm10 Al5 P1 C8'
_cell_volume   392.36638521
_cell_formula_units_Z   1
loop_
 _symmetry_equiv_pos_site_id
 _symmetry_equiv_pos_as_xyz
  1  'x, y, z'
loop_
 _atom_site_type_symbol
 _atom_site_label
 _atom_site_symmetry_multiplicity
 _atom_site_fract_x
 _atom_site_fract_y
 _atom_site_fract_z
 _atom_site_occupancy
  Tm  Tm0  1  0.548033  0.723047  0.500000  1
  Tm  Tm1  1  0.451967  0.276953  0.500000  1
  Tm  Tm2  1  0.053046  0.768297  0.500000  1
  Tm  Tm3  1  0.946954  0.231703  0.500000  1
  Tm  Tm4  1  0.276953  0.548033  0.500000  1
  Tm  Tm5  1  0.723047  0.451967  0.500000  1
  Tm  Tm6  1  0.231703  0.053046  0.500000  1
  Tm  Tm7  1  0.768297  0.946954  0.500000  1
  Tm  Tm8  1  0.500000  0.000000  0.000000  1
  Tm  Tm9  1  0.000000  0.500000  0.000000  1
  Al  Al10  1  0.710514  0.194412  0.000000  1
  Al  Al11  1  0.289486  0.805588  0.000000  1
  Al  Al12  1  0.194412  0.289486  0.000000  1
  Al  Al13  1  0.805588  0.710514  0.000000  1
  Al  Al14  1  0.000000  0.000000  0.000000  1
  P  P15  1  0.500000  0.500000  0.000000  1
  C  C16  1  0.627611  0.131491  0.500000  1
  C  C17  1  0.372389  0.868509  0.500000  1
  C  C18  1  0.131491  0.372389  0.500000  1
  C  C19  1  0.868509  0.627611  0.500000  1
  C  C20  1  0.167585  0.658363  0.000000  1
  C  C21  1  0.832415  0.341637  0.000000  1
  C  C22  1  0.658363  0.832415  0.000000  1
  C  C23  1  0.341637  0.167585  0.000000  1
