# generated using pymatgen
data_TmPaNi2Pb
_symmetry_space_group_name_H-M   'P 1'
_cell_length_a   7.33233607
_cell_length_b   7.33233621
_cell_length_c   3.48893700
_cell_angle_alpha   90.00000000
_cell_angle_beta   90.00000000
_cell_angle_gamma   146.68786228
_symmetry_Int_Tables_number   1
_chemical_formula_structural   TmPaNi2Pb
_chemical_formula_sum   'Tm1 Pa1 Ni2 Pb1'
_cell_volume   103.01685382
_cell_formula_units_Z   1
loop_
 _symmetry_equiv_pos_site_id
 _symmetry_equiv_pos_as_xyz
  1  'x, y, z'
loop_
 _atom_site_type_symbol
 _atom_site_label
 _atom_site_symmetry_multiplicity
 _atom_site_fract_x
 _atom_site_fract_y
 _atom_site_fract_z
 _atom_site_occupancy
  Tm  Tm0  1  0.361254  0.638746  0.500000  1
  Pa  Pa1  1  0.649653  0.350347  0.500000  1
  Ni  Ni2  1  0.797078  0.202922  0.000000  1
  Ni  Ni3  1  0.194897  0.805103  0.000000  1
  Pb  Pb4  1  0.997118  0.002882  0.000000  1
