# generated using pymatgen
data_Tm3Fe4P6Rh5
_symmetry_space_group_name_H-M   'P 1'
_cell_length_a   3.75444300
_cell_length_b   11.00514000
_cell_length_c   12.34890000
_cell_angle_alpha   90.00000000
_cell_angle_beta   90.00000000
_cell_angle_gamma   90.00000000
_symmetry_Int_Tables_number   1
_chemical_formula_structural   Tm3Fe4P6Rh5
_chemical_formula_sum   'Tm6 Fe8 P12 Rh10'
_cell_volume   510.23395985
_cell_formula_units_Z   2
loop_
 _symmetry_equiv_pos_site_id
 _symmetry_equiv_pos_as_xyz
  1  'x, y, z'
loop_
 _atom_site_type_symbol
 _atom_site_label
 _atom_site_symmetry_multiplicity
 _atom_site_fract_x
 _atom_site_fract_y
 _atom_site_fract_z
 _atom_site_occupancy
  Tm  Tm0  1  0.000000  0.500000  0.520880  1
  Tm  Tm1  1  0.500000  0.000000  0.475043  1
  Tm  Tm2  1  0.500000  0.821350  0.197483  1
  Tm  Tm3  1  0.500000  0.178650  0.197483  1
  Tm  Tm4  1  0.000000  0.677431  0.804389  1
  Tm  Tm5  1  0.000000  0.322569  0.804389  1
  Fe  Fe6  1  0.000000  0.500000  0.992540  1
  Fe  Fe7  1  0.500000  0.000000  0.008843  1
  Fe  Fe8  1  0.500000  0.334353  0.995368  1
  Fe  Fe9  1  0.500000  0.665647  0.995368  1
  Fe  Fe10  1  0.000000  0.165776  0.006045  1
  Fe  Fe11  1  0.000000  0.834224  0.006045  1
  Fe  Fe12  1  0.500000  0.296435  0.428546  1
  Fe  Fe13  1  0.500000  0.703565  0.428546  1
  P  P14  1  0.500000  0.500000  0.893889  1
  P  P15  1  0.000000  0.000000  0.107671  1
  P  P16  1  0.500000  0.500000  0.352137  1
  P  P17  1  0.000000  0.000000  0.652750  1
  P  P18  1  0.500000  0.317053  0.612076  1
  P  P19  1  0.500000  0.682947  0.612076  1
  P  P20  1  0.000000  0.192965  0.379989  1
  P  P21  1  0.000000  0.807035  0.379989  1
  P  P22  1  0.500000  0.838553  0.906590  1
  P  P23  1  0.500000  0.161447  0.906590  1
  P  P24  1  0.000000  0.660810  0.095092  1
  P  P25  1  0.000000  0.339190  0.095092  1
  Rh  Rh26  1  0.500000  0.500000  0.155408  1
  Rh  Rh27  1  0.000000  0.000000  0.845472  1
  Rh  Rh28  1  0.500000  0.500000  0.704072  1
  Rh  Rh29  1  0.000000  0.000000  0.298178  1
  Rh  Rh30  1  0.000000  0.205749  0.569589  1
  Rh  Rh31  1  0.000000  0.794251  0.569589  1
  Rh  Rh32  1  0.500000  0.872855  0.717246  1
  Rh  Rh33  1  0.500000  0.127145  0.717246  1
  Rh  Rh34  1  0.000000  0.625721  0.284144  1
  Rh  Rh35  1  0.000000  0.374279  0.284144  1
