# generated using pymatgen
data_Tm11LuCd2Fe3
_symmetry_space_group_name_H-M   'P 1'
_cell_length_a   8.19455258
_cell_length_b   8.19673409
_cell_length_c   8.19455224
_cell_angle_alpha   108.27906058
_cell_angle_beta   108.27382585
_cell_angle_gamma   111.87686614
_symmetry_Int_Tables_number   1
_chemical_formula_structural   Tm11LuCd2Fe3
_chemical_formula_sum   'Tm11 Lu1 Cd2 Fe3'
_cell_volume   423.20420934
_cell_formula_units_Z   1
loop_
 _symmetry_equiv_pos_site_id
 _symmetry_equiv_pos_as_xyz
  1  'x, y, z'
loop_
 _atom_site_type_symbol
 _atom_site_label
 _atom_site_symmetry_multiplicity
 _atom_site_fract_x
 _atom_site_fract_y
 _atom_site_fract_z
 _atom_site_occupancy
  Tm  Tm0  1  0.809690  0.572783  0.763093  1
  Tm  Tm1  1  0.190319  0.953470  0.763150  1
  Tm  Tm2  1  0.953685  0.190490  0.763446  1
  Tm  Tm3  1  0.809866  0.046717  0.236852  1
  Tm  Tm4  1  0.046555  0.809528  0.236853  1
  Tm  Tm5  1  0.427044  0.190490  0.236806  1
  Tm  Tm6  1  0.572675  0.809528  0.762972  1
  Tm  Tm7  1  0.307910  0.308034  0.615834  1
  Tm  Tm8  1  0.691803  0.691934  0.384021  1
  Tm  Tm9  1  0.692198  0.308034  0.000124  1
  Tm  Tm10  1  0.307914  0.691934  0.000131  1
  Lu  Lu11  1  0.190220  0.426897  0.236677  1
  Cd  Cd12  1  0.000143  0.499983  0.499840  1
  Cd  Cd13  1  0.499991  0.999978  0.499987  1
  Fe  Fe14  1  0.382719  0.382790  0.000072  1
  Fe  Fe15  1  0.617148  0.617158  0.000010  1
  Fe  Fe16  1  0.000121  0.000252  0.000131  1
