# generated using pymatgen
data_Zr6Sc7Al9Ir7
_symmetry_space_group_name_H-M   'P 1'
_cell_length_a   9.07932133
_cell_length_b   9.07932072
_cell_length_c   9.07932075
_cell_angle_alpha   59.52931207
_cell_angle_beta   59.52931681
_cell_angle_gamma   59.52931646
_symmetry_Int_Tables_number   1
_chemical_formula_structural   Zr6Sc7Al9Ir7
_chemical_formula_sum   'Zr6 Sc7 Al9 Ir7'
_cell_volume   523.56657798
_cell_formula_units_Z   1
loop_
 _symmetry_equiv_pos_site_id
 _symmetry_equiv_pos_as_xyz
  1  'x, y, z'
loop_
 _atom_site_type_symbol
 _atom_site_label
 _atom_site_symmetry_multiplicity
 _atom_site_fract_x
 _atom_site_fract_y
 _atom_site_fract_z
 _atom_site_occupancy
  Zr  Zr0  1  0.677317  0.677317  0.325111  1
  Zr  Zr1  1  0.318172  0.687142  0.318172  1
  Zr  Zr2  1  0.687142  0.318172  0.318172  1
  Zr  Zr3  1  0.318172  0.318172  0.687142  1
  Zr  Zr4  1  0.677317  0.325111  0.677317  1
  Zr  Zr5  1  0.325111  0.677317  0.677317  1
  Sc  Sc6  1  0.880292  0.880292  0.365365  1
  Sc  Sc7  1  0.880292  0.365365  0.880292  1
  Sc  Sc8  1  0.365365  0.880292  0.880292  1
  Sc  Sc9  1  0.876987  0.876987  0.876987  1
  Sc  Sc10  1  0.121854  0.121854  0.631920  1
  Sc  Sc11  1  0.121854  0.631920  0.121854  1
  Sc  Sc12  1  0.631920  0.121854  0.121854  1
  Al  Al13  1  0.120176  0.120176  0.120176  1
  Al  Al14  1  0.661516  0.661516  0.015750  1
  Al  Al15  1  0.661516  0.015750  0.661516  1
  Al  Al16  1  0.015750  0.661516  0.661516  1
  Al  Al17  1  0.662427  0.662427  0.662427  1
  Al  Al18  1  0.333733  0.333733  0.989517  1
  Al  Al19  1  0.333733  0.989517  0.333733  1
  Al  Al20  1  0.989517  0.333733  0.333733  1
  Al  Al21  1  0.340732  0.340732  0.340732  1
  Ir  Ir22  1  0.001926  0.001926  0.001926  1
  Ir  Ir23  1  0.000697  0.000697  0.497140  1
  Ir  Ir24  1  0.499902  0.998837  0.499902  1
  Ir  Ir25  1  0.998837  0.499902  0.499902  1
  Ir  Ir26  1  0.499902  0.499902  0.998837  1
  Ir  Ir27  1  0.000697  0.497140  0.000697  1
  Ir  Ir28  1  0.497140  0.000697  0.000697  1
