# generated using pymatgen
data_DyHo3Sc4(B6Ir)4
_symmetry_space_group_name_H-M   'P 1'
_cell_length_a   3.54534700
_cell_length_b   9.01083700
_cell_length_c   11.37714800
_cell_angle_alpha   90.00277107
_cell_angle_beta   90.00000000
_cell_angle_gamma   90.00000000
_symmetry_Int_Tables_number   1
_chemical_formula_structural   DyHo3Sc4(B6Ir)4
_chemical_formula_sum   'Dy1 Ho3 Sc4 B24 Ir4'
_cell_volume   363.46055812
_cell_formula_units_Z   1
loop_
 _symmetry_equiv_pos_site_id
 _symmetry_equiv_pos_as_xyz
  1  'x, y, z'
loop_
 _atom_site_type_symbol
 _atom_site_label
 _atom_site_symmetry_multiplicity
 _atom_site_fract_x
 _atom_site_fract_y
 _atom_site_fract_z
 _atom_site_occupancy
  Dy  Dy0  1  0.500000  0.319939  0.414036  1
  Ho  Ho1  1  0.500000  0.680150  0.585992  1
  Ho  Ho2  1  0.500000  0.180161  0.914015  1
  Ho  Ho3  1  0.500000  0.819832  0.085960  1
  Sc  Sc4  1  0.500000  0.445162  0.124192  1
  Sc  Sc5  1  0.500000  0.554853  0.875799  1
  Sc  Sc6  1  0.500000  0.054817  0.624229  1
  Sc  Sc7  1  0.500000  0.945103  0.375797  1
  B  B8  1  0.000000  0.100302  0.472881  1
  B  B9  1  0.000000  0.899526  0.527181  1
  B  B10  1  0.000000  0.399524  0.972809  1
  B  B11  1  0.000000  0.600480  0.027171  1
  B  B12  1  0.000000  0.129904  0.318425  1
  B  B13  1  0.000000  0.869961  0.681481  1
  B  B14  1  0.000000  0.369953  0.818529  1
  B  B15  1  0.000000  0.630043  0.181481  1
  B  B16  1  0.000000  0.054629  0.065524  1
  B  B17  1  0.000000  0.945370  0.934473  1
  B  B18  1  0.000000  0.445460  0.565636  1
  B  B19  1  0.000000  0.554743  0.434472  1
  B  B20  1  0.000000  0.481753  0.285075  1
  B  B21  1  0.000000  0.518397  0.714847  1
  B  B22  1  0.000000  0.018384  0.785146  1
  B  B23  1  0.000000  0.981615  0.214850  1
  B  B24  1  0.000000  0.253939  0.080035  1
  B  B25  1  0.000000  0.746052  0.919963  1
  B  B26  1  0.000000  0.245999  0.580176  1
  B  B27  1  0.000000  0.753946  0.419967  1
  B  B28  1  0.000000  0.295726  0.235403  1
  B  B29  1  0.000000  0.704218  0.764456  1
  B  B30  1  0.000000  0.204212  0.735562  1
  B  B31  1  0.000000  0.795775  0.264447  1
  Ir  Ir32  1  0.500000  0.141311  0.181270  1
  Ir  Ir33  1  0.500000  0.858624  0.818670  1
  Ir  Ir34  1  0.500000  0.358624  0.681450  1
  Ir  Ir35  1  0.500000  0.641514  0.318599  1
